# generated using pymatgen
data_Li3Fe2F9
_symmetry_space_group_name_H-M   'P 1'
_cell_length_a   5.19663528
_cell_length_b   5.19640244
_cell_length_c   14.82706028
_cell_angle_alpha   90.01389476
_cell_angle_beta   89.98162392
_cell_angle_gamma   120.00315652
_symmetry_Int_Tables_number   1
_chemical_formula_structural   Li3Fe2F9
_chemical_formula_sum   'Li6 Fe4 F18'
_cell_volume   346.73434459
_cell_formula_units_Z   2
loop_
 _symmetry_equiv_pos_site_id
 _symmetry_equiv_pos_as_xyz
  1  'x, y, z'
loop_
 _atom_site_type_symbol
 _atom_site_label
 _atom_site_symmetry_multiplicity
 _atom_site_fract_x
 _atom_site_fract_y
 _atom_site_fract_z
 _atom_site_occupancy
  Li  Li0  1  0.333310  0.666668  0.479205  1
  Li  Li1  1  0.333328  0.666576  0.249967  1
  Li  Li2  1  0.333356  0.666625  0.020785  1
  Li  Li3  1  0.666439  0.333472  0.979218  1
  Li  Li4  1  0.666900  0.333361  0.520784  1
  Li  Li5  1  0.666619  0.333343  0.749998  1
  Fe  Fe6  1  0.000001  0.999883  0.149968  1
  Fe  Fe7  1  0.000065  0.999967  0.350034  1
  Fe  Fe8  1  0.000137  0.000023  0.649968  1
  Fe  Fe9  1  0.999805  0.000111  0.850041  1
  F  F10  1  0.987533  0.716619  0.750022  1
  F  F11  1  0.308142  0.976872  0.088619  1
  F  F12  1  0.307980  0.976884  0.411430  1
  F  F13  1  0.023217  0.331024  0.088621  1
  F  F14  1  0.023100  0.331095  0.411409  1
  F  F15  1  0.283377  0.271042  0.749997  1
  F  F16  1  0.271003  0.283345  0.249977  1
  F  F17  1  0.331376  0.023216  0.588612  1
  F  F18  1  0.330770  0.023189  0.911449  1
  F  F19  1  0.668855  0.692061  0.411402  1
  F  F20  1  0.669017  0.691982  0.088512  1
  F  F21  1  0.728942  0.012462  0.749993  1
  F  F22  1  0.692277  0.668974  0.588546  1
  F  F23  1  0.691709  0.669023  0.911406  1
  F  F24  1  0.012420  0.728910  0.249999  1
  F  F25  1  0.976637  0.308097  0.911447  1
  F  F26  1  0.977175  0.308039  0.588568  1
  F  F27  1  0.716611  0.987439  0.250021  1
