# generated using pymatgen
data_Li3MnV(PO4)3
_symmetry_space_group_name_H-M   'P 1'
_cell_length_a   9.92081024
_cell_length_b   9.83178093
_cell_length_c   9.87281942
_cell_angle_alpha   87.57706243
_cell_angle_beta   85.77918687
_cell_angle_gamma   87.70494055
_symmetry_Int_Tables_number   1
_chemical_formula_structural   Li3MnV(PO4)3
_chemical_formula_sum   'Li12 Mn4 V4 P12 O48'
_cell_volume   958.85741469
_cell_formula_units_Z   4
loop_
 _symmetry_equiv_pos_site_id
 _symmetry_equiv_pos_as_xyz
  1  'x, y, z'
loop_
 _atom_site_type_symbol
 _atom_site_label
 _atom_site_symmetry_multiplicity
 _atom_site_fract_x
 _atom_site_fract_y
 _atom_site_fract_z
 _atom_site_occupancy
  Li  Li0  1  0.996976  0.048759  0.983343  1
  Li  Li1  1  0.058480  0.731581  0.147107  1
  Li  Li2  1  0.130868  0.077653  0.737650  1
  Li  Li3  1  0.229794  0.564852  0.639823  1
  Li  Li4  1  0.267128  0.855228  0.942927  1
  Li  Li5  1  0.366748  0.767455  0.414969  1
  Li  Li6  1  0.436235  0.366541  0.758028  1
  Li  Li7  1  0.498782  0.520305  0.447365  1
  Li  Li8  1  0.645635  0.235570  0.556196  1
  Li  Li9  1  0.777090  0.460503  0.343325  1
  Li  Li10  1  0.736785  0.144750  0.047263  1
  Li  Li11  1  0.850559  0.939108  0.261981  1
  Mn  Mn12  1  0.472121  0.024771  0.243106  1
  Mn  Mn13  1  0.763734  0.527066  0.974718  1
  Mn  Mn14  1  0.745145  0.744885  0.753786  1
  Mn  Mn15  1  0.968988  0.750788  0.533853  1
  V  V16  1  0.037602  0.252501  0.474613  1
  V  V17  1  0.255506  0.247834  0.251705  1
  V  V18  1  0.255118  0.464834  0.036836  1
  V  V19  1  0.533473  0.962959  0.744344  1
  P  P20  1  0.053638  0.662326  0.864127  1
  P  P21  1  0.139547  0.949820  0.333658  1
  P  P22  1  0.174480  0.550378  0.354622  1
  P  P23  1  0.327672  0.144142  0.952486  1
  P  P24  1  0.356497  0.166495  0.546235  1
  P  P25  1  0.446567  0.648653  0.824126  1
  P  P26  1  0.553354  0.354034  0.173409  1
  P  P27  1  0.641609  0.824330  0.446303  1
  P  P28  1  0.672249  0.849151  0.045797  1
  P  P29  1  0.828818  0.451480  0.648868  1
  P  P30  1  0.851677  0.045981  0.678894  1
  P  P31  1  0.955506  0.321512  0.161841  1
  O  O32  1  0.034874  0.616985  0.401948  1
  O  O33  1  0.047099  0.906248  0.227493  1
  O  O34  1  0.115858  0.326471  0.128121  1
  O  O35  1  0.122966  0.111903  0.337946  1
  O  O36  1  0.090521  0.687715  0.710782  1
  O  O37  1  0.094845  0.888318  0.477724  1
  O  O38  1  0.093798  0.777217  0.952666  1
  O  O39  1  0.119625  0.525319  0.910813  1
  O  O40  1  0.173900  0.390146  0.381069  1
  O  O41  1  0.194112  0.586867  0.200193  1
  O  O42  1  0.201529  0.192143  0.584619  1
  O  O43  1  0.206673  0.064267  0.913238  1
  O  O44  1  0.333004  0.118228  0.112583  1
  O  O45  1  0.286041  0.597062  0.439704  1
  O  O46  1  0.289488  0.909221  0.303357  1
  O  O47  1  0.319737  0.299628  0.916060  1
  O  O48  1  0.380985  0.161466  0.384305  1
  O  O49  1  0.392148  0.380843  0.171436  1
  O  O50  1  0.396637  0.028243  0.610621  1
  O  O51  1  0.379090  0.607031  0.964711  1
  O  O52  1  0.399152  0.559575  0.714457  1
  O  O53  1  0.444098  0.280615  0.588291  1
  O  O54  1  0.409560  0.803869  0.801819  1
  O  O55  1  0.460445  0.085997  0.885301  1
  O  O56  1  0.529092  0.893625  0.109259  1
  O  O57  1  0.585517  0.199067  0.171833  1
  O  O58  1  0.596631  0.419650  0.299245  1
  O  O59  1  0.553146  0.709357  0.412380  1
  O  O60  1  0.617934  0.413975  0.036572  1
  O  O61  1  0.595932  0.963272  0.375215  1
  O  O62  1  0.604852  0.625132  0.825214  1
  O  O63  1  0.620208  0.840628  0.605515  1
  O  O64  1  0.696315  0.085551  0.693972  1
  O  O65  1  0.701685  0.698934  0.079893  1
  O  O66  1  0.722619  0.409080  0.554876  1
  O  O67  1  0.666231  0.872737  0.883239  1
  O  O68  1  0.778269  0.946468  0.086168  1
  O  O69  1  0.796688  0.416681  0.800657  1
  O  O70  1  0.794027  0.805158  0.406541  1
  O  O71  1  0.837171  0.615805  0.625387  1
  O  O72  1  0.886025  0.459641  0.123197  1
  O  O73  1  0.908526  0.200656  0.088872  1
  O  O74  1  0.903047  0.114445  0.543137  1
  O  O75  1  0.922849  0.307009  0.319696  1
  O  O76  1  0.871089  0.882819  0.666645  1
  O  O77  1  0.933724  0.082026  0.796186  1
  O  O78  1  0.893799  0.652403  0.886378  1
  O  O79  1  0.970062  0.390998  0.600626  1
