# generated using pymatgen
data_Cs2HfO3
_symmetry_space_group_name_H-M   'P 1'
_cell_length_a   7.20583513
_cell_length_b   15.19509461
_cell_length_c   18.00862394
_cell_angle_alpha   90.00000000
_cell_angle_beta   83.97918244
_cell_angle_gamma   90.00000000
_symmetry_Int_Tables_number   1
_chemical_formula_structural   Cs2HfO3
_chemical_formula_sum   'Cs24 Hf12 O36'
_cell_volume   1960.94762272
_cell_formula_units_Z   12
loop_
 _symmetry_equiv_pos_site_id
 _symmetry_equiv_pos_as_xyz
  1  'x, y, z'
loop_
 _atom_site_type_symbol
 _atom_site_label
 _atom_site_symmetry_multiplicity
 _atom_site_fract_x
 _atom_site_fract_y
 _atom_site_fract_z
 _atom_site_occupancy
  Cs  Cs0  1  0.062936  0.510271  0.283239  1
  Cs  Cs1  1  0.039756  0.349757  0.506705  1
  Cs  Cs2  1  0.240706  0.586939  0.030113  1
  Cs  Cs3  1  0.080059  0.110138  0.916135  1
  Cs  Cs4  1  0.173661  0.190764  0.692387  1
  Cs  Cs5  1  0.259294  0.086939  0.469887  1
  Cs  Cs6  1  0.250381  0.876071  0.633076  1
  Cs  Cs7  1  0.249619  0.376071  0.866924  1
  Cs  Cs8  1  0.437064  0.010271  0.216761  1
  Cs  Cs9  1  0.326339  0.690764  0.807613  1
  Cs  Cs10  1  0.539756  0.150243  0.006705  1
  Cs  Cs11  1  0.419941  0.610138  0.583865  1
  Cs  Cs12  1  0.580059  0.389862  0.416135  1
  Cs  Cs13  1  0.460244  0.849757  0.993295  1
  Cs  Cs14  1  0.673661  0.309236  0.192387  1
  Cs  Cs15  1  0.562936  0.989729  0.783239  1
  Cs  Cs16  1  0.750381  0.623929  0.133076  1
  Cs  Cs17  1  0.749619  0.123929  0.366924  1
  Cs  Cs18  1  0.740706  0.913061  0.530113  1
  Cs  Cs19  1  0.826339  0.809236  0.307613  1
  Cs  Cs20  1  0.919941  0.889862  0.083865  1
  Cs  Cs21  1  0.759294  0.413061  0.969887  1
  Cs  Cs22  1  0.960244  0.650243  0.493295  1
  Cs  Cs23  1  0.937064  0.489729  0.716761  1
  Hf  Hf24  1  0.025592  0.125831  0.133285  1
  Hf  Hf25  1  0.173723  0.352218  0.102467  1
  Hf  Hf26  1  0.180445  0.253837  0.286792  1
  Hf  Hf27  1  0.319555  0.753837  0.213208  1
  Hf  Hf28  1  0.326277  0.852218  0.397533  1
  Hf  Hf29  1  0.474408  0.625831  0.366715  1
  Hf  Hf30  1  0.525592  0.374169  0.633285  1
  Hf  Hf31  1  0.673723  0.147782  0.602467  1
  Hf  Hf32  1  0.680445  0.246163  0.786792  1
  Hf  Hf33  1  0.819555  0.746163  0.713208  1
  Hf  Hf34  1  0.826277  0.647782  0.897533  1
  Hf  Hf35  1  0.974408  0.874169  0.866715  1
  O  O36  1  0.991101  0.445159  0.107092  1
  O  O37  1  0.045680  0.240390  0.077423  1
  O  O38  1  0.094984  0.144239  0.237896  1
  O  O39  1  0.032387  0.696850  0.652923  1
  O  O40  1  0.107228  0.728848  0.160268  1
  O  O41  1  0.195532  0.043214  0.081426  1
  O  O42  1  0.115525  0.873672  0.469656  1
  O  O43  1  0.263106  0.338463  0.204151  1
  O  O44  1  0.236894  0.838463  0.295849  1
  O  O45  1  0.384475  0.373672  0.030344  1
  O  O46  1  0.229226  0.911800  0.862926  1
  O  O47  1  0.304468  0.543214  0.418574  1
  O  O48  1  0.392772  0.228848  0.339732  1
  O  O49  1  0.270774  0.411800  0.637074  1
  O  O50  1  0.405016  0.644239  0.262104  1
  O  O51  1  0.454320  0.740390  0.422577  1
  O  O52  1  0.532387  0.803150  0.152923  1
  O  O53  1  0.508899  0.945159  0.392908  1
  O  O54  1  0.491101  0.054841  0.607092  1
  O  O55  1  0.467613  0.196850  0.847077  1
  O  O56  1  0.545680  0.259610  0.577423  1
  O  O57  1  0.594984  0.355761  0.737896  1
  O  O58  1  0.729226  0.588200  0.362926  1
  O  O59  1  0.607228  0.771152  0.660268  1
  O  O60  1  0.695532  0.456786  0.581426  1
  O  O61  1  0.770774  0.088200  0.137074  1
  O  O62  1  0.615525  0.626328  0.969656  1
  O  O63  1  0.763106  0.161537  0.704151  1
  O  O64  1  0.736894  0.661537  0.795849  1
  O  O65  1  0.884475  0.126328  0.530344  1
  O  O66  1  0.804468  0.956786  0.918574  1
  O  O67  1  0.892772  0.271152  0.839732  1
  O  O68  1  0.967613  0.303150  0.347077  1
  O  O69  1  0.905016  0.855761  0.762104  1
  O  O70  1  0.954320  0.759610  0.922577  1
  O  O71  1  0.008899  0.554841  0.892908  1
