# generated using pymatgen
data_HoHO2
_symmetry_space_group_name_H-M   'P 1'
_cell_length_a   4.96319245
_cell_length_b   11.08569136
_cell_length_c   3.52717941
_cell_angle_alpha   90.00000000
_cell_angle_beta   90.00000000
_cell_angle_gamma   90.00000000
_symmetry_Int_Tables_number   1
_chemical_formula_structural   HoHO2
_chemical_formula_sum   'Ho4 H4 O8'
_cell_volume   194.06689136
_cell_formula_units_Z   4
loop_
 _symmetry_equiv_pos_site_id
 _symmetry_equiv_pos_as_xyz
  1  'x, y, z'
loop_
 _atom_site_type_symbol
 _atom_site_label
 _atom_site_symmetry_multiplicity
 _atom_site_fract_x
 _atom_site_fract_y
 _atom_site_fract_z
 _atom_site_occupancy
  Ho  Ho0  1  0.068103  0.854871  0.250000  1
  Ho  Ho1  1  0.431897  0.354871  0.250000  1
  Ho  Ho2  1  0.568103  0.645129  0.750000  1
  Ho  Ho3  1  0.931897  0.145129  0.750000  1
  H  H4  1  0.110070  0.587627  0.250000  1
  H  H5  1  0.389930  0.087627  0.250000  1
  H  H6  1  0.610070  0.912373  0.750000  1
  H  H7  1  0.889930  0.412373  0.750000  1
  O  O8  1  0.199244  0.059378  0.250000  1
  O  O9  1  0.188458  0.306632  0.750000  1
  O  O10  1  0.311542  0.806632  0.750000  1
  O  O11  1  0.300756  0.559378  0.250000  1
  O  O12  1  0.699244  0.440622  0.750000  1
  O  O13  1  0.688458  0.193368  0.250000  1
  O  O14  1  0.811542  0.693368  0.250000  1
  O  O15  1  0.800756  0.940622  0.750000  1
