# generated using pymatgen
data_Li6V3W3O16
_symmetry_space_group_name_H-M   'P 1'
_cell_length_a   6.07480711
_cell_length_b   6.09818360
_cell_length_c   10.11696540
_cell_angle_alpha   89.87405109
_cell_angle_beta   90.98440006
_cell_angle_gamma   120.20412642
_symmetry_Int_Tables_number   1
_chemical_formula_structural   Li6V3W3O16
_chemical_formula_sum   'Li6 V3 W3 O16'
_cell_volume   323.84762521
_cell_formula_units_Z   1
loop_
 _symmetry_equiv_pos_site_id
 _symmetry_equiv_pos_as_xyz
  1  'x, y, z'
loop_
 _atom_site_type_symbol
 _atom_site_label
 _atom_site_symmetry_multiplicity
 _atom_site_fract_x
 _atom_site_fract_y
 _atom_site_fract_z
 _atom_site_occupancy
  Li  Li0  1  0.329998  0.662282  0.515062  1
  Li  Li1  1  0.331448  0.668189  0.887745  1
  Li  Li2  1  0.990843  0.994781  0.996512  1
  Li  Li3  1  0.985817  0.990546  0.500448  1
  Li  Li4  1  0.658570  0.330457  0.008465  1
  Li  Li5  1  0.666515  0.334057  0.395445  1
  V  V6  1  0.666884  0.833733  0.213565  1
  V  V7  1  0.837127  0.664552  0.714307  1
  V  V8  1  0.832777  0.167508  0.714466  1
  W  W9  1  0.172153  0.831005  0.215617  1
  W  W10  1  0.171415  0.340797  0.215559  1
  W  W11  1  0.342180  0.172023  0.714987  1
  O  O12  1  0.163886  0.857695  0.608033  1
  O  O13  1  0.024467  0.511625  0.329368  1
  O  O14  1  0.324029  0.662589  0.098569  1
  O  O15  1  0.013095  0.006196  0.321123  1
  O  O16  1  0.021266  0.003125  0.817675  1
  O  O17  1  0.157765  0.302059  0.609056  1
  O  O18  1  0.483347  0.975440  0.319245  1
  O  O19  1  0.482779  0.507637  0.318794  1
  O  O20  1  0.306040  0.153666  0.102876  1
  O  O21  1  0.700058  0.833850  0.616556  1
  O  O22  1  0.503646  0.477450  0.820345  1
  O  O23  1  0.507901  0.029382  0.820354  1
  O  O24  1  0.646139  0.330513  0.602856  1
  O  O25  1  0.855274  0.694842  0.109379  1
  O  O26  1  0.968931  0.502873  0.813094  1
  O  O27  1  0.855654  0.161430  0.108341  1
