# generated using pymatgen
data_V3O5F
_symmetry_space_group_name_H-M   'P 1'
_cell_length_a   7.09795388
_cell_length_b   5.54126518
_cell_length_c   5.52305269
_cell_angle_alpha   74.68903575
_cell_angle_beta   72.55067144
_cell_angle_gamma   72.68521903
_symmetry_Int_Tables_number   1
_chemical_formula_structural   V3O5F
_chemical_formula_sum   'V6 O10 F2'
_cell_volume   194.16463737
_cell_formula_units_Z   2
loop_
 _symmetry_equiv_pos_site_id
 _symmetry_equiv_pos_as_xyz
  1  'x, y, z'
loop_
 _atom_site_type_symbol
 _atom_site_label
 _atom_site_symmetry_multiplicity
 _atom_site_fract_x
 _atom_site_fract_y
 _atom_site_fract_z
 _atom_site_occupancy
  V  V0  1  0.848840  0.653921  0.648682  1
  V  V1  1  0.665777  0.292013  0.373525  1
  V  V2  1  0.334223  0.707987  0.626475  1
  V  V3  1  0.151160  0.346079  0.351318  1
  V  V4  1  0.500000  0.000000  0.000000  1
  V  V5  1  0.000000  0.000000  0.000000  1
  O  O6  1  0.672674  0.018504  0.636509  1
  O  O7  1  0.959101  0.238764  0.233271  1
  O  O8  1  0.630925  0.560403  0.564315  1
  O  O9  1  0.298078  0.896176  0.896367  1
  O  O10  1  0.701922  0.103824  0.103633  1
  O  O11  1  0.040899  0.761236  0.766729  1
  O  O12  1  0.369075  0.439597  0.435685  1
  O  O13  1  0.000998  0.289975  0.704988  1
  O  O14  1  0.327326  0.981496  0.363491  1
  O  O15  1  0.999002  0.710024  0.295012  1
  F  F16  1  0.325166  0.372544  0.973485  1
  F  F17  1  0.674834  0.627456  0.026515  1
