# generated using pymatgen
data_CoSnO3
_symmetry_space_group_name_H-M   'P 1'
_cell_length_a   5.42276583
_cell_length_b   5.39492197
_cell_length_c   7.81052971
_cell_angle_alpha   89.99708100
_cell_angle_beta   90.00092259
_cell_angle_gamma   89.99859047
_symmetry_Int_Tables_number   1
_chemical_formula_structural   CoSnO3
_chemical_formula_sum   'Co4 Sn4 O12'
_cell_volume   228.50015908
_cell_formula_units_Z   4
loop_
 _symmetry_equiv_pos_site_id
 _symmetry_equiv_pos_as_xyz
  1  'x, y, z'
loop_
 _atom_site_type_symbol
 _atom_site_label
 _atom_site_symmetry_multiplicity
 _atom_site_fract_x
 _atom_site_fract_y
 _atom_site_fract_z
 _atom_site_occupancy
  Co  Co0  1  0.986509  0.972563  0.750019  1
  Co  Co1  1  0.513482  0.472707  0.749995  1
  Co  Co2  1  0.487097  0.527407  0.250010  1
  Co  Co3  1  0.012907  0.027278  0.249982  1
  Sn  Sn4  1  0.000299  0.499957  0.000020  1
  Sn  Sn5  1  0.000099  0.499950  0.499932  1
  Sn  Sn6  1  0.499935  0.000144  0.000053  1
  Sn  Sn7  1  0.499744  0.999980  0.499978  1
  O  O8  1  0.124927  0.406066  0.250010  1
  O  O9  1  0.165218  0.168158  0.566770  1
  O  O10  1  0.165322  0.168083  0.933230  1
  O  O11  1  0.334703  0.668169  0.566755  1
  O  O12  1  0.334837  0.668344  0.933255  1
  O  O13  1  0.375088  0.906130  0.249989  1
  O  O14  1  0.624579  0.093941  0.749996  1
  O  O15  1  0.665292  0.331881  0.066695  1
  O  O16  1  0.665192  0.331757  0.433356  1
  O  O17  1  0.834705  0.831783  0.066637  1
  O  O18  1  0.834650  0.831797  0.433339  1
  O  O19  1  0.875417  0.593907  0.749982  1
