# generated using pymatgen
data_Li6MnV3(PO4)6
_symmetry_space_group_name_H-M   'P 1'
_cell_length_a   8.63046465
_cell_length_b   8.62738077
_cell_length_c   12.73574953
_cell_angle_alpha   74.00233163
_cell_angle_beta   105.93532673
_cell_angle_gamma   85.57000429
_symmetry_Int_Tables_number   1
_chemical_formula_structural   Li6MnV3(PO4)6
_chemical_formula_sum   'Li12 Mn2 V6 P12 O48'
_cell_volume   864.45257746
_cell_formula_units_Z   2
loop_
 _symmetry_equiv_pos_site_id
 _symmetry_equiv_pos_as_xyz
  1  'x, y, z'
loop_
 _atom_site_type_symbol
 _atom_site_label
 _atom_site_symmetry_multiplicity
 _atom_site_fract_x
 _atom_site_fract_y
 _atom_site_fract_z
 _atom_site_occupancy
  Li  Li0  1  0.001805  0.005625  0.874292  1
  Li  Li1  1  0.006647  0.004886  0.376272  1
  Li  Li2  1  0.287513  0.288231  0.625751  1
  Li  Li3  1  0.500065  0.499260  0.749375  1
  Li  Li4  1  0.287767  0.288347  0.124812  1
  Li  Li5  1  0.500835  0.499542  0.500421  1
  Li  Li6  1  0.710584  0.714734  0.873780  1
  Li  Li7  1  0.499671  0.500268  0.250682  1
  Li  Li8  1  0.498509  0.500501  0.999030  1
  Li  Li9  1  0.712515  0.710435  0.376560  1
  Li  Li10  1  0.992476  0.996249  0.626322  1
  Li  Li11  1  0.996983  0.995070  0.124189  1
  Mn  Mn12  1  0.624653  0.057448  0.933638  1
  Mn  Mn13  1  0.942791  0.374699  0.683842  1
  V  V14  1  0.058263  0.622661  0.818883  1
  V  V15  1  0.057461  0.620827  0.321141  1
  V  V16  1  0.378855  0.941980  0.570829  1
  V  V17  1  0.376980  0.941946  0.069484  1
  V  V18  1  0.619176  0.056267  0.430379  1
  V  V19  1  0.943335  0.380699  0.180082  1
  P  P20  1  0.286210  0.285961  0.875015  1
  P  P21  1  0.139098  0.664725  0.567784  1
  P  P22  1  0.335498  0.860680  0.818210  1
  P  P23  1  0.286545  0.286301  0.375085  1
  P  P24  1  0.137211  0.660984  0.068283  1
  P  P25  1  0.338514  0.862865  0.317911  1
  P  P26  1  0.660446  0.132876  0.683694  1
  P  P27  1  0.867348  0.339344  0.932035  1
  P  P28  1  0.716066  0.711913  0.625459  1
  P  P29  1  0.660919  0.138169  0.181193  1
  P  P30  1  0.861931  0.338925  0.432991  1
  P  P31  1  0.712553  0.715038  0.125012  1
  O  O32  1  0.012709  0.660886  0.954042  1
  O  O33  1  0.054369  0.613713  0.663129  1
  O  O34  1  0.256512  0.172475  0.982876  1
  O  O35  1  0.012011  0.660416  0.455066  1
  O  O36  1  0.170610  0.262856  0.763551  1
  O  O37  1  0.151124  0.840960  0.798982  1
  O  O38  1  0.265766  0.461638  0.884567  1
  O  O39  1  0.159689  0.849511  0.547813  1
  O  O40  1  0.049271  0.601294  0.162959  1
  O  O41  1  0.259916  0.172177  0.484073  1
  O  O42  1  0.171755  0.259286  0.266642  1
  O  O43  1  0.154987  0.842849  0.303060  1
  O  O44  1  0.296266  0.545702  0.601296  1
  O  O45  1  0.386152  0.945649  0.913386  1
  O  O46  1  0.339254  0.987014  0.704772  1
  O  O47  1  0.461549  0.259843  0.864466  1
  O  O48  1  0.263616  0.462530  0.383544  1
  O  O49  1  0.454799  0.703465  0.851777  1
  O  O50  1  0.156608  0.844383  0.054517  1
  O  O51  1  0.295899  0.543838  0.102458  1
  O  O52  1  0.398132  0.950448  0.412688  1
  O  O53  1  0.546594  0.293986  0.648899  1
  O  O54  1  0.339718  0.988849  0.204223  1
  O  O55  1  0.462428  0.263000  0.365696  1
  O  O56  1  0.539127  0.734466  0.632933  1
  O  O57  1  0.658358  0.009970  0.799234  1
  O  O58  1  0.455749  0.704496  0.351846  1
  O  O59  1  0.597083  0.047119  0.587953  1
  O  O60  1  0.706027  0.452162  0.898415  1
  O  O61  1  0.856837  0.155236  0.946341  1
  O  O62  1  0.544072  0.296618  0.147239  1
  O  O63  1  0.740805  0.536020  0.615368  1
  O  O64  1  0.537450  0.736116  0.135130  1
  O  O65  1  0.660393  0.012827  0.295308  1
  O  O66  1  0.599156  0.049516  0.086241  1
  O  O67  1  0.703772  0.456869  0.397962  1
  O  O68  1  0.844274  0.144679  0.697419  1
  O  O69  1  0.827413  0.741093  0.734169  1
  O  O70  1  0.742398  0.828287  0.516705  1
  O  O71  1  0.953061  0.404695  0.835767  1
  O  O72  1  0.841043  0.155907  0.445865  1
  O  O73  1  0.737222  0.539150  0.115947  1
  O  O74  1  0.843946  0.157899  0.194362  1
  O  O75  1  0.828452  0.743166  0.232648  1
  O  O76  1  0.986963  0.337031  0.548437  1
  O  O77  1  0.736660  0.829136  0.013626  1
  O  O78  1  0.950387  0.398758  0.338417  1
  O  O79  1  0.990392  0.344566  0.045750  1
