# generated using pymatgen
data_CoPbO3
_symmetry_space_group_name_H-M   'P 1'
_cell_length_a   5.32625467
_cell_length_b   5.43066253
_cell_length_c   7.56021826
_cell_angle_alpha   90.01037129
_cell_angle_beta   89.99098299
_cell_angle_gamma   89.96597530
_symmetry_Int_Tables_number   1
_chemical_formula_structural   CoPbO3
_chemical_formula_sum   'Co4 Pb4 O12'
_cell_volume   218.67996155
_cell_formula_units_Z   4
loop_
 _symmetry_equiv_pos_site_id
 _symmetry_equiv_pos_as_xyz
  1  'x, y, z'
loop_
 _atom_site_type_symbol
 _atom_site_label
 _atom_site_symmetry_multiplicity
 _atom_site_fract_x
 _atom_site_fract_y
 _atom_site_fract_z
 _atom_site_occupancy
  Co  Co0  1  0.000015  0.500053  -0.000005  1
  Co  Co1  1  0.000117  0.500062  0.499952  1
  Co  Co2  1  0.499858  0.999924  -0.000029  1
  Co  Co3  1  0.499983  0.000107  0.499980  1
  Pb  Pb4  1  0.011097  0.955294  0.749765  1
  Pb  Pb5  1  0.488913  0.455233  0.750354  1
  Pb  Pb6  1  0.511241  0.544803  0.250201  1
  Pb  Pb7  1  0.988629  0.045031  0.249718  1
  O  O8  1  0.084621  0.473640  0.250022  1
  O  O9  1  0.212604  0.214520  0.545124  1
  O  O10  1  0.212451  0.214616  0.954915  1
  O  O11  1  0.287492  0.714577  0.954910  1
  O  O12  1  0.287723  0.714273  0.545089  1
  O  O13  1  0.415370  0.973604  0.249998  1
  O  O14  1  0.584303  0.026409  0.750024  1
  O  O15  1  0.712611  0.285293  0.454825  1
  O  O16  1  0.712461  0.285340  0.045336  1
  O  O17  1  0.787485  0.785456  0.045201  1
  O  O18  1  0.787533  0.785446  0.454704  1
  O  O19  1  0.915493  0.526319  0.749915  1
