# generated using pymatgen
data_Li5Fe8(BO3)8
_symmetry_space_group_name_H-M   'P 1'
_cell_length_a   5.25786446
_cell_length_b   9.10153833
_cell_length_c   11.34474912
_cell_angle_alpha   67.05262081
_cell_angle_beta   77.06784634
_cell_angle_gamma   89.60495738
_symmetry_Int_Tables_number   1
_chemical_formula_structural   Li5Fe8(BO3)8
_chemical_formula_sum   'Li5 Fe8 B8 O24'
_cell_volume   485.29824128
_cell_formula_units_Z   1
loop_
 _symmetry_equiv_pos_site_id
 _symmetry_equiv_pos_as_xyz
  1  'x, y, z'
loop_
 _atom_site_type_symbol
 _atom_site_label
 _atom_site_symmetry_multiplicity
 _atom_site_fract_x
 _atom_site_fract_y
 _atom_site_fract_z
 _atom_site_occupancy
  Li  Li0  1  0.974784  0.965640  0.402136  1
  Li  Li1  1  0.734343  0.756681  0.159435  1
  Li  Li2  1  0.471451  0.461172  0.417988  1
  Li  Li3  1  0.015966  0.991626  0.664943  1
  Li  Li4  1  0.245089  0.262189  0.148402  1
  Fe  Fe5  1  0.972236  0.650722  0.383770  1
  Fe  Fe6  1  0.728270  0.070883  0.876143  1
  Fe  Fe7  1  0.535416  0.834682  0.631214  1
  Fe  Fe8  1  0.760144  0.433259  0.130964  1
  Fe  Fe9  1  0.232261  0.565391  0.870836  1
  Fe  Fe10  1  0.469108  0.142422  0.387262  1
  Fe  Fe11  1  0.023585  0.349023  0.633679  1
  Fe  Fe12  1  0.255882  0.942516  0.126030  1
  B  B13  1  0.982406  0.317629  0.371826  1
  B  B14  1  0.724198  0.392496  0.886872  1
  B  B15  1  0.515715  0.177724  0.629111  1
  B  B16  1  0.768491  0.108594  0.127529  1
  B  B17  1  0.481674  0.815654  0.372202  1
  B  B18  1  0.236283  0.896599  0.877177  1
  B  B19  1  0.026746  0.688420  0.625092  1
  B  B20  1  0.259515  0.601414  0.130052  1
  O  O21  1  0.987498  0.926863  0.858995  1
  O  O22  1  0.858060  0.284964  0.843131  1
  O  O23  1  0.861756  0.484379  0.932622  1
  O  O24  1  0.922007  0.834465  0.606074  1
  O  O25  1  0.928135  0.579964  0.587471  1
  O  O26  1  0.749342  0.147755  0.675271  1
  O  O27  1  0.740905  0.346543  0.331175  1
  O  O28  1  0.463893  0.405656  0.894474  1
  O  O29  1  0.361215  0.774805  0.849358  1
  O  O30  1  0.595726  0.917813  0.414778  1
  O  O31  1  0.609561  0.688354  0.356318  1
  O  O32  1  0.366113  0.989881  0.921763  1
  O  O33  1  0.665042  0.001799  0.084674  1
  O  O34  1  0.404711  0.317782  0.609470  1
  O  O35  1  0.408911  0.061544  0.596510  1
  O  O36  1  0.606520  0.219545  0.160255  1
  O  O37  1  0.519748  0.591220  0.135491  1
  O  O38  1  0.245377  0.655831  0.680953  1
  O  O39  1  0.239692  0.843565  0.340153  1
  O  O40  1  0.086304  0.420458  0.414195  1
  O  O41  1  0.105391  0.186339  0.363546  1
  O  O42  1  0.141520  0.490298  0.094371  1
  O  O43  1  0.110436  0.712589  0.160954  1
  O  O44  1  0.018957  0.107044  0.141295  1
