# generated using pymatgen
data_LiNiP2O7
_symmetry_space_group_name_H-M   'P 1'
_cell_length_a   7.00695305
_cell_length_b   8.40817024
_cell_length_c   9.26479564
_cell_angle_alpha   90.00000000
_cell_angle_beta   112.42062519
_cell_angle_gamma   90.00000000
_symmetry_Int_Tables_number   1
_chemical_formula_structural   LiNiP2O7
_chemical_formula_sum   'Li4 Ni4 P8 O28'
_cell_volume   504.58067994
_cell_formula_units_Z   4
loop_
 _symmetry_equiv_pos_site_id
 _symmetry_equiv_pos_as_xyz
  1  'x, y, z'
loop_
 _atom_site_type_symbol
 _atom_site_label
 _atom_site_symmetry_multiplicity
 _atom_site_fract_x
 _atom_site_fract_y
 _atom_site_fract_z
 _atom_site_occupancy
  Li  Li0  1  0.125603  0.570908  0.899486  1
  Li  Li1  1  0.374397  0.070908  0.600514  1
  Li  Li2  1  0.625603  0.929092  0.399487  1
  Li  Li3  1  0.874397  0.429092  0.100514  1
  Ni  Ni4  1  0.123820  0.933586  0.817362  1
  Ni  Ni5  1  0.376180  0.433586  0.682638  1
  Ni  Ni6  1  0.623820  0.566414  0.317362  1
  Ni  Ni7  1  0.876180  0.066414  0.182638  1
  P  P8  1  0.062365  0.720494  0.532092  1
  P  P9  1  0.437635  0.220494  0.967908  1
  P  P10  1  0.184403  0.734302  0.246185  1
  P  P11  1  0.315597  0.234302  0.253815  1
  P  P12  1  0.684403  0.765698  0.746185  1
  P  P13  1  0.815597  0.265698  0.753815  1
  P  P14  1  0.562365  0.779506  0.032092  1
  P  P15  1  0.937635  0.279506  0.467908  1
  O  O16  1  0.147318  0.585651  0.651191  1
  O  O17  1  0.141748  0.883327  0.607026  1
  O  O18  1  0.327615  0.773682  0.951359  1
  O  O19  1  0.172385  0.273682  0.548641  1
  O  O20  1  0.358252  0.383327  0.892974  1
  O  O21  1  0.159145  0.682170  0.405071  1
  O  O22  1  0.352682  0.085651  0.848809  1
  O  O23  1  0.082151  0.241510  0.207857  1
  O  O24  1  0.087373  0.898700  0.196691  1
  O  O25  1  0.081751  0.606597  0.124396  1
  O  O26  1  0.659145  0.817830  0.905071  1
  O  O27  1  0.418249  0.106597  0.375604  1
  O  O28  1  0.582151  0.258490  0.707857  1
  O  O29  1  0.587373  0.601300  0.696691  1
  O  O30  1  0.412627  0.398700  0.303309  1
  O  O31  1  0.417849  0.741510  0.292143  1
  O  O32  1  0.581751  0.893403  0.624396  1
  O  O33  1  0.340855  0.182170  0.094929  1
  O  O34  1  0.918249  0.393403  0.875604  1
  O  O35  1  0.912627  0.101300  0.803309  1
  O  O36  1  0.917849  0.758490  0.792143  1
  O  O37  1  0.647318  0.914349  0.151191  1
  O  O38  1  0.840855  0.317830  0.594929  1
  O  O39  1  0.641748  0.616673  0.107026  1
  O  O40  1  0.827615  0.726318  0.451359  1
  O  O41  1  0.672385  0.226318  0.048641  1
  O  O42  1  0.858252  0.116673  0.392974  1
  O  O43  1  0.852682  0.414349  0.348809  1
