# generated using pymatgen
data_Li8Mn3Fe5(BO3)8
_symmetry_space_group_name_H-M   'P 1'
_cell_length_a   5.24163254
_cell_length_b   5.24274178
_cell_length_c   20.82127699
_cell_angle_alpha   89.46243864
_cell_angle_beta   90.85599438
_cell_angle_gamma   60.10664671
_symmetry_Int_Tables_number   1
_chemical_formula_structural   Li8Mn3Fe5(BO3)8
_chemical_formula_sum   'Li8 Mn3 Fe5 B8 O24'
_cell_volume   495.90493336
_cell_formula_units_Z   1
loop_
 _symmetry_equiv_pos_site_id
 _symmetry_equiv_pos_as_xyz
  1  'x, y, z'
loop_
 _atom_site_type_symbol
 _atom_site_label
 _atom_site_symmetry_multiplicity
 _atom_site_fract_x
 _atom_site_fract_y
 _atom_site_fract_z
 _atom_site_occupancy
  Li  Li0  1  0.323420  0.652013  0.666143  1
  Li  Li1  1  0.347279  0.678149  0.916481  1
  Li  Li2  1  0.321419  0.652645  0.167289  1
  Li  Li3  1  0.347890  0.676203  0.415477  1
  Li  Li4  1  0.653014  0.335432  0.791866  1
  Li  Li5  1  0.662151  0.346645  0.541717  1
  Li  Li6  1  0.648923  0.340364  0.291426  1
  Li  Li7  1  0.664995  0.347518  0.041258  1
  Mn  Mn8  1  0.327958  0.006748  0.558448  1
  Mn  Mn9  1  0.677129  0.999431  0.933256  1
  Mn  Mn10  1  0.999698  0.322808  0.182915  1
  Fe  Fe11  1  0.325431  0.999387  0.058641  1
  Fe  Fe12  1  0.683698  0.001982  0.433045  1
  Fe  Fe13  1  0.993162  0.323351  0.684563  1
  Fe  Fe14  1  0.003321  0.668388  0.807429  1
  Fe  Fe15  1  0.986870  0.670638  0.310137  1
  B  B16  1  0.003995  0.339393  0.937163  1
  B  B17  1  0.006177  0.336073  0.436319  1
  B  B18  1  0.331034  0.006408  0.811129  1
  B  B19  1  0.331612  0.006432  0.312741  1
  B  B20  1  0.662447  0.996078  0.687476  1
  B  B21  1  0.661565  0.995112  0.187215  1
  B  B22  1  0.993801  0.667269  0.562109  1
  B  B23  1  0.994103  0.669697  0.061816  1
  O  O24  1  0.067378  0.254196  0.791986  1
  O  O25  1  0.069380  0.258245  0.293014  1
  O  O26  1  0.253605  0.069170  0.952711  1
  O  O27  1  0.034303  0.576592  0.916355  1
  O  O28  1  0.260111  0.069594  0.450345  1
  O  O29  1  0.025086  0.582380  0.417865  1
  O  O30  1  0.581104  0.027257  0.825472  1
  O  O31  1  0.268524  0.643121  0.569454  1
  O  O32  1  0.581576  0.032284  0.327135  1
  O  O33  1  0.266291  0.651398  0.067957  1
  O  O34  1  0.346279  0.734650  0.817859  1
  O  O35  1  0.345780  0.739110  0.318985  1
  O  O36  1  0.642386  0.269827  0.693804  1
  O  O37  1  0.631816  0.272058  0.194164  1
  O  O38  1  0.727385  0.369102  0.943766  1
  O  O39  1  0.416975  0.977417  0.668577  1
  O  O40  1  0.731076  0.357752  0.442750  1
  O  O41  1  0.423201  0.965914  0.166507  1
  O  O42  1  0.961054  0.424273  0.577898  1
  O  O43  1  0.972753  0.418965  0.076118  1
  O  O44  1  0.752417  0.929620  0.540540  1
  O  O45  1  0.745257  0.932459  0.042753  1
  O  O46  1  0.932020  0.741577  0.701467  1
  O  O47  1  0.931945  0.746075  0.202666  1
