# generated using pymatgen
data_LiFe2F5
_symmetry_space_group_name_H-M   'P 1'
_cell_length_a   6.79896518
_cell_length_b   7.85268850
_cell_length_c   9.82558670
_cell_angle_alpha   111.95847582
_cell_angle_beta   110.24178883
_cell_angle_gamma   64.34782638
_symmetry_Int_Tables_number   1
_chemical_formula_structural   LiFe2F5
_chemical_formula_sum   'Li4 Fe8 F20'
_cell_volume   427.81406841
_cell_formula_units_Z   4
loop_
 _symmetry_equiv_pos_site_id
 _symmetry_equiv_pos_as_xyz
  1  'x, y, z'
loop_
 _atom_site_type_symbol
 _atom_site_label
 _atom_site_symmetry_multiplicity
 _atom_site_fract_x
 _atom_site_fract_y
 _atom_site_fract_z
 _atom_site_occupancy
  Li  Li0  1  0.295368  0.943485  0.312616  1
  Li  Li1  1  0.926239  0.556515  0.187384  1
  Li  Li2  1  0.073761  0.443485  0.812616  1
  Li  Li3  1  0.704632  0.056515  0.687384  1
  Fe  Fe4  1  0.226011  0.933698  0.634243  1
  Fe  Fe5  1  0.845580  0.889170  0.003358  1
  Fe  Fe6  1  0.731392  0.610830  0.496642  1
  Fe  Fe7  1  0.474535  0.433698  0.134243  1
  Fe  Fe8  1  0.525465  0.566302  0.865757  1
  Fe  Fe9  1  0.268608  0.389170  0.503358  1
  Fe  Fe10  1  0.154420  0.110830  0.996642  1
  Fe  Fe11  1  0.773989  0.066302  0.365757  1
  F  F12  1  0.107773  0.989663  0.133043  1
  F  F13  1  0.884738  0.947490  0.547970  1
  F  F14  1  0.565516  0.867437  0.624917  1
  F  F15  1  0.842994  0.822371  0.196829  1
  F  F16  1  0.468535  0.677629  0.303171  1
  F  F17  1  0.385679  0.858185  0.905440  1
  F  F18  1  0.338425  0.641815  0.594560  1
  F  F19  1  0.964394  0.510337  0.366957  1
  F  F20  1  0.715742  0.447490  0.047970  1
  F  F21  1  0.808036  0.632563  0.875083  1
  F  F22  1  0.191964  0.367437  0.124917  1
  F  F23  1  0.284258  0.552510  0.952030  1
  F  F24  1  0.035606  0.489663  0.633043  1
  F  F25  1  0.661575  0.358185  0.405440  1
  F  F26  1  0.614321  0.141815  0.094560  1
  F  F27  1  0.531465  0.322371  0.696829  1
  F  F28  1  0.157006  0.177629  0.803171  1
  F  F29  1  0.434484  0.132563  0.375083  1
  F  F30  1  0.115262  0.052510  0.452030  1
  F  F31  1  0.892227  0.010337  0.866957  1
