# generated using pymatgen
data_Mg2Cu2P2(H4O5)3
_symmetry_space_group_name_H-M   'P 1'
_cell_length_a   5.04300772
_cell_length_b   11.63018534
_cell_length_c   10.59216748
_cell_angle_alpha   79.99542339
_cell_angle_beta   90.00138036
_cell_angle_gamma   77.44261357
_symmetry_Int_Tables_number   1
_chemical_formula_structural   Mg2Cu2P2(H4O5)3
_chemical_formula_sum   'Mg4 Cu4 P4 H24 O30'
_cell_volume   596.69902123
_cell_formula_units_Z   2
loop_
 _symmetry_equiv_pos_site_id
 _symmetry_equiv_pos_as_xyz
  1  'x, y, z'
loop_
 _atom_site_type_symbol
 _atom_site_label
 _atom_site_symmetry_multiplicity
 _atom_site_fract_x
 _atom_site_fract_y
 _atom_site_fract_z
 _atom_site_occupancy
  Mg  Mg0  1  0.952288  0.761381  0.965785  1
  Mg  Mg1  1  0.283205  0.760874  0.464980  1
  Mg  Mg2  1  0.720334  0.239281  0.535167  1
  Mg  Mg3  1  0.042353  0.240636  0.035378  1
  Cu  Cu4  1  0.098006  0.508473  0.867976  1
  Cu  Cu5  1  0.607879  0.493951  0.632887  1
  Cu  Cu6  1  0.396211  0.507750  0.365352  1
  Cu  Cu7  1  0.902831  0.492469  0.133075  1
  P  P8  1  0.475895  0.694013  0.771728  1
  P  P9  1  0.828666  0.691655  0.272128  1
  P  P10  1  0.172329  0.308298  0.728485  1
  P  P11  1  0.520425  0.307493  0.228217  1
  H  H12  1  0.558034  0.962546  0.856644  1
  H  H13  1  0.226682  0.923539  0.767717  1
  H  H14  1  0.484555  0.960896  0.360707  1
  H  H15  1  0.034806  0.819956  0.667557  1
  H  H16  1  0.848035  0.924265  0.267477  1
  H  H17  1  0.144306  0.817475  0.165261  1
  H  H18  1  0.793591  0.799778  0.587655  1
  H  H19  1  0.411697  0.798254  0.088754  1
  H  H20  1  0.668122  0.456648  0.930135  1
  H  H21  1  0.132946  0.539034  0.570040  1
  H  H22  1  0.873512  0.458773  0.434656  1
  H  H23  1  0.328717  0.543762  0.070453  1
  H  H24  1  0.592433  0.201179  0.916124  1
  H  H25  1  0.215432  0.199817  0.413535  1
  H  H26  1  0.854480  0.182689  0.835193  1
  H  H27  1  0.148424  0.071061  0.730141  1
  H  H28  1  0.974571  0.179848  0.333569  1
  H  H29  1  0.518543  0.039173  0.641146  1
  H  H30  1  0.775180  0.006560  0.930151  1
  H  H31  1  0.786701  0.071080  0.233156  1
  H  H32  1  0.779183  -0.004510  0.567036  1
  H  H33  1  0.445084  0.043128  0.141907  1
  H  H34  1  0.222657  0.002399  0.435920  1
  H  H35  1  0.227929  0.996457  0.069037  1
  O  O36  1  0.728332  0.933042  0.911005  1
  O  O37  1  0.335951  0.931164  0.408837  1
  O  O38  1  0.957376  0.837163  0.577508  1
  O  O39  1  0.214056  0.775932  0.810255  1
  O  O40  1  0.210291  0.833859  0.076401  1
  O  O41  1  0.535882  0.734481  0.629990  1
  O  O42  1  0.006578  0.774529  0.310517  1
  O  O43  1  0.719948  0.684828  0.861153  1
  O  O44  1  0.729406  0.731640  0.130130  1
  O  O45  1  0.594771  0.681983  0.360661  1
  O  O46  1  0.419408  0.560820  0.780404  1
  O  O47  1  0.270215  0.574935  0.521758  1
  O  O48  1  0.019813  0.558933  0.282647  1
  O  O49  1  0.843547  0.425510  0.977803  1
  O  O50  1  0.154881  0.575113  0.022373  1
  O  O51  1  0.981996  0.442387  0.717580  1
  O  O52  1  0.729152  0.426282  0.479905  1
  O  O53  1  0.572440  0.441778  0.215691  1
  O  O54  1  0.410508  0.316440  0.641497  1
  O  O55  1  0.267595  0.270863  0.870788  1
  O  O56  1  0.275614  0.315428  0.141121  1
  O  O57  1  0.994905  0.224842  0.690166  1
  O  O58  1  0.466306  0.269304  0.371360  1
  O  O59  1  0.793291  0.164556  0.924705  1
  O  O60  1  0.781739  0.226174  0.189089  1
  O  O61  1  0.049645  0.164154  0.423602  1
  O  O62  1  0.658090  0.068951  0.585590  1
  O  O63  1  0.297165  0.998101  0.746689  1
  O  O64  1  0.271131  0.070123  0.089277  1
  O  O65  1  0.706111  -0.000532  0.249571  1
