# generated using pymatgen
data_NaMn2Mo2H3O10
_symmetry_space_group_name_H-M   'P 1'
_cell_length_a   6.97987974
_cell_length_b   6.97988042
_cell_length_c   7.34611339
_cell_angle_alpha   53.89461984
_cell_angle_beta   53.89461885
_cell_angle_gamma   69.34449334
_symmetry_Int_Tables_number   1
_chemical_formula_structural   NaMn2Mo2H3O10
_chemical_formula_sum   'Na1 Mn2 Mo2 H3 O10'
_cell_volume   233.60947629
_cell_formula_units_Z   1
loop_
 _symmetry_equiv_pos_site_id
 _symmetry_equiv_pos_as_xyz
  1  'x, y, z'
loop_
 _atom_site_type_symbol
 _atom_site_label
 _atom_site_symmetry_multiplicity
 _atom_site_fract_x
 _atom_site_fract_y
 _atom_site_fract_z
 _atom_site_occupancy
  Na  Na0  1  0.556198  0.443802  0.500000  1
  Mn  Mn1  1  0.502236  0.130596  0.076332  1
  Mn  Mn2  1  0.869404  0.497764  0.923668  1
  Mo  Mo3  1  0.028095  0.010803  0.767903  1
  Mo  Mo4  1  0.989197  0.971905  0.232097  1
  H  H5  1  0.391848  0.306791  0.323498  1
  H  H6  1  0.481719  0.518281  1.000000  1
  H  H7  1  0.693209  0.608152  0.676502  1
  O  O8  1  0.307319  0.155750  0.398482  1
  O  O9  1  0.481334  0.461083  0.870219  1
  O  O10  1  0.117124  0.204001  0.829231  1
  O  O11  1  0.275893  0.906756  0.201375  1
  O  O12  1  0.093244  0.724107  0.798625  1
  O  O13  1  0.857198  0.241185  0.256063  1
  O  O14  1  0.758815  0.142802  0.743937  1
  O  O15  1  0.795999  0.882876  0.170769  1
  O  O16  1  0.538917  0.518666  0.129781  1
  O  O17  1  0.844250  0.692681  0.601518  1
