# generated using pymatgen
data_AlPO4
_symmetry_space_group_name_H-M   'P 1'
_cell_length_a   12.87865673
_cell_length_b   12.84761059
_cell_length_c   5.32007997
_cell_angle_alpha   89.10813279
_cell_angle_beta   90.81361643
_cell_angle_gamma   62.71527172
_symmetry_Int_Tables_number   1
_chemical_formula_structural   AlPO4
_chemical_formula_sum   'Al6 P6 O24'
_cell_volume   782.00175364
_cell_formula_units_Z   6
loop_
 _symmetry_equiv_pos_site_id
 _symmetry_equiv_pos_as_xyz
  1  'x, y, z'
loop_
 _atom_site_type_symbol
 _atom_site_label
 _atom_site_symmetry_multiplicity
 _atom_site_fract_x
 _atom_site_fract_y
 _atom_site_fract_z
 _atom_site_occupancy
  Al  Al0  1  0.920401  0.156988  0.734043  1
  Al  Al1  1  0.079599  0.843012  0.265957  1
  Al  Al2  1  0.369000  0.986414  0.732435  1
  Al  Al3  1  0.631000  0.013586  0.267565  1
  Al  Al4  1  0.873955  0.639832  0.730166  1
  Al  Al5  1  0.126045  0.360168  0.269834  1
  P  P6  1  0.161494  0.920176  0.766256  1
  P  P7  1  0.838506  0.079824  0.233744  1
  P  P8  1  0.983531  0.366497  0.762709  1
  P  P9  1  0.016469  0.633503  0.237291  1
  P  P10  1  0.641009  0.870163  0.772863  1
  P  P11  1  0.358991  0.129837  0.227137  1
  O  O12  1  0.917243  0.294088  0.740789  1
  O  O13  1  0.082757  0.705912  0.259211  1
  O  O14  1  0.282175  0.915598  0.757153  1
  O  O15  1  0.717825  0.084402  0.242847  1
  O  O16  1  0.066705  0.049378  0.752341  1
  O  O17  1  0.933295  0.950622  0.247659  1
  O  O18  1  0.853879  0.147600  0.453604  1
  O  O19  1  0.146121  0.852400  0.546396  1
  O  O20  1  0.154772  0.860747  0.012925  1
  O  O21  1  0.845228  0.139253  0.987075  1
  O  O22  1  0.891719  0.496330  0.737422  1
  O  O23  1  0.108281  0.503670  0.262578  1
  O  O24  1  0.516630  0.881796  0.753970  1
  O  O25  1  0.483370  0.118204  0.246030  1
  O  O26  1  0.047447  0.341310  0.019529  1
  O  O27  1  0.952553  0.658690  0.980471  1
  O  O28  1  0.924686  0.665503  0.443653  1
  O  O29  1  0.075314  0.334497  0.556347  1
  O  O30  1  0.339323  0.057093  0.436739  1
  O  O31  1  0.660677  0.942907  0.563261  1
  O  O32  1  0.662252  0.912786  0.027439  1
  O  O33  1  0.337748  0.087214  0.972561  1
  O  O34  1  0.726079  0.739601  0.749910  1
  O  O35  1  0.273921  0.260399  0.250090  1
