# generated using pymatgen
data_Bi14MoO24
_symmetry_space_group_name_H-M   'P 1'
_cell_length_a   17.48966587
_cell_length_b   12.38811504
_cell_length_c   10.54798114
_cell_angle_alpha   89.87234262
_cell_angle_beta   65.27287502
_cell_angle_gamma   45.20347381
_symmetry_Int_Tables_number   1
_chemical_formula_structural   Bi14MoO24
_chemical_formula_sum   'Bi28 Mo2 O48'
_cell_volume   1312.61927402
_cell_formula_units_Z   2
loop_
 _symmetry_equiv_pos_site_id
 _symmetry_equiv_pos_as_xyz
  1  'x, y, z'
loop_
 _atom_site_type_symbol
 _atom_site_label
 _atom_site_symmetry_multiplicity
 _atom_site_fract_x
 _atom_site_fract_y
 _atom_site_fract_z
 _atom_site_occupancy
  Bi  Bi0  1  0.036658  0.058909  0.334225  1
  Bi  Bi1  1  0.117581  0.201642  0.000985  1
  Bi  Bi2  1  0.076973  0.125490  0.665647  1
  Bi  Bi3  1  0.128704  0.283704  0.338489  1
  Bi  Bi4  1  0.176420  0.443376  0.998125  1
  Bi  Bi5  1  0.158015  0.342028  0.683169  1
  Bi  Bi6  1  0.243597  0.458778  0.329587  1
  Bi  Bi7  1  0.318712  0.560494  0.000142  1
  Bi  Bi8  1  0.533560  0.056273  0.339290  1
  Bi  Bi9  1  0.616362  0.216588  0.000856  1
  Bi  Bi10  1  0.258975  0.537767  0.664850  1
  Bi  Bi11  1  0.340052  0.660100  0.320415  1
  Bi  Bi12  1  0.383638  0.783412  0.999144  1
  Bi  Bi13  1  0.573258  0.128226  0.671904  1
  Bi  Bi14  1  0.632060  0.275368  0.333016  1
  Bi  Bi15  1  0.681288  0.439506  0.999858  1
  Bi  Bi16  1  0.367940  0.724632  0.666984  1
  Bi  Bi17  1  0.426742  0.871774  0.328096  1
  Bi  Bi18  1  0.659948  0.339900  0.679585  1
  Bi  Bi19  1  0.741025  0.462233  0.335150  1
  Bi  Bi20  1  0.823580  0.556624  0.001875  1
  Bi  Bi21  1  0.466440  0.943727  0.660710  1
  Bi  Bi22  1  0.756403  0.541222  0.670413  1
  Bi  Bi23  1  0.841985  0.657972  0.316831  1
  Bi  Bi24  1  0.882419  0.798358  0.999015  1
  Bi  Bi25  1  0.871296  0.716296  0.661511  1
  Bi  Bi26  1  0.923027  0.874510  0.334353  1
  Bi  Bi27  1  0.963342  0.941091  0.665775  1
  Mo  Mo28  1  0.000000  0.000000  0.000000  1
  Mo  Mo29  1  0.500000  0.000000  0.000000  1
  O  O30  1  0.135052  0.117919  0.230743  1
  O  O31  1  0.073065  0.404301  0.164659  1
  O  O32  1  0.166328  0.167347  0.502353  1
  O  O33  1  0.056987  0.285157  0.837186  1
  O  O34  1  0.084675  0.495741  0.496484  1
  O  O35  1  0.130545  0.782871  0.986409  1
  O  O36  1  0.392785  0.214571  0.999228  1
  O  O37  1  0.386505  0.111153  0.223733  1
  O  O38  1  0.132397  0.622630  0.233018  1
  O  O39  1  0.423065  0.997119  0.491452  1
  O  O40  1  0.080113  0.044341  0.015413  1
  O  O41  1  0.240714  0.236498  0.833667  1
  O  O42  1  0.106841  0.548747  0.836380  1
  O  O43  1  0.166690  0.665684  0.499047  1
  O  O44  1  0.330913  0.335035  0.502021  1
  O  O45  1  0.392821  0.455767  0.164111  1
  O  O46  1  0.263602  0.763086  0.159690  1
  O  O47  1  0.088905  0.994810  0.494620  1
  O  O48  1  0.641254  0.108652  0.230600  1
  O  O49  1  0.366187  0.385459  0.766774  1
  O  O50  1  0.420097  0.495407  0.491410  1
  O  O51  1  0.576032  0.397675  0.160168  1
  O  O52  1  0.443216  0.709832  0.163910  1
  O  O53  1  0.667600  0.165121  0.500139  1
  O  O54  1  0.332400  0.834879  0.499861  1
  O  O55  1  0.919887  0.955659  0.984587  1
  O  O56  1  0.556784  0.290168  0.836090  1
  O  O57  1  0.423968  0.602325  0.839832  1
  O  O58  1  0.579903  0.504593  0.508590  1
  O  O59  1  0.607215  0.785429  0.000772  1
  O  O60  1  0.869455  0.217129  0.013591  1
  O  O61  1  0.633813  0.614541  0.233226  1
  O  O62  1  0.358746  0.891348  0.769400  1
  O  O63  1  0.911095  0.005190  0.505380  1
  O  O64  1  0.736398  0.236914  0.840310  1
  O  O65  1  0.607179  0.544233  0.835889  1
  O  O66  1  0.669087  0.664965  0.497979  1
  O  O67  1  0.833310  0.334316  0.500953  1
  O  O68  1  0.893159  0.451253  0.163620  1
  O  O69  1  0.759286  0.763502  0.166333  1
  O  O70  1  0.576935  0.002881  0.508548  1
  O  O71  1  0.867603  0.377370  0.766982  1
  O  O72  1  0.613495  0.888847  0.776267  1
  O  O73  1  0.915325  0.504259  0.503516  1
  O  O74  1  0.943013  0.714843  0.162814  1
  O  O75  1  0.833672  0.832653  0.497647  1
  O  O76  1  0.926935  0.595699  0.835341  1
  O  O77  1  0.864948  0.882081  0.769257  1
