# generated using pymatgen
data_LiNb(PO3)4
_symmetry_space_group_name_H-M   'P 1'
_cell_length_a   7.58812598
_cell_length_b   8.72429738
_cell_length_c   14.86571574
_cell_angle_alpha   90.00000000
_cell_angle_beta   96.06492952
_cell_angle_gamma   90.00000000
_symmetry_Int_Tables_number   1
_chemical_formula_structural   LiNb(PO3)4
_chemical_formula_sum   'Li4 Nb4 P16 O48'
_cell_volume   978.61790257
_cell_formula_units_Z   4
loop_
 _symmetry_equiv_pos_site_id
 _symmetry_equiv_pos_as_xyz
  1  'x, y, z'
loop_
 _atom_site_type_symbol
 _atom_site_label
 _atom_site_symmetry_multiplicity
 _atom_site_fract_x
 _atom_site_fract_y
 _atom_site_fract_z
 _atom_site_occupancy
  Li  Li0  1  0.059395  0.583798  0.926711  1
  Li  Li1  1  0.440605  0.083798  0.573289  1
  Li  Li2  1  0.559395  0.916202  0.426711  1
  Li  Li3  1  0.940605  0.416202  0.073289  1
  Nb  Nb4  1  0.042596  0.658402  0.353921  1
  Nb  Nb5  1  0.542596  0.841598  0.853921  1
  Nb  Nb6  1  0.457404  0.158402  0.146079  1
  Nb  Nb7  1  0.957404  0.341598  0.646079  1
  P  P8  1  0.064369  0.272366  0.429661  1
  P  P9  1  0.135996  0.050713  0.783672  1
  P  P10  1  0.185435  0.235515  0.951880  1
  P  P11  1  0.203662  0.030563  0.310387  1
  P  P12  1  0.314565  0.735515  0.548120  1
  P  P13  1  0.364004  0.550713  0.716328  1
  P  P14  1  0.296338  0.530563  0.189613  1
  P  P15  1  0.564369  0.227634  0.929661  1
  P  P16  1  0.435631  0.772366  0.070339  1
  P  P17  1  0.703662  0.469437  0.810387  1
  P  P18  1  0.635996  0.449287  0.283672  1
  P  P19  1  0.685435  0.264485  0.451880  1
  P  P20  1  0.796338  0.969437  0.689613  1
  P  P21  1  0.814565  0.764485  0.048120  1
  P  P22  1  0.864004  0.949287  0.216328  1
  P  P23  1  0.935631  0.727634  0.570339  1
  O  O24  1  0.076488  0.376828  0.963454  1
  O  O25  1  0.080218  0.132161  0.874034  1
  O  O26  1  0.032316  0.062085  0.238296  1
  O  O27  1  0.108746  0.282191  0.530549  1
  O  O28  1  0.138400  0.162499  0.706290  1
  O  O29  1  0.139904  0.784894  0.594065  1
  O  O30  1  0.102076  0.405355  0.371291  1
  O  O31  1  0.202201  0.456967  0.695364  1
  O  O32  1  0.160932  0.119734  0.400614  1
  O  O33  1  0.139840  0.606060  0.223674  1
  O  O34  1  0.297799  0.956967  0.804636  1
  O  O35  1  0.222126  0.864500  0.337247  1
  O  O36  1  0.266282  0.640357  0.465048  1
  O  O37  1  0.360096  0.284894  0.905935  1
  O  O38  1  0.361600  0.662499  0.793710  1
  O  O39  1  0.391254  0.782191  0.969451  1
  O  O40  1  0.233718  0.140357  0.034952  1
  O  O41  1  0.277874  0.364500  0.162753  1
  O  O42  1  0.419782  0.632161  0.625966  1
  O  O43  1  0.360160  0.106060  0.276326  1
  O  O44  1  0.423512  0.876828  0.536546  1
  O  O45  1  0.339068  0.619734  0.099386  1
  O  O46  1  0.532316  0.437915  0.738296  1
  O  O47  1  0.397924  0.905355  0.128709  1
  O  O48  1  0.602076  0.094645  0.871291  1
  O  O49  1  0.467684  0.562085  0.261704  1
  O  O50  1  0.660932  0.380266  0.900614  1
  O  O51  1  0.576488  0.123172  0.463454  1
  O  O52  1  0.639840  0.893940  0.723674  1
  O  O53  1  0.580218  0.367839  0.374034  1
  O  O54  1  0.722126  0.635500  0.837247  1
  O  O55  1  0.766282  0.859643  0.965048  1
  O  O56  1  0.608746  0.217809  0.030549  1
  O  O57  1  0.638400  0.337501  0.206290  1
  O  O58  1  0.639904  0.715106  0.094065  1
  O  O59  1  0.733718  0.359643  0.534952  1
  O  O60  1  0.777874  0.135500  0.662753  1
  O  O61  1  0.702201  0.043033  0.195364  1
  O  O62  1  0.860160  0.393940  0.776326  1
  O  O63  1  0.839068  0.880266  0.599386  1
  O  O64  1  0.797799  0.543033  0.304636  1
  O  O65  1  0.897924  0.594645  0.628709  1
  O  O66  1  0.860096  0.215106  0.405935  1
  O  O67  1  0.861600  0.837501  0.293710  1
  O  O68  1  0.891254  0.717809  0.469451  1
  O  O69  1  0.967684  0.937915  0.761704  1
  O  O70  1  0.919782  0.867839  0.125966  1
  O  O71  1  0.923512  0.623172  0.036546  1
