# generated using pymatgen
data_VH8C2N2O6F
_symmetry_space_group_name_H-M   'P 1'
_cell_length_a   11.44350965
_cell_length_b   9.58382410
_cell_length_c   7.29852291
_cell_angle_alpha   90.00000000
_cell_angle_beta   95.02434682
_cell_angle_gamma   90.00000000
_symmetry_Int_Tables_number   1
_chemical_formula_structural   VH8C2N2O6F
_chemical_formula_sum   'V4 H32 C8 N8 O24 F4'
_cell_volume   797.37220171
_cell_formula_units_Z   4
loop_
 _symmetry_equiv_pos_site_id
 _symmetry_equiv_pos_as_xyz
  1  'x, y, z'
loop_
 _atom_site_type_symbol
 _atom_site_label
 _atom_site_symmetry_multiplicity
 _atom_site_fract_x
 _atom_site_fract_y
 _atom_site_fract_z
 _atom_site_occupancy
  V  V0  1  0.263370  0.468218  0.847083  1
  V  V1  1  0.736630  0.968218  0.652917  1
  V  V2  1  0.736630  0.531782  0.152917  1
  V  V3  1  0.263370  0.031782  0.347083  1
  H  H4  1  0.165222  0.039210  0.862190  1
  H  H5  1  0.834778  0.539210  0.637810  1
  H  H6  1  0.834778  0.960790  0.137810  1
  H  H7  1  0.165222  0.460790  0.362190  1
  H  H8  1  0.135991  0.195809  0.752616  1
  H  H9  1  0.864009  0.695809  0.747384  1
  H  H10  1  0.864009  0.804191  0.247384  1
  H  H11  1  0.135991  0.304191  0.252616  1
  H  H12  1  0.091407  0.042491  0.655563  1
  H  H13  1  0.908593  0.542491  0.844437  1
  H  H14  1  0.908593  0.957509  0.344437  1
  H  H15  1  0.091407  0.457509  0.155563  1
  H  H16  1  0.027996  0.104282  0.841769  1
  H  H17  1  0.972004  0.604282  0.658231  1
  H  H18  1  0.972004  0.895718  0.158231  1
  H  H19  1  0.027996  0.395718  0.341769  1
  H  H20  1  0.386641  0.120093  0.757842  1
  H  H21  1  0.613359  0.620093  0.742158  1
  H  H22  1  0.613359  0.879907  0.242158  1
  H  H23  1  0.386641  0.379907  0.257842  1
  H  H24  1  0.454854  0.260504  0.849270  1
  H  H25  1  0.545146  0.760504  0.650730  1
  H  H26  1  0.545146  0.739496  0.150730  1
  H  H27  1  0.454854  0.239496  0.349270  1
  H  H28  1  0.417817  0.130858  0.991868  1
  H  H29  1  0.582183  0.630858  0.508132  1
  H  H30  1  0.582183  0.869142  0.008132  1
  H  H31  1  0.417817  0.369142  0.491868  1
  H  H32  1  0.525782  0.105793  0.849943  1
  H  H33  1  0.474218  0.605793  0.650057  1
  H  H34  1  0.474218  0.894207  0.150057  1
  H  H35  1  0.525782  0.394207  0.349943  1
  C  C36  1  0.844393  0.225725  0.549817  1
  C  C37  1  0.155607  0.725725  0.950183  1
  C  C38  1  0.155607  0.774275  0.450183  1
  C  C39  1  0.844393  0.274275  0.049817  1
  C  C40  1  0.726526  0.269423  0.623761  1
  C  C41  1  0.273474  0.769423  0.876239  1
  C  C42  1  0.273474  0.730577  0.376239  1
  C  C43  1  0.726526  0.230577  0.123761  1
  N  N44  1  0.104834  0.095623  0.778404  1
  N  N45  1  0.895166  0.595623  0.721596  1
  N  N46  1  0.895166  0.904377  0.221596  1
  N  N47  1  0.104834  0.404377  0.278404  1
  N  N48  1  0.446584  0.153950  0.864543  1
  N  N49  1  0.553416  0.653950  0.635457  1
  N  N50  1  0.553416  0.846050  0.135457  1
  N  N51  1  0.446584  0.346050  0.364543  1
  O  O52  1  0.167538  0.382781  0.705320  1
  O  O53  1  0.832462  0.882781  0.794680  1
  O  O54  1  0.832462  0.617219  0.294680  1
  O  O55  1  0.167538  0.117219  0.205320  1
  O  O56  1  0.292190  0.126412  0.536047  1
  O  O57  1  0.707810  0.626412  0.963953  1
  O  O58  1  0.707810  0.873588  0.463953  1
  O  O59  1  0.292190  0.373588  0.036047  1
  O  O60  1  0.859819  0.090833  0.551480  1
  O  O61  1  0.140181  0.590833  0.948520  1
  O  O62  1  0.140181  0.909167  0.448520  1
  O  O63  1  0.859819  0.409167  0.051480  1
  O  O64  1  0.665902  0.162609  0.672442  1
  O  O65  1  0.334098  0.662609  0.827558  1
  O  O66  1  0.334098  0.837391  0.327558  1
  O  O67  1  0.665902  0.337391  0.172442  1
  O  O68  1  0.912896  0.186931  0.994829  1
  O  O69  1  0.087104  0.686931  0.505171  1
  O  O70  1  0.087104  0.813069  0.005171  1
  O  O71  1  0.912896  0.313069  0.494829  1
  O  O72  1  0.696419  0.392959  0.631298  1
  O  O73  1  0.303581  0.892959  0.868702  1
  O  O74  1  0.303581  0.607041  0.368702  1
  O  O75  1  0.696419  0.107041  0.131298  1
  F  F76  1  0.403193  0.425778  0.729228  1
  F  F77  1  0.596807  0.925778  0.770772  1
  F  F78  1  0.596807  0.574222  0.270772  1
  F  F79  1  0.403193  0.074222  0.229228  1
