# generated using pymatgen
data_Li2Cu(PO3)4
_symmetry_space_group_name_H-M   'P 1'
_cell_length_a   9.34338871
_cell_length_b   9.35164868
_cell_length_c   4.64826106
_cell_angle_alpha   86.94604966
_cell_angle_beta   92.40798659
_cell_angle_gamma   90.10869477
_symmetry_Int_Tables_number   1
_chemical_formula_structural   Li2Cu(PO3)4
_chemical_formula_sum   'Li4 Cu2 P8 O24'
_cell_volume   405.21191652
_cell_formula_units_Z   2
loop_
 _symmetry_equiv_pos_site_id
 _symmetry_equiv_pos_as_xyz
  1  'x, y, z'
loop_
 _atom_site_type_symbol
 _atom_site_label
 _atom_site_symmetry_multiplicity
 _atom_site_fract_x
 _atom_site_fract_y
 _atom_site_fract_z
 _atom_site_occupancy
  Li  Li0  1  0.003399  0.999157  0.500977  1
  Li  Li1  1  0.998277  0.503431  0.503800  1
  Li  Li2  1  0.501449  0.501273  0.498361  1
  Li  Li3  1  0.495192  0.000625  0.501411  1
  Cu  Cu4  1  0.259899  0.269541  0.499994  1
  Cu  Cu5  1  0.728767  0.748492  0.494531  1
  P  P6  1  0.024641  0.752105  -0.001276  1
  P  P7  1  0.245382  0.529349  0.005061  1
  P  P8  1  0.246286  0.974639  -0.004014  1
  P  P9  1  0.470355  0.752748  0.001897  1
  P  P10  1  0.527723  0.245171  0.993679  1
  P  P11  1  0.755068  0.024309  0.004651  1
  P  P12  1  0.754891  0.472525  0.993478  1
  P  P13  1  0.976859  0.246070  0.005420  1
  O  O14  1  0.058882  0.316292  0.247655  1
  O  O15  1  0.044656  0.177396  0.763831  1
  O  O16  1  0.135238  0.864629  0.839574  1
  O  O17  1  0.139134  0.634835  0.158241  1
  O  O18  1  0.177495  0.041360  0.238371  1
  O  O19  1  0.171558  0.458330  0.761016  1
  O  O20  1  0.325335  0.445105  0.249522  1
  O  O21  1  0.319393  0.055738  0.754516  1
  O  O22  1  0.365331  0.861171  0.150724  1
  O  O23  1  0.362560  0.636977  0.858117  1
  O  O24  1  0.457432  0.171500  0.241523  1
  O  O25  1  0.443778  0.321882  0.744962  1
  O  O26  1  0.553138  0.674181  0.247519  1
  O  O27  1  0.543577  0.827075  0.756426  1
  O  O28  1  0.635527  0.135690  0.850019  1
  O  O29  1  0.635037  0.363726  0.129444  1
  O  O30  1  0.679167  0.557687  0.744567  1
  O  O31  1  0.682406  0.940780  0.247769  1
  O  O32  1  0.826518  0.540476  0.242927  1
  O  O33  1  0.823726  0.956653  0.762819  1
  O  O34  1  0.865105  0.134181  0.164114  1
  O  O35  1  0.864486  0.364853  0.850128  1
  O  O36  1  0.946824  0.679128  0.759031  1
  O  O37  1  0.955571  0.820981  0.239213  1
