# generated using pymatgen
data_Li4Ti3Cr3(CoO8)2
_symmetry_space_group_name_H-M   'P 1'
_cell_length_a   5.87032689
_cell_length_b   5.88109029
_cell_length_c   9.36388739
_cell_angle_alpha   90.38615866
_cell_angle_beta   90.10189121
_cell_angle_gamma   120.22359798
_symmetry_Int_Tables_number   1
_chemical_formula_structural   Li4Ti3Cr3(CoO8)2
_chemical_formula_sum   'Li4 Ti3 Cr3 Co2 O16'
_cell_volume   279.32278998
_cell_formula_units_Z   1
loop_
 _symmetry_equiv_pos_site_id
 _symmetry_equiv_pos_as_xyz
  1  'x, y, z'
loop_
 _atom_site_type_symbol
 _atom_site_label
 _atom_site_symmetry_multiplicity
 _atom_site_fract_x
 _atom_site_fract_y
 _atom_site_fract_z
 _atom_site_occupancy
  Li  Li0  1  0.335466  0.666170  0.892341  1
  Li  Li1  1  0.989219  0.994726  0.994542  1
  Li  Li2  1  0.003042  0.000162  0.497929  1
  Li  Li3  1  0.665535  0.332996  0.394498  1
  Ti  Ti4  1  0.167223  0.830864  0.211211  1
  Ti  Ti5  1  0.166920  0.336435  0.211379  1
  Ti  Ti6  1  0.341132  0.166548  0.715245  1
  Cr  Cr7  1  0.656350  0.828061  0.213582  1
  Cr  Cr8  1  0.828585  0.656288  0.712388  1
  Cr  Cr9  1  0.832160  0.168257  0.705902  1
  Co  Co10  1  0.332992  0.670433  0.481355  1
  Co  Co11  1  0.673602  0.336725  0.979445  1
  O  O12  1  0.176446  0.840537  0.601226  1
  O  O13  1  0.046972  0.524030  0.343996  1
  O  O14  1  0.321918  0.660612  0.100906  1
  O  O15  1  0.001469  0.001358  0.310567  1
  O  O16  1  0.003160  0.004433  0.807754  1
  O  O17  1  0.164887  0.337832  0.604320  1
  O  O18  1  0.472221  0.953786  0.345201  1
  O  O19  1  0.472522  0.519184  0.345381  1
  O  O20  1  0.336151  0.167349  0.103971  1
  O  O21  1  0.665742  0.843132  0.604181  1
  O  O22  1  0.521836  0.474980  0.845522  1
  O  O23  1  0.528683  0.048270  0.843076  1
  O  O24  1  0.658034  0.325865  0.600260  1
  O  O25  1  0.841982  0.665610  0.100561  1
  O  O26  1  0.954172  0.470197  0.839902  1
  O  O27  1  0.841580  0.175462  0.101197  1
