# generated using pymatgen
data_CuBi(PO4)2
_symmetry_space_group_name_H-M   'P 1'
_cell_length_a   10.35581418
_cell_length_b   6.28685757
_cell_length_c   5.40014326
_cell_angle_alpha   90.00000000
_cell_angle_beta   96.27795890
_cell_angle_gamma   90.00000000
_symmetry_Int_Tables_number   1
_chemical_formula_structural   CuBi(PO4)2
_chemical_formula_sum   'Cu2 Bi2 P4 O16'
_cell_volume   349.47079547
_cell_formula_units_Z   2
loop_
 _symmetry_equiv_pos_site_id
 _symmetry_equiv_pos_as_xyz
  1  'x, y, z'
loop_
 _atom_site_type_symbol
 _atom_site_label
 _atom_site_symmetry_multiplicity
 _atom_site_fract_x
 _atom_site_fract_y
 _atom_site_fract_z
 _atom_site_occupancy
  Cu  Cu0  1  0.316001  0.250000  0.842996  1
  Cu  Cu1  1  0.683999  0.750000  0.157004  1
  Bi  Bi2  1  0.213111  0.750000  0.444596  1
  Bi  Bi3  1  0.786889  0.250000  0.555404  1
  P  P4  1  0.111885  0.250000  0.363427  1
  P  P5  1  0.404806  0.750000  0.945009  1
  P  P6  1  0.595194  0.250000  0.054991  1
  P  P7  1  0.888115  0.750000  0.636573  1
  O  O8  1  0.037562  0.750000  0.674994  1
  O  O9  1  0.151868  0.250000  0.652352  1
  O  O10  1  0.169952  0.055246  0.236327  1
  O  O11  1  0.169952  0.444754  0.236327  1
  O  O12  1  0.330865  0.558845  0.795590  1
  O  O13  1  0.330865  0.941155  0.795590  1
  O  O14  1  0.396109  0.750000  0.224535  1
  O  O15  1  0.450284  0.250000  0.104823  1
  O  O16  1  0.549716  0.750000  0.895177  1
  O  O17  1  0.603891  0.250000  0.775465  1
  O  O18  1  0.669135  0.058845  0.204410  1
  O  O19  1  0.669135  0.441155  0.204410  1
  O  O20  1  0.830048  0.555246  0.763673  1
  O  O21  1  0.830048  0.944754  0.763673  1
  O  O22  1  0.848132  0.750000  0.347648  1
  O  O23  1  0.962438  0.250000  0.325006  1
