# generated using pymatgen
data_VGa2O5
_symmetry_space_group_name_H-M   'P 1'
_cell_length_a   5.05193958
_cell_length_b   5.62246345
_cell_length_c   6.98233651
_cell_angle_alpha   71.75085036
_cell_angle_beta   90.06478433
_cell_angle_gamma   63.27811767
_symmetry_Int_Tables_number   1
_chemical_formula_structural   VGa2O5
_chemical_formula_sum   'V2 Ga4 O10'
_cell_volume   165.86532709
_cell_formula_units_Z   2
loop_
 _symmetry_equiv_pos_site_id
 _symmetry_equiv_pos_as_xyz
  1  'x, y, z'
loop_
 _atom_site_type_symbol
 _atom_site_label
 _atom_site_symmetry_multiplicity
 _atom_site_fract_x
 _atom_site_fract_y
 _atom_site_fract_z
 _atom_site_occupancy
  V  V0  1  0.000820  0.000015  0.499966  1
  V  V1  1  0.998616  0.000940  0.999881  1
  Ga  Ga2  1  0.641080  0.727241  0.728529  1
  Ga  Ga3  1  0.631301  0.730086  0.228290  1
  Ga  Ga4  1  0.367050  0.271261  0.772579  1
  Ga  Ga5  1  0.361268  0.273485  0.272504  1
  O  O6  1  0.753474  0.824577  0.953761  1
  O  O7  1  0.422921  0.822724  0.456479  1
  O  O8  1  0.032758  0.636397  0.645969  1
  O  O9  1  0.668186  0.363541  0.855732  1
  O  O10  1  0.328843  0.638792  0.148130  1
  O  O11  1  0.966564  0.362225  0.350244  1
  O  O12  1  0.578655  0.175782  0.546546  1
  O  O13  1  0.199422  0.002075  0.749745  1
  O  O14  1  0.248969  0.172822  0.047260  1
  O  O15  1  0.797079  0.999216  0.250674  1
