# generated using pymatgen
data_Li3V(PO4)2
_symmetry_space_group_name_H-M   'P 1'
_cell_length_a   5.06774430
_cell_length_b   12.31485737
_cell_length_c   18.00961961
_cell_angle_alpha   90.00000000
_cell_angle_beta   90.00000000
_cell_angle_gamma   90.00000000
_symmetry_Int_Tables_number   1
_chemical_formula_structural   Li3V(PO4)2
_chemical_formula_sum   'Li24 V8 P16 O64'
_cell_volume   1123.95421425
_cell_formula_units_Z   8
loop_
 _symmetry_equiv_pos_site_id
 _symmetry_equiv_pos_as_xyz
  1  'x, y, z'
loop_
 _atom_site_type_symbol
 _atom_site_label
 _atom_site_symmetry_multiplicity
 _atom_site_fract_x
 _atom_site_fract_y
 _atom_site_fract_z
 _atom_site_occupancy
  Li  Li0  1  0.053486  0.353067  0.248908  1
  Li  Li1  1  0.053486  0.146933  0.748908  1
  Li  Li2  1  0.067007  0.461167  0.060297  1
  Li  Li3  1  0.067007  0.038833  0.560296  1
  Li  Li4  1  0.038346  0.715372  0.418474  1
  Li  Li5  1  0.038346  0.784628  0.918474  1
  Li  Li6  1  0.452592  0.032889  0.820267  1
  Li  Li7  1  0.452592  0.467111  0.320267  1
  Li  Li8  1  0.413942  0.791585  0.171802  1
  Li  Li9  1  0.413942  0.708415  0.671802  1
  Li  Li10  1  0.459659  0.607556  0.485747  1
  Li  Li11  1  0.459659  0.892444  0.985747  1
  Li  Li12  1  0.540341  0.107556  0.485747  1
  Li  Li13  1  0.540341  0.392444  0.985747  1
  Li  Li14  1  0.586058  0.208415  0.671802  1
  Li  Li15  1  0.586058  0.291585  0.171802  1
  Li  Li16  1  0.547408  0.532889  0.820267  1
  Li  Li17  1  0.547408  0.967111  0.320267  1
  Li  Li18  1  0.961654  0.284628  0.918474  1
  Li  Li19  1  0.961654  0.215372  0.418474  1
  Li  Li20  1  0.932993  0.961167  0.060297  1
  Li  Li21  1  0.932993  0.538833  0.560296  1
  Li  Li22  1  0.946514  0.853067  0.248908  1
  Li  Li23  1  0.946514  0.646933  0.748908  1
  V  V24  1  0.087810  0.098457  0.236478  1
  V  V25  1  0.087810  0.401543  0.736478  1
  V  V26  1  0.430145  0.152005  0.992576  1
  V  V27  1  0.430145  0.347995  0.492576  1
  V  V28  1  0.569855  0.652005  0.992576  1
  V  V29  1  0.569855  0.847995  0.492576  1
  V  V30  1  0.912190  0.598457  0.236478  1
  V  V31  1  0.912190  0.901543  0.736478  1
  P  P32  1  0.002272  0.719139  0.080083  1
  P  P33  1  0.002272  0.780861  0.580083  1
  P  P34  1  0.043072  0.968461  0.403293  1
  P  P35  1  0.043072  0.531539  0.903293  1
  P  P36  1  0.445506  0.722144  0.325765  1
  P  P37  1  0.445506  0.777856  0.825765  1
  P  P38  1  0.481429  0.532620  0.149297  1
  P  P39  1  0.481429  0.967380  0.649297  1
  P  P40  1  0.518571  0.032620  0.149297  1
  P  P41  1  0.518571  0.467380  0.649297  1
  P  P42  1  0.554494  0.222144  0.325765  1
  P  P43  1  0.554494  0.277856  0.825765  1
  P  P44  1  0.956928  0.031539  0.903293  1
  P  P45  1  0.956928  0.468461  0.403293  1
  P  P46  1  0.997728  0.219139  0.080083  1
  P  P47  1  0.997728  0.280861  0.580083  1
  O  O48  1  0.003052  0.483937  0.317439  1
  O  O49  1  0.003052  0.016063  0.817439  1
  O  O50  1  0.029381  0.735480  0.165679  1
  O  O51  1  0.029381  0.764520  0.665679  1
  O  O52  1  0.092578  0.103990  0.059566  1
  O  O53  1  0.092578  0.396010  0.559566  1
  O  O54  1  0.072989  0.563153  0.448740  1
  O  O55  1  0.072989  0.936847  0.948740  1
  O  O56  1  0.113694  0.362591  0.419636  1
  O  O57  1  0.113694  0.137409  0.919636  1
  O  O58  1  0.145338  0.708341  0.306296  1
  O  O59  1  0.145338  0.791659  0.806296  1
  O  O60  1  0.209780  0.294093  0.043588  1
  O  O61  1  0.209780  0.205907  0.543588  1
  O  O62  1  0.209431  0.505246  0.184039  1
  O  O63  1  0.209431  0.994754  0.684039  1
  O  O64  1  0.277458  0.745733  0.047128  1
  O  O65  1  0.277458  0.754267  0.547128  1
  O  O66  1  0.301743  0.543060  0.681450  1
  O  O67  1  0.301743  0.956940  0.181450  1
  O  O68  1  0.344429  0.545308  0.919830  1
  O  O69  1  0.344429  0.954692  0.419830  1
  O  O70  1  0.397650  0.116487  0.311086  1
  O  O71  1  0.397650  0.383513  0.811086  1
  O  O72  1  0.435243  0.182462  0.782410  1
  O  O73  1  0.435243  0.317538  0.282410  1
  O  O74  1  0.447392  0.981388  0.563148  1
  O  O75  1  0.447392  0.518612  0.063148  1
  O  O76  1  0.452958  0.736367  0.412691  1
  O  O77  1  0.452958  0.763633  0.912691  1
  O  O78  1  0.425369  0.147419  0.171028  1
  O  O79  1  0.425369  0.352581  0.671028  1
  O  O80  1  0.574631  0.647419  0.171028  1
  O  O81  1  0.574631  0.852581  0.671028  1
  O  O82  1  0.547042  0.263633  0.912691  1
  O  O83  1  0.547042  0.236367  0.412691  1
  O  O84  1  0.552608  0.481388  0.563148  1
  O  O85  1  0.552608  0.018612  0.063148  1
  O  O86  1  0.564757  0.682462  0.782410  1
  O  O87  1  0.564757  0.817538  0.282410  1
  O  O88  1  0.602350  0.616487  0.311086  1
  O  O89  1  0.602350  0.883513  0.811086  1
  O  O90  1  0.655571  0.045308  0.919830  1
  O  O91  1  0.655571  0.454692  0.419830  1
  O  O92  1  0.698257  0.456940  0.181450  1
  O  O93  1  0.698257  0.043060  0.681450  1
  O  O94  1  0.722542  0.254267  0.547128  1
  O  O95  1  0.722542  0.245733  0.047128  1
  O  O96  1  0.790569  0.494754  0.684039  1
  O  O97  1  0.790569  0.005246  0.184039  1
  O  O98  1  0.790220  0.794093  0.043588  1
  O  O99  1  0.790220  0.705907  0.543588  1
  O  O100  1  0.854662  0.208341  0.306296  1
  O  O101  1  0.854662  0.291659  0.806296  1
  O  O102  1  0.886306  0.637409  0.919636  1
  O  O103  1  0.886306  0.862591  0.419636  1
  O  O104  1  0.927011  0.436847  0.948740  1
  O  O105  1  0.927011  0.063153  0.448740  1
  O  O106  1  0.907422  0.603990  0.059566  1
  O  O107  1  0.907422  0.896010  0.559566  1
  O  O108  1  0.970619  0.235480  0.165679  1
  O  O109  1  0.970619  0.264520  0.665679  1
  O  O110  1  0.996948  0.516063  0.817439  1
  O  O111  1  0.996948  0.983937  0.317439  1
