# generated using pymatgen
data_Al2FeO4
_symmetry_space_group_name_H-M   'P 1'
_cell_length_a   5.82476433
_cell_length_b   5.82476437
_cell_length_c   23.33214638
_cell_angle_alpha   60.04690144
_cell_angle_beta   60.04690123
_cell_angle_gamma   59.99999521
_symmetry_Int_Tables_number   1
_chemical_formula_structural   Al2FeO4
_chemical_formula_sum   'Al16 Fe8 O32'
_cell_volume   560.14944862
_cell_formula_units_Z   8
loop_
 _symmetry_equiv_pos_site_id
 _symmetry_equiv_pos_as_xyz
  1  'x, y, z'
loop_
 _atom_site_type_symbol
 _atom_site_label
 _atom_site_symmetry_multiplicity
 _atom_site_fract_x
 _atom_site_fract_y
 _atom_site_fract_z
 _atom_site_occupancy
  Al  Al0  1  0.496133  0.001831  0.126476  1
  Al  Al1  1  0.496133  0.496133  0.126476  1
  Al  Al2  1  0.499907  0.499907  0.250070  1
  Al  Al3  1  0.500438  0.999651  0.374868  1
  Al  Al4  1  0.001831  0.496133  0.126476  1
  Al  Al5  1  0.500438  0.500438  0.374868  1
  Al  Al6  1  0.500181  0.500181  0.499864  1
  Al  Al7  1  0.500170  0.000389  0.624818  1
  Al  Al8  1  0.999651  0.500438  0.374868  1
  Al  Al9  1  0.500170  0.500170  0.624818  1
  Al  Al10  1  0.005912  0.499531  0.873756  1
  Al  Al11  1  0.502122  0.502122  0.748409  1
  Al  Al12  1  0.499531  0.005912  0.873756  1
  Al  Al13  1  0.000389  0.500170  0.624818  1
  Al  Al14  1  0.499531  0.499531  0.873756  1
  Al  Al15  1  0.878249  0.878249  0.966313  1
  Fe  Fe16  1  0.122763  0.122763  0.032928  1
  Fe  Fe17  1  0.498302  0.498302  0.001274  1
  Fe  Fe18  1  0.123047  0.123047  0.282715  1
  Fe  Fe19  1  0.125286  0.125286  0.531035  1
  Fe  Fe20  1  0.125871  0.125871  0.780597  1
  Fe  Fe21  1  0.877923  0.877923  0.216557  1
  Fe  Fe22  1  0.874751  0.874751  0.468937  1
  Fe  Fe23  1  0.873312  0.873312  0.720016  1
  O  O24  1  0.246391  0.246391  0.074301  1
  O  O25  1  0.246391  0.710013  0.074301  1
  O  O26  1  0.261613  0.261613  0.178791  1
  O  O27  1  0.710013  0.246391  0.074301  1
  O  O28  1  0.265297  0.265297  0.316577  1
  O  O29  1  0.302688  0.731954  0.183351  1
  O  O30  1  0.749052  0.749052  0.063211  1
  O  O31  1  0.265607  0.265607  0.425795  1
  O  O32  1  0.265297  0.703098  0.316577  1
  O  O33  1  0.731954  0.302688  0.183351  1
  O  O34  1  0.731954  0.731954  0.183351  1
  O  O35  1  0.703098  0.265297  0.316577  1
  O  O36  1  0.265984  0.265984  0.566013  1
  O  O37  1  0.296897  0.734787  0.433382  1
  O  O38  1  0.735537  0.735537  0.323347  1
  O  O39  1  0.265984  0.703978  0.566013  1
  O  O40  1  0.266269  0.266269  0.675299  1
  O  O41  1  0.734787  0.296897  0.433382  1
  O  O42  1  0.703978  0.265984  0.566013  1
  O  O43  1  0.734787  0.734787  0.433382  1
  O  O44  1  0.268620  0.268620  0.815034  1
  O  O45  1  0.296707  0.735275  0.683186  1
  O  O46  1  0.734628  0.734628  0.574029  1
  O  O47  1  0.268620  0.702627  0.815034  1
  O  O48  1  0.264797  0.264797  0.926402  1
  O  O49  1  0.735275  0.296707  0.683186  1
  O  O50  1  0.702627  0.268620  0.815034  1
  O  O51  1  0.735275  0.735275  0.683186  1
  O  O52  1  0.260986  0.759177  0.930165  1
  O  O53  1  0.728495  0.728495  0.828629  1
  O  O54  1  0.759177  0.260986  0.930165  1
  O  O55  1  0.759177  0.759177  0.930165  1
