# generated using pymatgen
data_Ni2P2O7
_symmetry_space_group_name_H-M   'P 1'
_cell_length_a   6.98844546
_cell_length_b   8.32036711
_cell_length_c   8.92175276
_cell_angle_alpha   90.00000000
_cell_angle_beta   112.00441295
_cell_angle_gamma   90.00000000
_symmetry_Int_Tables_number   1
_chemical_formula_structural   Ni2P2O7
_chemical_formula_sum   'Ni8 P8 O28'
_cell_volume   480.97842666
_cell_formula_units_Z   4
loop_
 _symmetry_equiv_pos_site_id
 _symmetry_equiv_pos_as_xyz
  1  'x, y, z'
loop_
 _atom_site_type_symbol
 _atom_site_label
 _atom_site_symmetry_multiplicity
 _atom_site_fract_x
 _atom_site_fract_y
 _atom_site_fract_z
 _atom_site_occupancy
  Ni  Ni0  1  0.874257  0.442588  0.179294  1
  Ni  Ni1  1  0.125743  0.557412  0.820706  1
  Ni  Ni2  1  0.625743  0.942588  0.320706  1
  Ni  Ni3  1  0.374257  0.057412  0.679294  1
  Ni  Ni4  1  0.621619  0.575640  0.390696  1
  Ni  Ni5  1  0.378381  0.424360  0.609304  1
  Ni  Ni6  1  0.878381  0.075640  0.109304  1
  Ni  Ni7  1  0.121619  0.924360  0.890696  1
  P  P8  1  0.183596  0.770580  0.242936  1
  P  P9  1  0.816404  0.229420  0.757064  1
  P  P10  1  0.316404  0.270580  0.257064  1
  P  P11  1  0.683596  0.729420  0.742936  1
  P  P12  1  0.937296  0.224985  0.466007  1
  P  P13  1  0.062704  0.775015  0.533993  1
  P  P14  1  0.562704  0.724985  0.033993  1
  P  P15  1  0.437296  0.275015  0.966007  1
  O  O16  1  0.845962  0.167124  0.595899  1
  O  O17  1  0.154038  0.832876  0.404101  1
  O  O18  1  0.654038  0.667124  0.904101  1
  O  O19  1  0.345962  0.332876  0.095899  1
  O  O20  1  0.826752  0.766831  0.449853  1
  O  O21  1  0.173248  0.233169  0.550147  1
  O  O22  1  0.673248  0.266831  0.050147  1
  O  O23  1  0.326752  0.733169  0.949853  1
  O  O24  1  0.080389  0.261897  0.202336  1
  O  O25  1  0.919611  0.738103  0.797664  1
  O  O26  1  0.419611  0.761897  0.297664  1
  O  O27  1  0.580389  0.238103  0.702336  1
  O  O28  1  0.847330  0.389469  0.397699  1
  O  O29  1  0.152670  0.610531  0.602301  1
  O  O30  1  0.652670  0.889469  0.102301  1
  O  O31  1  0.347330  0.110531  0.897699  1
  O  O32  1  0.097450  0.906648  0.119916  1
  O  O33  1  0.902550  0.093352  0.880084  1
  O  O34  1  0.402550  0.406648  0.380084  1
  O  O35  1  0.597450  0.593352  0.619916  1
  O  O36  1  0.864315  0.088787  0.341329  1
  O  O37  1  0.135685  0.911213  0.658671  1
  O  O38  1  0.635685  0.588787  0.158671  1
  O  O39  1  0.364315  0.411213  0.841329  1
  O  O40  1  0.076029  0.612045  0.190843  1
  O  O41  1  0.923971  0.387955  0.809157  1
  O  O42  1  0.423971  0.112045  0.309157  1
  O  O43  1  0.576029  0.887955  0.690843  1
