# generated using pymatgen
data_LiFePO4
_symmetry_space_group_name_H-M   'P 1'
_cell_length_a   7.65733161
_cell_length_b   7.65299038
_cell_length_c   9.85071934
_cell_angle_alpha   89.94483513
_cell_angle_beta   89.91604484
_cell_angle_gamma   119.76980611
_symmetry_Int_Tables_number   1
_chemical_formula_structural   LiFePO4
_chemical_formula_sum   'Li6 Fe6 P6 O24'
_cell_volume   501.08179882
_cell_formula_units_Z   6
loop_
 _symmetry_equiv_pos_site_id
 _symmetry_equiv_pos_as_xyz
  1  'x, y, z'
loop_
 _atom_site_type_symbol
 _atom_site_label
 _atom_site_symmetry_multiplicity
 _atom_site_fract_x
 _atom_site_fract_y
 _atom_site_fract_z
 _atom_site_occupancy
  Li  Li0  1  0.046067  0.592955  0.483605  1
  Li  Li1  1  0.546925  0.954300  0.483770  1
  Li  Li2  1  0.406610  0.452835  0.483693  1
  Li  Li3  1  0.452896  0.406610  0.983427  1
  Li  Li4  1  0.592931  0.046117  0.983543  1
  Li  Li5  1  0.954263  0.546908  0.983794  1
  Fe  Fe6  1  0.227682  0.944355  0.260006  1
  Fe  Fe7  1  0.056796  0.283216  0.259731  1
  Fe  Fe8  1  0.282722  0.056475  0.759616  1
  Fe  Fe9  1  0.716554  0.773297  0.260117  1
  Fe  Fe10  1  0.773192  0.716711  0.760274  1
  Fe  Fe11  1  0.944009  0.227598  0.760040  1
  P  P12  1  0.333273  0.666644  0.170428  1
  P  P13  1  0.000076  0.000016  0.995537  1
  P  P14  1  0.999967  0.000051  0.495456  1
  P  P15  1  0.333403  0.666586  0.764389  1
  P  P16  1  0.666666  0.333307  0.670578  1
  P  P17  1  0.666514  0.333376  0.264425  1
  O  O18  1  0.087330  0.867903  0.444537  1
  O  O19  1  0.186824  0.738156  0.117971  1
  O  O20  1  0.384119  0.877046  0.822303  1
  O  O21  1  0.122832  0.507250  0.822430  1
  O  O22  1  0.262879  0.449396  0.117969  1
  O  O23  1  0.332877  0.666533  0.327607  1
  O  O24  1  0.999687  0.999680  0.158165  1
  O  O25  1  0.999712  0.999654  0.658152  1
  O  O26  1  0.333553  0.666701  0.608171  1
  O  O27  1  0.131635  0.218471  0.444548  1
  O  O28  1  0.550448  0.812763  0.117833  1
  O  O29  1  0.218313  0.131598  0.944459  1
  O  O30  1  0.492776  0.614950  0.822499  1
  O  O31  1  0.781766  0.913715  0.444411  1
  O  O32  1  0.449531  0.262739  0.618117  1
  O  O33  1  0.507257  0.122644  0.322474  1
  O  O34  1  0.614908  0.492754  0.322572  1
  O  O35  1  0.812745  0.550616  0.617838  1
  O  O36  1  0.666797  0.333228  0.827663  1
  O  O37  1  0.666783  0.333406  0.108227  1
  O  O38  1  0.913731  0.781488  0.944426  1
  O  O39  1  0.738137  0.186759  0.618008  1
  O  O40  1  0.876880  0.383984  0.322355  1
  O  O41  1  0.867935  0.087208  0.944612  1
