# generated using pymatgen
data_Li4Nb2Ni3Sn3O16
_symmetry_space_group_name_H-M   'P 1'
_cell_length_a   6.12200651
_cell_length_b   6.14309629
_cell_length_c   9.84518309
_cell_angle_alpha   90.00150682
_cell_angle_beta   89.29456782
_cell_angle_gamma   120.11376534
_symmetry_Int_Tables_number   1
_chemical_formula_structural   Li4Nb2Ni3Sn3O16
_chemical_formula_sum   'Li4 Nb2 Ni3 Sn3 O16'
_cell_volume   320.25257758
_cell_formula_units_Z   1
loop_
 _symmetry_equiv_pos_site_id
 _symmetry_equiv_pos_as_xyz
  1  'x, y, z'
loop_
 _atom_site_type_symbol
 _atom_site_label
 _atom_site_symmetry_multiplicity
 _atom_site_fract_x
 _atom_site_fract_y
 _atom_site_fract_z
 _atom_site_occupancy
  Li  Li0  1  0.347850  0.673938  0.898032  1
  Li  Li1  1  0.974613  0.987308  0.984282  1
  Li  Li2  1  0.986192  0.993102  0.498470  1
  Li  Li3  1  0.663113  0.331558  0.406644  1
  Nb  Nb4  1  0.351289  0.675645  0.499362  1
  Nb  Nb5  1  0.703517  0.351780  0.977885  1
  Ni  Ni6  1  0.657804  0.828896  0.214610  1
  Ni  Ni7  1  0.832193  0.660575  0.712305  1
  Ni  Ni8  1  0.832172  0.171618  0.712305  1
  Sn  Sn9  1  0.170573  0.832501  0.214543  1
  Sn  Sn10  1  0.170537  0.338086  0.214546  1
  Sn  Sn11  1  0.342296  0.171163  0.716547  1
  O  O12  1  0.172675  0.833165  0.588201  1
  O  O13  1  0.025901  0.512978  0.341286  1
  O  O14  1  0.333944  0.666972  0.101713  1
  O  O15  1  0.991027  0.995529  0.312155  1
  O  O16  1  0.995649  0.997833  0.800249  1
  O  O17  1  0.172669  0.339547  0.588223  1
  O  O18  1  0.473921  0.957454  0.346629  1
  O  O19  1  0.473872  0.516421  0.346644  1
  O  O20  1  0.322277  0.161146  0.093758  1
  O  O21  1  0.657100  0.828550  0.591386  1
  O  O22  1  0.519302  0.478652  0.851894  1
  O  O23  1  0.519289  0.040681  0.851892  1
  O  O24  1  0.669664  0.334844  0.609512  1
  O  O25  1  0.833498  0.662781  0.092160  1
  O  O26  1  0.973550  0.486808  0.850460  1
  O  O27  1  0.833515  0.170772  0.092146  1
