# generated using pymatgen
data_LiZn2Fe9O16
_symmetry_space_group_name_H-M   'P 1'
_cell_length_a   6.04339990
_cell_length_b   6.05239183
_cell_length_c   12.09369414
_cell_angle_alpha   59.73296420
_cell_angle_beta   60.01885622
_cell_angle_gamma   60.04913382
_symmetry_Int_Tables_number   1
_chemical_formula_structural   LiZn2Fe9O16
_chemical_formula_sum   'Li1 Zn2 Fe9 O16'
_cell_volume   312.31312103
_cell_formula_units_Z   1
loop_
 _symmetry_equiv_pos_site_id
 _symmetry_equiv_pos_as_xyz
  1  'x, y, z'
loop_
 _atom_site_type_symbol
 _atom_site_label
 _atom_site_symmetry_multiplicity
 _atom_site_fract_x
 _atom_site_fract_y
 _atom_site_fract_z
 _atom_site_occupancy
  Li  Li0  1  0.251327  0.248738  0.624304  1
  Zn  Zn1  1  0.621848  0.128142  0.314081  1
  Zn  Zn2  1  0.625668  0.623180  0.062743  1
  Fe  Fe3  1  0.003330  0.000950  0.996194  1
  Fe  Fe4  1  0.242401  0.256539  0.129330  1
  Fe  Fe5  1  0.004522  0.993278  0.498839  1
  Fe  Fe6  1  0.130267  0.622887  0.313362  1
  Fe  Fe7  1  0.620123  0.622887  0.313362  1
  Fe  Fe8  1  0.624625  0.129502  0.810625  1
  Fe  Fe9  1  0.621902  0.617746  0.569225  1
  Fe  Fe10  1  0.131817  0.623683  0.809469  1
  Fe  Fe11  1  0.625562  0.623683  0.809469  1
  O  O12  1  0.367641  0.390585  0.191277  1
  O  O13  1  0.859222  0.390585  0.191277  1
  O  O14  1  0.373546  0.863303  0.194802  1
  O  O15  1  0.383069  0.400218  0.416822  1
  O  O16  1  0.873026  0.864461  0.194745  1
  O  O17  1  0.868047  0.393641  0.435132  1
  O  O18  1  0.873457  0.855191  0.438522  1
  O  O19  1  0.394308  0.855191  0.438522  1
  O  O20  1  0.386093  0.382527  0.696880  1
  O  O21  1  0.837620  0.382527  0.696880  1
  O  O22  1  0.388237  0.836161  0.693682  1
  O  O23  1  0.377880  0.384181  0.930029  1
  O  O24  1  0.869928  0.864627  0.697758  1
  O  O25  1  0.873544  0.395104  0.928904  1
  O  O26  1  0.396751  0.875243  0.926884  1
  O  O27  1  0.874238  0.875243  0.926884  1
