# generated using pymatgen
data_Zr3N2O3
_symmetry_space_group_name_H-M   'P 1'
_cell_length_a   4.05322174
_cell_length_b   5.76648879
_cell_length_c   10.82210164
_cell_angle_alpha   90.46420063
_cell_angle_beta   89.99436723
_cell_angle_gamma   110.40328788
_symmetry_Int_Tables_number   1
_chemical_formula_structural   Zr3N2O3
_chemical_formula_sum   'Zr6 N4 O6'
_cell_volume   237.06548894
_cell_formula_units_Z   2
loop_
 _symmetry_equiv_pos_site_id
 _symmetry_equiv_pos_as_xyz
  1  'x, y, z'
loop_
 _atom_site_type_symbol
 _atom_site_label
 _atom_site_symmetry_multiplicity
 _atom_site_fract_x
 _atom_site_fract_y
 _atom_site_fract_z
 _atom_site_occupancy
  Zr  Zr0  1  0.180606  0.365199  0.248181  1
  Zr  Zr1  1  0.141148  0.285209  0.940717  1
  Zr  Zr2  1  0.135616  0.270387  0.554970  1
  Zr  Zr3  1  0.803564  0.611114  0.748496  1
  Zr  Zr4  1  0.852270  0.710803  0.054415  1
  Zr  Zr5  1  0.860409  0.725470  0.439974  1
  N  N6  1  0.294089  0.593226  0.077762  1
  N  N7  1  0.050819  0.090717  0.384280  1
  N  N8  1  0.702714  0.406562  0.574294  1
  N  N9  1  0.699211  0.401161  0.919432  1
  O  O10  1  0.305390  0.615712  0.419451  1
  O  O11  1  0.242796  0.487844  0.751019  1
  O  O12  1  0.041619  0.087381  0.112698  1
  O  O13  1  0.750993  0.508073  0.256175  1
  O  O14  1  0.948248  0.908482  0.883926  1
  O  O15  1  0.955641  0.911042  0.619016  1
