# generated using pymatgen
data_Li2MnV4FeO12
_symmetry_space_group_name_H-M   'P 1'
_cell_length_a   6.99287581
_cell_length_b   6.99287520
_cell_length_c   5.82796470
_cell_angle_alpha   74.53045167
_cell_angle_beta   105.46954162
_cell_angle_gamma   96.82539977
_symmetry_Int_Tables_number   1
_chemical_formula_structural   Li2MnV4FeO12
_chemical_formula_sum   'Li2 Mn1 V4 Fe1 O12'
_cell_volume   264.36502639
_cell_formula_units_Z   1
loop_
 _symmetry_equiv_pos_site_id
 _symmetry_equiv_pos_as_xyz
  1  'x, y, z'
loop_
 _atom_site_type_symbol
 _atom_site_label
 _atom_site_symmetry_multiplicity
 _atom_site_fract_x
 _atom_site_fract_y
 _atom_site_fract_z
 _atom_site_occupancy
  Li  Li0  1  0.243369  0.243369  0.250000  1
  Li  Li1  1  0.754589  0.754589  0.750000  1
  Mn  Mn2  1  0.911983  0.911983  0.250000  1
  V  V3  1  0.190368  0.605395  0.768859  1
  V  V4  1  0.390363  0.794699  0.272428  1
  V  V5  1  0.605395  0.190368  0.731141  1
  V  V6  1  0.794699  0.390363  0.227572  1
  Fe  Fe7  1  0.085118  0.085118  0.750000  1
  O  O8  1  0.018685  0.799946  0.651645  1
  O  O9  1  0.108887  0.358563  0.841773  1
  O  O10  1  0.212826  0.975954  0.157542  1
  O  O11  1  0.365304  0.649158  0.560717  1
  O  O12  1  0.358563  0.108887  0.658227  1
  O  O13  1  0.361529  0.644220  0.065281  1
  O  O14  1  0.649158  0.365304  0.939283  1
  O  O15  1  0.626930  0.902114  0.325063  1
  O  O16  1  0.644220  0.361529  0.434719  1
  O  O17  1  0.799946  0.018685  0.848355  1
  O  O18  1  0.902114  0.626930  0.174937  1
  O  O19  1  0.975954  0.212826  0.342458  1
