# generated using pymatgen
data_Mn3OF5
_symmetry_space_group_name_H-M   'P 1'
_cell_length_a   7.72521063
_cell_length_b   5.87383065
_cell_length_c   5.85634131
_cell_angle_alpha   70.60481555
_cell_angle_beta   72.11538503
_cell_angle_gamma   72.31035149
_symmetry_Int_Tables_number   1
_chemical_formula_structural   Mn3OF5
_chemical_formula_sum   'Mn6 O2 F10'
_cell_volume   232.43675409
_cell_formula_units_Z   2
loop_
 _symmetry_equiv_pos_site_id
 _symmetry_equiv_pos_as_xyz
  1  'x, y, z'
loop_
 _atom_site_type_symbol
 _atom_site_label
 _atom_site_symmetry_multiplicity
 _atom_site_fract_x
 _atom_site_fract_y
 _atom_site_fract_z
 _atom_site_occupancy
  Mn  Mn0  1  0.833333  0.666667  0.666667  1
  Mn  Mn1  1  0.671742  0.362481  0.297629  1
  Mn  Mn2  1  0.333333  0.666667  0.666667  1
  Mn  Mn3  1  0.158335  0.347811  0.339321  1
  Mn  Mn4  1  0.508332  0.985522  0.994013  1
  Mn  Mn5  1  0.994924  0.970853  0.035704  1
  O  O6  1  0.675442  0.649639  0.995983  1
  O  O7  1  0.991225  0.683694  0.337351  1
  F  F8  1  0.671505  0.047487  0.608221  1
  F  F9  1  0.341265  0.348210  0.968039  1
  F  F10  1  0.293934  0.894362  0.907767  1
  F  F11  1  0.633912  0.573013  0.559198  1
  F  F12  1  0.967333  0.232847  0.233859  1
  F  F13  1  0.699333  0.100487  0.099474  1
  F  F14  1  0.032754  0.760320  0.774135  1
  F  F15  1  0.372733  0.438971  0.425567  1
  F  F16  1  0.325402  0.985123  0.365295  1
  F  F17  1  0.995161  0.285846  0.725113  1
