# generated using pymatgen
data_Ca(SeO3)2
_symmetry_space_group_name_H-M   'P 1'
_cell_length_a   7.29321821
_cell_length_b   12.05855770
_cell_length_c   6.98933705
_cell_angle_alpha   90.00000000
_cell_angle_beta   103.05221132
_cell_angle_gamma   90.00000000
_symmetry_Int_Tables_number   1
_chemical_formula_structural   Ca(SeO3)2
_chemical_formula_sum   'Ca4 Se8 O24'
_cell_volume   598.80157408
_cell_formula_units_Z   4
loop_
 _symmetry_equiv_pos_site_id
 _symmetry_equiv_pos_as_xyz
  1  'x, y, z'
loop_
 _atom_site_type_symbol
 _atom_site_label
 _atom_site_symmetry_multiplicity
 _atom_site_fract_x
 _atom_site_fract_y
 _atom_site_fract_z
 _atom_site_occupancy
  Ca  Ca0  1  0.237517  0.586979  0.552851  1
  Ca  Ca1  1  0.262483  0.086979  0.947149  1
  Ca  Ca2  1  0.737517  0.913021  0.052851  1
  Ca  Ca3  1  0.762483  0.413021  0.447149  1
  Se  Se4  1  0.157957  0.365703  0.878923  1
  Se  Se5  1  0.342043  0.865703  0.621077  1
  Se  Se6  1  0.244125  0.318362  0.395349  1
  Se  Se7  1  0.255875  0.818362  0.104651  1
  Se  Se8  1  0.744125  0.181638  0.895349  1
  Se  Se9  1  0.755875  0.681638  0.604651  1
  Se  Se10  1  0.657957  0.134297  0.378922  1
  Se  Se11  1  0.842043  0.634297  0.121078  1
  O  O12  1  0.088216  0.413159  0.437099  1
  O  O13  1  0.237581  0.987097  0.618412  1
  O  O14  1  0.070884  0.632315  0.224446  1
  O  O15  1  0.228815  0.765164  0.715214  1
  O  O16  1  0.271185  0.265164  0.784786  1
  O  O17  1  0.062941  0.896613  0.074170  1
  O  O18  1  0.262419  0.487097  0.881588  1
  O  O19  1  0.157432  0.304733  0.107434  1
  O  O20  1  0.342568  0.804733  0.392566  1
  O  O21  1  0.588216  0.086841  0.937099  1
  O  O22  1  0.437059  0.396613  0.425830  1
  O  O23  1  0.570884  0.867685  0.724446  1
  O  O24  1  0.429116  0.132315  0.275554  1
  O  O25  1  0.562941  0.603387  0.574170  1
  O  O26  1  0.411784  0.913159  0.062901  1
  O  O27  1  0.657432  0.195267  0.607434  1
  O  O28  1  0.842568  0.695267  0.892566  1
  O  O29  1  0.737581  0.512903  0.118412  1
  O  O30  1  0.937059  0.103387  0.925830  1
  O  O31  1  0.728815  0.734836  0.215214  1
  O  O32  1  0.771185  0.234836  0.284786  1
  O  O33  1  0.929116  0.367685  0.775554  1
  O  O34  1  0.762419  0.012903  0.381588  1
  O  O35  1  0.911784  0.586841  0.562901  1
