# generated using pymatgen
data_Ti3CoCu2(PO4)6
_symmetry_space_group_name_H-M   'P 1'
_cell_length_a   8.53979040
_cell_length_b   8.53978957
_cell_length_c   8.53979045
_cell_angle_alpha   60.24929214
_cell_angle_beta   60.24929381
_cell_angle_gamma   60.24929205
_symmetry_Int_Tables_number   1
_chemical_formula_structural   Ti3CoCu2(PO4)6
_chemical_formula_sum   'Ti3 Co1 Cu2 P6 O24'
_cell_volume   442.86411506
_cell_formula_units_Z   1
loop_
 _symmetry_equiv_pos_site_id
 _symmetry_equiv_pos_as_xyz
  1  'x, y, z'
loop_
 _atom_site_type_symbol
 _atom_site_label
 _atom_site_symmetry_multiplicity
 _atom_site_fract_x
 _atom_site_fract_y
 _atom_site_fract_z
 _atom_site_occupancy
  Ti  Ti0  1  0.141100  0.141100  0.141100  1
  Ti  Ti1  1  0.357363  0.357363  0.357363  1
  Ti  Ti2  1  0.643111  0.643111  0.643111  1
  Co  Co3  1  0.859122  0.859122  0.859122  1
  Cu  Cu4  1  0.997920  0.997920  0.997920  1
  Cu  Cu5  1  0.499542  0.499542  0.499542  1
  P  P6  1  0.245642  0.544152  0.956184  1
  P  P7  1  0.544152  0.956184  0.245642  1
  P  P8  1  0.956184  0.245642  0.544152  1
  P  P9  1  0.039466  0.752273  0.465137  1
  P  P10  1  0.465137  0.039466  0.752273  1
  P  P11  1  0.752273  0.465137  0.039466  1
  O  O12  1  0.118537  0.310042  0.498924  1
  O  O13  1  0.310042  0.498924  0.118537  1
  O  O14  1  0.055065  0.914240  0.266431  1
  O  O15  1  0.498924  0.118537  0.310042  1
  O  O16  1  0.007446  0.809841  0.622571  1
  O  O17  1  0.234618  0.586537  0.439034  1
  O  O18  1  0.266431  0.055065  0.914240  1
  O  O19  1  0.439034  0.234618  0.586537  1
  O  O20  1  0.188048  0.378258  0.000800  1
  O  O21  1  0.586537  0.439034  0.234618  1
  O  O22  1  0.080063  0.737862  0.944261  1
  O  O23  1  0.378258  0.000800  0.188048  1
  O  O24  1  0.622571  0.007446  0.809841  1
  O  O25  1  0.914240  0.266431  0.055065  1
  O  O26  1  0.413400  0.556887  0.764180  1
  O  O27  1  0.809841  0.622571  0.007446  1
  O  O28  1  0.556887  0.764180  0.413400  1
  O  O29  1  0.737862  0.944261  0.080063  1
  O  O30  1  0.764180  0.413400  0.556887  1
  O  O31  1  0.000800  0.188048  0.378258  1
  O  O32  1  0.504425  0.877773  0.689751  1
  O  O33  1  0.944261  0.080063  0.737862  1
  O  O34  1  0.689751  0.504425  0.877773  1
  O  O35  1  0.877773  0.689751  0.504425  1
