# generated using pymatgen
data_Li8MnFe7(BO3)8
_symmetry_space_group_name_H-M   'P 1'
_cell_length_a   5.96811319
_cell_length_b   5.23984785
_cell_length_c   17.75445452
_cell_angle_alpha   98.98657484
_cell_angle_beta   83.33731228
_cell_angle_gamma   114.28704594
_symmetry_Int_Tables_number   1
_chemical_formula_structural   Li8MnFe7(BO3)8
_chemical_formula_sum   'Li8 Mn1 Fe7 B8 O24'
_cell_volume   499.03916146
_cell_formula_units_Z   1
loop_
 _symmetry_equiv_pos_site_id
 _symmetry_equiv_pos_as_xyz
  1  'x, y, z'
loop_
 _atom_site_type_symbol
 _atom_site_label
 _atom_site_symmetry_multiplicity
 _atom_site_fract_x
 _atom_site_fract_y
 _atom_site_fract_z
 _atom_site_occupancy
  Li  Li0  1  0.912474  0.914702  0.768253  1
  Li  Li1  1  0.588818  0.088272  0.733390  1
  Li  Li2  1  0.833933  0.582232  0.481730  1
  Li  Li3  1  0.662032  0.414900  0.017161  1
  Li  Li4  1  0.336632  0.583790  0.983627  1
  Li  Li5  1  0.163071  0.413294  0.516976  1
  Li  Li6  1  0.412745  0.915253  0.266437  1
  Li  Li7  1  0.087637  0.084496  0.232936  1
  Mn  Mn8  1  0.166831  0.960823  0.603120  1
  Fe  Fe9  1  0.908370  0.453408  0.855049  1
  Fe  Fe10  1  0.841114  0.042860  0.394426  1
  Fe  Fe11  1  0.338094  0.039311  0.895003  1
  Fe  Fe12  1  0.594153  0.553541  0.647186  1
  Fe  Fe13  1  0.409776  0.457098  0.354723  1
  Fe  Fe14  1  0.659223  0.954489  0.105056  1
  Fe  Fe15  1  0.089179  0.540937  0.144442  1
  B  B16  1  0.694864  0.052571  0.564802  1
  B  B17  1  0.941855  0.550419  0.315059  1
  B  B18  1  0.808612  0.949566  0.934885  1
  B  B19  1  0.440250  0.549935  0.816463  1
  B  B20  1  0.558940  0.449003  0.184357  1
  B  B21  1  0.191819  0.050389  0.065654  1
  B  B22  1  0.054783  0.451295  0.685591  1
  B  B23  1  0.308944  0.947761  0.433044  1
  O  O24  1  0.961144  0.284307  0.744190  1
  O  O25  1  0.760567  0.188311  0.933375  1
  O  O26  1  0.000621  0.685338  0.684742  1
  O  O27  1  0.947516  0.871047  0.873493  1
  O  O28  1  0.790018  0.215202  0.505954  1
  O  O29  1  0.710853  0.787431  0.993927  1
  O  O30  1  0.557706  0.130643  0.626897  1
  O  O31  1  0.801675  0.627856  0.376329  1
  O  O32  1  0.489580  0.312470  0.817889  1
  O  O33  1  0.738416  0.810121  0.565621  1
  O  O34  1  0.697674  0.371388  0.122554  1
  O  O35  1  0.535981  0.713456  0.757521  1
  O  O36  1  0.461353  0.286517  0.243131  1
  O  O37  1  0.300273  0.626317  0.877901  1
  O  O38  1  0.260068  0.186133  0.432321  1
  O  O39  1  0.512180  0.689107  0.183352  1
  O  O40  1  0.198586  0.381317  0.624407  1
  O  O41  1  0.450546  0.873428  0.371927  1
  O  O42  1  0.288918  0.212985  0.006549  1
  O  O43  1  0.210541  0.780958  0.491449  1
  O  O44  1  0.052573  0.128107  0.127151  1
  O  O45  1  0.991405  0.313264  0.317068  1
  O  O46  1  0.238976  0.811305  0.067025  1
  O  O47  1  0.038681  0.712644  0.255861  1
