# generated using pymatgen
data_FeOF
_symmetry_space_group_name_H-M   'P 1'
_cell_length_a   14.13434349
_cell_length_b   14.12264689
_cell_length_c   3.09798241
_cell_angle_alpha   90.00000000
_cell_angle_beta   90.00000000
_cell_angle_gamma   90.02762345
_symmetry_Int_Tables_number   1
_chemical_formula_structural   FeOF
_chemical_formula_sum   'Fe18 O18 F18'
_cell_volume   618.40164890
_cell_formula_units_Z   18
loop_
 _symmetry_equiv_pos_site_id
 _symmetry_equiv_pos_as_xyz
  1  'x, y, z'
loop_
 _atom_site_type_symbol
 _atom_site_label
 _atom_site_symmetry_multiplicity
 _atom_site_fract_x
 _atom_site_fract_y
 _atom_site_fract_z
 _atom_site_occupancy
  Fe  Fe0  1  0.015700  0.992657  0.000000  1
  Fe  Fe1  1  0.005705  0.327159  0.000000  1
  Fe  Fe2  1  0.001403  0.677616  0.000000  1
  Fe  Fe3  1  0.151087  0.164926  0.500000  1
  Fe  Fe4  1  0.151996  0.486033  0.500000  1
  Fe  Fe5  1  0.165580  0.826567  0.500000  1
  Fe  Fe6  1  0.344463  0.001361  0.000000  1
  Fe  Fe7  1  0.343563  0.334425  0.000000  1
  Fe  Fe8  1  0.333308  0.674654  0.000000  1
  Fe  Fe9  1  0.483906  0.505515  0.500000  1
  Fe  Fe10  1  0.505097  0.149790  0.500000  1
  Fe  Fe11  1  0.484284  0.832063  0.500000  1
  Fe  Fe12  1  0.668968  0.002124  0.000000  1
  Fe  Fe13  1  0.677756  0.328576  0.000000  1
  Fe  Fe14  1  0.681996  0.669118  0.000000  1
  Fe  Fe15  1  0.844038  0.183594  0.500000  1
  Fe  Fe16  1  0.819676  0.496152  0.500000  1
  Fe  Fe17  1  0.817450  0.840499  0.500000  1
  O  O18  1  0.068096  0.272920  0.500000  1
  O  O19  1  0.068683  0.929445  0.500000  1
  O  O20  1  0.102999  0.101239  0.000000  1
  O  O21  1  0.096137  0.430447  0.000000  1
  O  O22  1  0.097181  0.764921  0.000000  1
  O  O23  1  0.262703  0.730898  0.500000  1
  O  O24  1  0.390566  0.598951  0.500000  1
  O  O25  1  0.400212  0.939230  0.500000  1
  O  O26  1  0.437154  0.098229  0.000000  1
  O  O27  1  0.432478  0.430477  0.000000  1
  O  O28  1  0.435557  0.769121  0.000000  1
  O  O29  1  0.609546  0.061968  0.500000  1
  O  O30  1  0.730374  0.265493  0.500000  1
  O  O31  1  0.735157  0.604701  0.500000  1
  O  O32  1  0.728727  0.943269  0.500000  1
  O  O33  1  0.768376  0.434676  0.000000  1
  O  O34  1  0.765374  0.774752  0.000000  1
  O  O35  1  0.906871  0.237174  0.000000  1
  F  F36  1  0.058912  0.599853  0.500000  1
  F  F37  1  0.240333  0.236158  0.000000  1
  F  F38  1  0.220661  0.555821  0.000000  1
  F  F39  1  0.234738  0.901354  0.000000  1
  F  F40  1  0.268992  0.072293  0.500000  1
  F  F41  1  0.267668  0.393407  0.500000  1
  F  F42  1  0.398905  0.265206  0.500000  1
  F  F43  1  0.562688  0.233304  0.000000  1
  F  F44  1  0.563097  0.564975  0.000000  1
  F  F45  1  0.566011  0.894721  0.000000  1
  F  F46  1  0.598548  0.398339  0.500000  1
  F  F47  1  0.600672  0.730135  0.500000  1
  F  F48  1  0.779300  0.105723  0.000000  1
  F  F49  1  0.903792  0.569290  0.000000  1
  F  F50  1  0.900397  0.902181  0.000000  1
  F  F51  1  0.935742  0.062918  0.500000  1
  F  F52  1  0.937015  0.401952  0.500000  1
  F  F53  1  0.930362  0.731632  0.500000  1
