# generated using pymatgen
data_CuSiH8(O2F3)2
_symmetry_space_group_name_H-M   'P 1'
_cell_length_a   6.81616384
_cell_length_b   6.10276691
_cell_length_c   9.45296678
_cell_angle_alpha   90.00000000
_cell_angle_beta   90.00000000
_cell_angle_gamma   110.17548650
_symmetry_Int_Tables_number   1
_chemical_formula_structural   CuSiH8(O2F3)2
_chemical_formula_sum   'Cu2 Si2 H16 O8 F12'
_cell_volume   369.09172027
_cell_formula_units_Z   2
loop_
 _symmetry_equiv_pos_site_id
 _symmetry_equiv_pos_as_xyz
  1  'x, y, z'
loop_
 _atom_site_type_symbol
 _atom_site_label
 _atom_site_symmetry_multiplicity
 _atom_site_fract_x
 _atom_site_fract_y
 _atom_site_fract_z
 _atom_site_occupancy
  Cu  Cu0  1  0.000000  0.500000  0.500000  1
  Cu  Cu1  1  0.000000  0.000000  0.000000  1
  Si  Si2  1  0.500000  0.500000  0.000000  1
  Si  Si3  1  0.500000  0.000000  0.500000  1
  H  H4  1  0.210829  0.409051  0.299808  1
  H  H5  1  0.789171  0.090949  0.799808  1
  H  H6  1  0.789171  0.590949  0.700192  1
  H  H7  1  0.210829  0.909051  0.200192  1
  H  H8  1  0.016645  0.781033  0.714377  1
  H  H9  1  0.983355  0.718967  0.214377  1
  H  H10  1  0.983355  0.218967  0.285623  1
  H  H11  1  0.016645  0.281033  0.785623  1
  H  H12  1  0.294552  0.063853  0.843243  1
  H  H13  1  0.705448  0.436147  0.343243  1
  H  H14  1  0.705448  0.936147  0.156757  1
  H  H15  1  0.294552  0.563853  0.656757  1
  H  H16  1  0.762041  0.699601  0.400296  1
  H  H17  1  0.237959  0.800399  0.900296  1
  H  H18  1  0.237959  0.300399  0.599704  1
  H  H19  1  0.762041  0.199601  0.099704  1
  O  O20  1  0.088635  0.314825  0.354519  1
  O  O21  1  0.911365  0.185175  0.854519  1
  O  O22  1  0.911365  0.685175  0.645481  1
  O  O23  1  0.088635  0.814825  0.145481  1
  O  O24  1  0.174532  0.913830  0.860930  1
  O  O25  1  0.825468  0.586170  0.360930  1
  O  O26  1  0.825468  0.086170  0.139070  1
  O  O27  1  0.174532  0.413830  0.639070  1
  F  F28  1  0.702962  0.916817  0.443151  1
  F  F29  1  0.297038  0.583183  0.943151  1
  F  F30  1  0.297038  0.083183  0.556849  1
  F  F31  1  0.702962  0.416817  0.056849  1
  F  F32  1  0.535418  0.180098  0.353822  1
  F  F33  1  0.464582  0.319902  0.853822  1
  F  F34  1  0.464582  0.819902  0.646178  1
  F  F35  1  0.535418  0.680098  0.146178  1
  F  F36  1  0.326378  0.777470  0.405355  1
  F  F37  1  0.673622  0.722530  0.905355  1
  F  F38  1  0.673622  0.222530  0.594645  1
  F  F39  1  0.326378  0.277470  0.094645  1
