# generated using pymatgen
data_Li9V3P8O29
_symmetry_space_group_name_H-M   'P 1'
_cell_length_a   9.88179412
_cell_length_b   9.91833625
_cell_length_c   13.75962776
_cell_angle_alpha   90.06791061
_cell_angle_beta   90.12144483
_cell_angle_gamma   60.13905555
_symmetry_Int_Tables_number   1
_chemical_formula_structural   Li9V3P8O29
_chemical_formula_sum   'Li18 V6 P16 O58'
_cell_volume   1169.54733056
_cell_formula_units_Z   2
loop_
 _symmetry_equiv_pos_site_id
 _symmetry_equiv_pos_as_xyz
  1  'x, y, z'
loop_
 _atom_site_type_symbol
 _atom_site_label
 _atom_site_symmetry_multiplicity
 _atom_site_fract_x
 _atom_site_fract_y
 _atom_site_fract_z
 _atom_site_occupancy
  Li  Li0  1  0.899286  0.769779  0.068121  1
  Li  Li1  1  0.907201  0.325775  0.562212  1
  Li  Li2  1  0.654651  0.683505  0.373754  1
  Li  Li3  1  0.666958  0.664117  0.883365  1
  Li  Li4  1  0.762884  0.338171  0.064258  1
  Li  Li5  1  0.335098  0.903241  0.073658  1
  Li  Li6  1  0.664798  0.236063  0.434001  1
  Li  Li7  1  0.326316  0.768532  0.560809  1
  Li  Li8  1  0.669458  0.098087  0.940311  1
  Li  Li9  1  0.233538  0.668603  0.939592  1
  Li  Li10  1  0.332100  0.336199  0.618087  1
  Li  Li11  1  0.334847  0.310267  0.123416  1
  Li  Li12  1  0.432899  0.000895  0.248867  1
  Li  Li13  1  0.104652  0.664175  0.431252  1
  Li  Li14  1  0.238737  0.099003  0.423438  1
  Li  Li15  1  0.096084  0.233755  0.940082  1
  Li  Li16  1  0.998194  0.006050  0.011553  1
  Li  Li17  1  0.015123  0.008475  0.485708  1
  V  V18  1  0.742946  0.886798  0.550443  1
  V  V19  1  0.564557  0.434732  0.249968  1
  V  V20  1  0.432135  0.565001  0.749055  1
  V  V21  1  0.560750  0.004480  0.756293  1
  V  V22  1  0.000693  0.563468  0.249030  1
  V  V23  1  0.000855  0.432682  0.751656  1
  P  P24  1  0.909079  0.772656  0.845970  1
  P  P25  1  0.775752  0.907833  0.341884  1
  P  P26  1  0.909972  0.316005  0.343757  1
  P  P27  1  0.666441  0.661695  0.124285  1
  P  P28  1  0.668886  0.666406  0.624750  1
  P  P29  1  0.772149  0.315761  0.843314  1
  P  P30  1  0.683506  0.226192  0.654398  1
  P  P31  1  0.313640  0.910857  0.845937  1
  P  P32  1  0.681156  0.092199  0.154397  1
  P  P33  1  0.316658  0.774598  0.345389  1
  P  P34  1  0.226617  0.684833  0.156616  1
  P  P35  1  0.331470  0.338746  0.376722  1
  P  P36  1  0.331306  0.336061  0.878295  1
  P  P37  1  0.086206  0.683488  0.656984  1
  P  P38  1  0.226834  0.088199  0.654862  1
  P  P39  1  0.089449  0.225039  0.154624  1
  O  O40  1  0.989672  0.771164  0.567975  1
  O  O41  1  0.928794  0.750625  0.341016  1
  O  O42  1  0.783063  0.001395  0.067065  1
  O  O43  1  0.749461  0.921598  0.846945  1
  O  O44  1  0.888371  0.629547  0.832725  1
  O  O45  1  0.812729  0.667939  0.163982  1
  O  O46  1  0.892841  0.477603  0.338129  1
  O  O47  1  0.988782  0.235812  0.066455  1
  O  O48  1  0.921680  0.326039  0.843513  1
  O  O49  1  0.673827  0.807811  0.674452  1
  O  O50  1  0.633321  0.889634  0.342742  1
  O  O51  1  0.810976  0.512024  0.659382  1
  O  O52  1  0.685432  0.631629  0.015445  1
  O  O53  1  0.680647  0.694280  0.516065  1
  O  O54  1  0.671450  0.509503  0.171824  1
  O  O55  1  0.478315  0.891078  0.837545  1
  O  O56  1  0.516730  0.802699  0.155935  1
  O  O57  1  0.745933  0.331921  0.345225  1
  O  O58  1  0.785240  0.211025  0.749380  1
  O  O59  1  0.770697  0.233073  0.565656  1
  O  O60  1  0.765322  0.230139  0.932607  1
  O  O61  1  0.629409  0.479870  0.829164  1
  O  O62  1  0.515024  0.670016  0.652073  1
  O  O63  1  0.674345  0.252438  0.158624  1
  O  O64  1  0.479651  0.623869  0.333406  1
  O  O65  1  0.333993  0.915873  0.348712  1
  O  O66  1  0.783672  0.000725  0.249095  1
  O  O67  1  0.783381  0.002027  0.430787  1
  O  O68  1  0.225036  0.997737  0.566038  1
  O  O69  1  0.672509  0.075697  0.652429  1
  O  O70  1  0.518568  0.366260  0.667736  1
  O  O71  1  0.327140  0.749721  0.843548  1
  O  O72  1  0.484377  0.335189  0.329257  1
  O  O73  1  0.375496  0.522153  0.167212  1
  O  O74  1  0.229188  0.774959  0.067579  1
  O  O75  1  0.227765  0.765071  0.434121  1
  O  O76  1  0.213419  0.785042  0.251253  1
  O  O77  1  0.245431  0.674865  0.654215  1
  O  O78  1  0.484823  0.191090  0.839650  1
  O  O79  1  0.521366  0.110133  0.158383  1
  O  O80  1  0.323765  0.487166  0.837076  1
  O  O81  1  0.330353  0.339474  0.987581  1
  O  O82  1  0.348299  0.352646  0.485698  1
  O  O83  1  0.189111  0.490984  0.337387  1
  O  O84  1  0.373583  0.105023  0.663955  1
  O  O85  1  0.325807  0.195944  0.344906  1
  O  O86  1  0.081463  0.668157  0.153819  1
  O  O87  1  0.997734  0.786035  0.750671  1
  O  O88  1  0.003647  0.766991  0.934314  1
  O  O89  1  0.108387  0.519471  0.666906  1
  O  O90  1  0.188722  0.324598  0.838319  1
  O  O91  1  0.105741  0.371922  0.166990  1
  O  O92  1  0.246418  0.081131  0.152846  1
  O  O93  1  0.221510  0.003434  0.933612  1
  O  O94  1  0.215760  0.999347  0.749711  1
  O  O95  1  0.080219  0.249969  0.655861  1
  O  O96  1  0.001899  0.220273  0.432408  1
  O  O97  1  0.995526  0.215743  0.249477  1
