# generated using pymatgen
data_LiMnPO4
_symmetry_space_group_name_H-M   'P 1'
_cell_length_a   8.86922935
_cell_length_b   7.94657063
_cell_length_c   15.41480865
_cell_angle_alpha   90.00000000
_cell_angle_beta   89.39477983
_cell_angle_gamma   90.00000000
_symmetry_Int_Tables_number   1
_chemical_formula_structural   LiMnPO4
_chemical_formula_sum   'Li12 Mn12 P12 O48'
_cell_volume   1086.37444774
_cell_formula_units_Z   12
loop_
 _symmetry_equiv_pos_site_id
 _symmetry_equiv_pos_as_xyz
  1  'x, y, z'
loop_
 _atom_site_type_symbol
 _atom_site_label
 _atom_site_symmetry_multiplicity
 _atom_site_fract_x
 _atom_site_fract_y
 _atom_site_fract_z
 _atom_site_occupancy
  Li  Li0  1  0.236564  0.038776  0.563285  1
  Li  Li1  1  0.237987  0.956098  0.907383  1
  Li  Li2  1  0.248602  0.155714  0.249487  1
  Li  Li3  1  0.251398  0.655714  0.250513  1
  Li  Li4  1  0.262013  0.456098  0.592617  1
  Li  Li5  1  0.263436  0.538776  0.936715  1
  Li  Li6  1  0.736564  0.461224  0.063285  1
  Li  Li7  1  0.737987  0.543902  0.407383  1
  Li  Li8  1  0.748602  0.344286  0.749487  1
  Li  Li9  1  0.751398  0.844286  0.750513  1
  Li  Li10  1  0.762013  0.043902  0.092617  1
  Li  Li11  1  0.763436  0.961224  0.436715  1
  Mn  Mn12  1  0.045158  0.733658  0.096002  1
  Mn  Mn13  1  0.089045  0.774347  0.729658  1
  Mn  Mn14  1  0.113332  0.728774  0.426972  1
  Mn  Mn15  1  0.386668  0.228774  0.073028  1
  Mn  Mn16  1  0.410955  0.274347  0.770342  1
  Mn  Mn17  1  0.454842  0.233658  0.403998  1
  Mn  Mn18  1  0.545158  0.766342  0.596002  1
  Mn  Mn19  1  0.589045  0.725653  0.229658  1
  Mn  Mn20  1  0.613332  0.771226  0.926972  1
  Mn  Mn21  1  0.886668  0.271226  0.573028  1
  Mn  Mn22  1  0.910955  0.225653  0.270342  1
  Mn  Mn23  1  0.954842  0.266342  0.903998  1
  P  P24  1  0.049517  0.324950  0.091323  1
  P  P25  1  0.090032  0.175329  0.724655  1
  P  P26  1  0.113867  0.323654  0.426836  1
  P  P27  1  0.386133  0.823654  0.073164  1
  P  P28  1  0.409968  0.675329  0.775345  1
  P  P29  1  0.450483  0.824950  0.408677  1
  P  P30  1  0.549517  0.175050  0.591323  1
  P  P31  1  0.590032  0.324671  0.224655  1
  P  P32  1  0.613867  0.176346  0.926836  1
  P  P33  1  0.886133  0.676346  0.573164  1
  P  P34  1  0.909968  0.824671  0.275345  1
  P  P35  1  0.950483  0.675050  0.908677  1
  O  O36  1  0.037235  0.510849  0.886111  1
  O  O37  1  0.034612  0.636827  0.621657  1
  O  O38  1  0.056174  0.787759  0.964353  1
  O  O39  1  0.062938  0.735143  0.293002  1
  O  O40  1  0.082698  0.206569  0.506544  1
  O  O41  1  0.096894  0.010010  0.671158  1
  O  O42  1  0.105289  0.136585  0.823763  1
  O  O43  1  0.089160  0.229914  0.176886  1
  O  O44  1  0.186080  0.488936  0.460853  1
  O  O45  1  0.197737  0.366810  0.039833  1
  O  O46  1  0.228285  0.233076  0.364740  1
  O  O47  1  0.221725  0.290900  0.693879  1
  O  O48  1  0.271715  0.733076  0.135260  1
  O  O49  1  0.278275  0.790900  0.806121  1
  O  O50  1  0.302263  0.866810  0.460167  1
  O  O51  1  0.313920  0.988936  0.039147  1
  O  O52  1  0.410840  0.729914  0.323114  1
  O  O53  1  0.394711  0.636585  0.676237  1
  O  O54  1  0.403106  0.510010  0.828842  1
  O  O55  1  0.437062  0.235143  0.206998  1
  O  O56  1  0.417302  0.706569  0.993456  1
  O  O57  1  0.443826  0.287759  0.535647  1
  O  O58  1  0.465388  0.136827  0.878343  1
  O  O59  1  0.462765  0.010849  0.613889  1
  O  O60  1  0.537235  0.989151  0.386111  1
  O  O61  1  0.534612  0.863173  0.121657  1
  O  O62  1  0.556174  0.712241  0.464353  1
  O  O63  1  0.582698  0.293431  0.006544  1
  O  O64  1  0.562938  0.764857  0.793002  1
  O  O65  1  0.596894  0.489990  0.171158  1
  O  O66  1  0.605289  0.363415  0.323763  1
  O  O67  1  0.589159  0.270086  0.676886  1
  O  O68  1  0.686080  0.011064  0.960853  1
  O  O69  1  0.697737  0.133190  0.539833  1
  O  O70  1  0.721725  0.209100  0.193879  1
  O  O71  1  0.728285  0.266924  0.864740  1
  O  O72  1  0.778275  0.709100  0.306121  1
  O  O73  1  0.771715  0.766924  0.635260  1
  O  O74  1  0.802263  0.633190  0.960167  1
  O  O75  1  0.813920  0.511064  0.539147  1
  O  O76  1  0.910841  0.770086  0.823114  1
  O  O77  1  0.894711  0.863415  0.176237  1
  O  O78  1  0.903106  0.989990  0.328842  1
  O  O79  1  0.917302  0.793431  0.493456  1
  O  O80  1  0.937062  0.264857  0.706998  1
  O  O81  1  0.943826  0.212241  0.035647  1
  O  O82  1  0.965388  0.363173  0.378343  1
  O  O83  1  0.962765  0.489151  0.113889  1
