# generated using pymatgen
data_Li4AlCr3O8
_symmetry_space_group_name_H-M   'P 1'
_cell_length_a   5.10915034
_cell_length_b   5.86599719
_cell_length_c   10.15822589
_cell_angle_alpha   89.96220796
_cell_angle_beta   80.46028456
_cell_angle_gamma   73.32974486
_symmetry_Int_Tables_number   1
_chemical_formula_structural   Li4AlCr3O8
_chemical_formula_sum   'Li8 Al2 Cr6 O16'
_cell_volume   287.26174081
_cell_formula_units_Z   2
loop_
 _symmetry_equiv_pos_site_id
 _symmetry_equiv_pos_as_xyz
  1  'x, y, z'
loop_
 _atom_site_type_symbol
 _atom_site_label
 _atom_site_symmetry_multiplicity
 _atom_site_fract_x
 _atom_site_fract_y
 _atom_site_fract_z
 _atom_site_occupancy
  Li  Li0  1  0.999399  0.000902  0.001170  1
  Li  Li1  1  0.000320  0.000657  0.498951  1
  Li  Li2  1  0.000000  0.250000  0.250000  1
  Li  Li3  1  0.000000  0.250000  0.750000  1
  Li  Li4  1  0.999680  0.499343  0.001049  1
  Li  Li5  1  0.000601  0.499097  0.498830  1
  Li  Li6  1  0.000000  0.750000  0.250000  1
  Li  Li7  1  0.000000  0.750000  0.750000  1
  Al  Al8  1  0.500224  0.126088  0.373192  1
  Al  Al9  1  0.499776  0.373912  0.126808  1
  Cr  Cr10  1  0.500266  0.126006  0.876659  1
  Cr  Cr11  1  0.499734  0.373994  0.623342  1
  Cr  Cr12  1  0.499685  0.623749  0.373246  1
  Cr  Cr13  1  0.499812  0.623872  0.876901  1
  Cr  Cr14  1  0.500314  0.876251  0.126754  1
  Cr  Cr15  1  0.500188  0.876128  0.623099  1
  O  O16  1  0.279696  0.189254  0.063979  1
  O  O17  1  0.278484  0.180932  0.552269  1
  O  O18  1  0.716981  0.079335  0.193328  1
  O  O19  1  0.727526  0.068395  0.689628  1
  O  O20  1  0.283019  0.420664  0.306673  1
  O  O21  1  0.720304  0.310746  0.436022  1
  O  O22  1  0.272473  0.431605  0.810372  1
  O  O23  1  0.721518  0.319067  0.947730  1
  O  O24  1  0.278187  0.671654  0.065052  1
  O  O25  1  0.720260  0.560704  0.186765  1
  O  O26  1  0.272641  0.681772  0.559468  1
  O  O27  1  0.726840  0.567985  0.689259  1
  O  O28  1  0.279740  0.939297  0.313235  1
  O  O29  1  0.721812  0.828347  0.434948  1
  O  O30  1  0.273160  0.932014  0.810741  1
  O  O31  1  0.727358  0.818229  0.940532  1
