# generated using pymatgen
data_B10H13CSN
_symmetry_space_group_name_H-M   'P 1'
_cell_length_a   7.95141547
_cell_length_b   15.13896413
_cell_length_c   9.55229907
_cell_angle_alpha   90.00000000
_cell_angle_beta   100.47400224
_cell_angle_gamma   90.00000000
_symmetry_Int_Tables_number   1
_chemical_formula_structural   B10H13CSN
_chemical_formula_sum   'B40 H52 C4 S4 N4'
_cell_volume   1130.70969801
_cell_formula_units_Z   4
loop_
 _symmetry_equiv_pos_site_id
 _symmetry_equiv_pos_as_xyz
  1  'x, y, z'
loop_
 _atom_site_type_symbol
 _atom_site_label
 _atom_site_symmetry_multiplicity
 _atom_site_fract_x
 _atom_site_fract_y
 _atom_site_fract_z
 _atom_site_occupancy
  B  B0  1  0.281415  0.705715  0.001738  1
  B  B1  1  0.781415  0.794285  0.501738  1
  B  B2  1  0.718585  0.294285  0.998262  1
  B  B3  1  0.218585  0.205715  0.498262  1
  B  B4  1  0.218007  0.598175  0.943249  1
  B  B5  1  0.718007  0.901825  0.443249  1
  B  B6  1  0.781993  0.401825  0.056751  1
  B  B7  1  0.281993  0.098175  0.556751  1
  B  B8  1  0.428381  0.634116  0.940720  1
  B  B9  1  0.928381  0.865884  0.440720  1
  B  B10  1  0.571619  0.365884  0.059280  1
  B  B11  1  0.071619  0.134116  0.559280  1
  B  B12  1  0.449891  0.749889  0.924823  1
  B  B13  1  0.949891  0.750111  0.424823  1
  B  B14  1  0.550109  0.250111  0.075177  1
  B  B15  1  0.050109  0.249889  0.575177  1
  B  B16  1  0.083933  0.692636  0.889671  1
  B  B17  1  0.583933  0.807364  0.389671  1
  B  B18  1  0.916067  0.307364  0.110329  1
  B  B19  1  0.416067  0.192636  0.610329  1
  B  B20  1  0.096444  0.600046  0.774083  1
  B  B21  1  0.596444  0.899954  0.274083  1
  B  B22  1  0.903556  0.399954  0.225917  1
  B  B23  1  0.403556  0.100046  0.725917  1
  B  B24  1  0.320886  0.576963  0.792601  1
  B  B25  1  0.820886  0.923037  0.292601  1
  B  B26  1  0.679114  0.423037  0.207399  1
  B  B27  1  0.179114  0.076963  0.707399  1
  B  B28  1  0.470751  0.677517  0.780798  1
  B  B29  1  0.970751  0.822483  0.280798  1
  B  B30  1  0.529249  0.322483  0.219202  1
  B  B31  1  0.029249  0.177517  0.719202  1
  B  B32  1  0.376199  0.784686  0.752743  1
  B  B33  1  0.876199  0.715314  0.252743  1
  B  B34  1  0.623801  0.215314  0.247257  1
  B  B35  1  0.123801  0.284686  0.747257  1
  B  B36  1  0.237344  0.792910  0.880743  1
  B  B37  1  0.737344  0.707090  0.380743  1
  B  B38  1  0.762656  0.207090  0.119257  1
  B  B39  1  0.262656  0.292910  0.619257  1
  H  H40  1  0.276359  0.723833  0.122319  1
  H  H41  1  0.776359  0.776167  0.622319  1
  H  H42  1  0.723641  0.276167  0.877681  1
  H  H43  1  0.223641  0.223833  0.377681  1
  H  H44  1  0.183174  0.543628  0.023239  1
  H  H45  1  0.683174  0.956372  0.523239  1
  H  H46  1  0.816826  0.456372  0.976761  1
  H  H47  1  0.316826  0.043628  0.476761  1
  H  H48  1  0.545043  0.593682  0.007131  1
  H  H49  1  0.045043  0.906318  0.507131  1
  H  H50  1  0.454957  0.406318  0.992869  1
  H  H51  1  0.954957  0.093682  0.492869  1
  H  H52  1  0.567305  0.786321  0.998221  1
  H  H53  1  0.067305  0.713679  0.498221  1
  H  H54  1  0.432695  0.213679  0.001779  1
  H  H55  1  0.932695  0.286321  0.501779  1
  H  H56  1  0.953108  0.705893  0.929851  1
  H  H57  1  0.453108  0.794107  0.429851  1
  H  H58  1  0.046892  0.294107  0.070149  1
  H  H59  1  0.546892  0.205893  0.570149  1
  H  H60  1  0.371207  0.507722  0.758069  1
  H  H61  1  0.871207  0.992278  0.258069  1
  H  H62  1  0.628793  0.492278  0.241931  1
  H  H63  1  0.128793  0.007722  0.741931  1
  H  H64  1  0.598051  0.661816  0.736009  1
  H  H65  1  0.098051  0.838184  0.236009  1
  H  H66  1  0.401949  0.338184  0.263991  1
  H  H67  1  0.901949  0.161816  0.763991  1
  H  H68  1  0.422843  0.843604  0.686449  1
  H  H69  1  0.922843  0.656396  0.186449  1
  H  H70  1  0.577157  0.156396  0.313551  1
  H  H71  1  0.077157  0.343604  0.813551  1
  H  H72  1  0.191078  0.863909  0.912901  1
  H  H73  1  0.691078  0.636091  0.412901  1
  H  H74  1  0.808922  0.136091  0.087099  1
  H  H75  1  0.308922  0.363909  0.587099  1
  H  H76  1  0.049314  0.688752  0.750107  1
  H  H77  1  0.549314  0.811248  0.250107  1
  H  H78  1  0.950686  0.311248  0.249893  1
  H  H79  1  0.450686  0.188752  0.749893  1
  H  H80  1  0.212037  0.605754  0.682138  1
  H  H81  1  0.712037  0.894246  0.182138  1
  H  H82  1  0.787963  0.394246  0.317862  1
  H  H83  1  0.287963  0.105754  0.817862  1
  H  H84  1  0.365015  0.712725  0.670797  1
  H  H85  1  0.865015  0.787275  0.170797  1
  H  H86  1  0.634985  0.287275  0.329203  1
  H  H87  1  0.134985  0.212725  0.829203  1
  H  H88  1  0.204950  0.794143  0.738768  1
  H  H89  1  0.704950  0.705857  0.238768  1
  H  H90  1  0.795050  0.205857  0.261232  1
  H  H91  1  0.295050  0.294143  0.761232  1
  C  C92  1  0.840451  0.497056  0.666618  1
  C  C93  1  0.340451  0.002944  0.166618  1
  C  C94  1  0.159549  0.502944  0.333382  1
  C  C95  1  0.659549  0.997056  0.833382  1
  S  S96  1  0.685799  0.434817  0.608348  1
  S  S97  1  0.185799  0.065183  0.108348  1
  S  S98  1  0.314201  0.565183  0.391652  1
  S  S99  1  0.814201  0.934817  0.891652  1
  N  N100  1  0.958324  0.544771  0.712314  1
  N  N101  1  0.458324  0.955229  0.212314  1
  N  N102  1  0.041676  0.455229  0.287686  1
  N  N103  1  0.541676  0.044771  0.787686  1
