# generated using pymatgen
data_Mn6OF11
_symmetry_space_group_name_H-M   'P 1'
_cell_length_a   4.91077514
_cell_length_b   4.91077514
_cell_length_c   9.97718613
_cell_angle_alpha   90.00000000
_cell_angle_beta   90.00000000
_cell_angle_gamma   88.59546068
_symmetry_Int_Tables_number   1
_chemical_formula_structural   Mn6OF11
_chemical_formula_sum   'Mn6 O1 F11'
_cell_volume   240.53466222
_cell_formula_units_Z   1
loop_
 _symmetry_equiv_pos_site_id
 _symmetry_equiv_pos_as_xyz
  1  'x, y, z'
loop_
 _atom_site_type_symbol
 _atom_site_label
 _atom_site_symmetry_multiplicity
 _atom_site_fract_x
 _atom_site_fract_y
 _atom_site_fract_z
 _atom_site_occupancy
  Mn  Mn0  1  0.011198  0.988802  0.010357  1
  Mn  Mn1  1  0.011198  0.988802  0.322976  1
  Mn  Mn2  1  0.999801  0.000199  0.666667  1
  Mn  Mn3  1  0.504075  0.495925  0.835281  1
  Mn  Mn4  1  0.477289  0.522711  0.166667  1
  Mn  Mn5  1  0.504075  0.495925  0.498052  1
  O  O6  1  0.201631  0.798369  0.166667  1
  F  F7  1  0.196850  0.803150  0.499332  1
  F  F8  1  0.196850  0.803150  0.834001  1
  F  F9  1  0.302140  0.310425  0.003829  1
  F  F10  1  0.302140  0.310425  0.329505  1
  F  F11  1  0.308794  0.302017  0.666667  1
  F  F12  1  0.689575  0.697860  0.003829  1
  F  F13  1  0.689575  0.697860  0.329505  1
  F  F14  1  0.697983  0.691206  0.666667  1
  F  F15  1  0.782511  0.217489  0.166667  1
  F  F16  1  0.812157  0.187843  0.491897  1
  F  F17  1  0.812157  0.187843  0.841436  1
