# generated using pymatgen
data_NbNi3(PO4)4
_symmetry_space_group_name_H-M   'P 1'
_cell_length_a   4.91155784
_cell_length_b   10.00583712
_cell_length_c   5.89609094
_cell_angle_alpha   90.00000000
_cell_angle_beta   90.00000000
_cell_angle_gamma   90.74827635
_symmetry_Int_Tables_number   1
_chemical_formula_structural   NbNi3(PO4)4
_chemical_formula_sum   'Nb1 Ni3 P4 O16'
_cell_volume   289.73424341
_cell_formula_units_Z   1
loop_
 _symmetry_equiv_pos_site_id
 _symmetry_equiv_pos_as_xyz
  1  'x, y, z'
loop_
 _atom_site_type_symbol
 _atom_site_label
 _atom_site_symmetry_multiplicity
 _atom_site_fract_x
 _atom_site_fract_y
 _atom_site_fract_z
 _atom_site_occupancy
  Nb  Nb0  1  0.973151  0.276284  0.250000  1
  Ni  Ni1  1  0.031077  0.730578  0.750000  1
  Ni  Ni2  1  0.458030  0.222241  0.750000  1
  Ni  Ni3  1  0.542747  0.769397  0.250000  1
  P  P4  1  0.083896  0.607355  0.250000  1
  P  P5  1  0.395693  0.087553  0.250000  1
  P  P6  1  0.593743  0.902179  0.750000  1
  P  P7  1  0.930406  0.409365  0.750000  1
  O  O8  1  0.148133  0.447203  0.250000  1
  O  O9  1  0.234794  0.669206  0.043879  1
  O  O10  1  0.234794  0.669206  0.456121  1
  O  O11  1  0.232907  0.384808  0.750000  1
  O  O12  1  0.282362  0.887731  0.750000  1
  O  O13  1  0.250049  0.168611  0.051234  1
  O  O14  1  0.250049  0.168611  0.448766  1
  O  O15  1  0.337088  0.942340  0.250000  1
  O  O16  1  0.656671  0.053352  0.750000  1
  O  O17  1  0.736427  0.831283  0.545342  1
  O  O18  1  0.736427  0.831283  0.954658  1
  O  O19  1  0.700857  0.127484  0.250000  1
  O  O20  1  0.778126  0.609808  0.250000  1
  O  O21  1  0.788047  0.326495  0.543568  1
  O  O22  1  0.788047  0.326495  0.956432  1
  O  O23  1  0.836478  0.551129  0.750000  1
