# generated using pymatgen
data_Li2Mn4OF8
_symmetry_space_group_name_H-M   'P 1'
_cell_length_a   7.06504637
_cell_length_b   8.08225716
_cell_length_c   8.78728375
_cell_angle_alpha   101.97256698
_cell_angle_beta   114.07909440
_cell_angle_gamma   100.47982497
_symmetry_Int_Tables_number   1
_chemical_formula_structural   Li2Mn4OF8
_chemical_formula_sum   'Li4 Mn8 O2 F16'
_cell_volume   427.72027196
_cell_formula_units_Z   2
loop_
 _symmetry_equiv_pos_site_id
 _symmetry_equiv_pos_as_xyz
  1  'x, y, z'
loop_
 _atom_site_type_symbol
 _atom_site_label
 _atom_site_symmetry_multiplicity
 _atom_site_fract_x
 _atom_site_fract_y
 _atom_site_fract_z
 _atom_site_occupancy
  Li  Li0  1  0.129532  0.234745  0.368216  1
  Li  Li1  1  0.517544  0.733435  0.910186  1
  Li  Li2  1  0.482456  0.266565  0.089814  1
  Li  Li3  1  0.870468  0.765255  0.631784  1
  Mn  Mn4  1  0.078897  0.405642  0.751347  1
  Mn  Mn5  1  0.337219  0.900526  0.546400  1
  Mn  Mn6  1  0.142757  0.874637  0.081119  1
  Mn  Mn7  1  0.370479  0.596886  0.234395  1
  Mn  Mn8  1  0.629521  0.403114  0.765605  1
  Mn  Mn9  1  0.857243  0.125363  0.918881  1
  Mn  Mn10  1  0.662781  0.099474  0.453600  1
  Mn  Mn11  1  0.921103  0.594358  0.248653  1
  O  O12  1  0.203177  0.772935  0.282852  1
  O  O13  1  0.796823  0.227065  0.717148  1
  F  F14  1  0.017997  0.940110  0.851736  1
  F  F15  1  0.042786  0.761521  0.519527  1
  F  F16  1  0.225547  0.344116  0.996862  1
  F  F17  1  0.363586  0.500268  0.730901  1
  F  F18  1  0.148299  0.439283  0.298078  1
  F  F19  1  0.539814  0.913436  0.800129  1
  F  F20  1  0.366982  0.161574  0.518885  1
  F  F21  1  0.676644  0.302224  0.989488  1
  F  F22  1  0.323356  0.697776  0.010512  1
  F  F23  1  0.633018  0.838426  0.481115  1
  F  F24  1  0.460186  0.086564  0.199871  1
  F  F25  1  0.851701  0.560717  0.701922  1
  F  F26  1  0.636414  0.499732  0.269099  1
  F  F27  1  0.774453  0.655884  0.003138  1
  F  F28  1  0.957214  0.238479  0.480473  1
  F  F29  1  0.982003  0.059890  0.148264  1
