# generated using pymatgen
data_Rb5FeO4
_symmetry_space_group_name_H-M   'P 1'
_cell_length_a   11.06198361
_cell_length_b   12.20572637
_cell_length_c   7.12521447
_cell_angle_alpha   90.00000000
_cell_angle_beta   97.89089737
_cell_angle_gamma   90.00000000
_symmetry_Int_Tables_number   1
_chemical_formula_structural   Rb5FeO4
_chemical_formula_sum   'Rb20 Fe4 O16'
_cell_volume   952.93390471
_cell_formula_units_Z   4
loop_
 _symmetry_equiv_pos_site_id
 _symmetry_equiv_pos_as_xyz
  1  'x, y, z'
loop_
 _atom_site_type_symbol
 _atom_site_label
 _atom_site_symmetry_multiplicity
 _atom_site_fract_x
 _atom_site_fract_y
 _atom_site_fract_z
 _atom_site_occupancy
  Rb  Rb0  1  0.010703  0.078156  0.771101  1
  Rb  Rb1  1  0.010703  0.421844  0.271101  1
  Rb  Rb2  1  0.149051  0.823748  0.832894  1
  Rb  Rb3  1  0.149051  0.676252  0.332894  1
  Rb  Rb4  1  0.235976  0.296048  0.995272  1
  Rb  Rb5  1  0.235976  0.203952  0.495272  1
  Rb  Rb6  1  0.368149  0.931369  0.549582  1
  Rb  Rb7  1  0.368149  0.568631  0.049582  1
  Rb  Rb8  1  0.505448  0.134744  0.923932  1
  Rb  Rb9  1  0.494552  0.634744  0.576068  1
  Rb  Rb10  1  0.505448  0.365256  0.423932  1
  Rb  Rb11  1  0.494552  0.865256  0.076068  1
  Rb  Rb12  1  0.631851  0.431369  0.950418  1
  Rb  Rb13  1  0.631851  0.068631  0.450418  1
  Rb  Rb14  1  0.764024  0.796048  0.504728  1
  Rb  Rb15  1  0.764024  0.703952  0.004728  1
  Rb  Rb16  1  0.850949  0.323748  0.667106  1
  Rb  Rb17  1  0.850949  0.176252  0.167106  1
  Rb  Rb18  1  0.989297  0.578156  0.728899  1
  Rb  Rb19  1  0.989297  0.921844  0.228899  1
  Fe  Fe20  1  0.253212  0.467200  0.615902  1
  Fe  Fe21  1  0.253212  0.032800  0.115902  1
  Fe  Fe22  1  0.746788  0.967200  0.884098  1
  Fe  Fe23  1  0.746788  0.532800  0.384097  1
  O  O24  1  0.106682  0.385756  0.654422  1
  O  O25  1  0.106682  0.114244  0.154422  1
  O  O26  1  0.239858  0.619953  0.693397  1
  O  O27  1  0.269703  0.034888  0.848026  1
  O  O28  1  0.239858  0.880047  0.193397  1
  O  O29  1  0.269703  0.465112  0.348026  1
  O  O30  1  0.394813  0.399988  0.759112  1
  O  O31  1  0.394813  0.100012  0.259112  1
  O  O32  1  0.605187  0.899988  0.740888  1
  O  O33  1  0.605187  0.600012  0.240888  1
  O  O34  1  0.730297  0.534888  0.651974  1
  O  O35  1  0.760142  0.119953  0.806603  1
  O  O36  1  0.730297  0.965112  0.151974  1
  O  O37  1  0.760142  0.380047  0.306603  1
  O  O38  1  0.893318  0.885756  0.845578  1
  O  O39  1  0.893318  0.614244  0.345578  1
