# generated using pymatgen
data_LiMnPO4F
_symmetry_space_group_name_H-M   'P 1'
_cell_length_a   6.21589460
_cell_length_b   7.31735876
_cell_length_c   9.27058119
_cell_angle_alpha   107.09578758
_cell_angle_beta   109.58764235
_cell_angle_gamma   64.86603187
_symmetry_Int_Tables_number   1
_chemical_formula_structural   LiMnPO4F
_chemical_formula_sum   'Li4 Mn4 P4 O16 F4'
_cell_volume   353.92212000
_cell_formula_units_Z   4
loop_
 _symmetry_equiv_pos_site_id
 _symmetry_equiv_pos_as_xyz
  1  'x, y, z'
loop_
 _atom_site_type_symbol
 _atom_site_label
 _atom_site_symmetry_multiplicity
 _atom_site_fract_x
 _atom_site_fract_y
 _atom_site_fract_z
 _atom_site_occupancy
  Li  Li0  1  0.035875  0.778226  0.353783  1
  Li  Li1  1  0.817018  0.618796  0.015922  1
  Li  Li2  1  0.539682  0.278226  0.853783  1
  Li  Li3  1  0.580108  0.118796  0.515922  1
  Mn  Mn4  1  0.903499  0.720710  0.732871  1
  Mn  Mn5  1  0.631556  0.555712  0.374914  1
  Mn  Mn6  1  0.108663  0.220710  0.232871  1
  Mn  Mn7  1  0.187646  0.055712  0.874914  1
  P  P8  1  0.306207  0.692013  0.045520  1
  P  P9  1  0.436553  0.600937  0.659383  1
  P  P10  1  0.621894  0.100937  0.159382  1
  P  P11  1  0.047301  0.192013  0.545520  1
  O  O12  1  0.238081  0.928437  0.050806  1
  O  O13  1  0.784689  0.880814  0.167466  1
  O  O14  1  0.335578  0.675766  0.215535  1
  O  O15  1  0.195364  0.749150  0.714865  1
  O  O16  1  0.382307  0.629271  0.487957  1
  O  O17  1  0.626131  0.701855  0.770309  1
  O  O18  1  0.077816  0.637745  0.936610  1
  O  O19  1  0.531898  0.554617  0.987776  1
  O  O20  1  0.884289  0.428437  0.550806  1
  O  O21  1  0.501964  0.380814  0.667466  1
  O  O22  1  0.770351  0.249150  0.214865  1
  O  O23  1  0.476378  0.129271  0.987957  1
  O  O24  1  0.442323  0.201855  0.270309  1
  O  O25  1  0.221048  0.137745  0.436610  1
  O  O26  1  0.204191  0.175766  0.715535  1
  O  O27  1  0.901261  0.054617  0.487776  1
  F  F28  1  0.704200  0.820378  0.541608  1
  F  F29  1  0.910377  0.551691  0.312154  1
  F  F30  1  0.017030  0.320378  0.041608  1
  F  F31  1  0.850086  0.051691  0.812154  1
