# generated using pymatgen
data_P3H22C3N9O11
_symmetry_space_group_name_H-M   'P 1'
_cell_length_a   12.28103158
_cell_length_b   15.25978347
_cell_length_c   10.83694019
_cell_angle_alpha   90.00000000
_cell_angle_beta   97.46604830
_cell_angle_gamma   90.00000000
_symmetry_Int_Tables_number   1
_chemical_formula_structural   P3H22C3N9O11
_chemical_formula_sum   'P12 H88 C12 N36 O44'
_cell_volume   2013.68838637
_cell_formula_units_Z   4
loop_
 _symmetry_equiv_pos_site_id
 _symmetry_equiv_pos_as_xyz
  1  'x, y, z'
loop_
 _atom_site_type_symbol
 _atom_site_label
 _atom_site_symmetry_multiplicity
 _atom_site_fract_x
 _atom_site_fract_y
 _atom_site_fract_z
 _atom_site_occupancy
  P  P0  1  0.139309  0.544001  0.261174  1
  P  P1  1  0.639309  0.955999  0.761174  1
  P  P2  1  0.860691  0.455999  0.738826  1
  P  P3  1  0.360691  0.044001  0.238826  1
  P  P4  1  0.301442  0.614026  0.113639  1
  P  P5  1  0.801442  0.885974  0.613639  1
  P  P6  1  0.698558  0.385974  0.886361  1
  P  P7  1  0.198558  0.114026  0.386361  1
  P  P8  1  0.338491  0.630779  0.380870  1
  P  P9  1  0.838491  0.869221  0.880870  1
  P  P10  1  0.661509  0.369221  0.619130  1
  P  P11  1  0.161509  0.130779  0.119130  1
  H  H12  1  0.825429  0.707802  0.527511  1
  H  H13  1  0.325429  0.792198  0.027511  1
  H  H14  1  0.174571  0.292198  0.472489  1
  H  H15  1  0.674571  0.207802  0.972489  1
  H  H16  1  0.843753  0.621183  0.609144  1
  H  H17  1  0.343753  0.878817  0.109144  1
  H  H18  1  0.156247  0.378817  0.390856  1
  H  H19  1  0.656247  0.121183  0.890856  1
  H  H20  1  0.824013  0.686332  0.972727  1
  H  H21  1  0.324013  0.813668  0.472727  1
  H  H22  1  0.175987  0.313668  0.027273  1
  H  H23  1  0.675987  0.186332  0.527273  1
  H  H24  1  0.852540  0.597997  0.908914  1
  H  H25  1  0.352540  0.902003  0.408914  1
  H  H26  1  0.147460  0.402003  0.091086  1
  H  H27  1  0.647460  0.097997  0.591086  1
  H  H28  1  0.519939  0.884386  0.302053  1
  H  H29  1  0.019939  0.615614  0.802053  1
  H  H30  1  0.480061  0.115614  0.697947  1
  H  H31  1  0.980061  0.384386  0.197947  1
  H  H32  1  0.634980  0.842542  0.398670  1
  H  H33  1  0.134980  0.657458  0.898670  1
  H  H34  1  0.365020  0.157458  0.601330  1
  H  H35  1  0.865020  0.342542  0.101330  1
  H  H36  1  0.141888  0.644625  0.526033  1
  H  H37  1  0.641888  0.855375  0.026033  1
  H  H38  1  0.858112  0.355375  0.473967  1
  H  H39  1  0.358112  0.144625  0.973967  1
  H  H40  1  0.014298  0.632805  0.578292  1
  H  H41  1  0.514298  0.867195  0.078292  1
  H  H42  1  0.985702  0.367195  0.421708  1
  H  H43  1  0.485702  0.132805  0.921708  1
  H  H44  1  0.294020  0.681734  0.817669  1
  H  H45  1  0.794020  0.818266  0.317669  1
  H  H46  1  0.705980  0.318266  0.182331  1
  H  H47  1  0.205980  0.181734  0.682331  1
  H  H48  1  0.292105  0.688878  0.653350  1
  H  H49  1  0.792105  0.811122  0.153350  1
  H  H50  1  0.707895  0.311122  0.346650  1
  H  H51  1  0.207895  0.188878  0.846650  1
  H  H52  1  0.584111  0.581849  0.363071  1
  H  H53  1  0.084111  0.918151  0.863071  1
  H  H54  1  0.415889  0.418151  0.636929  1
  H  H55  1  0.915889  0.081849  0.136929  1
  H  H56  1  0.222821  0.901222  0.924235  1
  H  H57  1  0.722821  0.598778  0.424235  1
  H  H58  1  0.777179  0.098778  0.075765  1
  H  H59  1  0.277179  0.401222  0.575765  1
  H  H60  1  0.542644  0.552896  0.144087  1
  H  H61  1  0.042644  0.947104  0.644087  1
  H  H62  1  0.457356  0.447104  0.855913  1
  H  H63  1  0.957356  0.052896  0.355913  1
  H  H64  1  0.649689  0.532602  0.059229  1
  H  H65  1  0.149689  0.967398  0.559229  1
  H  H66  1  0.350311  0.467398  0.940771  1
  H  H67  1  0.850311  0.032602  0.440771  1
  H  H68  1  0.863180  0.578444  0.303875  1
  H  H69  1  0.363180  0.921556  0.803875  1
  H  H70  1  0.136820  0.421556  0.696125  1
  H  H71  1  0.636820  0.078444  0.196125  1
  H  H72  1  0.330387  0.922150  0.643027  1
  H  H73  1  0.830387  0.577850  0.143027  1
  H  H74  1  0.669613  0.077850  0.356973  1
  H  H75  1  0.169613  0.422150  0.856973  1
  H  H76  1  0.579902  0.538221  0.741455  1
  H  H77  1  0.079902  0.961779  0.241455  1
  H  H78  1  0.420098  0.461779  0.258545  1
  H  H79  1  0.920098  0.038221  0.758545  1
  H  H80  1  0.520649  0.574602  0.593446  1
  H  H81  1  0.020649  0.925398  0.093446  1
  H  H82  1  0.479351  0.425398  0.406554  1
  H  H83  1  0.979351  0.074602  0.906554  1
  H  H84  1  0.601469  0.752699  0.870050  1
  H  H85  1  0.101469  0.747301  0.370050  1
  H  H86  1  0.398531  0.247301  0.129950  1
  H  H87  1  0.898531  0.252699  0.629950  1
  H  H88  1  0.632687  0.642906  0.897348  1
  H  H89  1  0.132687  0.857094  0.397348  1
  H  H90  1  0.367313  0.357094  0.102652  1
  H  H91  1  0.867313  0.142906  0.602652  1
  H  H92  1  0.017089  0.700308  0.182952  1
  H  H93  1  0.517089  0.799692  0.682952  1
  H  H94  1  0.982911  0.299692  0.817048  1
  H  H95  1  0.482911  0.200308  0.317048  1
  H  H96  1  0.976042  0.775527  0.062166  1
  H  H97  1  0.476042  0.724473  0.562166  1
  H  H98  1  0.023958  0.224473  0.937834  1
  H  H99  1  0.523958  0.275527  0.437834  1
  C  C100  1  0.647253  0.843799  0.213611  1
  C  C101  1  0.147253  0.656201  0.713611  1
  C  C102  1  0.352747  0.156201  0.786389  1
  C  C103  1  0.852747  0.343799  0.286389  1
  C  C104  1  0.698655  0.568292  0.240301  1
  C  C105  1  0.198655  0.931708  0.740301  1
  C  C106  1  0.301345  0.431708  0.759699  1
  C  C107  1  0.801345  0.068292  0.259699  1
  C  C108  1  0.550775  0.670791  0.725385  1
  C  C109  1  0.050775  0.829209  0.225385  1
  C  C110  1  0.449225  0.329209  0.274615  1
  C  C111  1  0.949225  0.170791  0.774615  1
  N  N112  1  0.592468  0.850627  0.312175  1
  N  N113  1  0.092468  0.649373  0.812175  1
  N  N114  1  0.407532  0.149373  0.687825  1
  N  N115  1  0.907532  0.350627  0.187825  1
  N  N116  1  0.597390  0.859779  0.098641  1
  N  N117  1  0.097390  0.640221  0.598641  1
  N  N118  1  0.402610  0.140221  0.901359  1
  N  N119  1  0.902610  0.359779  0.401359  1
  N  N120  1  0.253010  0.680688  0.729739  1
  N  N121  1  0.753010  0.819312  0.229739  1
  N  N122  1  0.746990  0.319312  0.270261  1
  N  N123  1  0.246990  0.180688  0.770261  1
  N  N124  1  0.665650  0.579364  0.351515  1
  N  N125  1  0.165650  0.920636  0.851515  1
  N  N126  1  0.334350  0.420636  0.648485  1
  N  N127  1  0.834350  0.079364  0.148485  1
  N  N128  1  0.124886  0.942288  0.638047  1
  N  N129  1  0.624886  0.557712  0.138047  1
  N  N130  1  0.875114  0.057712  0.361953  1
  N  N131  1  0.375114  0.442288  0.861953  1
  N  N132  1  0.306425  0.933786  0.729121  1
  N  N133  1  0.806425  0.566214  0.229121  1
  N  N134  1  0.693575  0.066214  0.270879  1
  N  N135  1  0.193575  0.433786  0.770879  1
  N  N136  1  0.049034  0.911768  0.184332  1
  N  N137  1  0.549034  0.588232  0.684332  1
  N  N138  1  0.950966  0.088232  0.815668  1
  N  N139  1  0.450966  0.411768  0.315668  1
  N  N140  1  0.588138  0.688794  0.844991  1
  N  N141  1  0.088138  0.811206  0.344991  1
  N  N142  1  0.411862  0.311206  0.155009  1
  N  N143  1  0.911862  0.188794  0.655009  1
  N  N144  1  0.011972  0.763462  0.150283  1
  N  N145  1  0.511972  0.736538  0.650283  1
  N  N146  1  0.988028  0.236538  0.849717  1
  N  N147  1  0.488028  0.263462  0.349717  1
  O  O148  1  0.113282  0.447829  0.245681  1
  O  O149  1  0.613282  0.052171  0.745681  1
  O  O150  1  0.886718  0.552171  0.754319  1
  O  O151  1  0.386718  0.947829  0.254319  1
  O  O152  1  0.056347  0.607127  0.298817  1
  O  O153  1  0.556347  0.892873  0.798817  1
  O  O154  1  0.943653  0.392873  0.701183  1
  O  O155  1  0.443653  0.107127  0.201183  1
  O  O156  1  0.179049  0.579314  0.131982  1
  O  O157  1  0.679049  0.920686  0.631982  1
  O  O158  1  0.820951  0.420686  0.868018  1
  O  O159  1  0.320951  0.079314  0.368018  1
  O  O160  1  0.332940  0.671170  0.240961  1
  O  O161  1  0.832940  0.828830  0.740961  1
  O  O162  1  0.667060  0.328830  0.759039  1
  O  O163  1  0.167060  0.171170  0.259039  1
  O  O164  1  0.377880  0.536996  0.112968  1
  O  O165  1  0.877880  0.963004  0.612968  1
  O  O166  1  0.622120  0.463004  0.887032  1
  O  O167  1  0.122120  0.036996  0.387032  1
  O  O168  1  0.287370  0.677427  0.007142  1
  O  O169  1  0.787370  0.822573  0.507142  1
  O  O170  1  0.712630  0.322573  0.992858  1
  O  O171  1  0.212630  0.177427  0.492858  1
  O  O172  1  0.253103  0.549025  0.357887  1
  O  O173  1  0.753103  0.950975  0.857887  1
  O  O174  1  0.746897  0.450975  0.642113  1
  O  O175  1  0.246897  0.049025  0.142113  1
  O  O176  1  0.792889  0.801828  0.961833  1
  O  O177  1  0.292889  0.698172  0.461833  1
  O  O178  1  0.207111  0.198172  0.038167  1
  O  O179  1  0.707111  0.301828  0.538167  1
  O  O180  1  0.950348  0.905868  0.922241  1
  O  O181  1  0.450348  0.594132  0.422241  1
  O  O182  1  0.049652  0.094132  0.077759  1
  O  O183  1  0.549652  0.405868  0.577759  1
  O  O184  1  0.843577  0.644573  0.524453  1
  O  O185  1  0.343577  0.855427  0.024453  1
  O  O186  1  0.156423  0.355427  0.475547  1
  O  O187  1  0.656423  0.144573  0.975547  1
  O  O188  1  0.836951  0.623167  0.988348  1
  O  O189  1  0.336951  0.876833  0.488348  1
  O  O190  1  0.163049  0.376833  0.011652  1
  O  O191  1  0.663049  0.123167  0.511652  1
