# generated using pymatgen
data_LiMn2OF3
_symmetry_space_group_name_H-M   'P 1'
_cell_length_a   6.23565293
_cell_length_b   6.39372043
_cell_length_c   6.39372043
_cell_angle_alpha   59.91643618
_cell_angle_beta   88.87066732
_cell_angle_gamma   119.45044836
_symmetry_Int_Tables_number   1
_chemical_formula_structural   LiMn2OF3
_chemical_formula_sum   'Li2 Mn4 O2 F6'
_cell_volume   179.68855173
_cell_formula_units_Z   2
loop_
 _symmetry_equiv_pos_site_id
 _symmetry_equiv_pos_as_xyz
  1  'x, y, z'
loop_
 _atom_site_type_symbol
 _atom_site_label
 _atom_site_symmetry_multiplicity
 _atom_site_fract_x
 _atom_site_fract_y
 _atom_site_fract_z
 _atom_site_occupancy
  Li  Li0  1  0.625000  0.250000  0.625000  1
  Li  Li1  1  0.125000  0.750000  0.625000  1
  Mn  Mn2  1  0.625000  0.250000  0.125000  1
  Mn  Mn3  1  0.970068  0.955358  0.985290  1
  Mn  Mn4  1  0.279932  0.544642  0.264710  1
  Mn  Mn5  1  0.625000  0.750000  0.625000  1
  O  O6  1  0.840469  0.701306  0.860837  1
  O  O7  1  0.409531  0.798694  0.389163  1
  F  F8  1  0.867672  0.258940  0.391268  1
  F  F9  1  0.378965  0.242006  0.396376  1
  F  F10  1  0.871035  0.257994  0.853624  1
  F  F11  1  0.871035  0.724660  0.386959  1
  F  F12  1  0.382328  0.241060  0.858732  1
  F  F13  1  0.378965  0.775340  0.863041  1
