# generated using pymatgen
data_SbOF3
_symmetry_space_group_name_H-M   'P 1'
_cell_length_a   9.31191673
_cell_length_b   9.31178317
_cell_length_c   3.77577835
_cell_angle_alpha   89.99995768
_cell_angle_beta   90.00002171
_cell_angle_gamma   90.00002695
_symmetry_Int_Tables_number   1
_chemical_formula_structural   SbOF3
_chemical_formula_sum   'Sb4 O4 F12'
_cell_volume   327.39981547
_cell_formula_units_Z   4
loop_
 _symmetry_equiv_pos_site_id
 _symmetry_equiv_pos_as_xyz
  1  'x, y, z'
loop_
 _atom_site_type_symbol
 _atom_site_label
 _atom_site_symmetry_multiplicity
 _atom_site_fract_x
 _atom_site_fract_y
 _atom_site_fract_z
 _atom_site_occupancy
  Sb  Sb0  1  0.130137  0.369862  0.257506  1
  Sb  Sb1  1  0.369866  0.869866  0.742494  1
  Sb  Sb2  1  0.630141  0.130139  0.742495  1
  Sb  Sb3  1  0.869861  0.630136  0.257507  1
  O  O4  1  0.110814  0.389187  0.757522  1
  O  O5  1  0.389187  0.889187  0.242477  1
  O  O6  1  0.610815  0.110814  0.242480  1
  O  O7  1  0.889186  0.610815  0.757518  1
  F  F8  1  0.093551  0.593559  0.257601  1
  F  F9  1  0.106888  0.168951  0.256052  1
  F  F10  1  0.168958  0.893114  0.743949  1
  F  F11  1  0.331043  0.393115  0.256051  1
  F  F12  1  0.393114  0.668956  0.743948  1
  F  F13  1  0.406446  0.093560  0.742398  1
  F  F14  1  0.593558  0.906445  0.742400  1
  F  F15  1  0.606887  0.331050  0.743950  1
  F  F16  1  0.668955  0.606883  0.256051  1
  F  F17  1  0.831048  0.106887  0.743951  1
  F  F18  1  0.893111  0.831046  0.256052  1
  F  F19  1  0.906445  0.406440  0.257599  1
