# generated using pymatgen
data_Mn3(OF2)2
_symmetry_space_group_name_H-M   'P 1'
_cell_length_a   4.87926344
_cell_length_b   14.38597288
_cell_length_c   3.15738210
_cell_angle_alpha   90.00000000
_cell_angle_beta   90.00000000
_cell_angle_gamma   90.00000000
_symmetry_Int_Tables_number   1
_chemical_formula_structural   Mn3(OF2)2
_chemical_formula_sum   'Mn6 O4 F8'
_cell_volume   221.62596868
_cell_formula_units_Z   2
loop_
 _symmetry_equiv_pos_site_id
 _symmetry_equiv_pos_as_xyz
  1  'x, y, z'
loop_
 _atom_site_type_symbol
 _atom_site_label
 _atom_site_symmetry_multiplicity
 _atom_site_fract_x
 _atom_site_fract_y
 _atom_site_fract_z
 _atom_site_occupancy
  Mn  Mn0  1  0.938911  0.009653  0.000000  1
  Mn  Mn1  1  0.061089  0.323681  0.000000  1
  Mn  Mn2  1  0.000000  0.666667  0.000000  1
  Mn  Mn3  1  0.500000  0.166667  0.500000  1
  Mn  Mn4  1  0.561089  0.509653  0.500000  1
  Mn  Mn5  1  0.438911  0.823681  0.500000  1
  O  O6  1  0.228473  0.263081  0.500000  1
  O  O7  1  0.271527  0.763081  0.000000  1
  O  O8  1  0.728473  0.570253  0.000000  1
  O  O9  1  0.771527  0.070253  0.500000  1
  F  F10  1  0.199683  0.601026  0.500000  1
  F  F11  1  0.144755  0.941238  0.500000  1
  F  F12  1  0.300317  0.101026  0.000000  1
  F  F13  1  0.355245  0.441238  0.000000  1
  F  F14  1  0.699683  0.232308  0.000000  1
  F  F15  1  0.644755  0.892095  0.000000  1
  F  F16  1  0.855245  0.392095  0.500000  1
  F  F17  1  0.800317  0.732308  0.500000  1
