# generated using pymatgen
data_Li3Mn(Si2O5)3
_symmetry_space_group_name_H-M   'P 1'
_cell_length_a   9.72602055
_cell_length_b   8.01827093
_cell_length_c   14.94268616
_cell_angle_alpha   90.00000000
_cell_angle_beta   90.00000000
_cell_angle_gamma   90.00000000
_symmetry_Int_Tables_number   1
_chemical_formula_structural   Li3Mn(Si2O5)3
_chemical_formula_sum   'Li12 Mn4 Si24 O60'
_cell_volume   1165.31834806
_cell_formula_units_Z   4
loop_
 _symmetry_equiv_pos_site_id
 _symmetry_equiv_pos_as_xyz
  1  'x, y, z'
loop_
 _atom_site_type_symbol
 _atom_site_label
 _atom_site_symmetry_multiplicity
 _atom_site_fract_x
 _atom_site_fract_y
 _atom_site_fract_z
 _atom_site_occupancy
  Li  Li0  1  0.916321  0.250000  0.066244  1
  Li  Li1  1  0.583679  0.250000  0.566244  1
  Li  Li2  1  0.497905  0.998840  0.241883  1
  Li  Li3  1  0.497905  0.501160  0.241883  1
  Li  Li4  1  0.502095  0.498840  0.758117  1
  Li  Li5  1  0.502095  0.001160  0.758117  1
  Li  Li6  1  0.416321  0.750000  0.433756  1
  Li  Li7  1  0.083679  0.750000  0.933756  1
  Li  Li8  1  0.997905  0.498840  0.258117  1
  Li  Li9  1  0.997905  0.001160  0.258117  1
  Li  Li10  1  0.002095  0.501160  0.741883  1
  Li  Li11  1  0.002095  0.998840  0.741883  1
  Mn  Mn12  1  0.746643  0.250000  0.251310  1
  Mn  Mn13  1  0.753357  0.250000  0.751310  1
  Mn  Mn14  1  0.253357  0.750000  0.748690  1
  Mn  Mn15  1  0.246643  0.750000  0.248690  1
  Si  Si16  1  0.976506  0.750000  0.401421  1
  Si  Si17  1  0.977977  0.750000  0.599369  1
  Si  Si18  1  0.793251  0.562032  0.100221  1
  Si  Si19  1  0.793251  0.937968  0.100221  1
  Si  Si20  1  0.794774  0.940088  0.899295  1
  Si  Si21  1  0.794774  0.559912  0.899295  1
  Si  Si22  1  0.705226  0.940088  0.399295  1
  Si  Si23  1  0.706749  0.562032  0.600221  1
  Si  Si24  1  0.705226  0.559912  0.399295  1
  Si  Si25  1  0.706749  0.937968  0.600221  1
  Si  Si26  1  0.522023  0.750000  0.099369  1
  Si  Si27  1  0.523494  0.750000  0.901421  1
  Si  Si28  1  0.477977  0.250000  0.900631  1
  Si  Si29  1  0.476506  0.250000  0.098579  1
  Si  Si30  1  0.293251  0.437968  0.399779  1
  Si  Si31  1  0.293251  0.062032  0.399779  1
  Si  Si32  1  0.294774  0.059912  0.600705  1
  Si  Si33  1  0.294774  0.440088  0.600705  1
  Si  Si34  1  0.205226  0.059912  0.100705  1
  Si  Si35  1  0.206749  0.437968  0.899779  1
  Si  Si36  1  0.206749  0.062032  0.899779  1
  Si  Si37  1  0.205226  0.440088  0.100705  1
  Si  Si38  1  0.023494  0.250000  0.598579  1
  Si  Si39  1  0.022023  0.250000  0.400631  1
  O  O40  1  0.950825  0.250000  0.499828  1
  O  O41  1  0.917983  0.250000  0.317773  1
  O  O42  1  0.921517  0.250000  0.682341  1
  O  O43  1  0.872518  0.588076  0.392645  1
  O  O44  1  0.872518  0.911924  0.392645  1
  O  O45  1  0.874330  0.587184  0.609065  1
  O  O46  1  0.874330  0.912816  0.609065  1
  O  O47  1  0.861384  0.750000  0.108150  1
  O  O48  1  0.867343  0.750000  0.898194  1
  O  O49  1  0.852318  0.072141  0.169478  1
  O  O50  1  0.852318  0.427859  0.169478  1
  O  O51  1  0.847137  0.056150  0.820146  1
  O  O52  1  0.847137  0.443850  0.820146  1
  O  O53  1  0.831285  0.483134  0.999869  1
  O  O54  1  0.831285  0.016866  0.999869  1
  O  O55  1  0.668715  0.483134  0.499869  1
  O  O56  1  0.668715  0.016866  0.499869  1
  O  O57  1  0.647682  0.072141  0.669478  1
  O  O58  1  0.652863  0.056150  0.320146  1
  O  O59  1  0.652863  0.443850  0.320146  1
  O  O60  1  0.647682  0.427859  0.669478  1
  O  O61  1  0.632657  0.750000  0.398194  1
  O  O62  1  0.638616  0.750000  0.608150  1
  O  O63  1  0.625670  0.912816  0.109065  1
  O  O64  1  0.625670  0.587184  0.109065  1
  O  O65  1  0.627482  0.588076  0.892645  1
  O  O66  1  0.627482  0.911924  0.892645  1
  O  O67  1  0.578483  0.250000  0.182341  1
  O  O68  1  0.582017  0.250000  0.817773  1
  O  O69  1  0.549175  0.250000  0.999828  1
  O  O70  1  0.450825  0.750000  0.000172  1
  O  O71  1  0.417983  0.750000  0.182227  1
  O  O72  1  0.421517  0.750000  0.817659  1
  O  O73  1  0.374330  0.087184  0.890935  1
  O  O74  1  0.374330  0.412816  0.890935  1
  O  O75  1  0.372518  0.088076  0.107355  1
  O  O76  1  0.372518  0.411924  0.107355  1
  O  O77  1  0.367343  0.250000  0.601806  1
  O  O78  1  0.361384  0.250000  0.391850  1
  O  O79  1  0.347137  0.556150  0.679854  1
  O  O80  1  0.347137  0.943850  0.679854  1
  O  O81  1  0.352318  0.572141  0.330522  1
  O  O82  1  0.352318  0.927859  0.330522  1
  O  O83  1  0.331285  0.983134  0.500131  1
  O  O84  1  0.331285  0.516866  0.500131  1
  O  O85  1  0.168715  0.983134  0.000131  1
  O  O86  1  0.168715  0.516866  0.000131  1
  O  O87  1  0.152863  0.556150  0.179854  1
  O  O88  1  0.147682  0.572141  0.830522  1
  O  O89  1  0.152863  0.943850  0.179854  1
  O  O90  1  0.147682  0.927859  0.830522  1
  O  O91  1  0.132657  0.250000  0.101806  1
  O  O92  1  0.138616  0.250000  0.891850  1
  O  O93  1  0.127482  0.411924  0.607355  1
  O  O94  1  0.125671  0.412816  0.390935  1
  O  O95  1  0.125671  0.087184  0.390935  1
  O  O96  1  0.127482  0.088076  0.607355  1
  O  O97  1  0.078483  0.750000  0.317659  1
  O  O98  1  0.082017  0.750000  0.682227  1
  O  O99  1  0.049175  0.750000  0.500172  1
