# generated using pymatgen
data_Li3FePCO7
_symmetry_space_group_name_H-M   'P 1'
_cell_length_a   8.53980203
_cell_length_b   10.02614099
_cell_length_c   6.46614705
_cell_angle_alpha   89.80836734
_cell_angle_beta   90.52334729
_cell_angle_gamma   84.59596150
_symmetry_Int_Tables_number   1
_chemical_formula_structural   Li3FePCO7
_chemical_formula_sum   'Li12 Fe4 P4 C4 O28'
_cell_volume   551.15099692
_cell_formula_units_Z   4
loop_
 _symmetry_equiv_pos_site_id
 _symmetry_equiv_pos_as_xyz
  1  'x, y, z'
loop_
 _atom_site_type_symbol
 _atom_site_label
 _atom_site_symmetry_multiplicity
 _atom_site_fract_x
 _atom_site_fract_y
 _atom_site_fract_z
 _atom_site_occupancy
  Li  Li0  1  0.097544  0.386960  0.254588  1
  Li  Li1  1  0.096822  0.880019  0.259312  1
  Li  Li2  1  0.278574  0.107616  0.487580  1
  Li  Li3  1  0.274427  0.639168  0.015340  1
  Li  Li4  1  0.275186  0.638581  0.484021  1
  Li  Li5  1  0.344642  0.877860  0.740403  1
  Li  Li6  1  0.721739  0.377272  0.523594  1
  Li  Li7  1  0.722154  0.378281  0.979200  1
  Li  Li8  1  0.720083  0.870602  0.529296  1
  Li  Li9  1  0.721404  0.871911  0.971182  1
  Li  Li10  1  0.895595  0.110575  0.749029  1
  Li  Li11  1  0.910676  0.623473  0.748657  1
  Fe  Fe12  1  0.259178  0.115197  0.990874  1
  Fe  Fe13  1  0.336235  0.398419  0.750244  1
  Fe  Fe14  1  0.665991  0.102704  0.250347  1
  Fe  Fe15  1  0.665307  0.607789  0.250464  1
  P  P16  1  0.410043  0.359135  0.248690  1
  P  P17  1  0.411686  0.862610  0.251228  1
  P  P18  1  0.586848  0.142039  0.748960  1
  P  P19  1  0.589247  0.641007  0.749914  1
  C  C20  1  0.035179  0.347008  0.758041  1
  C  C21  1  0.038873  0.853798  0.755096  1
  C  C22  1  0.963977  0.150826  0.247828  1
  C  C23  1  0.964840  0.651056  0.250575  1
  O  O24  1  0.068472  0.469652  0.747899  1
  O  O25  1  0.110628  0.181833  0.241344  1
  O  O26  1  0.070692  0.977436  0.760430  1
  O  O27  1  0.155165  0.252999  0.769189  1
  O  O28  1  0.110714  0.679551  0.249977  1
  O  O29  1  0.149979  0.755786  0.753169  1
  O  O30  1  0.307192  0.415674  0.062309  1
  O  O31  1  0.308046  0.408508  0.437113  1
  O  O32  1  0.313866  0.916883  0.057179  1
  O  O33  1  0.309362  0.910897  0.436857  1
  O  O34  1  0.422420  0.090643  0.742873  1
  O  O35  1  0.426686  0.201719  0.240310  1
  O  O36  1  0.422435  0.592010  0.748680  1
  O  O37  1  0.429490  0.705797  0.244019  1
  O  O38  1  0.571086  0.298621  0.748674  1
  O  O39  1  0.575249  0.408472  0.252026  1
  O  O40  1  0.574487  0.795415  0.748561  1
  O  O41  1  0.578803  0.910602  0.253813  1
  O  O42  1  0.689208  0.088522  0.937481  1
  O  O43  1  0.689100  0.088166  0.563603  1
  O  O44  1  0.689885  0.584062  0.563396  1
  O  O45  1  0.691049  0.584383  0.938211  1
  O  O46  1  0.850962  0.247043  0.251894  1
  O  O47  1  0.893698  0.312928  0.753162  1
  O  O48  1  0.851255  0.747303  0.251301  1
  O  O49  1  0.932566  0.028239  0.251089  1
  O  O50  1  0.891692  0.824900  0.750248  1
  O  O51  1  0.929561  0.528047  0.250728  1
