# generated using pymatgen
data_LiCo3Sb(PO4)6
_symmetry_space_group_name_H-M   'P 1'
_cell_length_a   8.51320041
_cell_length_b   8.51415782
_cell_length_c   8.52553149
_cell_angle_alpha   59.75011063
_cell_angle_beta   59.77158014
_cell_angle_gamma   59.82776465
_symmetry_Int_Tables_number   1
_chemical_formula_structural   LiCo3Sb(PO4)6
_chemical_formula_sum   'Li1 Co3 Sb1 P6 O24'
_cell_volume   434.80768417
_cell_formula_units_Z   1
loop_
 _symmetry_equiv_pos_site_id
 _symmetry_equiv_pos_as_xyz
  1  'x, y, z'
loop_
 _atom_site_type_symbol
 _atom_site_label
 _atom_site_symmetry_multiplicity
 _atom_site_fract_x
 _atom_site_fract_y
 _atom_site_fract_z
 _atom_site_occupancy
  Li  Li0  1  0.489387  0.500330  0.495644  1
  Co  Co1  1  0.136648  0.140535  0.138542  1
  Co  Co2  1  0.357953  0.355829  0.353872  1
  Co  Co3  1  0.637091  0.641127  0.638133  1
  Sb  Sb4  1  0.861124  0.860334  0.858971  1
  P  P5  1  0.043323  0.747433  0.452763  1
  P  P6  1  0.451359  0.043989  0.747460  1
  P  P7  1  0.253790  0.525238  0.962822  1
  P  P8  1  0.746897  0.453549  0.042767  1
  P  P9  1  0.524951  0.966905  0.252663  1
  P  P10  1  0.964894  0.253962  0.522276  1
  O  O11  1  0.363658  0.999086  0.195461  1
  O  O12  1  0.131148  0.299473  0.495174  1
  O  O13  1  0.305488  0.499296  0.125434  1
  O  O14  1  0.065866  0.918593  0.260279  1
  O  O15  1  0.021028  0.791297  0.621275  1
  O  O16  1  0.507593  0.127958  0.298651  1
  O  O17  1  0.235970  0.576839  0.435636  1
  O  O18  1  0.260936  0.066579  0.915878  1
  O  O19  1  0.191935  0.368752  0.990672  1
  O  O20  1  0.436580  0.238621  0.574981  1
  O  O21  1  0.086813  0.723763  0.943951  1
  O  O22  1  0.575338  0.439666  0.236588  1
  O  O23  1  0.621664  0.016410  0.791986  1
  O  O24  1  0.419184  0.542769  0.769961  1
  O  O25  1  0.915429  0.260195  0.064390  1
  O  O26  1  0.795244  0.620073  0.018001  1
  O  O27  1  0.541721  0.773843  0.417654  1
  O  O28  1  0.722856  0.944857  0.083712  1
  O  O29  1  0.772242  0.421694  0.543827  1
  O  O30  1  0.486609  0.874674  0.703380  1
  O  O31  1  0.984744  0.201182  0.364357  1
  O  O32  1  0.945387  0.085817  0.720051  1
  O  O33  1  0.703008  0.491099  0.874127  1
  O  O34  1  0.871842  0.707999  0.489222  1
