# generated using pymatgen
data_Na5(WO3)7
_symmetry_space_group_name_H-M   'P 1'
_cell_length_a   11.81108604
_cell_length_b   6.79838363
_cell_length_c   5.64452338
_cell_angle_alpha   90.00000000
_cell_angle_beta   76.17540615
_cell_angle_gamma   100.98515572
_symmetry_Int_Tables_number   1
_chemical_formula_structural   Na5(WO3)7
_chemical_formula_sum   'Na5 W7 O21'
_cell_volume   431.54753662
_cell_formula_units_Z   1
loop_
 _symmetry_equiv_pos_site_id
 _symmetry_equiv_pos_as_xyz
  1  'x, y, z'
loop_
 _atom_site_type_symbol
 _atom_site_label
 _atom_site_symmetry_multiplicity
 _atom_site_fract_x
 _atom_site_fract_y
 _atom_site_fract_z
 _atom_site_occupancy
  Na  Na0  1  0.856439  0.282980  0.571781  1
  Na  Na1  1  0.430255  0.142152  0.284873  1
  Na  Na2  1  0.285714  0.428571  0.857143  1
  Na  Na3  1  0.714990  0.574163  0.142505  1
  Na  Na4  1  0.141174  0.714991  0.429413  1
  W  W5  1  0.573875  0.356170  0.713063  1
  W  W6  1  0.714392  0.067976  0.142804  1
  W  W7  1  0.857036  0.789167  0.571482  1
  W  W8  1  0.285714  0.928571  0.857143  1
  W  W9  1  0.431049  0.643957  0.284476  1
  W  W10  1  0.140379  0.213186  0.429810  1
  W  W11  1  0.997553  0.500973  0.001223  1
  O  O12  1  0.644730  0.214565  0.933412  1
  O  O13  1  0.926699  0.642578  0.780874  1
  O  O14  1  0.711529  0.564019  0.644236  1
  O  O15  1  0.859900  0.293123  0.070050  1
  O  O16  1  0.785714  0.928571  0.857143  1
  O  O17  1  0.926699  0.642578  0.292429  1
  O  O18  1  0.644730  0.214565  0.421857  1
  O  O19  1  0.427101  0.145080  0.786450  1
  O  O20  1  0.216251  0.074905  0.633907  1
  O  O21  1  0.785714  0.928571  0.357143  1
  O  O22  1  0.495883  0.495362  0.492766  1
  O  O23  1  0.355178  0.782238  0.564444  1
  O  O24  1  0.216251  0.074905  0.149842  1
  O  O25  1  0.144328  0.712063  0.927836  1
  O  O26  1  0.003289  0.007122  0.498356  1
  O  O27  1  0.285714  0.428571  0.357143  1
  O  O28  1  0.495883  0.495362  0.011351  1
  O  O29  1  0.075546  0.361781  0.702934  1
  O  O30  1  0.568140  0.850021  0.215930  1
  O  O31  1  0.355178  0.782238  0.080379  1
  O  O32  1  0.075546  0.361781  0.221520  1
