# generated using pymatgen
data_Li4Ti3Cr5O16
_symmetry_space_group_name_H-M   'P 1'
_cell_length_a   5.89470458
_cell_length_b   5.92074096
_cell_length_c   9.54893010
_cell_angle_alpha   89.99881460
_cell_angle_beta   90.20735420
_cell_angle_gamma   120.14895814
_symmetry_Int_Tables_number   1
_chemical_formula_structural   Li4Ti3Cr5O16
_chemical_formula_sum   'Li4 Ti3 Cr5 O16'
_cell_volume   288.18132529
_cell_formula_units_Z   1
loop_
 _symmetry_equiv_pos_site_id
 _symmetry_equiv_pos_as_xyz
  1  'x, y, z'
loop_
 _atom_site_type_symbol
 _atom_site_label
 _atom_site_symmetry_multiplicity
 _atom_site_fract_x
 _atom_site_fract_y
 _atom_site_fract_z
 _atom_site_occupancy
  Li  Li0  1  0.333527  0.666762  0.890331  1
  Li  Li1  1  0.992351  0.996176  0.994745  1
  Li  Li2  1  0.000850  0.000431  0.498430  1
  Li  Li3  1  0.666288  0.333158  0.393424  1
  Ti  Ti4  1  0.169121  0.831743  0.213623  1
  Ti  Ti5  1  0.169143  0.337385  0.213629  1
  Ti  Ti6  1  0.341125  0.170553  0.716871  1
  Cr  Cr7  1  0.334726  0.667375  0.485951  1
  Cr  Cr8  1  0.659015  0.829523  0.213681  1
  Cr  Cr9  1  0.672360  0.336198  0.983738  1
  Cr  Cr10  1  0.831042  0.661343  0.710253  1
  Cr  Cr11  1  0.831093  0.169818  0.710273  1
  O  O12  1  0.167500  0.837497  0.602657  1
  O  O13  1  0.041623  0.520805  0.338862  1
  O  O14  1  0.323113  0.661572  0.103102  1
  O  O15  1  0.003486  0.001730  0.311913  1
  O  O16  1  0.002236  0.001107  0.808947  1
  O  O17  1  0.167525  0.330046  0.602660  1
  O  O18  1  0.475851  0.959212  0.340672  1
  O  O19  1  0.475830  0.516651  0.340685  1
  O  O20  1  0.330195  0.165107  0.104727  1
  O  O21  1  0.669332  0.834689  0.604983  1
  O  O22  1  0.518899  0.478089  0.840010  1
  O  O23  1  0.518876  0.040804  0.840023  1
  O  O24  1  0.658350  0.329199  0.602041  1
  O  O25  1  0.844527  0.673199  0.102911  1
  O  O26  1  0.957475  0.478788  0.835792  1
  O  O27  1  0.844542  0.171343  0.102909  1
