# generated using pymatgen
data_Li24Mn7Cr5O36
_symmetry_space_group_name_H-M   'P 1'
_cell_length_a   5.00582004
_cell_length_b   13.27877842
_cell_length_c   9.74171271
_cell_angle_alpha   97.20807832
_cell_angle_beta   94.71588606
_cell_angle_gamma   100.67776970
_symmetry_Int_Tables_number   1
_chemical_formula_structural   Li24Mn7Cr5O36
_chemical_formula_sum   'Li24 Mn7 Cr5 O36'
_cell_volume   627.59716115
_cell_formula_units_Z   1
loop_
 _symmetry_equiv_pos_site_id
 _symmetry_equiv_pos_as_xyz
  1  'x, y, z'
loop_
 _atom_site_type_symbol
 _atom_site_label
 _atom_site_symmetry_multiplicity
 _atom_site_fract_x
 _atom_site_fract_y
 _atom_site_fract_z
 _atom_site_occupancy
  Li  Li0  1  0.835235  0.166359  0.999674  1
  Li  Li1  1  0.948619  0.385819  0.999552  1
  Li  Li2  1  0.000187  0.749457  0.250386  1
  Li  Li3  1  0.668190  0.082467  0.249751  1
  Li  Li4  1  0.951673  0.888216  0.499556  1
  Li  Li5  1  0.619764  0.223261  0.500210  1
  Li  Li6  1  0.833199  0.666423  0.499772  1
  Li  Li7  1  0.499402  0.999362  0.499475  1
  Li  Li8  1  0.713982  0.444419  0.499536  1
  Li  Li9  1  0.667034  0.584693  0.749773  1
  Li  Li10  1  0.499055  0.500229  0.000310  1
  Li  Li11  1  0.719968  0.947897  0.001627  1
  Li  Li12  1  0.381845  0.281248  0.001309  1
  Li  Li13  1  0.617884  0.719322  0.000690  1
  Li  Li14  1  0.279707  0.052535  0.998169  1
  Li  Li15  1  0.335982  0.415652  0.250057  1
  Li  Li16  1  0.287376  0.556852  0.501514  1
  Li  Li17  1  0.166310  0.332892  0.500809  1
  Li  Li18  1  0.379394  0.776431  0.498445  1
  Li  Li19  1  0.048636  0.112368  0.500798  1
  Li  Li20  1  0.333119  0.917119  0.750505  1
  Li  Li21  1  0.166385  0.832444  0.000189  1
  Li  Li22  1  0.002781  0.250990  0.749699  1
  Li  Li23  1  0.049044  0.614028  0.999137  1
  Mn  Mn24  1  0.891703  0.027851  0.751947  1
  Mn  Mn25  1  0.776383  0.305779  0.249543  1
  Mn  Mn26  1  0.555513  0.860910  0.250098  1
  Mn  Mn27  1  0.446060  0.640233  0.251281  1
  Mn  Mn28  1  0.221715  0.693356  0.749316  1
  Mn  Mn29  1  0.109157  0.472632  0.749750  1
  Mn  Mn30  1  0.108372  0.971083  0.248921  1
  Cr  Cr31  1  0.895080  0.526525  0.249664  1
  Cr  Cr32  1  0.773466  0.806988  0.749960  1
  Cr  Cr33  1  0.553933  0.363508  0.748485  1
  Cr  Cr34  1  0.449641  0.139608  0.750695  1
  Cr  Cr35  1  0.226463  0.192368  0.250318  1
  O  O36  1  0.996949  0.068493  0.137211  1
  O  O37  1  0.931204  0.215643  0.363553  1
  O  O38  1  0.997178  0.570976  0.638424  1
  O  O39  1  0.863006  0.357751  0.637369  1
  O  O40  1  0.735182  0.117430  0.636226  1
  O  O41  1  0.663001  0.401973  0.136379  1
  O  O42  1  0.932126  0.714758  0.864627  1
  O  O43  1  0.809291  0.474700  0.861892  1
  O  O44  1  0.599416  0.047180  0.864924  1
  O  O45  1  0.856279  0.856440  0.138233  1
  O  O46  1  0.734549  0.617649  0.135848  1
  O  O47  1  0.519528  0.191097  0.138368  1
  O  O48  1  0.658757  0.260888  0.861400  1
  O  O49  1  0.809007  0.976297  0.361735  1
  O  O50  1  0.597670  0.549432  0.363307  1
  O  O51  1  0.481916  0.311567  0.363391  1
  O  O52  1  0.668682  0.762921  0.361814  1
  O  O53  1  0.329790  0.095196  0.361561  1
  O  O54  1  0.669043  0.904642  0.638589  1
  O  O55  1  0.338355  0.240036  0.636912  1
  O  O56  1  0.518277  0.688690  0.636950  1
  O  O57  1  0.402219  0.451613  0.636146  1
  O  O58  1  0.189150  0.024308  0.637907  1
  O  O59  1  0.333617  0.738405  0.138550  1
  O  O60  1  0.479640  0.807652  0.861687  1
  O  O61  1  0.258487  0.382895  0.864761  1
  O  O62  1  0.140846  0.142925  0.861950  1
  O  O63  1  0.403175  0.951487  0.136460  1
  O  O64  1  0.187654  0.525701  0.138310  1
  O  O65  1  0.068287  0.284739  0.135748  1
  O  O66  1  0.334397  0.595289  0.861607  1
  O  O67  1  0.263292  0.881613  0.363874  1
  O  O68  1  0.149125  0.644770  0.363208  1
  O  O69  1  0.997171  0.429440  0.360953  1
  O  O70  1  0.067760  0.783693  0.636633  1
  O  O71  1  0.003718  0.930386  0.862576  1
