# generated using pymatgen
data_Ni(PO3)3
_symmetry_space_group_name_H-M   'P 1'
_cell_length_a   8.59955228
_cell_length_b   8.31940196
_cell_length_c   8.87954940
_cell_angle_alpha   89.99838220
_cell_angle_beta   89.99829474
_cell_angle_gamma   90.00100691
_symmetry_Int_Tables_number   1
_chemical_formula_structural   Ni(PO3)3
_chemical_formula_sum   'Ni4 P12 O36'
_cell_volume   635.27077534
_cell_formula_units_Z   4
loop_
 _symmetry_equiv_pos_site_id
 _symmetry_equiv_pos_as_xyz
  1  'x, y, z'
loop_
 _atom_site_type_symbol
 _atom_site_label
 _atom_site_symmetry_multiplicity
 _atom_site_fract_x
 _atom_site_fract_y
 _atom_site_fract_z
 _atom_site_occupancy
  Ni  Ni0  1  0.120066  0.098097  0.136062  1
  Ni  Ni1  1  0.379885  0.901847  0.636085  1
  Ni  Ni2  1  0.620096  0.401937  0.863905  1
  Ni  Ni3  1  0.879895  0.598074  0.363944  1
  P  P4  1  0.060099  0.949737  0.826426  1
  P  P5  1  0.062402  0.724543  0.079269  1
  P  P6  1  0.222334  0.566158  0.557022  1
  P  P7  1  0.277663  0.433835  0.057035  1
  P  P8  1  0.437601  0.275460  0.579259  1
  P  P9  1  0.439889  0.050286  0.326416  1
  P  P10  1  0.560126  0.550267  0.173587  1
  P  P11  1  0.562412  0.775467  0.920750  1
  P  P12  1  0.722314  0.933829  0.442988  1
  P  P13  1  0.777718  0.066150  0.943018  1
  P  P14  1  0.937592  0.224535  0.420738  1
  P  P15  1  0.939877  0.449705  0.673602  1
  O  O16  1  0.011492  0.786038  0.914360  1
  O  O17  1  0.069499  0.131039  0.351777  1
  O  O18  1  0.108772  0.527935  0.700577  1
  O  O19  1  0.123783  0.864201  0.169525  1
  O  O20  1  0.134073  0.913756  0.678436  1
  O  O21  1  0.123603  0.605850  0.423473  1
  O  O22  1  0.145950  0.328368  0.107971  1
  O  O23  1  0.159811  0.057527  0.926352  1
  O  O24  1  0.200837  0.608004  0.030702  1
  O  O25  1  0.299170  0.392003  0.530678  1
  O  O26  1  0.340176  0.942504  0.426348  1
  O  O27  1  0.354041  0.671620  0.607979  1
  O  O28  1  0.376419  0.394169  0.923450  1
  O  O29  1  0.365935  0.086272  0.178434  1
  O  O30  1  0.376213  0.135812  0.669522  1
  O  O31  1  0.391236  0.472042  0.200571  1
  O  O32  1  0.430500  0.868965  0.851804  1
  O  O33  1  0.488512  0.213972  0.414345  1
  O  O34  1  0.511504  0.713965  0.085659  1
  O  O35  1  0.569485  0.368969  0.648175  1
  O  O36  1  0.608779  0.972058  0.299428  1
  O  O37  1  0.623784  0.635850  0.830465  1
  O  O38  1  0.634081  0.586226  0.321549  1
  O  O39  1  0.623598  0.894152  0.576532  1
  O  O40  1  0.645921  0.171678  0.892009  1
  O  O41  1  0.659834  0.442498  0.073636  1
  O  O42  1  0.700820  0.892002  0.969301  1
  O  O43  1  0.799185  0.107986  0.469307  1
  O  O44  1  0.840175  0.557499  0.573649  1
  O  O45  1  0.854056  0.828330  0.392025  1
  O  O46  1  0.876363  0.105834  0.076508  1
  O  O47  1  0.865934  0.413730  0.821548  1
  O  O48  1  0.876228  0.364193  0.330486  1
  O  O49  1  0.891226  0.027962  0.799423  1
  O  O50  1  0.930523  0.631045  0.148240  1
  O  O51  1  0.988512  0.286017  0.585651  1
