# generated using pymatgen
data_Ti2N2O
_symmetry_space_group_name_H-M   'P 1'
_cell_length_a   8.23455956
_cell_length_b   8.20589277
_cell_length_c   8.23157654
_cell_angle_alpha   109.45229175
_cell_angle_beta   109.49974279
_cell_angle_gamma   109.42160828
_symmetry_Int_Tables_number   1
_chemical_formula_structural   Ti2N2O
_chemical_formula_sum   'Ti16 N16 O8'
_cell_volume   428.39214318
_cell_formula_units_Z   8
loop_
 _symmetry_equiv_pos_site_id
 _symmetry_equiv_pos_as_xyz
  1  'x, y, z'
loop_
 _atom_site_type_symbol
 _atom_site_label
 _atom_site_symmetry_multiplicity
 _atom_site_fract_x
 _atom_site_fract_y
 _atom_site_fract_z
 _atom_site_occupancy
  Ti  Ti0  1  0.943526  0.245768  0.211876  1
  Ti  Ti1  1  0.497148  0.994376  0.997746  1
  Ti  Ti2  1  0.788199  0.041826  0.755702  1
  Ti  Ti3  1  0.700528  0.464605  0.253282  1
  Ti  Ti4  1  0.760078  0.295420  0.547561  1
  Ti  Ti5  1  0.750685  0.786894  0.040758  1
  Ti  Ti6  1  0.997909  0.505931  0.986635  1
  Ti  Ti7  1  0.014989  0.000735  0.512954  1
  Ti  Ti8  1  0.488243  0.505616  0.502586  1
  Ti  Ti9  1  0.459516  0.249750  0.704495  1
  Ti  Ti10  1  0.538151  0.741598  0.293920  1
  Ti  Ti11  1  0.253521  0.710255  0.457258  1
  Ti  Ti12  1  0.245879  0.208848  0.956170  1
  Ti  Ti13  1  0.289164  0.536983  0.739613  1
  Ti  Ti14  1  0.208026  0.945965  0.241215  1
  Ti  Ti15  1  0.054476  0.764214  0.798402  1
  N  N16  1  0.736455  0.226749  0.276393  1
  N  N17  1  0.279115  0.011911  0.053045  1
  N  N18  1  0.773426  0.722519  0.263597  1
  N  N19  1  0.450652  0.459137  0.225279  1
  N  N20  1  0.724692  0.264416  0.775020  1
  N  N21  1  0.223523  0.446601  0.456516  1
  N  N22  1  0.275468  0.733823  0.222155  1
  N  N23  1  0.988415  0.948013  0.723052  1
  N  N24  1  0.951912  0.726554  0.994461  1
  N  N25  1  0.549508  0.542902  0.774613  1
  N  N26  1  0.226268  0.274461  0.737829  1
  N  N27  1  0.540343  0.774806  0.548757  1
  N  N28  1  0.036697  0.487212  0.760806  1
  N  N29  1  0.726908  0.991782  0.951946  1
  N  N30  1  0.269765  0.777948  0.727341  1
  N  N31  1  0.235567  0.962169  0.508188  1
  O  O32  1  0.765759  0.042222  0.490774  1
  O  O33  1  0.959637  0.504033  0.231526  1
  O  O34  1  0.463023  0.227600  0.453428  1
  O  O35  1  0.051206  0.274919  0.008873  1
  O  O36  1  0.006980  0.051267  0.275847  1
  O  O37  1  0.772971  0.545610  0.536804  1
  O  O38  1  0.492299  0.769293  0.043389  1
  O  O39  1  0.509376  0.235271  0.960190  1
