# generated using pymatgen
data_LiFe2(BO3)2
_symmetry_space_group_name_H-M   'P 1'
_cell_length_a   5.31321101
_cell_length_b   9.07500270
_cell_length_c   11.34970263
_cell_angle_alpha   113.61029022
_cell_angle_beta   77.76356385
_cell_angle_gamma   89.83331471
_symmetry_Int_Tables_number   1
_chemical_formula_structural   LiFe2(BO3)2
_chemical_formula_sum   'Li4 Fe8 B8 O24'
_cell_volume   487.68988267
_cell_formula_units_Z   4
loop_
 _symmetry_equiv_pos_site_id
 _symmetry_equiv_pos_as_xyz
  1  'x, y, z'
loop_
 _atom_site_type_symbol
 _atom_site_label
 _atom_site_symmetry_multiplicity
 _atom_site_fract_x
 _atom_site_fract_y
 _atom_site_fract_z
 _atom_site_occupancy
  Li  Li0  1  0.353097  0.292552  0.583115  1
  Li  Li1  1  0.612944  0.048120  0.097543  1
  Li  Li2  1  0.107772  0.550521  0.097190  1
  Li  Li3  1  0.423675  0.933594  0.841867  1
  Fe  Fe4  1  0.403634  0.282676  0.871622  1
  Fe  Fe5  1  0.102685  0.219324  0.121924  1
  Fe  Fe6  1  0.845077  0.139095  0.623668  1
  Fe  Fe7  1  0.658480  0.355093  0.368354  1
  Fe  Fe8  1  0.347987  0.653665  0.616613  1
  Fe  Fe9  1  0.153040  0.852707  0.367073  1
  Fe  Fe10  1  0.908165  0.759867  0.866516  1
  Fe  Fe11  1  0.605665  0.718101  0.124009  1
  B  B12  1  0.640560  0.020935  0.376076  1
  B  B13  1  0.905998  0.091917  0.867455  1
  B  B14  1  0.152687  0.516658  0.368018  1
  B  B15  1  0.393394  0.618640  0.878442  1
  B  B16  1  0.846459  0.470155  0.623962  1
  B  B17  1  0.602439  0.391288  0.123233  1
  B  B18  1  0.351949  0.991180  0.623589  1
  B  B19  1  0.107505  0.891788  0.119513  1
  O  O20  1  0.138314  0.122759  0.905330  1
  O  O21  1  0.462951  0.139563  0.651356  1
  O  O22  1  0.253039  0.013379  0.113028  1
  O  O23  1  0.539916  0.162551  0.380639  1
  O  O24  1  0.863610  0.017966  0.421974  1
  O  O25  1  0.794076  0.183285  0.814996  1
  O  O26  1  0.266341  0.492806  0.888104  1
  O  O27  1  0.022325  0.377955  0.333745  1
  O  O28  1  0.692214  0.276136  0.165383  1
  O  O29  1  0.618076  0.459359  0.579072  1
  O  O30  1  0.972608  0.334412  0.619985  1
  O  O31  1  0.368534  0.371547  0.084147  1
  O  O32  1  0.625650  0.650882  0.916992  1
  O  O33  1  0.374827  0.516192  0.414922  1
  O  O34  1  0.286722  0.727126  0.837149  1
  O  O35  1  0.951712  0.617486  0.672189  1
  O  O36  1  0.746957  0.513428  0.119224  1
  O  O37  1  0.189740  0.781604  0.165726  1
  O  O38  1  0.137062  0.975279  0.567658  1
  O  O39  1  0.443940  0.874016  0.651850  1
  O  O40  1  0.066786  0.648925  0.355235  1
  O  O41  1  0.767175  0.968952  0.885777  1
  O  O42  1  0.519922  0.881098  0.329940  1
  O  O43  1  0.874741  0.870155  0.077702  1
