# generated using pymatgen
data_NbOF3
_symmetry_space_group_name_H-M   'P 1'
_cell_length_a   8.75317419
_cell_length_b   6.69776172
_cell_length_c   7.81210870
_cell_angle_alpha   108.58937945
_cell_angle_beta   98.79964113
_cell_angle_gamma   111.08720556
_symmetry_Int_Tables_number   1
_chemical_formula_structural   NbOF3
_chemical_formula_sum   'Nb4 O4 F12'
_cell_volume   386.03403028
_cell_formula_units_Z   4
loop_
 _symmetry_equiv_pos_site_id
 _symmetry_equiv_pos_as_xyz
  1  'x, y, z'
loop_
 _atom_site_type_symbol
 _atom_site_label
 _atom_site_symmetry_multiplicity
 _atom_site_fract_x
 _atom_site_fract_y
 _atom_site_fract_z
 _atom_site_occupancy
  Nb  Nb0  1  0.209435  0.514204  0.539911  1
  Nb  Nb1  1  0.369299  0.338824  0.104908  1
  Nb  Nb2  1  0.630701  0.661176  0.895092  1
  Nb  Nb3  1  0.790565  0.485796  0.460089  1
  O  O4  1  0.391070  0.584382  0.734088  1
  O  O5  1  0.300300  0.431547  0.313753  1
  O  O6  1  0.699700  0.568453  0.686247  1
  O  O7  1  0.608930  0.415618  0.265912  1
  F  F8  1  0.040984  0.561281  0.677050  1
  F  F9  1  0.177291  0.282787  0.915068  1
  F  F10  1  0.089921  0.184451  0.457013  1
  F  F11  1  0.271678  0.813017  0.529268  1
  F  F12  1  0.693102  0.982418  0.952989  1
  F  F13  1  0.494420  0.672365  0.111907  1
  F  F14  1  0.505580  0.327635  0.888093  1
  F  F15  1  0.306898  0.017582  0.047011  1
  F  F16  1  0.728322  0.186983  0.470732  1
  F  F17  1  0.910079  0.815549  0.542987  1
  F  F18  1  0.822709  0.717213  0.084932  1
  F  F19  1  0.959016  0.438719  0.322950  1
