# generated using pymatgen
data_Na2Ga11O17
_symmetry_space_group_name_H-M   'P 1'
_cell_length_a   5.97368016
_cell_length_b   5.96015682
_cell_length_c   22.98938052
_cell_angle_alpha   90.00201553
_cell_angle_beta   89.99804489
_cell_angle_gamma   119.82337056
_symmetry_Int_Tables_number   1
_chemical_formula_structural   Na2Ga11O17
_chemical_formula_sum   'Na4 Ga22 O34'
_cell_volume   710.11351399
_cell_formula_units_Z   2
loop_
 _symmetry_equiv_pos_site_id
 _symmetry_equiv_pos_as_xyz
  1  'x, y, z'
loop_
 _atom_site_type_symbol
 _atom_site_label
 _atom_site_symmetry_multiplicity
 _atom_site_fract_x
 _atom_site_fract_y
 _atom_site_fract_z
 _atom_site_occupancy
  Na  Na0  1  0.360932  0.792641  0.750104  1
  Na  Na1  1  0.997435  0.119759  0.750079  1
  Na  Na2  1  0.002533  0.880231  0.249923  1
  Na  Na3  1  0.639109  0.207392  0.249900  1
  Ga  Ga4  1  0.167930  0.835067  0.890982  1
  Ga  Ga5  1  0.167971  0.835130  0.609038  1
  Ga  Ga6  1  0.332987  0.666394  0.025665  1
  Ga  Ga7  1  0.327985  0.664246  0.175239  1
  Ga  Ga8  1  0.000005  0.000002  0.000002  1
  Ga  Ga9  1  0.000001  0.999998  0.500000  1
  Ga  Ga10  1  0.327943  0.664239  0.324718  1
  Ga  Ga11  1  0.170605  0.337661  0.610069  1
  Ga  Ga12  1  0.332962  0.666376  0.474335  1
  Ga  Ga13  1  0.170544  0.337600  0.889970  1
  Ga  Ga14  1  0.666600  0.833274  0.610580  1
  Ga  Ga15  1  0.666546  0.833206  0.889457  1
  Ga  Ga16  1  0.333459  0.166815  0.110547  1
  Ga  Ga17  1  0.333444  0.166738  0.389417  1
  Ga  Ga18  1  0.829456  0.662419  0.110038  1
  Ga  Ga19  1  0.829414  0.662349  0.389930  1
  Ga  Ga20  1  0.672048  0.335758  0.675279  1
  Ga  Ga21  1  0.671990  0.335753  0.824761  1
  Ga  Ga22  1  0.667013  0.333616  0.974337  1
  Ga  Ga23  1  0.667041  0.333622  0.525662  1
  Ga  Ga24  1  0.832058  0.164941  0.109015  1
  Ga  Ga25  1  0.832066  0.164877  0.390961  1
  O  O26  1  0.154372  0.843240  0.446490  1
  O  O27  1  0.154364  0.843242  0.053492  1
  O  O28  1  0.019854  0.513734  0.652786  1
  O  O29  1  0.019819  0.513653  0.847245  1
  O  O30  1  0.303479  0.749824  0.249979  1
  O  O31  1  0.998321  0.996575  0.150795  1
  O  O32  1  0.998315  0.996462  0.349160  1
  O  O33  1  0.155877  0.310691  0.054076  1
  O  O34  1  0.001729  0.003546  0.650841  1
  O  O35  1  0.001684  0.003454  0.849207  1
  O  O36  1  0.155832  0.310623  0.445911  1
  O  O37  1  0.336054  0.665329  0.558183  1
  O  O38  1  0.336027  0.665322  0.941832  1
  O  O39  1  0.490205  0.985929  0.651169  1
  O  O40  1  0.490198  0.985891  0.848867  1
  O  O41  1  0.311703  0.157463  0.553560  1
  O  O42  1  0.311703  0.157444  0.946452  1
  O  O43  1  0.493881  0.509380  0.656415  1
  O  O44  1  0.493798  0.509339  0.843614  1
  O  O45  1  0.506215  0.490684  0.156392  1
  O  O46  1  0.506135  0.490634  0.343577  1
  O  O47  1  0.688300  0.842577  0.053550  1
  O  O48  1  0.688305  0.842524  0.446437  1
  O  O49  1  0.509844  0.014081  0.348819  1
  O  O50  1  0.509804  0.014119  0.151141  1
  O  O51  1  0.663948  0.334664  0.441813  1
  O  O52  1  0.844176  0.689374  0.554089  1
  O  O53  1  0.844125  0.689327  0.945925  1
  O  O54  1  0.663956  0.334699  0.058169  1
  O  O55  1  0.696293  0.250012  0.750016  1
  O  O56  1  0.980166  0.486347  0.152748  1
  O  O57  1  0.980150  0.486266  0.347219  1
  O  O58  1  0.845648  0.156768  0.553506  1
  O  O59  1  0.845644  0.156774  0.946511  1
