# generated using pymatgen
data_Li6MnV3(PO4)6
_symmetry_space_group_name_H-M   'P 1'
_cell_length_a   8.50629947
_cell_length_b   8.84884685
_cell_length_c   12.38912687
_cell_angle_alpha   90.00422042
_cell_angle_beta   87.74725170
_cell_angle_gamma   90.10418123
_symmetry_Int_Tables_number   1
_chemical_formula_structural   Li6MnV3(PO4)6
_chemical_formula_sum   'Li12 Mn2 V6 P12 O48'
_cell_volume   931.81898789
_cell_formula_units_Z   2
loop_
 _symmetry_equiv_pos_site_id
 _symmetry_equiv_pos_as_xyz
  1  'x, y, z'
loop_
 _atom_site_type_symbol
 _atom_site_label
 _atom_site_symmetry_multiplicity
 _atom_site_fract_x
 _atom_site_fract_y
 _atom_site_fract_z
 _atom_site_occupancy
  Li  Li0  1  0.004438  0.997434  0.999747  1
  Li  Li1  1  0.999264  0.099642  0.248846  1
  Li  Li2  1  0.000703  0.998746  0.500780  1
  Li  Li3  1  0.009446  0.897060  0.750870  1
  Li  Li4  1  0.289375  0.806838  0.044882  1
  Li  Li5  1  0.292339  0.193398  0.548594  1
  Li  Li6  1  0.506018  0.503907  0.999707  1
  Li  Li7  1  0.499393  0.402997  0.250240  1
  Li  Li8  1  0.500061  0.501104  0.500744  1
  Li  Li9  1  0.504727  0.601206  0.751807  1
  Li  Li10  1  0.706759  0.806018  0.451402  1
  Li  Li11  1  0.709879  0.195203  0.949987  1
  Mn  Mn12  1  0.289097  0.007610  0.857142  1
  Mn  Mn13  1  0.789863  0.496785  0.852491  1
  V  V14  1  0.212797  0.499462  0.143533  1
  V  V15  1  0.214462  0.500312  0.644176  1
  V  V16  1  0.283825  0.996587  0.358034  1
  V  V17  1  0.715906  0.997245  0.141751  1
  V  V18  1  0.717322  0.002646  0.641516  1
  V  V19  1  0.786132  0.500256  0.355675  1
  P  P20  1  0.000360  0.796457  0.249579  1
  P  P21  1  0.004308  0.198871  0.750507  1
  P  P22  1  0.155628  0.354965  0.395610  1
  P  P23  1  0.151376  0.642940  0.895139  1
  P  P24  1  0.348668  0.146946  0.104780  1
  P  P25  1  0.349314  0.852255  0.602395  1
  P  P26  1  0.499003  0.707535  0.249859  1
  P  P27  1  0.504666  0.295717  0.748031  1
  P  P28  1  0.649473  0.147113  0.397001  1
  P  P29  1  0.644850  0.854955  0.896774  1
  P  P30  1  0.842995  0.355159  0.105691  1
  P  P31  1  0.843868  0.645525  0.603604  1
  O  O32  1  0.010739  0.414521  0.104793  1
  O  O33  1  0.011099  0.587167  0.606415  1
  O  O34  1  0.067534  0.906320  0.335301  1
  O  O35  1  0.078114  0.089407  0.835772  1
  O  O36  1  0.126867  0.702272  0.188910  1
  O  O37  1  0.128156  0.296058  0.689693  1
  O  O38  1  0.144919  0.178583  0.410125  1
  O  O39  1  0.137729  0.818144  0.909049  1
  O  O40  1  0.249526  0.404091  0.292514  1
  O  O41  1  0.248755  0.059933  0.022463  1
  O  O42  1  0.252985  0.408617  0.492940  1
  O  O43  1  0.244549  0.594372  0.791459  1
  O  O44  1  0.252994  0.936865  0.516275  1
  O  O45  1  0.274814  0.097785  0.215473  1
  O  O46  1  0.249244  0.588558  0.991122  1
  O  O47  1  0.270930  0.901701  0.710724  1
  O  O48  1  0.344406  0.321570  0.090591  1
  O  O49  1  0.346335  0.677513  0.587951  1
  O  O50  1  0.380902  0.805203  0.312725  1
  O  O51  1  0.386263  0.204144  0.816029  1
  O  O52  1  0.428032  0.600763  0.163257  1
  O  O53  1  0.433194  0.404392  0.663871  1
  O  O54  1  0.473742  0.106527  0.409459  1
  O  O55  1  0.467003  0.898028  0.908846  1
  O  O56  1  0.525490  0.108128  0.092594  1
  O  O57  1  0.526175  0.893410  0.591275  1
  O  O58  1  0.570075  0.600071  0.335462  1
  O  O59  1  0.580744  0.403081  0.834428  1
  O  O60  1  0.618871  0.805675  0.187250  1
  O  O61  1  0.620564  0.196193  0.684591  1
  O  O62  1  0.653420  0.321592  0.410437  1
  O  O63  1  0.643224  0.681820  0.910476  1
  O  O64  1  0.725274  0.095588  0.287350  1
  O  O65  1  0.741848  0.406890  0.010342  1
  O  O66  1  0.720607  0.906118  0.787326  1
  O  O67  1  0.748423  0.062712  0.481862  1
  O  O68  1  0.751507  0.403278  0.210141  1
  O  O69  1  0.747716  0.590997  0.506266  1
  O  O70  1  0.743165  0.941060  0.981312  1
  O  O71  1  0.746408  0.600840  0.706399  1
  O  O72  1  0.857422  0.178750  0.093032  1
  O  O73  1  0.855562  0.821739  0.588318  1
  O  O74  1  0.873153  0.702505  0.310082  1
  O  O75  1  0.876687  0.284826  0.815349  1
  O  O76  1  0.932512  0.905920  0.163379  1
  O  O77  1  0.937230  0.088113  0.664905  1
  O  O78  1  0.987387  0.411822  0.395195  1
  O  O79  1  0.981385  0.583443  0.895573  1
