# generated using pymatgen
data_Fe5O3F7
_symmetry_space_group_name_H-M   'P 1'
_cell_length_a   4.82185287
_cell_length_b   4.82237302
_cell_length_c   15.62487235
_cell_angle_alpha   90.00000000
_cell_angle_beta   90.00000000
_cell_angle_gamma   91.49508877
_symmetry_Int_Tables_number   1
_chemical_formula_structural   Fe5O3F7
_chemical_formula_sum   'Fe10 O6 F14'
_cell_volume   363.19792573
_cell_formula_units_Z   2
loop_
 _symmetry_equiv_pos_site_id
 _symmetry_equiv_pos_as_xyz
  1  'x, y, z'
loop_
 _atom_site_type_symbol
 _atom_site_label
 _atom_site_symmetry_multiplicity
 _atom_site_fract_x
 _atom_site_fract_y
 _atom_site_fract_z
 _atom_site_occupancy
  Fe  Fe0  1  0.979091  0.980057  0.998466  1
  Fe  Fe1  1  0.979091  0.980057  0.201534  1
  Fe  Fe2  1  0.040554  0.019702  0.407188  1
  Fe  Fe3  1  0.020885  0.971212  0.600000  1
  Fe  Fe4  1  0.040554  0.019702  0.792812  1
  Fe  Fe5  1  0.523078  0.523518  0.100000  1
  Fe  Fe6  1  0.474251  0.508067  0.494815  1
  Fe  Fe7  1  0.503326  0.495555  0.299434  1
  Fe  Fe8  1  0.474251  0.508067  0.705185  1
  Fe  Fe9  1  0.503326  0.495555  0.900566  1
  O  O10  1  0.183782  0.817339  0.500263  1
  O  O11  1  0.183782  0.817339  0.699737  1
  O  O12  1  0.311106  0.309750  0.391007  1
  O  O13  1  0.311106  0.309750  0.808993  1
  O  O14  1  0.677360  0.675522  0.997794  1
  O  O15  1  0.677360  0.675522  0.202206  1
  F  F16  1  0.196180  0.786720  0.100000  1
  F  F17  1  0.201616  0.801631  0.303727  1
  F  F18  1  0.201616  0.801631  0.896273  1
  F  F19  1  0.298166  0.296981  0.002336  1
  F  F20  1  0.298166  0.296981  0.197664  1
  F  F21  1  0.287129  0.296487  0.600000  1
  F  F22  1  0.713829  0.715812  0.391949  1
  F  F23  1  0.690349  0.695714  0.600000  1
  F  F24  1  0.713829  0.715812  0.808051  1
  F  F25  1  0.785949  0.196173  0.100000  1
  F  F26  1  0.809243  0.196229  0.501864  1
  F  F27  1  0.805892  0.198442  0.305178  1
  F  F28  1  0.805892  0.198442  0.894822  1
  F  F29  1  0.809243  0.196229  0.698136  1
