# generated using pymatgen
data_Li3CrH12(CO3)6
_symmetry_space_group_name_H-M   'P 1'
_cell_length_a   9.42754733
_cell_length_b   12.02556180
_cell_length_c   8.12267421
_cell_angle_alpha   104.51166430
_cell_angle_beta   109.44382268
_cell_angle_gamma   92.01573514
_symmetry_Int_Tables_number   1
_chemical_formula_structural   Li3CrH12(CO3)6
_chemical_formula_sum   'Li6 Cr2 H24 C12 O36'
_cell_volume   833.53406733
_cell_formula_units_Z   2
loop_
 _symmetry_equiv_pos_site_id
 _symmetry_equiv_pos_as_xyz
  1  'x, y, z'
loop_
 _atom_site_type_symbol
 _atom_site_label
 _atom_site_symmetry_multiplicity
 _atom_site_fract_x
 _atom_site_fract_y
 _atom_site_fract_z
 _atom_site_occupancy
  Li  Li0  1  0.069615  0.111929  0.984959  1
  Li  Li1  1  0.104184  0.403944  0.037121  1
  Li  Li2  1  0.209743  0.073939  0.429772  1
  Li  Li3  1  0.790257  0.926061  0.570228  1
  Li  Li4  1  0.895816  0.596056  0.962879  1
  Li  Li5  1  0.930385  0.888071  0.015041  1
  Cr  Cr6  1  0.332554  0.712255  0.701844  1
  Cr  Cr7  1  0.667446  0.287745  0.298156  1
  H  H8  1  0.037002  0.882048  0.349483  1
  H  H9  1  0.216105  0.509289  0.868978  1
  H  H10  1  0.177630  0.213848  0.707919  1
  H  H11  1  0.122300  0.261477  0.536602  1
  H  H12  1  0.172036  0.866642  0.277319  1
  H  H13  1  0.334976  0.985150  0.701446  1
  H  H14  1  0.427195  0.388065  0.836725  1
  H  H15  1  0.461061  0.441818  0.695429  1
  H  H16  1  0.456110  0.081317  0.700502  1
  H  H17  1  0.404872  0.833374  0.403502  1
  H  H18  1  0.343969  0.505007  0.045607  1
  H  H19  1  0.401052  0.740697  0.233918  1
  H  H20  1  0.598948  0.259303  0.766082  1
  H  H21  1  0.656031  0.494993  0.954393  1
  H  H22  1  0.595128  0.166626  0.596498  1
  H  H23  1  0.543890  0.918683  0.299498  1
  H  H24  1  0.538939  0.558182  0.304571  1
  H  H25  1  0.572805  0.611935  0.163275  1
  H  H26  1  0.665024  0.014850  0.298554  1
  H  H27  1  0.827964  0.133357  0.722681  1
  H  H28  1  0.877700  0.738523  0.463398  1
  H  H29  1  0.822370  0.786152  0.292081  1
  H  H30  1  0.783895  0.490711  0.131022  1
  H  H31  1  0.962998  0.117952  0.650517  1
  C  C32  1  0.116641  0.737628  0.869781  1
  C  C33  1  0.166407  0.861057  0.865288  1
  C  C34  1  0.158343  0.598232  0.342187  1
  C  C35  1  0.270157  0.513596  0.409256  1
  C  C36  1  0.377380  0.189415  0.247012  1
  C  C37  1  0.364077  0.224408  0.071521  1
  C  C38  1  0.635923  0.775592  0.928479  1
  C  C39  1  0.622620  0.810585  0.752988  1
  C  C40  1  0.729843  0.486404  0.590744  1
  C  C41  1  0.841657  0.401768  0.657813  1
  C  C42  1  0.833593  0.138943  0.134712  1
  C  C43  1  0.883359  0.262372  0.130219  1
  O  O44  1  0.016972  0.726059  0.934695  1
  O  O45  1  0.099599  0.941303  0.919141  1
  O  O46  1  0.183980  0.655813  0.802402  1
  O  O47  1  0.120516  0.191153  0.574892  1
  O  O48  1  0.238781  0.203011  0.944815  1
  O  O49  1  0.261812  0.454479  0.936677  1
  O  O50  1  0.092932  0.916848  0.288182  1
  O  O51  1  0.068828  0.567775  0.182124  1
  O  O52  1  0.167523  0.694445  0.461573  1
  O  O53  1  0.274855  0.868542  0.802755  1
  O  O54  1  0.269504  0.420287  0.301592  1
  O  O55  1  0.356713  0.549798  0.579825  1
  O  O56  1  0.358145  0.032169  0.628726  1
  O  O57  1  0.263522  0.140296  0.257206  1
  O  O58  1  0.512174  0.726917  0.928533  1
  O  O59  1  0.369984  0.818183  0.270582  1
  O  O60  1  0.503171  0.394475  0.779508  1
  O  O61  1  0.488454  0.786512  0.630130  1
  O  O62  1  0.511546  0.213488  0.369870  1
  O  O63  1  0.496829  0.605525  0.220492  1
  O  O64  1  0.630016  0.181817  0.729418  1
  O  O65  1  0.487826  0.273083  0.071467  1
  O  O66  1  0.736478  0.859704  0.742794  1
  O  O67  1  0.641855  0.967831  0.371274  1
  O  O68  1  0.643287  0.450202  0.420175  1
  O  O69  1  0.730496  0.579713  0.698408  1
  O  O70  1  0.725145  0.131458  0.197245  1
  O  O71  1  0.832477  0.305555  0.538427  1
  O  O72  1  0.931172  0.432225  0.817876  1
  O  O73  1  0.907068  0.083152  0.711818  1
  O  O74  1  0.738188  0.545521  0.063323  1
  O  O75  1  0.761219  0.796989  0.055185  1
  O  O76  1  0.879484  0.808847  0.425108  1
  O  O77  1  0.816020  0.344187  0.197598  1
  O  O78  1  0.900401  0.058697  0.080859  1
  O  O79  1  0.983028  0.273941  0.065305  1
