# generated using pymatgen
data_Ce(ClO4)3
_symmetry_space_group_name_H-M   'P 1'
_cell_length_a   9.79823674
_cell_length_b   9.79823674
_cell_length_c   9.79823671
_cell_angle_alpha   51.55075680
_cell_angle_beta   51.55075680
_cell_angle_gamma   51.55075157
_symmetry_Int_Tables_number   1
_chemical_formula_structural   Ce(ClO4)3
_chemical_formula_sum   'Ce2 Cl6 O24'
_cell_volume   532.86580889
_cell_formula_units_Z   2
loop_
 _symmetry_equiv_pos_site_id
 _symmetry_equiv_pos_as_xyz
  1  'x, y, z'
loop_
 _atom_site_type_symbol
 _atom_site_label
 _atom_site_symmetry_multiplicity
 _atom_site_fract_x
 _atom_site_fract_y
 _atom_site_fract_z
 _atom_site_occupancy
  Ce  Ce0  1  0.058594  0.058594  0.058594  1
  Ce  Ce1  1  0.558594  0.558594  0.558594  1
  Cl  Cl2  1  0.345659  0.967490  0.687694  1
  Cl  Cl3  1  0.467490  0.845659  0.187694  1
  Cl  Cl4  1  0.187694  0.467490  0.845659  1
  Cl  Cl5  1  0.967490  0.687694  0.345659  1
  Cl  Cl6  1  0.687694  0.345659  0.967490  1
  Cl  Cl7  1  0.845659  0.187694  0.467490  1
  O  O8  1  0.075397  0.746399  0.138800  1
  O  O9  1  0.288826  0.884793  0.201235  1
  O  O10  1  0.002764  0.571048  0.946706  1
  O  O11  1  0.393283  0.921470  0.832353  1
  O  O12  1  0.421470  0.893283  0.332353  1
  O  O13  1  0.071048  0.502764  0.446706  1
  O  O14  1  0.384793  0.788826  0.701235  1
  O  O15  1  0.571048  0.946706  0.002764  1
  O  O16  1  0.246399  0.575397  0.638800  1
  O  O17  1  0.201235  0.288826  0.884793  1
  O  O18  1  0.332353  0.421470  0.893283  1
  O  O19  1  0.575397  0.638800  0.246399  1
  O  O20  1  0.502764  0.446706  0.071048  1
  O  O21  1  0.138800  0.075397  0.746399  1
  O  O22  1  0.921470  0.832353  0.393283  1
  O  O23  1  0.788826  0.701235  0.384793  1
  O  O24  1  0.701235  0.384793  0.788826  1
  O  O25  1  0.446706  0.071048  0.502764  1
  O  O26  1  0.638800  0.246399  0.575397  1
  O  O27  1  0.832353  0.393283  0.921470  1
  O  O28  1  0.893283  0.332353  0.421470  1
  O  O29  1  0.746399  0.138800  0.075397  1
  O  O30  1  0.884793  0.201235  0.288826  1
  O  O31  1  0.946706  0.002764  0.571048  1
