# generated using pymatgen
data_ErBiO3
_symmetry_space_group_name_H-M   'P 1'
_cell_length_a   5.99852213
_cell_length_b   5.99852175
_cell_length_c   6.13626990
_cell_angle_alpha   60.73984552
_cell_angle_beta   119.26015143
_cell_angle_gamma   119.99999525
_symmetry_Int_Tables_number   1
_chemical_formula_structural   ErBiO3
_chemical_formula_sum   'Er2 Bi2 O6'
_cell_volume   157.85020064
_cell_formula_units_Z   2
loop_
 _symmetry_equiv_pos_site_id
 _symmetry_equiv_pos_as_xyz
  1  'x, y, z'
loop_
 _atom_site_type_symbol
 _atom_site_label
 _atom_site_symmetry_multiplicity
 _atom_site_fract_x
 _atom_site_fract_y
 _atom_site_fract_z
 _atom_site_occupancy
  Er  Er0  1  0.277326  0.722674  0.831980  1
  Er  Er1  1  0.777326  0.222674  0.331980  1
  Bi  Bi2  1  0.490972  0.509028  0.472918  1
  Bi  Bi3  1  0.990972  0.009028  0.972918  1
  O  O4  1  0.924257  0.858367  0.653291  1
  O  O5  1  0.587401  0.075743  0.653291  1
  O  O6  1  0.141633  0.412599  0.653291  1
  O  O7  1  0.641633  0.575743  0.153291  1
  O  O8  1  0.424257  0.912599  0.153291  1
  O  O9  1  0.087401  0.358367  0.153291  1
