# generated using pymatgen
data_Bi19(O9F)3
_symmetry_space_group_name_H-M   'P 1'
_cell_length_a   13.08402475
_cell_length_b   13.08399992
_cell_length_c   10.46398420
_cell_angle_alpha   89.99974248
_cell_angle_beta   90.00014800
_cell_angle_gamma   120.00043609
_symmetry_Int_Tables_number   1
_chemical_formula_structural   Bi19(O9F)3
_chemical_formula_sum   'Bi38 O54 F6'
_cell_volume   1551.34249271
_cell_formula_units_Z   2
loop_
 _symmetry_equiv_pos_site_id
 _symmetry_equiv_pos_as_xyz
  1  'x, y, z'
loop_
 _atom_site_type_symbol
 _atom_site_label
 _atom_site_symmetry_multiplicity
 _atom_site_fract_x
 _atom_site_fract_y
 _atom_site_fract_z
 _atom_site_occupancy
  Bi  Bi0  1  0.237119  0.937538  0.245971  1
  Bi  Bi1  1  0.221515  0.937039  0.583715  1
  Bi  Bi2  1  0.240951  0.938383  0.917100  1
  Bi  Bi3  1  0.134356  0.611756  0.248701  1
  Bi  Bi4  1  0.133832  0.606193  0.582926  1
  Bi  Bi5  1  0.133091  0.613905  0.916639  1
  Bi  Bi6  1  0.062466  0.299581  0.245968  1
  Bi  Bi7  1  0.062960  0.284474  0.583711  1
  Bi  Bi8  1  0.061623  0.302568  0.917097  1
  Bi  Bi9  1  0.000002  0.000001  0.348014  1
  Bi  Bi10  1  0.000001  0.000000  0.848008  1
  Bi  Bi11  1  0.480814  0.866913  0.916642  1
  Bi  Bi12  1  0.472363  0.866167  0.582920  1
  Bi  Bi13  1  0.477402  0.865643  0.248715  1
  Bi  Bi14  1  0.393807  0.527637  0.582915  1
  Bi  Bi15  1  0.386097  0.519182  0.916637  1
  Bi  Bi16  1  0.388247  0.522602  0.248709  1
  Bi  Bi17  1  0.302568  0.240943  0.417096  1
  Bi  Bi18  1  0.284474  0.221515  0.083706  1
  Bi  Bi19  1  0.299580  0.237116  0.745965  1
  Bi  Bi20  1  0.697434  0.759053  0.917096  1
  Bi  Bi21  1  0.700420  0.762881  0.245967  1
  Bi  Bi22  1  0.715526  0.778483  0.583708  1
  Bi  Bi23  1  0.611756  0.477399  0.748710  1
  Bi  Bi24  1  0.613904  0.480810  0.416643  1
  Bi  Bi25  1  0.606194  0.472362  0.082930  1
  Bi  Bi26  1  0.519189  0.133090  0.416639  1
  Bi  Bi27  1  0.527641  0.133832  0.082921  1
  Bi  Bi28  1  0.522604  0.134358  0.748708  1
  Bi  Bi29  1  0.937535  0.700420  0.745969  1
  Bi  Bi30  1  0.937041  0.715532  0.083708  1
  Bi  Bi31  1  0.938388  0.697434  0.417096  1
  Bi  Bi32  1  0.865643  0.388243  0.748712  1
  Bi  Bi33  1  0.866916  0.386098  0.416638  1
  Bi  Bi34  1  0.866168  0.393807  0.082915  1
  Bi  Bi35  1  0.762885  0.062461  0.745967  1
  Bi  Bi36  1  0.759056  0.061620  0.417098  1
  Bi  Bi37  1  0.778487  0.062957  0.083708  1
  O  O38  1  0.014296  0.835897  0.254067  1
  O  O39  1  0.013504  0.820963  0.579101  1
  O  O40  1  0.015806  0.829418  0.912840  1
  O  O41  1  0.122806  0.723258  0.747614  1
  O  O42  1  0.124824  0.728495  0.084347  1
  O  O43  1  0.123596  0.722894  0.412686  1
  O  O44  1  0.056373  0.455222  0.079649  1
  O  O45  1  0.057392  0.458875  0.748109  1
  O  O46  1  0.058264  0.456535  0.416126  1
  O  O47  1  0.398274  0.941734  0.416126  1
  O  O48  1  0.398850  0.943627  0.079646  1
  O  O49  1  0.401479  0.942608  0.748115  1
  O  O50  1  0.277106  0.400698  0.412686  1
  O  O51  1  0.271506  0.396329  0.084342  1
  O  O52  1  0.276740  0.399549  0.747617  1
  O  O53  1  0.179036  0.192540  0.579096  1
  O  O54  1  0.164107  0.178398  0.254068  1
  O  O55  1  0.170587  0.186390  0.912842  1
  O  O56  1  0.600448  0.877191  0.747616  1
  O  O57  1  0.603669  0.875174  0.084342  1
  O  O58  1  0.599302  0.876409  0.412695  1
  O  O59  1  0.178402  0.014292  0.754067  1
  O  O60  1  0.192542  0.013505  0.079100  1
  O  O61  1  0.186391  0.015807  0.412847  1
  O  O62  1  0.541128  0.598520  0.748108  1
  O  O63  1  0.543465  0.601729  0.416126  1
  O  O64  1  0.544781  0.601153  0.079647  1
  O  O65  1  0.455221  0.398847  0.579645  1
  O  O66  1  0.456534  0.398270  0.916131  1
  O  O67  1  0.458872  0.401480  0.248113  1
  O  O68  1  0.821602  0.985708  0.254065  1
  O  O69  1  0.807462  0.986496  0.579101  1
  O  O70  1  0.813613  0.984193  0.912841  1
  O  O71  1  0.396331  0.124823  0.584343  1
  O  O72  1  0.399554  0.122810  0.247615  1
  O  O73  1  0.400706  0.123598  0.912689  1
  O  O74  1  0.835894  0.821602  0.754067  1
  O  O75  1  0.820966  0.807461  0.079097  1
  O  O76  1  0.829414  0.813609  0.412844  1
  O  O77  1  0.723257  0.600448  0.247612  1
  O  O78  1  0.722896  0.599302  0.912686  1
  O  O79  1  0.728491  0.603667  0.584350  1
  O  O80  1  0.601730  0.058263  0.916125  1
  O  O81  1  0.598526  0.057394  0.248112  1
  O  O82  1  0.601155  0.056374  0.579646  1
  O  O83  1  0.941731  0.543458  0.916133  1
  O  O84  1  0.943625  0.544775  0.579638  1
  O  O85  1  0.942607  0.541127  0.248114  1
  O  O86  1  0.876412  0.277111  0.912688  1
  O  O87  1  0.877194  0.276743  0.247617  1
  O  O88  1  0.875178  0.271508  0.584345  1
  O  O89  1  0.985713  0.164110  0.754067  1
  O  O90  1  0.986497  0.179037  0.079099  1
  O  O91  1  0.984196  0.170584  0.412843  1
  F  F92  1  0.333382  0.666686  0.413083  1
  F  F93  1  0.333297  0.666662  0.079440  1
  F  F94  1  0.333288  0.666653  0.748092  1
  F  F95  1  0.666625  0.333340  0.248097  1
  F  F96  1  0.666696  0.333315  0.913082  1
  F  F97  1  0.666635  0.333339  0.579441  1
