# generated using pymatgen
data_SrLaTaMnO6
_symmetry_space_group_name_H-M   'P 1'
_cell_length_a   5.70244678
_cell_length_b   5.87813238
_cell_length_c   8.12200337
_cell_angle_alpha   90.00000000
_cell_angle_beta   89.88811688
_cell_angle_gamma   90.00000000
_symmetry_Int_Tables_number   1
_chemical_formula_structural   SrLaTaMnO6
_chemical_formula_sum   'Sr2 La2 Ta2 Mn2 O12'
_cell_volume   272.24689823
_cell_formula_units_Z   2
loop_
 _symmetry_equiv_pos_site_id
 _symmetry_equiv_pos_as_xyz
  1  'x, y, z'
loop_
 _atom_site_type_symbol
 _atom_site_label
 _atom_site_symmetry_multiplicity
 _atom_site_fract_x
 _atom_site_fract_y
 _atom_site_fract_z
 _atom_site_occupancy
  Sr  Sr0  1  0.007303  0.038537  0.248344  1
  Sr  Sr1  1  0.507303  0.461463  0.748344  1
  La  La2  1  0.487959  0.557830  0.245311  1
  La  La3  1  0.987959  0.942170  0.745311  1
  Ta  Ta4  1  0.998720  0.494411  0.999729  1
  Ta  Ta5  1  0.498720  0.005589  0.499729  1
  Mn  Mn6  1  0.998002  0.490456  0.499170  1
  Mn  Mn7  1  0.498002  0.009544  0.999170  1
  O  O8  1  0.074097  0.529955  0.761291  1
  O  O9  1  0.199606  0.770254  0.046662  1
  O  O10  1  0.221068  0.804435  0.463011  1
  O  O11  1  0.290334  0.313528  0.048105  1
  O  O12  1  0.321774  0.293288  0.449950  1
  O  O13  1  0.401137  0.029324  0.738426  1
  O  O14  1  0.574097  0.970045  0.261291  1
  O  O15  1  0.699606  0.729746  0.546662  1
  O  O16  1  0.721068  0.695565  0.963011  1
  O  O17  1  0.790334  0.186472  0.548105  1
  O  O18  1  0.821774  0.206712  0.949950  1
  O  O19  1  0.901137  0.470676  0.238426  1
