# generated using pymatgen
data_Li2FeCO5
_symmetry_space_group_name_H-M   'P 1'
_cell_length_a   9.34087209
_cell_length_b   12.29231626
_cell_length_c   2.91453823
_cell_angle_alpha   89.99997494
_cell_angle_beta   90.00001066
_cell_angle_gamma   90.00346252
_symmetry_Int_Tables_number   1
_chemical_formula_structural   Li2FeCO5
_chemical_formula_sum   'Li8 Fe4 C4 O20'
_cell_volume   334.65005909
_cell_formula_units_Z   4
loop_
 _symmetry_equiv_pos_site_id
 _symmetry_equiv_pos_as_xyz
  1  'x, y, z'
loop_
 _atom_site_type_symbol
 _atom_site_label
 _atom_site_symmetry_multiplicity
 _atom_site_fract_x
 _atom_site_fract_y
 _atom_site_fract_z
 _atom_site_occupancy
  Li  Li0  1  0.000022  0.000026  0.500000  1
  Li  Li1  1  0.000049  0.500014  1.000000  1
  Li  Li2  1  0.007605  0.279861  0.500000  1
  Li  Li3  1  0.492321  0.779872  0.500000  1
  Li  Li4  1  0.499941  0.499982  0.500000  1
  Li  Li5  1  0.499984  0.000003  1.000000  1
  Li  Li6  1  0.507638  0.220117  0.500000  1
  Li  Li7  1  0.992452  0.720141  0.500000  1
  Fe  Fe8  1  0.245521  0.113327  0.000000  1
  Fe  Fe9  1  0.254506  0.613351  0.999997  1
  Fe  Fe10  1  0.745503  0.386676  -0.000001  1
  Fe  Fe11  1  0.754497  0.886650  0.000011  1
  C  C12  1  0.229021  0.861233  0.999999  1
  C  C13  1  0.270952  0.361004  0.999999  1
  C  C14  1  0.729064  0.638890  0.000001  1
  C  C15  1  0.770943  0.138865  0.000000  1
  O  O16  1  0.119928  0.142217  0.499999  1
  O  O17  1  0.125827  0.580456  0.499997  1
  O  O18  1  0.134419  0.360999  0.000000  1
  O  O19  1  0.155760  0.770302  0.999998  1
  O  O20  1  0.155077  0.951808  0.999999  1
  O  O21  1  0.345091  0.451549  0.999998  1
  O  O22  1  0.344021  0.270048  0.999999  1
  O  O23  1  0.365549  0.861060  0.000000  1
  O  O24  1  0.374190  0.080411  0.499998  1
  O  O25  1  0.380117  0.642182  0.499997  1
  O  O26  1  0.619897  0.357805  0.500001  1
  O  O27  1  0.625837  0.919550  0.500003  1
  O  O28  1  0.634429  0.138954  -0.000000  1
  O  O29  1  0.655901  0.729838  1.000000  1
  O  O30  1  0.654973  0.548333  0.000000  1
  O  O31  1  0.844982  0.048308  0.000001  1
  O  O32  1  0.844132  0.229813  0.000001  1
  O  O33  1  0.865565  0.638976  0.000001  1
  O  O34  1  0.874181  0.419577  0.500000  1
  O  O35  1  0.880105  0.857803  0.500003  1
