# generated using pymatgen
data_LiSb2P3O11
_symmetry_space_group_name_H-M   'P 1'
_cell_length_a   7.59195795
_cell_length_b   7.59195795
_cell_length_c   9.25524158
_cell_angle_alpha   71.29731455
_cell_angle_beta   108.70268545
_cell_angle_gamma   103.35633499
_symmetry_Int_Tables_number   1
_chemical_formula_structural   LiSb2P3O11
_chemical_formula_sum   'Li2 Sb4 P6 O22'
_cell_volume   473.69167622
_cell_formula_units_Z   2
loop_
 _symmetry_equiv_pos_site_id
 _symmetry_equiv_pos_as_xyz
  1  'x, y, z'
loop_
 _atom_site_type_symbol
 _atom_site_label
 _atom_site_symmetry_multiplicity
 _atom_site_fract_x
 _atom_site_fract_y
 _atom_site_fract_z
 _atom_site_occupancy
  Li  Li0  1  0.490563  0.971799  0.050290  1
  Li  Li1  1  0.971799  0.490563  0.449710  1
  Sb  Sb2  1  0.127199  0.348578  0.943121  1
  Sb  Sb3  1  0.647687  0.868837  0.452550  1
  Sb  Sb4  1  0.348578  0.127199  0.556879  1
  Sb  Sb5  1  0.868837  0.647687  0.047450  1
  P  P6  1  0.438314  0.689150  0.779962  1
  P  P7  1  0.033218  0.033218  0.750000  1
  P  P8  1  0.310452  0.570550  0.266281  1
  P  P9  1  0.689150  0.438314  0.720038  1
  P  P10  1  0.961995  0.961995  0.250000  1
  P  P11  1  0.570550  0.310452  0.233719  1
  O  O12  1  0.000882  0.894177  0.903430  1
  O  O13  1  0.106284  0.983980  0.402885  1
  O  O14  1  0.234981  0.594534  0.763235  1
  O  O15  1  0.450632  0.867204  0.636490  1
  O  O16  1  0.540621  0.735540  0.936730  1
  O  O17  1  0.026571  0.240107  0.746739  1
  O  O18  1  0.403512  0.776875  0.238391  1
  O  O19  1  0.549977  0.549977  0.750000  1
  O  O20  1  0.136336  0.549882  0.121590  1
  O  O21  1  0.259790  0.481886  0.421716  1
  O  O22  1  0.756410  0.962500  0.257829  1
  O  O23  1  0.240107  0.026571  0.753261  1
  O  O24  1  0.735540  0.540621  0.563270  1
  O  O25  1  0.867204  0.450632  0.863510  1
  O  O26  1  0.456006  0.456006  0.250000  1
  O  O27  1  0.594534  0.234981  0.736765  1
  O  O28  1  0.962500  0.756410  0.242171  1
  O  O29  1  0.481886  0.259790  0.078284  1
  O  O30  1  0.549882  0.136336  0.378410  1
  O  O31  1  0.776875  0.403512  0.261609  1
  O  O32  1  0.894177  0.000882  0.596570  1
  O  O33  1  0.983980  0.106284  0.097115  1
