# generated using pymatgen
data_K9(WO3)20
_symmetry_space_group_name_H-M   'P 1'
_cell_length_a   7.84079379
_cell_length_b   13.14579788
_cell_length_c   13.13321438
_cell_angle_alpha   84.72033016
_cell_angle_beta   107.38313739
_cell_angle_gamma   107.34162009
_symmetry_Int_Tables_number   1
_chemical_formula_structural   K9(WO3)20
_chemical_formula_sum   'K9 W20 O60'
_cell_volume   1233.13240328
_cell_formula_units_Z   1
loop_
 _symmetry_equiv_pos_site_id
 _symmetry_equiv_pos_as_xyz
  1  'x, y, z'
loop_
 _atom_site_type_symbol
 _atom_site_label
 _atom_site_symmetry_multiplicity
 _atom_site_fract_x
 _atom_site_fract_y
 _atom_site_fract_z
 _atom_site_occupancy
  K  K0  1  0.750588  0.674175  0.827003  1
  K  K1  1  0.250900  0.674113  0.827331  1
  K  K2  1  0.423084  0.172561  0.673792  1
  K  K3  1  0.923015  0.172230  0.673744  1
  K  K4  1  0.500000  0.500000  0.500000  1
  K  K5  1  0.576916  0.827439  0.326208  1
  K  K6  1  0.076985  0.827770  0.326256  1
  K  K7  1  0.749100  0.325887  0.172669  1
  K  K8  1  0.249412  0.325825  0.172997  1
  W  W9  1  0.315835  0.206573  0.925086  1
  W  W10  1  0.816142  0.206352  0.925885  1
  W  W11  1  0.608300  0.924088  0.792546  1
  W  W12  1  0.109861  0.926257  0.793438  1
  W  W13  1  0.818485  0.424530  0.708523  1
  W  W14  1  0.314933  0.424127  0.708734  1
  W  W15  1  0.896070  0.711394  0.576898  1
  W  W16  1  0.390735  0.708692  0.575826  1
  W  W17  1  0.000000  0.000000  0.500000  1
  W  W18  1  0.500000  0.000000  0.500000  1
  W  W19  1  0.103930  0.288606  0.423102  1
  W  W20  1  0.609265  0.291308  0.424174  1
  W  W21  1  0.685067  0.575873  0.291266  1
  W  W22  1  0.181515  0.575470  0.291477  1
  W  W23  1  0.890139  0.073743  0.206562  1
  W  W24  1  0.391700  0.075912  0.207454  1
  W  W25  1  0.684165  0.793427  0.074914  1
  W  W26  1  0.183858  0.793648  0.074115  1
  W  W27  1  0.500000  0.500000  0.000000  1
  W  W28  1  0.000000  0.500000  0.000000  1
  O  O29  1  0.143012  0.855863  0.930201  1
  O  O30  1  0.642943  0.855626  0.930235  1
  O  O31  1  0.567969  0.207882  0.925684  1
  O  O32  1  0.065581  0.207820  0.925747  1
  O  O33  1  0.713989  0.072091  0.855922  1
  O  O34  1  0.215310  0.073129  0.857504  1
  O  O35  1  0.422188  0.500823  0.844290  1
  O  O36  1  0.923682  0.501254  0.845365  1
  O  O37  1  0.789197  0.287974  0.790224  1
  O  O38  1  0.288084  0.285008  0.791706  1
  O  O39  1  0.365144  0.925764  0.792989  1
  O  O40  1  0.853502  0.925697  0.792913  1
  O  O41  1  0.060697  0.423721  0.709801  1
  O  O42  1  0.572580  0.424667  0.708492  1
  O  O43  1  0.998877  0.787073  0.710522  1
  O  O44  1  0.502907  0.791188  0.715064  1
  O  O45  1  0.077445  0.000431  0.654439  1
  O  O46  1  0.578033  0.001241  0.654765  1
  O  O47  1  0.856412  0.570024  0.643992  1
  O  O48  1  0.358400  0.573392  0.642684  1
  O  O49  1  0.136013  0.708526  0.576214  1
  O  O50  1  0.647725  0.707175  0.575243  1
  O  O51  1  0.214942  0.357255  0.571891  1
  O  O52  1  0.714794  0.357189  0.573717  1
  O  O53  1  0.743295  0.999805  0.499977  1
  O  O54  1  0.079765  0.158634  0.501605  1
  O  O55  1  0.256705  0.000195  0.500023  1
  O  O56  1  0.578821  0.155787  0.501149  1
  O  O57  1  0.421179  0.844213  0.498851  1
  O  O58  1  0.920235  0.841366  0.498395  1
  O  O59  1  0.785058  0.642745  0.428109  1
  O  O60  1  0.285206  0.642811  0.426283  1
  O  O61  1  0.352275  0.292825  0.424757  1
  O  O62  1  0.863987  0.291474  0.423786  1
  O  O63  1  0.641600  0.426608  0.357316  1
  O  O64  1  0.143588  0.429976  0.356008  1
  O  O65  1  0.922555  0.999569  0.345561  1
  O  O66  1  0.421967  0.998759  0.345235  1
  O  O67  1  0.001123  0.212927  0.289477  1
  O  O68  1  0.497093  0.208812  0.284936  1
  O  O69  1  0.427420  0.575333  0.291508  1
  O  O70  1  0.939303  0.576279  0.290199  1
  O  O71  1  0.146498  0.074303  0.207088  1
  O  O72  1  0.634856  0.074236  0.207011  1
  O  O73  1  0.711916  0.714992  0.208294  1
  O  O74  1  0.210803  0.712026  0.209776  1
  O  O75  1  0.577812  0.499177  0.155710  1
  O  O76  1  0.076318  0.498746  0.154635  1
  O  O77  1  0.784690  0.926871  0.142496  1
  O  O78  1  0.286011  0.927909  0.144078  1
  O  O79  1  0.432031  0.792118  0.074316  1
  O  O80  1  0.934419  0.792180  0.074253  1
  O  O81  1  0.357057  0.144374  0.069765  1
  O  O82  1  0.856988  0.144137  0.069799  1
  O  O83  1  0.422886  0.344977  0.000697  1
  O  O84  1  0.922541  0.344839  0.000305  1
  O  O85  1  0.249857  0.499984  0.000198  1
  O  O86  1  0.750143  0.500016  0.999802  1
  O  O87  1  0.577114  0.655023  0.999303  1
  O  O88  1  0.077459  0.655161  0.999695  1
