# generated using pymatgen
data_Na3YH6(CO4)3
_symmetry_space_group_name_H-M   'P 1'
_cell_length_a   17.43962884
_cell_length_b   10.21030545
_cell_length_c   5.96381910
_cell_angle_alpha   90.00000000
_cell_angle_beta   90.00000000
_cell_angle_gamma   90.00000000
_symmetry_Int_Tables_number   1
_chemical_formula_structural   Na3YH6(CO4)3
_chemical_formula_sum   'Na12 Y4 H24 C12 O48'
_cell_volume   1061.94111083
_cell_formula_units_Z   4
loop_
 _symmetry_equiv_pos_site_id
 _symmetry_equiv_pos_as_xyz
  1  'x, y, z'
loop_
 _atom_site_type_symbol
 _atom_site_label
 _atom_site_symmetry_multiplicity
 _atom_site_fract_x
 _atom_site_fract_y
 _atom_site_fract_z
 _atom_site_occupancy
  Na  Na0  1  0.951045  0.127733  0.913599  1
  Na  Na1  1  0.048955  0.872267  0.413599  1
  Na  Na2  1  0.548955  0.627733  0.413599  1
  Na  Na3  1  0.451045  0.372267  0.913599  1
  Na  Na4  1  0.867553  0.358419  0.406756  1
  Na  Na5  1  0.132447  0.641581  0.906756  1
  Na  Na6  1  0.632447  0.858419  0.906756  1
  Na  Na7  1  0.367553  0.141581  0.406756  1
  Na  Na8  1  0.582099  0.014800  0.416554  1
  Na  Na9  1  0.417901  0.985200  0.916554  1
  Na  Na10  1  0.917901  0.514800  0.916554  1
  Na  Na11  1  0.082099  0.485200  0.416554  1
  Y  Y12  1  0.661280  0.321225  0.685284  1
  Y  Y13  1  0.338720  0.678775  0.185284  1
  Y  Y14  1  0.838720  0.821225  0.185284  1
  Y  Y15  1  0.161280  0.178775  0.685284  1
  H  H16  1  0.510762  0.308944  0.447570  1
  H  H17  1  0.489238  0.691056  0.947570  1
  H  H18  1  0.989238  0.808944  0.947570  1
  H  H19  1  0.010762  0.191056  0.447570  1
  H  H20  1  0.568702  0.272819  0.243333  1
  H  H21  1  0.431298  0.727181  0.743333  1
  H  H22  1  0.931298  0.772819  0.743333  1
  H  H23  1  0.068702  0.227181  0.243333  1
  H  H24  1  0.734067  0.213099  0.236350  1
  H  H25  1  0.265933  0.786901  0.736350  1
  H  H26  1  0.765933  0.713099  0.736350  1
  H  H27  1  0.234067  0.286901  0.236350  1
  H  H28  1  0.761007  0.118024  0.434631  1
  H  H29  1  0.238993  0.881976  0.934631  1
  H  H30  1  0.738993  0.618024  0.934631  1
  H  H31  1  0.261007  0.381976  0.434631  1
  H  H32  1  0.682084  0.478472  0.230201  1
  H  H33  1  0.317916  0.521528  0.730201  1
  H  H34  1  0.817916  0.978472  0.730201  1
  H  H35  1  0.182084  0.021528  0.230201  1
  H  H36  1  0.728724  0.551803  0.420325  1
  H  H37  1  0.271276  0.448197  0.920325  1
  H  H38  1  0.771276  0.051803  0.920325  1
  H  H39  1  0.228724  0.948197  0.420325  1
  C  C40  1  0.901802  0.050499  0.408257  1
  C  C41  1  0.098198  0.949501  0.908257  1
  C  C42  1  0.598198  0.550499  0.908257  1
  C  C43  1  0.401802  0.449501  0.408257  1
  C  C44  1  0.804870  0.304158  0.911789  1
  C  C45  1  0.195130  0.695842  0.411789  1
  C  C46  1  0.695130  0.804158  0.411789  1
  C  C47  1  0.304870  0.195842  0.911789  1
  C  C48  1  0.579005  0.120460  0.922111  1
  C  C49  1  0.420995  0.879540  0.422111  1
  C  C50  1  0.920995  0.620460  0.422111  1
  C  C51  1  0.079005  0.379540  0.922111  1
  O  O52  1  0.744690  0.231243  0.965093  1
  O  O53  1  0.255310  0.768757  0.465093  1
  O  O54  1  0.755310  0.731243  0.465093  1
  O  O55  1  0.244690  0.268757  0.965093  1
  O  O56  1  0.546654  0.030538  0.038215  1
  O  O57  1  0.453346  0.969462  0.538215  1
  O  O58  1  0.953346  0.530538  0.538215  1
  O  O59  1  0.046654  0.469462  0.038215  1
  O  O60  1  0.568520  0.246347  0.963870  1
  O  O61  1  0.431480  0.753653  0.463870  1
  O  O62  1  0.931480  0.746347  0.463870  1
  O  O63  1  0.068520  0.253653  0.963870  1
  O  O64  1  0.625046  0.093439  0.756887  1
  O  O65  1  0.374954  0.906561  0.256887  1
  O  O66  1  0.874954  0.593439  0.256887  1
  O  O67  1  0.125046  0.406561  0.756887  1
  O  O68  1  0.664629  0.496354  0.959978  1
  O  O69  1  0.335371  0.503646  0.459978  1
  O  O70  1  0.835371  0.996354  0.459978  1
  O  O71  1  0.164629  0.003646  0.959978  1
  O  O72  1  0.796325  0.379145  0.737641  1
  O  O73  1  0.203675  0.620855  0.237641  1
  O  O74  1  0.703675  0.879145  0.237641  1
  O  O75  1  0.296325  0.120855  0.737641  1
  O  O76  1  0.866692  0.300272  0.026080  1
  O  O77  1  0.133308  0.699728  0.526080  1
  O  O78  1  0.633308  0.800272  0.526080  1
  O  O79  1  0.366692  0.199728  0.026080  1
  O  O80  1  0.926205  0.149995  0.517918  1
  O  O81  1  0.073795  0.850005  0.017918  1
  O  O82  1  0.573795  0.649995  0.017918  1
  O  O83  1  0.426205  0.350005  0.517918  1
  O  O84  1  0.939030  0.997418  0.242943  1
  O  O85  1  0.060970  0.002582  0.742943  1
  O  O86  1  0.560970  0.497418  0.742943  1
  O  O87  1  0.439030  0.502582  0.242943  1
  O  O88  1  0.564821  0.277947  0.411272  1
  O  O89  1  0.435179  0.722053  0.911272  1
  O  O90  1  0.935179  0.777947  0.911272  1
  O  O91  1  0.064821  0.222053  0.411272  1
  O  O92  1  0.727971  0.194497  0.401861  1
  O  O93  1  0.272029  0.805503  0.901861  1
  O  O94  1  0.772029  0.694497  0.901861  1
  O  O95  1  0.227971  0.305503  0.401861  1
  O  O96  1  0.695399  0.475206  0.393882  1
  O  O97  1  0.304601  0.524794  0.893882  1
  O  O98  1  0.804601  0.975206  0.893882  1
  O  O99  1  0.195399  0.024794  0.393882  1
