# generated using pymatgen
data_CoH8(IO5)2
_symmetry_space_group_name_H-M   'P 1'
_cell_length_a   8.77174127
_cell_length_b   6.06091417
_cell_length_c   8.63928971
_cell_angle_alpha   90.00000000
_cell_angle_beta   100.45155433
_cell_angle_gamma   90.00000000
_symmetry_Int_Tables_number   1
_chemical_formula_structural   CoH8(IO5)2
_chemical_formula_sum   'Co2 H16 I4 O20'
_cell_volume   451.68535134
_cell_formula_units_Z   2
loop_
 _symmetry_equiv_pos_site_id
 _symmetry_equiv_pos_as_xyz
  1  'x, y, z'
loop_
 _atom_site_type_symbol
 _atom_site_label
 _atom_site_symmetry_multiplicity
 _atom_site_fract_x
 _atom_site_fract_y
 _atom_site_fract_z
 _atom_site_occupancy
  Co  Co0  1  0.500000  0.500000  0.500000  1
  Co  Co1  1  0.500000  0.000000  0.000000  1
  H  H2  1  0.203164  0.295020  0.989769  1
  H  H3  1  0.227911  0.072234  0.775337  1
  H  H4  1  0.203164  0.204980  0.489769  1
  H  H5  1  0.227911  0.427766  0.275337  1
  H  H6  1  0.345295  0.484092  0.730653  1
  H  H7  1  0.345295  0.015908  0.230653  1
  H  H8  1  0.513458  0.386926  0.801176  1
  H  H9  1  0.486542  0.886926  0.698824  1
  H  H10  1  0.513458  0.113074  0.301176  1
  H  H11  1  0.486542  0.613074  0.198824  1
  H  H12  1  0.654705  0.984092  0.769347  1
  H  H13  1  0.654705  0.515908  0.269347  1
  H  H14  1  0.772089  0.572234  0.724663  1
  H  H15  1  0.796836  0.795020  0.510231  1
  H  H16  1  0.772089  0.927766  0.224663  1
  H  H17  1  0.796836  0.704980  0.010231  1
  I  I18  1  0.179444  0.713926  0.949805  1
  I  I19  1  0.179444  0.786074  0.449805  1
  I  I20  1  0.820556  0.213926  0.550195  1
  I  I21  1  0.820556  0.286074  0.050195  1
  O  O22  1  0.168529  0.613272  0.748984  1
  O  O23  1  0.153695  0.085397  0.544041  1
  O  O24  1  0.253893  0.045692  0.890303  1
  O  O25  1  0.168529  0.886728  0.248984  1
  O  O26  1  0.153695  0.414603  0.044041  1
  O  O27  1  0.253893  0.454308  0.390303  1
  O  O28  1  0.389359  0.804734  0.524688  1
  O  O29  1  0.435092  0.402387  0.702938  1
  O  O30  1  0.389359  0.695266  0.024688  1
  O  O31  1  0.435092  0.097613  0.202938  1
  O  O32  1  0.564908  0.902387  0.797062  1
  O  O33  1  0.610641  0.304734  0.975312  1
  O  O34  1  0.564908  0.597613  0.297062  1
  O  O35  1  0.610641  0.195266  0.475312  1
  O  O36  1  0.746107  0.545692  0.609697  1
  O  O37  1  0.846305  0.585397  0.955959  1
  O  O38  1  0.831471  0.113272  0.751016  1
  O  O39  1  0.746107  0.954308  0.109697  1
  O  O40  1  0.846305  0.914603  0.455959  1
  O  O41  1  0.831471  0.386728  0.251016  1
