# generated using pymatgen
data_LiSn4P7O24
_symmetry_space_group_name_H-M   'P 1'
_cell_length_a   10.54328775
_cell_length_b   11.03431122
_cell_length_c   11.57376711
_cell_angle_alpha   113.96474930
_cell_angle_beta   107.90170975
_cell_angle_gamma   104.28250865
_symmetry_Int_Tables_number   1
_chemical_formula_structural   LiSn4P7O24
_chemical_formula_sum   'Li2 Sn8 P14 O48'
_cell_volume   1058.55978119
_cell_formula_units_Z   2
loop_
 _symmetry_equiv_pos_site_id
 _symmetry_equiv_pos_as_xyz
  1  'x, y, z'
loop_
 _atom_site_type_symbol
 _atom_site_label
 _atom_site_symmetry_multiplicity
 _atom_site_fract_x
 _atom_site_fract_y
 _atom_site_fract_z
 _atom_site_occupancy
  Li  Li0  1  0.120308  0.301382  0.718674  1
  Li  Li1  1  0.879692  0.698618  0.281326  1
  Sn  Sn2  1  0.251087  0.845128  0.753958  1
  Sn  Sn3  1  0.070399  0.711329  0.081524  1
  Sn  Sn4  1  0.397669  0.250203  0.902679  1
  Sn  Sn5  1  0.416417  0.595979  0.398997  1
  Sn  Sn6  1  0.583583  0.404021  0.601003  1
  Sn  Sn7  1  0.602331  0.749797  0.097321  1
  Sn  Sn8  1  0.929601  0.288671  0.918476  1
  Sn  Sn9  1  0.748913  0.154871  0.246042  1
  P  P10  1  0.997919  0.969512  0.782397  1
  P  P11  1  0.221796  0.825776  0.447561  1
  P  P12  1  0.057343  0.329943  0.263685  1
  P  P13  1  0.500552  0.712422  0.753295  1
  P  P14  1  0.245740  0.129894  0.507507  1
  P  P15  1  0.385931  0.965649  0.124915  1
  P  P16  1  0.285218  0.524679  0.041565  1
  P  P17  1  0.714782  0.475321  0.958435  1
  P  P18  1  0.614069  0.034351  0.875085  1
  P  P19  1  0.754260  0.870106  0.492493  1
  P  P20  1  0.499448  0.287578  0.246705  1
  P  P21  1  0.942657  0.670057  0.736315  1
  P  P22  1  0.778204  0.174224  0.552439  1
  P  P23  1  0.002081  0.030488  0.217603  1
  O  O24  1  0.003386  0.668656  0.872056  1
  O  O25  1  0.053415  0.677200  0.674719  1
  O  O26  1  0.319326  0.907885  0.965668  1
  O  O27  1  0.010296  0.904607  0.107459  1
  O  O28  1  0.170081  0.823569  0.558029  1
  O  O29  1  0.082106  0.740783  0.302851  1
  O  O30  1  0.241704  0.364510  0.927243  1
  O  O31  1  0.155795  0.994150  0.805307  1
  O  O32  1  0.288659  0.996112  0.489336  1
  O  O33  1  0.341929  0.700456  0.710550  1
  O  O34  1  0.085545  0.055066  0.371286  1
  O  O35  1  0.079758  0.176877  0.223261  1
  O  O36  1  0.206640  0.454265  0.376728  1
  O  O37  1  0.218036  0.192833  0.634342  1
  O  O38  1  0.128779  0.521943  0.029926  1
  O  O39  1  0.347383  0.781444  0.450708  1
  O  O40  1  0.297867  0.876369  0.167110  1
  O  O41  1  0.561437  0.694597  0.878113  1
  O  O42  1  0.606012  0.872384  0.792838  1
  O  O43  1  0.356493  0.229711  0.492059  1
  O  O44  1  0.506090  0.601343  0.619659  1
  O  O45  1  0.450422  0.013756  0.817146  1
  O  O46  1  0.645359  0.371584  0.000669  1
  O  O47  1  0.389085  0.574284  0.196076  1
  O  O48  1  0.610915  0.425716  0.803924  1
  O  O49  1  0.354641  0.628416  0.999331  1
  O  O50  1  0.549578  0.986244  0.182854  1
  O  O51  1  0.493910  0.398657  0.380341  1
  O  O52  1  0.643507  0.770289  0.507941  1
  O  O53  1  0.393988  0.127616  0.207162  1
  O  O54  1  0.438563  0.305403  0.121887  1
  O  O55  1  0.702133  0.123631  0.832890  1
  O  O56  1  0.652617  0.218556  0.549292  1
  O  O57  1  0.871221  0.478057  0.970074  1
  O  O58  1  0.781964  0.807167  0.365658  1
  O  O59  1  0.793360  0.545735  0.623272  1
  O  O60  1  0.920242  0.823123  0.776739  1
  O  O61  1  0.914455  0.944934  0.628714  1
  O  O62  1  0.658071  0.299544  0.289450  1
  O  O63  1  0.711341  0.003888  0.510664  1
  O  O64  1  0.844205  0.005850  0.194693  1
  O  O65  1  0.758296  0.635490  0.072757  1
  O  O66  1  0.917894  0.259217  0.697149  1
  O  O67  1  0.829919  0.176431  0.441971  1
  O  O68  1  0.989704  0.095393  0.892541  1
  O  O69  1  0.680674  0.092115  0.034333  1
  O  O70  1  0.946585  0.322800  0.325281  1
  O  O71  1  0.996614  0.331344  0.127944  1
