# generated using pymatgen
data_Li3V3O5F3
_symmetry_space_group_name_H-M   'P 1'
_cell_length_a   5.85999290
_cell_length_b   5.97215978
_cell_length_c   5.97215978
_cell_angle_alpha   60.97246482
_cell_angle_beta   60.76074331
_cell_angle_gamma   60.76074331
_symmetry_Int_Tables_number   1
_chemical_formula_structural   Li3V3O5F3
_chemical_formula_sum   'Li3 V3 O5 F3'
_cell_volume   150.55917639
_cell_formula_units_Z   1
loop_
 _symmetry_equiv_pos_site_id
 _symmetry_equiv_pos_as_xyz
  1  'x, y, z'
loop_
 _atom_site_type_symbol
 _atom_site_label
 _atom_site_symmetry_multiplicity
 _atom_site_fract_x
 _atom_site_fract_y
 _atom_site_fract_z
 _atom_site_occupancy
  Li  Li0  1  0.269831  0.246502  0.246502  1
  Li  Li1  1  0.128395  0.620451  0.620451  1
  Li  Li2  1  0.623390  0.625387  0.625387  1
  V  V3  1  0.988862  0.006019  0.006019  1
  V  V4  1  0.618814  0.614731  0.122659  1
  V  V5  1  0.618814  0.122659  0.614731  1
  O  O6  1  0.394972  0.384456  0.384456  1
  O  O7  1  0.863394  0.897528  0.376123  1
  O  O8  1  0.863394  0.376123  0.897528  1
  O  O9  1  0.850390  0.881250  0.881250  1
  O  O10  1  0.375217  0.876799  0.876799  1
  F  F11  1  0.863163  0.379623  0.379623  1
  F  F12  1  0.395683  0.847753  0.370719  1
  F  F13  1  0.395683  0.370719  0.847753  1
