# generated using pymatgen
data_Li3Fe2(SiO4)2
_symmetry_space_group_name_H-M   'P 1'
_cell_length_a   6.10516458
_cell_length_b   11.31618714
_cell_length_c   5.17400675
_cell_angle_alpha   90.00000000
_cell_angle_beta   88.82778662
_cell_angle_gamma   90.00000000
_symmetry_Int_Tables_number   1
_chemical_formula_structural   Li3Fe2(SiO4)2
_chemical_formula_sum   'Li6 Fe4 Si4 O16'
_cell_volume   357.38275304
_cell_formula_units_Z   2
loop_
 _symmetry_equiv_pos_site_id
 _symmetry_equiv_pos_as_xyz
  1  'x, y, z'
loop_
 _atom_site_type_symbol
 _atom_site_label
 _atom_site_symmetry_multiplicity
 _atom_site_fract_x
 _atom_site_fract_y
 _atom_site_fract_z
 _atom_site_occupancy
  Li  Li0  1  0.992391  0.165849  0.698036  1
  Li  Li1  1  0.507609  0.665849  0.801964  1
  Li  Li2  1  0.508601  0.828171  0.288152  1
  Li  Li3  1  0.507057  0.330342  0.197575  1
  Li  Li4  1  0.991399  0.328171  0.211848  1
  Li  Li5  1  0.992943  0.830342  0.302425  1
  Fe  Fe6  1  0.249520  0.426778  0.811361  1
  Fe  Fe7  1  0.250480  0.926778  0.688639  1
  Fe  Fe8  1  0.776104  0.575715  0.182303  1
  Fe  Fe9  1  0.723896  0.075715  0.317697  1
  Si  Si10  1  0.258303  0.590715  0.313245  1
  Si  Si11  1  0.241697  0.090715  0.186755  1
  Si  Si12  1  0.744833  0.415103  0.685102  1
  Si  Si13  1  0.755167  0.915103  0.814898  1
  O  O14  1  0.025218  0.161937  0.298171  1
  O  O15  1  0.040140  0.666488  0.257047  1
  O  O16  1  0.216192  0.066226  0.873106  1
  O  O17  1  0.240784  0.454698  0.180462  1
  O  O18  1  0.283808  0.566226  0.626894  1
  O  O19  1  0.259216  0.954698  0.319538  1
  O  O20  1  0.459860  0.166488  0.242953  1
  O  O21  1  0.474782  0.661937  0.201829  1
  O  O22  1  0.527517  0.842989  0.714074  1
  O  O23  1  0.522053  0.346655  0.799192  1
  O  O24  1  0.745804  0.548872  0.796304  1
  O  O25  1  0.754196  0.048872  0.703696  1
  O  O26  1  0.745779  0.410821  0.366688  1
  O  O27  1  0.754221  0.910821  0.133312  1
  O  O28  1  0.972483  0.342989  0.785926  1
  O  O29  1  0.977947  0.846655  0.700808  1
