# generated using pymatgen
data_Li8Mn(O2F)2
_symmetry_space_group_name_H-M   'P 1'
_cell_length_a   5.68523835
_cell_length_b   5.72992793
_cell_length_c   10.88214026
_cell_angle_alpha   89.99970861
_cell_angle_beta   90.00030625
_cell_angle_gamma   120.26196385
_symmetry_Int_Tables_number   1
_chemical_formula_structural   Li8Mn(O2F)2
_chemical_formula_sum   'Li16 Mn2 O8 F4'
_cell_volume   306.18950967
_cell_formula_units_Z   2
loop_
 _symmetry_equiv_pos_site_id
 _symmetry_equiv_pos_as_xyz
  1  'x, y, z'
loop_
 _atom_site_type_symbol
 _atom_site_label
 _atom_site_symmetry_multiplicity
 _atom_site_fract_x
 _atom_site_fract_y
 _atom_site_fract_z
 _atom_site_occupancy
  Li  Li0  1  0.999991  0.686767  0.773934  1
  Li  Li1  1  0.000003  0.592130  0.127568  1
  Li  Li2  1  0.999987  0.407868  0.627564  1
  Li  Li3  1  1.000000  0.313222  0.273937  1
  Li  Li4  1  0.323221  0.654821  0.402761  1
  Li  Li5  1  0.323225  0.668407  0.902756  1
  Li  Li6  1  0.304111  0.306320  0.763479  1
  Li  Li7  1  0.377365  0.384945  0.138807  1
  Li  Li8  1  0.622614  0.615055  0.638810  1
  Li  Li9  1  0.304130  0.997810  0.263474  1
  Li  Li10  1  0.695875  0.693685  0.263475  1
  Li  Li11  1  0.377363  0.992423  0.638809  1
  Li  Li12  1  0.676757  0.345171  0.902754  1
  Li  Li13  1  0.676772  0.331596  0.402760  1
  Li  Li14  1  0.622633  0.007585  0.138809  1
  Li  Li15  1  0.695867  0.002197  0.763476  1
  Mn  Mn16  1  0.999950  0.974128  0.000254  1
  Mn  Mn17  1  0.999993  0.025862  0.500276  1
  O  O18  1  0.999997  0.650278  0.950977  1
  O  O19  1  0.999990  0.349706  0.450981  1
  O  O20  1  0.339260  0.673570  0.218504  1
  O  O21  1  0.000005  0.015678  0.184895  1
  O  O22  1  0.339242  0.665693  0.718495  1
  O  O23  1  0.999989  0.984322  0.684912  1
  O  O24  1  0.660733  0.326436  0.718492  1
  O  O25  1  0.660752  0.334314  0.218502  1
  F  F26  1  0.347853  0.351856  0.950496  1
  F  F27  1  0.347841  0.996005  0.450498  1
  F  F28  1  0.652132  0.648148  0.450499  1
  F  F29  1  0.652151  0.004003  0.950488  1
