# generated using pymatgen
data_Na6NiO4
_symmetry_space_group_name_H-M   'P 1'
_cell_length_a   7.64865378
_cell_length_b   7.67749706
_cell_length_c   5.87871955
_cell_angle_alpha   89.76985500
_cell_angle_beta   90.11549897
_cell_angle_gamma   120.12482315
_symmetry_Int_Tables_number   1
_chemical_formula_structural   Na6NiO4
_chemical_formula_sum   'Na12 Ni2 O8'
_cell_volume   298.58425365
_cell_formula_units_Z   2
loop_
 _symmetry_equiv_pos_site_id
 _symmetry_equiv_pos_as_xyz
  1  'x, y, z'
loop_
 _atom_site_type_symbol
 _atom_site_label
 _atom_site_symmetry_multiplicity
 _atom_site_fract_x
 _atom_site_fract_y
 _atom_site_fract_z
 _atom_site_occupancy
  Na  Na0  1  0.141945  0.858432  0.967419  1
  Na  Na1  1  0.075614  0.537735  0.634899  1
  Na  Na2  1  0.142263  0.283979  0.967530  1
  Na  Na3  1  0.463356  0.926603  0.635548  1
  Na  Na4  1  0.462231  0.537741  0.634416  1
  Na  Na5  1  0.284375  0.142079  0.467826  1
  Na  Na6  1  0.715625  0.857703  0.967826  1
  Na  Na7  1  0.536644  0.463247  0.135548  1
  Na  Na8  1  0.537769  0.075510  0.134416  1
  Na  Na9  1  0.858055  0.716488  0.467419  1
  Na  Na10  1  0.924386  0.462121  0.134899  1
  Na  Na11  1  0.857737  0.141716  0.467530  1
  Ni  Ni12  1  0.333700  0.666565  0.243298  1
  Ni  Ni13  1  0.666300  0.332865  0.743298  1
  O  O14  1  0.187382  0.812610  0.357066  1
  O  O15  1  0.191253  0.378858  0.354494  1
  O  O16  1  0.333911  0.665163  0.906388  1
  O  O17  1  0.620956  0.808630  0.354915  1
  O  O18  1  0.379044  0.187674  0.854915  1
  O  O19  1  0.812618  0.625227  0.857066  1
  O  O20  1  0.666089  0.331252  0.406388  1
  O  O21  1  0.808747  0.187604  0.854494  1
