# generated using pymatgen
data_V4OF11
_symmetry_space_group_name_H-M   'P 1'
_cell_length_a   5.27334123
_cell_length_b   5.44487932
_cell_length_c   17.46869846
_cell_angle_alpha   91.97205941
_cell_angle_beta   98.80862946
_cell_angle_gamma   61.18846747
_symmetry_Int_Tables_number   1
_chemical_formula_structural   V4OF11
_chemical_formula_sum   'V8 O2 F22'
_cell_volume   433.85052133
_cell_formula_units_Z   2
loop_
 _symmetry_equiv_pos_site_id
 _symmetry_equiv_pos_as_xyz
  1  'x, y, z'
loop_
 _atom_site_type_symbol
 _atom_site_label
 _atom_site_symmetry_multiplicity
 _atom_site_fract_x
 _atom_site_fract_y
 _atom_site_fract_z
 _atom_site_occupancy
  V  V0  1  0.744048  0.635278  0.127070  1
  V  V1  1  0.755952  0.114722  0.622930  1
  V  V2  1  0.500125  0.228615  0.245733  1
  V  V3  1  0.501872  0.745666  0.749508  1
  V  V4  1  0.250000  0.875000  0.375000  1
  V  V5  1  0.250000  0.375000  0.875000  1
  V  V6  1  0.998128  0.004334  0.000492  1
  V  V7  1  -0.000125  0.521385  0.504267  1
  O  O8  1  0.958606  0.797204  0.559084  1
  O  O9  1  0.541394  0.952796  0.190916  1
  F  F10  1  0.927419  0.836307  0.088014  1
  F  F11  1  0.973066  0.317567  0.064152  1
  F  F12  1  0.921489  0.049822  0.288824  1
  F  F13  1  0.930095  0.329881  0.586379  1
  F  F14  1  0.928555  0.532713  0.786472  1
  F  F15  1  0.424540  0.787949  0.037656  1
  F  F16  1  0.569905  0.420119  0.163621  1
  F  F17  1  0.572581  0.913693  0.661986  1
  F  F18  1  0.578511  0.700178  0.461176  1
  F  F19  1  0.467324  0.555548  0.309783  1
  F  F20  1  0.526934  0.432433  0.685848  1
  F  F21  1  0.426058  0.089859  0.338014  1
  F  F22  1  0.422883  0.290283  0.535651  1
  F  F23  1  0.425367  0.587827  0.837426  1
  F  F24  1  0.571445  0.217287  0.963528  1
  F  F25  1  0.073942  0.660141  0.411986  1
  F  F26  1  0.077117  0.459717  0.214349  1
  F  F27  1  0.075460  0.962051  0.712344  1
  F  F28  1  0.481223  0.058980  0.812606  1
  F  F29  1  0.018777  0.691020  0.937394  1
  F  F30  1  0.032676  0.194452  0.440217  1
  F  F31  1  0.074633  0.162173  0.912574  1
