# generated using pymatgen
data_TiCdFe(PO4)3
_symmetry_space_group_name_H-M   'P 1'
_cell_length_a   8.80207379
_cell_length_b   8.80207389
_cell_length_c   8.80207356
_cell_angle_alpha   58.88666618
_cell_angle_beta   58.88666577
_cell_angle_gamma   58.88666698
_symmetry_Int_Tables_number   1
_chemical_formula_structural   TiCdFe(PO4)3
_chemical_formula_sum   'Ti2 Cd2 Fe2 P6 O24'
_cell_volume   469.95999692
_cell_formula_units_Z   2
loop_
 _symmetry_equiv_pos_site_id
 _symmetry_equiv_pos_as_xyz
  1  'x, y, z'
loop_
 _atom_site_type_symbol
 _atom_site_label
 _atom_site_symmetry_multiplicity
 _atom_site_fract_x
 _atom_site_fract_y
 _atom_site_fract_z
 _atom_site_occupancy
  Ti  Ti0  1  0.146917  0.146917  0.146917  1
  Ti  Ti1  1  0.646917  0.646917  0.646917  1
  Cd  Cd2  1  0.998781  0.998781  0.998781  1
  Cd  Cd3  1  0.498781  0.498781  0.498781  1
  Fe  Fe4  1  0.353486  0.353486  0.353486  1
  Fe  Fe5  1  0.853486  0.853486  0.853486  1
  P  P6  1  0.041715  0.749999  0.460340  1
  P  P7  1  0.460340  0.041715  0.749999  1
  P  P8  1  0.749999  0.460340  0.041715  1
  P  P9  1  0.249999  0.541715  0.960340  1
  P  P10  1  0.541715  0.960340  0.249999  1
  P  P11  1  0.960340  0.249999  0.541715  1
  O  O12  1  0.118948  0.302669  0.503830  1
  O  O13  1  0.302669  0.503830  0.118948  1
  O  O14  1  0.057185  0.919371  0.269936  1
  O  O15  1  0.503830  0.118948  0.302669  1
  O  O16  1  0.003830  0.802669  0.618948  1
  O  O17  1  0.229103  0.582326  0.441260  1
  O  O18  1  0.269936  0.057185  0.919371  1
  O  O19  1  0.441260  0.229103  0.582326  1
  O  O20  1  0.199164  0.375576  0.999395  1
  O  O21  1  0.582326  0.441260  0.229103  1
  O  O22  1  0.082326  0.729103  0.941260  1
  O  O23  1  0.375576  0.999395  0.199164  1
  O  O24  1  0.618948  0.003830  0.802669  1
  O  O25  1  0.919371  0.269936  0.057185  1
  O  O26  1  0.419371  0.557185  0.769936  1
  O  O27  1  0.802669  0.618948  0.003830  1
  O  O28  1  0.557185  0.769936  0.419371  1
  O  O29  1  0.729103  0.941260  0.082326  1
  O  O30  1  0.769936  0.419371  0.557185  1
  O  O31  1  0.999395  0.199164  0.375576  1
  O  O32  1  0.499395  0.875576  0.699164  1
  O  O33  1  0.941260  0.082326  0.729103  1
  O  O34  1  0.699164  0.499395  0.875576  1
  O  O35  1  0.875576  0.699164  0.499395  1
