# generated using pymatgen
data_Na6Mn2B4AsO16
_symmetry_space_group_name_H-M   'P 1'
_cell_length_a   9.91663881
_cell_length_b   9.91663881
_cell_length_c   9.91663893
_cell_angle_alpha   119.99999952
_cell_angle_beta   60.00000048
_cell_angle_gamma   120.00000554
_symmetry_Int_Tables_number   1
_chemical_formula_structural   Na6Mn2B4AsO16
_chemical_formula_sum   'Na12 Mn4 B8 As2 O32'
_cell_volume   689.57018952
_cell_formula_units_Z   2
loop_
 _symmetry_equiv_pos_site_id
 _symmetry_equiv_pos_as_xyz
  1  'x, y, z'
loop_
 _atom_site_type_symbol
 _atom_site_label
 _atom_site_symmetry_multiplicity
 _atom_site_fract_x
 _atom_site_fract_y
 _atom_site_fract_z
 _atom_site_occupancy
  Na  Na0  1  0.342017  0.157983  0.907983  1
  Na  Na1  1  0.092017  0.407983  0.657983  1
  Na  Na2  1  0.342017  0.592017  0.342017  1
  Na  Na3  1  0.342017  0.592017  0.907983  1
  Na  Na4  1  0.092017  0.842017  0.092017  1
  Na  Na5  1  0.092017  0.842017  0.657983  1
  Na  Na6  1  0.907983  0.157983  0.907983  1
  Na  Na7  1  0.907983  0.157983  0.342017  1
  Na  Na8  1  0.657983  0.407983  0.092017  1
  Na  Na9  1  0.657983  0.407983  0.657983  1
  Na  Na10  1  0.907983  0.592017  0.342017  1
  Na  Na11  1  0.657983  0.842017  0.092017  1
  Mn  Mn12  1  0.000000  0.000000  0.500000  1
  Mn  Mn13  1  0.500000  0.000000  0.500000  1
  Mn  Mn14  1  0.500000  0.000000  0.000000  1
  Mn  Mn15  1  0.500000  0.500000  0.500000  1
  B  B16  1  0.290154  0.209846  0.629538  1
  B  B17  1  0.290154  0.209846  0.290154  1
  B  B18  1  0.629538  0.209846  0.290154  1
  B  B19  1  0.709846  0.129538  0.709846  1
  B  B20  1  0.370462  0.790154  0.709846  1
  B  B21  1  0.290154  0.870462  0.290154  1
  B  B22  1  0.709846  0.790154  0.709846  1
  B  B23  1  0.709846  0.790154  0.370462  1
  As  As24  1  0.125000  0.375000  0.125000  1
  As  As25  1  0.875000  0.625000  0.875000  1
  O  O26  1  0.135013  0.092248  0.636653  1
  O  O27  1  0.054227  0.162680  0.054227  1
  O  O28  1  0.135013  0.179418  0.407752  1
  O  O29  1  0.320582  0.092248  0.135013  1
  O  O30  1  0.054227  0.445773  0.337320  1
  O  O31  1  0.054227  0.445773  0.054227  1
  O  O32  1  0.407752  0.179418  0.636653  1
  O  O33  1  0.320582  0.364987  0.636653  1
  O  O34  1  0.337320  0.445773  0.054227  1
  O  O35  1  0.636653  0.092248  0.320582  1
  O  O36  1  0.592248  0.136653  0.864987  1
  O  O37  1  0.407752  0.364987  0.320582  1
  O  O38  1  0.636653  0.179418  0.135013  1
  O  O39  1  0.679418  0.136653  0.592248  1
  O  O40  1  0.135013  0.863347  0.320582  1
  O  O41  1  0.363347  0.635013  0.592248  1
  O  O42  1  0.864987  0.136653  0.679418  1
  O  O43  1  0.636653  0.364987  0.407752  1
  O  O44  1  0.320582  0.863347  0.407752  1
  O  O45  1  0.363347  0.820582  0.864987  1
  O  O46  1  0.592248  0.635013  0.679418  1
  O  O47  1  0.407752  0.863347  0.135013  1
  O  O48  1  0.363347  0.907752  0.679418  1
  O  O49  1  0.662680  0.554227  0.945773  1
  O  O50  1  0.679418  0.635013  0.363347  1
  O  O51  1  0.592248  0.820582  0.363347  1
  O  O52  1  0.945773  0.554227  0.945773  1
  O  O53  1  0.945773  0.554227  0.662680  1
  O  O54  1  0.679418  0.907752  0.864987  1
  O  O55  1  0.864987  0.820582  0.592248  1
  O  O56  1  0.945773  0.837320  0.945773  1
  O  O57  1  0.864987  0.907752  0.363347  1
