# generated using pymatgen
data_Li4Ti5Cr3O16
_symmetry_space_group_name_H-M   'P 1'
_cell_length_a   5.92530139
_cell_length_b   5.92656535
_cell_length_c   9.55997837
_cell_angle_alpha   90.00035556
_cell_angle_beta   89.91426080
_cell_angle_gamma   120.00688452
_symmetry_Int_Tables_number   1
_chemical_formula_structural   Li4Ti5Cr3O16
_chemical_formula_sum   'Li4 Ti5 Cr3 O16'
_cell_volume   290.71690479
_cell_formula_units_Z   1
loop_
 _symmetry_equiv_pos_site_id
 _symmetry_equiv_pos_as_xyz
  1  'x, y, z'
loop_
 _atom_site_type_symbol
 _atom_site_label
 _atom_site_symmetry_multiplicity
 _atom_site_fract_x
 _atom_site_fract_y
 _atom_site_fract_z
 _atom_site_occupancy
  Li  Li0  1  0.328618  0.664322  0.894522  1
  Li  Li1  1  0.998106  0.999054  0.993141  1
  Li  Li2  1  0.998664  0.999341  0.496504  1
  Li  Li3  1  0.667361  0.333691  0.398351  1
  Ti  Ti4  1  0.347877  0.173950  0.723383  1
  Ti  Ti5  1  0.178127  0.834617  0.218574  1
  Ti  Ti6  1  0.335223  0.667627  0.497418  1
  Ti  Ti7  1  0.178113  0.343529  0.218571  1
  Ti  Ti8  1  0.681178  0.340587  0.991807  1
  Cr  Cr9  1  0.658335  0.829155  0.211274  1
  Cr  Cr10  1  0.829706  0.659627  0.711952  1
  Cr  Cr11  1  0.829693  0.170133  0.711935  1
  O  O12  1  0.170866  0.834330  0.595846  1
  O  O13  1  0.039064  0.519539  0.341070  1
  O  O14  1  0.325375  0.662689  0.103007  1
  O  O15  1  0.997730  0.998887  0.308773  1
  O  O16  1  0.003711  0.001869  0.806788  1
  O  O17  1  0.170883  0.336573  0.595840  1
  O  O18  1  0.476218  0.960085  0.339325  1
  O  O19  1  0.476220  0.516157  0.339324  1
  O  O20  1  0.334875  0.167451  0.097299  1
  O  O21  1  0.663472  0.831734  0.594266  1
  O  O22  1  0.512993  0.476202  0.841251  1
  O  O23  1  0.512977  0.036807  0.841253  1
  O  O24  1  0.655161  0.327580  0.603897  1
  O  O25  1  0.837242  0.666382  0.095408  1
  O  O26  1  0.954974  0.477503  0.841649  1
  O  O27  1  0.837240  0.170881  0.095413  1
