# generated using pymatgen
data_Li32Mn3Cr13O48
_symmetry_space_group_name_H-M   'P 1'
_cell_length_a   5.03147072
_cell_length_b   8.71141394
_cell_length_c   19.49499498
_cell_angle_alpha   98.09066667
_cell_angle_beta   94.83812371
_cell_angle_gamma   89.62602672
_symmetry_Int_Tables_number   1
_chemical_formula_structural   Li32Mn3Cr13O48
_chemical_formula_sum   'Li32 Mn3 Cr13 O48'
_cell_volume   842.95777684
_cell_formula_units_Z   1
loop_
 _symmetry_equiv_pos_site_id
 _symmetry_equiv_pos_as_xyz
  1  'x, y, z'
loop_
 _atom_site_type_symbol
 _atom_site_label
 _atom_site_symmetry_multiplicity
 _atom_site_fract_x
 _atom_site_fract_y
 _atom_site_fract_z
 _atom_site_occupancy
  Li  Li0  1  0.990124  0.167331  0.249320  1
  Li  Li1  1  0.873819  0.374220  0.375046  1
  Li  Li2  1  0.750850  0.249062  0.999353  1
  Li  Li3  1  0.740786  0.919563  0.000093  1
  Li  Li4  1  0.991714  0.169052  0.749174  1
  Li  Li5  1  0.751999  0.579728  0.499585  1
  Li  Li6  1  0.874575  0.375151  0.875066  1
  Li  Li7  1  0.751558  0.248905  0.500427  1
  Li  Li8  1  0.741562  0.921379  0.499572  1
  Li  Li9  1  0.623242  0.123295  0.125182  1
  Li  Li10  1  0.756124  0.579796  0.999870  1
  Li  Li11  1  0.507744  0.330285  0.250339  1
  Li  Li12  1  0.624941  0.127641  0.625301  1
  Li  Li13  1  0.499026  0.000413  0.249625  1
  Li  Li14  1  0.490005  0.669811  0.250107  1
  Li  Li15  1  0.507871  0.330015  0.749411  1
  Li  Li16  1  0.374710  0.874887  0.375026  1
  Li  Li17  1  0.498933  0.001496  0.750112  1
  Li  Li18  1  0.247936  0.749796  0.000505  1
  Li  Li19  1  0.494607  0.668945  0.750272  1
  Li  Li20  1  0.243434  0.420798  -0.000020  1
  Li  Li21  1  0.376280  0.876390  0.874941  1
  Li  Li22  1  0.258018  0.081739  0.500438  1
  Li  Li23  1  0.251429  0.748797  0.499733  1
  Li  Li24  1  0.127064  0.626545  0.124798  1
  Li  Li25  1  0.246804  0.419841  0.500767  1
  Li  Li26  1  0.011086  0.832332  0.250375  1
  Li  Li27  1  0.260834  0.080024  0.000003  1
  Li  Li28  1  0.127257  0.623218  0.624662  1
  Li  Li29  1  0.002203  0.500810  0.250593  1
  Li  Li30  1  0.006273  0.831582  0.750858  1
  Li  Li31  1  0.999419  0.498195  0.749758  1
  Mn  Mn32  1  0.873205  0.707395  0.874563  1
  Mn  Mn33  1  0.374963  0.541962  0.375003  1
  Mn  Mn34  1  0.128579  0.290227  0.625910  1
  Cr  Cr35  1  0.868563  0.705259  0.374536  1
  Cr  Cr36  1  0.879874  0.038549  0.375187  1
  Cr  Cr37  1  0.879604  0.038027  0.874698  1
  Cr  Cr38  1  0.629666  0.788021  0.124641  1
  Cr  Cr39  1  0.622933  0.452267  0.123949  1
  Cr  Cr40  1  0.621916  0.797090  0.623912  1
  Cr  Cr41  1  0.630893  0.460095  0.625213  1
  Cr  Cr42  1  0.371844  0.212211  0.375345  1
  Cr  Cr43  1  0.377777  0.546014  0.875419  1
  Cr  Cr44  1  0.371980  0.212139  0.875244  1
  Cr  Cr45  1  0.119760  0.961704  0.125390  1
  Cr  Cr46  1  0.128391  0.297649  0.126164  1
  Cr  Cr47  1  0.121239  0.953563  0.624588  1
  O  O48  1  0.969341  0.105959  0.069679  1
  O  O49  1  0.918509  0.784195  0.068592  1
  O  O50  1  0.934587  0.422527  0.067306  1
  O  O51  1  0.966529  0.107466  0.569786  1
  O  O52  1  0.831177  0.965977  0.181344  1
  O  O53  1  0.815972  0.327107  0.182834  1
  O  O54  1  0.935287  0.789066  0.568212  1
  O  O55  1  0.925145  0.426047  0.568446  1
  O  O56  1  0.781204  0.643589  0.180119  1
  O  O57  1  0.718732  0.852369  0.318668  1
  O  O58  1  0.813301  0.959246  0.681316  1
  O  O59  1  0.827801  0.319551  0.682678  1
  O  O60  1  0.675512  0.534413  0.318879  1
  O  O61  1  0.672289  0.176554  0.317901  1
  O  O62  1  0.779316  0.641135  0.680037  1
  O  O63  1  0.710160  0.852847  0.818657  1
  O  O64  1  0.463032  0.602124  0.068802  1
  O  O65  1  0.568459  0.714077  0.430624  1
  O  O66  1  0.576955  0.074174  0.432122  1
  O  O67  1  0.683255  0.535837  0.819006  1
  O  O68  1  0.672917  0.175397  0.818294  1
  O  O69  1  0.426216  0.926694  0.068008  1
  O  O70  1  0.437606  0.287388  0.068809  1
  O  O71  1  0.538957  0.396979  0.431246  1
  O  O72  1  0.464284  0.610556  0.568770  1
  O  O73  1  0.572307  0.713875  0.930538  1
  O  O74  1  0.577144  0.072310  0.932302  1
  O  O75  1  0.324061  0.823486  0.181813  1
  O  O76  1  0.313163  0.462711  0.181349  1
  O  O77  1  0.433949  0.925107  0.566946  1
  O  O78  1  0.427914  0.286956  0.569581  1
  O  O79  1  0.533209  0.396611  0.931270  1
  O  O80  1  0.286231  0.147981  0.181253  1
  O  O81  1  0.214492  0.358143  0.319361  1
  O  O82  1  0.314610  0.827101  0.682550  1
  O  O83  1  0.321413  0.463977  0.680941  1
  O  O84  1  0.181228  0.677523  0.317866  1
  O  O85  1  0.168982  0.036060  0.318774  1
  O  O86  1  0.286939  0.142427  0.680633  1
  O  O87  1  0.219361  0.357693  0.819542  1
  O  O88  1  0.073569  0.573902  0.431520  1
  O  O89  1  0.081791  0.214825  0.431239  1
  O  O90  1  0.175848  0.676284  0.818195  1
  O  O91  1  0.168124  0.035540  0.818728  1
  O  O92  1  0.032219  0.894135  0.431139  1
  O  O93  1  0.067819  0.573128  0.932127  1
  O  O94  1  0.081394  0.213587  0.931496  1
  O  O95  1  0.034283  0.892147  0.930647  1
