# generated using pymatgen
data_Ca2SiB2O7
_symmetry_space_group_name_H-M   'P 1'
_cell_length_a   7.16421498
_cell_length_b   7.16415260
_cell_length_c   4.85201069
_cell_angle_alpha   89.99991781
_cell_angle_beta   89.99982808
_cell_angle_gamma   90.00004503
_symmetry_Int_Tables_number   1
_chemical_formula_structural   Ca2SiB2O7
_chemical_formula_sum   'Ca4 Si2 B4 O14'
_cell_volume   249.03201720
_cell_formula_units_Z   2
loop_
 _symmetry_equiv_pos_site_id
 _symmetry_equiv_pos_as_xyz
  1  'x, y, z'
loop_
 _atom_site_type_symbol
 _atom_site_label
 _atom_site_symmetry_multiplicity
 _atom_site_fract_x
 _atom_site_fract_y
 _atom_site_fract_z
 _atom_site_occupancy
  Ca  Ca0  1  0.160436  0.660413  0.490793  1
  Ca  Ca1  1  0.339587  0.160416  0.509210  1
  Ca  Ca2  1  0.660433  0.839599  0.509208  1
  Ca  Ca3  1  0.839575  0.339602  0.490795  1
  Si  Si4  1  0.000009  0.000009  0.000008  1
  Si  Si5  1  0.500009  0.500010  0.999990  1
  B  B6  1  0.133186  0.366841  0.962352  1
  B  B7  1  0.366845  0.866819  0.037648  1
  B  B8  1  0.633164  0.133188  0.037652  1
  B  B9  1  0.866844  0.633189  0.962350  1
  O  O10  1  0.000002  0.500003  0.841681  1
  O  O11  1  0.079006  0.176385  0.812192  1
  O  O12  1  0.144817  0.355229  0.247241  1
  O  O13  1  0.176383  0.921003  0.187810  1
  O  O14  1  0.323632  0.421015  0.812173  1
  O  O15  1  0.355234  0.855188  0.752761  1
  O  O16  1  0.421020  0.676377  0.187820  1
  O  O17  1  0.500006  0.000007  0.158319  1
  O  O18  1  0.578996  0.323633  0.187824  1
  O  O19  1  0.644776  0.144821  0.752757  1
  O  O20  1  0.676389  0.579005  0.812186  1
  O  O21  1  0.823626  0.079012  0.187814  1
  O  O22  1  0.855229  0.644817  0.247242  1
  O  O23  1  0.921016  0.823638  0.812176  1
