# generated using pymatgen
data_Mn6OF11
_symmetry_space_group_name_H-M   'P 1'
_cell_length_a   4.96707036
_cell_length_b   5.88326584
_cell_length_c   16.21804843
_cell_angle_alpha   90.39379787
_cell_angle_beta   90.00000000
_cell_angle_gamma   90.00000000
_symmetry_Int_Tables_number   1
_chemical_formula_structural   Mn6OF11
_chemical_formula_sum   'Mn12 O2 F22'
_cell_volume   473.92227276
_cell_formula_units_Z   2
loop_
 _symmetry_equiv_pos_site_id
 _symmetry_equiv_pos_as_xyz
  1  'x, y, z'
loop_
 _atom_site_type_symbol
 _atom_site_label
 _atom_site_symmetry_multiplicity
 _atom_site_fract_x
 _atom_site_fract_y
 _atom_site_fract_z
 _atom_site_occupancy
  Mn  Mn0  1  0.015113  0.164962  0.409863  1
  Mn  Mn1  1  0.016392  0.853221  0.248747  1
  Mn  Mn2  1  0.978702  0.190324  0.079425  1
  Mn  Mn3  1  0.003268  0.171549  0.752092  1
  Mn  Mn4  1  0.999429  0.832998  0.583016  1
  Mn  Mn5  1  0.997130  0.829419  0.918870  1
  Mn  Mn6  1  0.503268  0.328451  0.581242  1
  Mn  Mn7  1  0.515113  0.335038  0.923470  1
  Mn  Mn8  1  0.478702  0.309676  0.253908  1
  Mn  Mn9  1  0.516392  0.646779  0.084587  1
  Mn  Mn10  1  0.497130  0.670581  0.414463  1
  Mn  Mn11  1  0.499429  0.667002  0.750318  1
  O  O12  1  0.212325  0.085070  0.299702  1
  O  O13  1  0.712325  0.414930  0.033631  1
  F  F14  1  0.231455  0.107030  0.641101  1
  F  F15  1  0.212767  0.116187  0.974986  1
  F  F16  1  0.247815  0.872161  0.136471  1
  F  F17  1  0.235449  0.895224  0.474727  1
  F  F18  1  0.225703  0.891130  0.808355  1
  F  F19  1  0.279110  0.393464  0.141164  1
  F  F20  1  0.256724  0.606919  0.302727  1
  F  F21  1  0.268109  0.395882  0.471518  1
  F  F22  1  0.268680  0.602853  0.640640  1
  F  F23  1  0.278919  0.390609  0.812845  1
  F  F24  1  0.272911  0.618657  0.979201  1
  F  F25  1  0.747815  0.627839  0.196862  1
  F  F26  1  0.712767  0.383813  0.358347  1
  F  F27  1  0.725703  0.608870  0.524979  1
  F  F28  1  0.735449  0.604776  0.858607  1
  F  F29  1  0.731455  0.392970  0.692232  1
  F  F30  1  0.779110  0.106536  0.192169  1
  F  F31  1  0.778919  0.109391  0.520488  1
  F  F32  1  0.772911  0.881343  0.354133  1
  F  F33  1  0.756724  0.893081  0.030606  1
  F  F34  1  0.768109  0.104118  0.861815  1
  F  F35  1  0.768680  0.897147  0.692693  1
