# generated using pymatgen
data_FeOF
_symmetry_space_group_name_H-M   'P 1'
_cell_length_a   9.48813784
_cell_length_b   9.52111386
_cell_length_c   3.09240959
_cell_angle_alpha   90.00000000
_cell_angle_beta   90.00000000
_cell_angle_gamma   90.54790263
_symmetry_Int_Tables_number   1
_chemical_formula_structural   FeOF
_chemical_formula_sum   'Fe8 O8 F8'
_cell_volume   279.34821361
_cell_formula_units_Z   8
loop_
 _symmetry_equiv_pos_site_id
 _symmetry_equiv_pos_as_xyz
  1  'x, y, z'
loop_
 _atom_site_type_symbol
 _atom_site_label
 _atom_site_symmetry_multiplicity
 _atom_site_fract_x
 _atom_site_fract_y
 _atom_site_fract_z
 _atom_site_occupancy
  Fe  Fe0  1  0.019557  0.997349  0.000000  1
  Fe  Fe1  1  0.000333  0.499800  0.000000  1
  Fe  Fe2  1  0.256156  0.222968  0.500000  1
  Fe  Fe3  1  0.224510  0.740545  0.500000  1
  Fe  Fe4  1  0.520643  0.495753  0.000000  1
  Fe  Fe5  1  0.500492  0.001966  0.000000  1
  Fe  Fe6  1  0.759135  0.274067  0.500000  1
  Fe  Fe7  1  0.719838  0.757430  0.500000  1
  O  O8  1  0.094620  0.899857  0.500000  1
  O  O9  1  0.149863  0.156250  0.000000  1
  O  O10  1  0.145039  0.642423  0.000000  1
  O  O11  1  0.407858  0.096962  0.500000  1
  O  O12  1  0.598431  0.399368  0.500000  1
  O  O13  1  0.595440  0.910644  0.500000  1
  O  O14  1  0.650617  0.654979  0.000000  1
  O  O15  1  0.856465  0.355547  0.000000  1
  F  F16  1  0.100151  0.402943  0.500000  1
  F  F17  1  0.346805  0.351617  0.000000  1
  F  F18  1  0.342645  0.835228  0.000000  1
  F  F19  1  0.399371  0.593101  0.500000  1
  F  F20  1  0.664314  0.159492  0.000000  1
  F  F21  1  0.846069  0.851885  0.000000  1
  F  F22  1  0.899488  0.098801  0.500000  1
  F  F23  1  0.902160  0.601023  0.500000  1
