# generated using pymatgen
data_V4O5F7
_symmetry_space_group_name_H-M   'P 1'
_cell_length_a   5.15835758
_cell_length_b   5.38469471
_cell_length_c   9.10663664
_cell_angle_alpha   72.85631160
_cell_angle_beta   90.61865674
_cell_angle_gamma   61.12653687
_symmetry_Int_Tables_number   1
_chemical_formula_structural   V4O5F7
_chemical_formula_sum   'V4 O5 F7'
_cell_volume   208.08699519
_cell_formula_units_Z   1
loop_
 _symmetry_equiv_pos_site_id
 _symmetry_equiv_pos_as_xyz
  1  'x, y, z'
loop_
 _atom_site_type_symbol
 _atom_site_label
 _atom_site_symmetry_multiplicity
 _atom_site_fract_x
 _atom_site_fract_y
 _atom_site_fract_z
 _atom_site_occupancy
  V  V0  1  0.735659  0.473766  0.257999  1
  V  V1  1  0.466397  -0.000446  0.509405  1
  V  V2  1  0.278997  0.488599  0.762799  1
  V  V3  1  0.026874  0.983229  0.004911  1
  O  O4  1  0.400458  0.759404  0.081024  1
  O  O5  1  0.422369  0.757199  0.661204  1
  O  O6  1  0.600135  0.249235  0.337985  1
  O  O7  1  0.575119  0.255923  0.911492  1
  O  O8  1  0.106774  0.242181  0.414434  1
  F  F9  1  0.919600  0.752130  0.582778  1
  F  F10  1  0.904906  0.755790  0.168559  1
  F  F11  1  0.958997  0.266159  0.116891  1
  F  F12  1  0.541742  0.755485  0.376419  1
  F  F13  1  0.471779  0.250940  0.621928  1
  F  F14  1  0.020409  0.753982  0.871856  1
  F  F15  1  0.069785  0.256421  0.820317  1
