# generated using pymatgen
data_Li6V3P8O29
_symmetry_space_group_name_H-M   'P 1'
_cell_length_a   9.80951217
_cell_length_b   9.81121181
_cell_length_c   13.88622332
_cell_angle_alpha   90.28945506
_cell_angle_beta   90.27129920
_cell_angle_gamma   60.05900105
_symmetry_Int_Tables_number   1
_chemical_formula_structural   Li6V3P8O29
_chemical_formula_sum   'Li12 V6 P16 O58'
_cell_volume   1158.07257210
_cell_formula_units_Z   2
loop_
 _symmetry_equiv_pos_site_id
 _symmetry_equiv_pos_as_xyz
  1  'x, y, z'
loop_
 _atom_site_type_symbol
 _atom_site_label
 _atom_site_symmetry_multiplicity
 _atom_site_fract_x
 _atom_site_fract_y
 _atom_site_fract_z
 _atom_site_occupancy
  Li  Li0  1  0.772680  0.906748  0.557918  1
  Li  Li1  1  0.907442  0.323207  0.560355  1
  Li  Li2  1  0.674600  0.664282  0.885080  1
  Li  Li3  1  0.767861  0.331172  0.063276  1
  Li  Li4  1  0.330251  0.904645  0.063225  1
  Li  Li5  1  0.675367  0.229256  0.437519  1
  Li  Li6  1  0.321798  0.772384  0.559317  1
  Li  Li7  1  0.668344  0.096071  0.941722  1
  Li  Li8  1  0.234232  0.663342  0.941652  1
  Li  Li9  1  0.095219  0.674422  0.436969  1
  Li  Li10  1  0.227726  0.096687  0.438918  1
  Li  Li11  1  0.998533  0.000357  0.003793  1
  V  V12  1  0.567546  0.432917  0.250874  1
  V  V13  1  0.430879  0.566540  0.746816  1
  V  V14  1  0.563939  0.000776  0.750369  1
  V  V15  1  0.431993  0.001855  0.249872  1
  V  V16  1  0.997469  0.568985  0.244650  1
  V  V17  1  0.005430  0.431432  0.755128  1
  P  P18  1  0.913672  0.777127  0.843386  1
  P  P19  1  0.769183  0.912486  0.340368  1
  P  P20  1  0.914505  0.319804  0.343040  1
  P  P21  1  0.665239  0.666485  0.126339  1
  P  P22  1  0.667884  0.665975  0.627578  1
  P  P23  1  0.773231  0.317347  0.843041  1
  P  P24  1  0.682823  0.229575  0.657094  1
  P  P25  1  0.315652  0.909038  0.843412  1
  P  P26  1  0.684410  0.088184  0.156211  1
  P  P27  1  0.319349  0.769372  0.342044  1
  P  P28  1  0.227839  0.683330  0.158106  1
  P  P29  1  0.331980  0.335409  0.372323  1
  P  P30  1  0.334386  0.333722  0.873829  1
  P  P31  1  0.084949  0.680696  0.655797  1
  P  P32  1  0.229339  0.087802  0.657966  1
  P  P33  1  0.085172  0.225336  0.157153  1
  O  O34  1  0.997734  0.759286  0.564656  1
  O  O35  1  0.916340  0.748148  0.341021  1
  O  O36  1  0.772204  0.012298  0.065138  1
  O  O37  1  0.746576  0.921845  0.844040  1
  O  O38  1  0.896205  0.628202  0.832548  1
  O  O39  1  0.806828  0.675490  0.169294  1
  O  O40  1  0.906563  0.477824  0.324169  1
  O  O41  1  0.994859  0.212633  0.073032  1
  O  O42  1  0.916132  0.339141  0.841802  1
  O  O43  1  0.668997  0.816544  0.671326  1
  O  O44  1  0.618102  0.903321  0.322229  1
  O  O45  1  0.814919  0.517182  0.671309  1
  O  O46  1  0.662510  0.663833  0.017576  1
  O  O47  1  0.668890  0.668950  0.520240  1
  O  O48  1  0.675666  0.510903  0.164808  1
  O  O49  1  0.481018  0.891958  0.830541  1
  O  O50  1  0.509774  0.811913  0.164018  1
  O  O51  1  0.748372  0.337745  0.342756  1
  O  O52  1  0.790102  0.209366  0.749903  1
  O  O53  1  0.757246  0.246427  0.567009  1
  O  O54  1  0.768979  0.229546  0.931535  1
  O  O55  1  0.623717  0.480283  0.829848  1
  O  O56  1  0.512925  0.673617  0.666408  1
  O  O57  1  0.661895  0.257090  0.162534  1
  O  O58  1  0.479419  0.620227  0.323666  1
  O  O59  1  0.336079  0.917542  0.343059  1
  O  O60  1  0.792320  0.000342  0.249446  1
  O  O61  1  0.755155  0.003036  0.431354  1
  O  O62  1  0.242384  0.996756  0.567533  1
  O  O63  1  0.664382  0.083519  0.655925  1
  O  O64  1  0.522848  0.380906  0.677050  1
  O  O65  1  0.338399  0.739594  0.838100  1
  O  O66  1  0.487967  0.325748  0.332313  1
  O  O67  1  0.380628  0.527531  0.170217  1
  O  O68  1  0.224283  0.773279  0.068545  1
  O  O69  1  0.242358  0.755953  0.432189  1
  O  O70  1  0.208025  0.793379  0.250440  1
  O  O71  1  0.250215  0.666334  0.657150  1
  O  O72  1  0.485809  0.182451  0.831418  1
  O  O73  1  0.527808  0.092918  0.169881  1
  O  O74  1  0.327627  0.485075  0.832882  1
  O  O75  1  0.339616  0.330093  0.980842  1
  O  O76  1  0.335403  0.333187  0.480143  1
  O  O77  1  0.185896  0.487480  0.331788  1
  O  O78  1  0.378176  0.099672  0.674758  1
  O  O79  1  0.325075  0.187074  0.332189  1
  O  O80  1  0.084012  0.660238  0.161996  1
  O  O81  1  0.993350  0.794296  0.745459  1
  O  O82  1  0.010446  0.778692  0.926637  1
  O  O83  1  0.096711  0.521457  0.672869  1
  O  O84  1  0.187400  0.331254  0.828345  1
  O  O85  1  0.092245  0.376176  0.168748  1
  O  O86  1  0.254665  0.080281  0.160132  1
  O  O87  1  0.233058  0.986597  0.934929  1
  O  O88  1  0.210363  0.997408  0.750744  1
  O  O89  1  0.080273  0.250387  0.659001  1
  O  O90  1  0.001278  0.242958  0.434708  1
  O  O91  1  0.005247  0.204545  0.254501  1
