# generated using pymatgen
data_Mg3B2P2(H9O10)2
_symmetry_space_group_name_H-M   'P 1'
_cell_length_a   6.36772749
_cell_length_b   9.90827803
_cell_length_c   6.36484259
_cell_angle_alpha   85.19211703
_cell_angle_beta   106.72369601
_cell_angle_gamma   95.93634717
_symmetry_Int_Tables_number   1
_chemical_formula_structural   Mg3B2P2(H9O10)2
_chemical_formula_sum   'Mg3 B2 P2 H18 O20'
_cell_volume   381.91424478
_cell_formula_units_Z   1
loop_
 _symmetry_equiv_pos_site_id
 _symmetry_equiv_pos_as_xyz
  1  'x, y, z'
loop_
 _atom_site_type_symbol
 _atom_site_label
 _atom_site_symmetry_multiplicity
 _atom_site_fract_x
 _atom_site_fract_y
 _atom_site_fract_z
 _atom_site_occupancy
  Mg  Mg0  1  0.000000  0.000000  0.000000  1
  Mg  Mg1  1  0.657814  0.332074  0.316906  1
  Mg  Mg2  1  0.342186  0.667926  0.683094  1
  B  B3  1  0.121164  0.287914  0.227193  1
  B  B4  1  0.878836  0.712086  0.772807  1
  P  P5  1  0.756631  0.278479  0.857001  1
  P  P6  1  0.243369  0.721521  0.142999  1
  H  H7  1  0.694409  0.876767  0.702618  1
  H  H8  1  0.305591  0.123233  0.297382  1
  H  H9  1  0.910265  0.634074  0.495598  1
  H  H10  1  0.089735  0.365926  0.504402  1
  H  H11  1  0.682050  0.537916  0.689766  1
  H  H12  1  0.317950  0.462084  0.310234  1
  H  H13  1  0.349557  0.147699  0.869253  1
  H  H14  1  0.650443  0.852301  0.130747  1
  H  H15  1  0.138183  0.137592  0.668183  1
  H  H16  1  0.861817  0.862408  0.331817  1
  H  H17  1  0.344166  0.945181  0.681392  1
  H  H18  1  0.655834  0.054819  0.318608  1
  H  H19  1  0.661591  0.107279  0.554887  1
  H  H20  1  0.338409  0.892721  0.445113  1
  H  H21  1  0.159494  0.433308  0.843041  1
  H  H22  1  0.840506  0.566692  0.156959  1
  H  H23  1  0.389847  0.399860  0.831076  1
  H  H24  1  0.610153  0.600140  0.168924  1
  O  O25  1  0.772631  0.128614  0.815582  1
  O  O26  1  0.227369  0.871386  0.184418  1
  O  O27  1  0.582056  0.287594  0.981852  1
  O  O28  1  0.417944  0.712406  0.018148  1
  O  O29  1  0.708504  0.368560  0.643962  1
  O  O30  1  0.291496  0.631440  0.356038  1
  O  O31  1  0.988844  0.337209  0.002487  1
  O  O32  1  0.011156  0.662791  0.997513  1
  O  O33  1  0.151030  0.142334  0.224009  1
  O  O34  1  0.848970  0.857666  0.775991  1
  O  O35  1  0.997568  0.308590  0.386952  1
  O  O36  1  0.002432  0.691410  0.613048  1
  O  O37  1  0.333171  0.367640  0.276770  1
  O  O38  1  0.666829  0.632360  0.723230  1
  O  O39  1  0.223932  0.083841  0.794250  1
  O  O40  1  0.776068  0.916159  0.205750  1
  O  O41  1  0.597090  0.121183  0.389951  1
  O  O42  1  0.402910  0.878817  0.610049  1
  O  O43  1  0.734988  0.544152  0.245851  1
  O  O44  1  0.265012  0.455848  0.754149  1
