# generated using pymatgen
data_Ba13Nb14O42
_symmetry_space_group_name_H-M   'P 1'
_cell_length_a   11.71426129
_cell_length_b   9.25128741
_cell_length_c   10.14830129
_cell_angle_alpha   90.02440556
_cell_angle_beta   73.20107715
_cell_angle_gamma   108.42926858
_symmetry_Int_Tables_number   1
_chemical_formula_structural   Ba13Nb14O42
_chemical_formula_sum   'Ba13 Nb14 O42'
_cell_volume   993.84186913
_cell_formula_units_Z   1
loop_
 _symmetry_equiv_pos_site_id
 _symmetry_equiv_pos_as_xyz
  1  'x, y, z'
loop_
 _atom_site_type_symbol
 _atom_site_label
 _atom_site_symmetry_multiplicity
 _atom_site_fract_x
 _atom_site_fract_y
 _atom_site_fract_z
 _atom_site_occupancy
  Ba  Ba0  1  0.859289  0.141236  0.716844  1
  Ba  Ba1  1  0.929713  0.575878  0.859055  1
  Ba  Ba2  1  0.428007  0.571965  0.857798  1
  Ba  Ba3  1  0.352264  0.140747  0.717988  1
  Ba  Ba4  1  0.715124  0.286340  0.427648  1
  Ba  Ba5  1  0.786576  0.715164  0.571145  1
  Ba  Ba6  1  0.213424  0.284836  0.428854  1
  Ba  Ba7  1  0.284876  0.713660  0.572352  1
  Ba  Ba8  1  0.647736  0.859253  0.282012  1
  Ba  Ba9  1  0.571993  0.428035  0.142202  1
  Ba  Ba10  1  0.500000  0.000000  0.000000  1
  Ba  Ba11  1  0.140711  0.858764  0.283156  1
  Ba  Ba12  1  0.070287  0.424122  0.140945  1
  Nb  Nb13  1  0.718177  0.788758  0.929480  1
  Nb  Nb14  1  0.642593  0.357265  0.786614  1
  Nb  Nb15  1  0.929715  0.070222  0.352765  1
  Nb  Nb16  1  0.571662  0.928875  0.642939  1
  Nb  Nb17  1  0.428338  0.071125  0.357061  1
  Nb  Nb18  1  0.788690  0.211847  0.070535  1
  Nb  Nb19  1  0.859058  0.646968  0.211291  1
  Nb  Nb20  1  0.211310  0.788153  0.929465  1
  Nb  Nb21  1  0.500000  0.500000  0.500000  1
  Nb  Nb22  1  0.140942  0.353032  0.788709  1
  Nb  Nb23  1  0.357407  0.642735  0.213386  1
  Nb  Nb24  1  0.070285  0.929778  0.647235  1
  Nb  Nb25  1  0.000000  0.500000  0.500000  1
  Nb  Nb26  1  0.281823  0.211242  0.070520  1
  O  O27  1  0.963912  0.289982  0.927660  1
  O  O28  1  0.714386  0.285546  0.928497  1
  O  O29  1  0.607166  0.142910  0.714671  1
  O  O30  1  0.678826  0.571371  0.857514  1
  O  O31  1  0.964464  0.286084  0.428330  1
  O  O32  1  0.464131  0.285724  0.928442  1
  O  O33  1  0.749763  0.999709  0.499869  1
  O  O34  1  0.821422  0.428697  0.642787  1
  O  O35  1  0.891396  0.855298  0.782446  1
  O  O36  1  0.643177  0.857648  0.785815  1
  O  O37  1  0.928727  0.571525  0.357294  1
  O  O38  1  0.217121  0.289484  0.927569  1
  O  O39  1  0.500000  0.000000  0.500000  1
  O  O40  1  0.571367  0.428450  0.643116  1
  O  O41  1  0.855068  0.144853  0.217495  1
  O  O42  1  0.464201  0.285788  0.428473  1
  O  O43  1  0.821866  0.428847  0.142551  1
  O  O44  1  0.108513  0.145163  0.710317  1
  O  O45  1  0.392797  0.857270  0.785445  1
  O  O46  1  0.746635  0.000291  0.000073  1
  O  O47  1  0.607203  0.142730  0.214555  1
  O  O48  1  0.891487  0.854837  0.289683  1
  O  O49  1  0.535799  0.714212  0.571527  1
  O  O50  1  0.678386  0.571554  0.357018  1
  O  O51  1  0.250237  0.000291  0.500131  1
  O  O52  1  0.178134  0.571153  0.857449  1
  O  O53  1  0.321614  0.428446  0.642982  1
  O  O54  1  0.782879  0.710516  0.072431  1
  O  O55  1  0.356823  0.142352  0.214185  1
  O  O56  1  0.144932  0.855147  0.782505  1
  O  O57  1  0.000000  0.000000  0.500000  1
  O  O58  1  0.428633  0.571550  0.356884  1
  O  O59  1  0.071273  0.428475  0.642706  1
  O  O60  1  0.035536  0.713916  0.571670  1
  O  O61  1  0.392834  0.857090  0.285329  1
  O  O62  1  0.253365  0.999709  0.999927  1
  O  O63  1  0.321174  0.428629  0.142486  1
  O  O64  1  0.178578  0.571303  0.357213  1
  O  O65  1  0.108604  0.144702  0.217554  1
  O  O66  1  0.535869  0.714276  0.071558  1
  O  O67  1  0.285614  0.714454  0.071503  1
  O  O68  1  0.036088  0.710018  0.072340  1
