# generated using pymatgen
data_Li3V3P8O29
_symmetry_space_group_name_H-M   'P 1'
_cell_length_a   9.75071833
_cell_length_b   9.73966132
_cell_length_c   14.40838412
_cell_angle_alpha   91.01957822
_cell_angle_beta   90.43592284
_cell_angle_gamma   60.40616773
_symmetry_Int_Tables_number   1
_chemical_formula_structural   Li3V3P8O29
_chemical_formula_sum   'Li6 V6 P16 O58'
_cell_volume   1189.65268028
_cell_formula_units_Z   2
loop_
 _symmetry_equiv_pos_site_id
 _symmetry_equiv_pos_as_xyz
  1  'x, y, z'
loop_
 _atom_site_type_symbol
 _atom_site_label
 _atom_site_symmetry_multiplicity
 _atom_site_fract_x
 _atom_site_fract_y
 _atom_site_fract_z
 _atom_site_occupancy
  Li  Li0  1  0.919116  0.300352  0.556659  1
  Li  Li1  1  0.321065  0.912880  0.060953  1
  Li  Li2  1  0.306582  0.777498  0.549973  1
  Li  Li3  1  0.224397  0.679607  0.948248  1
  Li  Li4  1  0.078703  0.696474  0.435771  1
  Li  Li5  1  0.914980  0.076615  0.013984  1
  V  V6  1  0.572977  0.429613  0.248447  1
  V  V7  1  0.438903  0.560101  0.751586  1
  V  V8  1  0.568523  0.999798  0.750012  1
  V  V9  1  0.438183  0.001404  0.253957  1
  V  V10  1  0.992194  0.566807  0.240764  1
  V  V11  1  0.007038  0.432299  0.755005  1
  P  P12  1  0.917438  0.781358  0.833399  1
  P  P13  1  0.776891  0.913585  0.342430  1
  P  P14  1  0.912871  0.318314  0.341685  1
  P  P15  1  0.658746  0.668248  0.131274  1
  P  P16  1  0.669485  0.662526  0.634883  1
  P  P17  1  0.777335  0.308045  0.840255  1
  P  P18  1  0.686988  0.223406  0.659685  1
  P  P19  1  0.317683  0.912070  0.845036  1
  P  P20  1  0.696702  0.078779  0.160930  1
  P  P21  1  0.321096  0.771399  0.338098  1
  P  P22  1  0.230406  0.681447  0.159953  1
  P  P23  1  0.328427  0.344482  0.364429  1
  P  P24  1  0.335784  0.334312  0.867576  1
  P  P25  1  0.093913  0.675878  0.654594  1
  P  P26  1  0.226450  0.083228  0.666102  1
  P  P27  1  0.086672  0.214123  0.162305  1
  O  O28  1  0.026166  0.737019  0.562272  1
  O  O29  1  0.918460  0.740586  0.332258  1
  O  O30  1  0.792930  0.003818  0.076961  1
  O  O31  1  0.744637  0.916766  0.831454  1
  O  O32  1  0.919532  0.619250  0.825551  1
  O  O33  1  0.808917  0.672491  0.173322  1
  O  O34  1  0.902950  0.478041  0.316242  1
  O  O35  1  0.005057  0.188472  0.082501  1
  O  O36  1  0.911509  0.349361  0.827957  1
  O  O37  1  0.662629  0.814644  0.679281  1
  O  O38  1  0.620933  0.906660  0.321524  1
  O  O39  1  0.822612  0.517732  0.671800  1
  O  O40  1  0.654194  0.668680  0.028465  1
  O  O41  1  0.650377  0.666432  0.532606  1
  O  O42  1  0.668326  0.517636  0.176233  1
  O  O43  1  0.474166  0.911712  0.826127  1
  O  O44  1  0.508090  0.814799  0.173672  1
  O  O45  1  0.744873  0.340075  0.329475  1
  O  O46  1  0.794439  0.201706  0.750165  1
  O  O47  1  0.767339  0.234479  0.576382  1
  O  O48  1  0.792116  0.219919  0.924825  1
  O  O49  1  0.616878  0.463895  0.828550  1
  O  O50  1  0.524367  0.657362  0.682411  1
  O  O51  1  0.654758  0.255394  0.170413  1
  O  O52  1  0.480140  0.620517  0.321727  1
  O  O53  1  0.342962  0.918225  0.333495  1
  O  O54  1  0.797855  0.998635  0.252780  1
  O  O55  1  0.776594  0.991910  0.430398  1
  O  O56  1  0.229099  0.987968  0.584069  1
  O  O57  1  0.656712  0.082024  0.665785  1
  O  O58  1  0.524866  0.376740  0.680340  1
  O  O59  1  0.342657  0.740659  0.834515  1
  O  O60  1  0.473582  0.348114  0.320752  1
  O  O61  1  0.386150  0.526399  0.171798  1
  O  O62  1  0.227062  0.768022  0.073753  1
  O  O63  1  0.239909  0.765971  0.424830  1
  O  O64  1  0.208367  0.791107  0.250330  1
  O  O65  1  0.261846  0.658013  0.665042  1
  O  O66  1  0.483004  0.188326  0.824374  1
  O  O67  1  0.541268  0.072852  0.171688  1
  O  O68  1  0.325731  0.488769  0.825427  1
  O  O69  1  0.326649  0.347857  0.970200  1
  O  O70  1  0.325541  0.348346  0.467114  1
  O  O71  1  0.177174  0.485161  0.320945  1
  O  O72  1  0.380583  0.091181  0.680303  1
  O  O73  1  0.341354  0.187581  0.319309  1
  O  O74  1  0.087860  0.652257  0.164473  1
  O  O75  1  0.989839  0.797781  0.736012  1
  O  O76  1  0.009644  0.791911  0.912960  1
  O  O77  1  0.101349  0.517781  0.679757  1
  O  O78  1  0.187979  0.328246  0.823491  1
  O  O79  1  0.077702  0.379304  0.168744  1
  O  O80  1  0.263113  0.082013  0.164945  1
  O  O81  1  0.244809  0.979069  0.936895  1
  O  O82  1  0.202060  0.009485  0.761156  1
  O  O83  1  0.082508  0.253590  0.664793  1
  O  O84  1  0.984208  0.258034  0.433267  1
  O  O85  1  0.016093  0.196956  0.259988  1
