# generated using pymatgen
data_Mo6H20Cl14O9
_symmetry_space_group_name_H-M   'P 1'
_cell_length_a   9.98185952
_cell_length_b   9.98185952
_cell_length_c   19.86338332
_cell_angle_alpha   83.55104159
_cell_angle_beta   96.44895841
_cell_angle_gamma   121.63780249
_symmetry_Int_Tables_number   1
_chemical_formula_structural   Mo6H20Cl14O9
_chemical_formula_sum   'Mo12 H40 Cl28 O18'
_cell_volume   1670.99953214
_cell_formula_units_Z   2
loop_
 _symmetry_equiv_pos_site_id
 _symmetry_equiv_pos_as_xyz
  1  'x, y, z'
loop_
 _atom_site_type_symbol
 _atom_site_label
 _atom_site_symmetry_multiplicity
 _atom_site_fract_x
 _atom_site_fract_y
 _atom_site_fract_z
 _atom_site_occupancy
  Mo  Mo0  1  0.872160  0.397566  0.894608  1
  Mo  Mo1  1  0.397566  0.872160  0.605392  1
  Mo  Mo2  1  0.127840  0.602434  0.105392  1
  Mo  Mo3  1  0.602434  0.127840  0.394608  1
  Mo  Mo4  1  0.224549  0.732631  0.945859  1
  Mo  Mo5  1  0.732631  0.224549  0.554141  1
  Mo  Mo6  1  0.775451  0.267369  0.054141  1
  Mo  Mo7  1  0.267369  0.775451  0.445859  1
  Mo  Mo8  1  0.881294  0.600470  0.993087  1
  Mo  Mo9  1  0.600470  0.881294  0.506913  1
  Mo  Mo10  1  0.118706  0.399530  0.006913  1
  Mo  Mo11  1  0.399530  0.118706  0.493087  1
  H  H12  1  0.447978  0.323607  0.783231  1
  H  H13  1  0.323607  0.447978  0.716769  1
  H  H14  1  0.552022  0.676393  0.216769  1
  H  H15  1  0.676393  0.552022  0.283231  1
  H  H16  1  0.444577  0.164712  0.807570  1
  H  H17  1  0.164712  0.444577  0.692430  1
  H  H18  1  0.555423  0.835288  0.192430  1
  H  H19  1  0.835288  0.555423  0.307570  1
  H  H20  1  0.151813  0.177149  0.592019  1
  H  H21  1  0.177149  0.151813  0.907981  1
  H  H22  1  0.848187  0.822851  0.407981  1
  H  H23  1  0.822851  0.848187  0.092019  1
  H  H24  1  0.151934  0.249233  0.666971  1
  H  H25  1  0.249233  0.151934  0.833029  1
  H  H26  1  0.848066  0.750767  0.333029  1
  H  H27  1  0.750767  0.848066  0.166971  1
  H  H28  1  0.091597  0.044289  0.663313  1
  H  H29  1  0.044289  0.091597  0.836687  1
  H  H30  1  0.908403  0.955711  0.336687  1
  H  H31  1  0.955711  0.908403  0.163313  1
  H  H32  1  0.771306  0.636434  0.620454  1
  H  H33  1  0.636434  0.771306  0.879546  1
  H  H34  1  0.228694  0.363566  0.379546  1
  H  H35  1  0.363566  0.228694  0.120454  1
  H  H36  1  0.820870  0.537579  0.670335  1
  H  H37  1  0.537579  0.820870  0.829665  1
  H  H38  1  0.179130  0.462421  0.329665  1
  H  H39  1  0.462421  0.179130  0.170335  1
  H  H40  1  0.560812  0.616761  0.778273  1
  H  H41  1  0.616761  0.560812  0.721727  1
  H  H42  1  0.439188  0.383239  0.221727  1
  H  H43  1  0.383239  0.439188  0.278273  1
  H  H44  1  0.970173  0.804596  0.690366  1
  H  H45  1  0.804596  0.970173  0.809634  1
  H  H46  1  0.029827  0.195404  0.309634  1
  H  H47  1  0.195404  0.029827  0.190366  1
  H  H48  1  0.885600  0.151939  0.790551  1
  H  H49  1  0.151939  0.885600  0.709449  1
  H  H50  1  0.114400  0.848061  0.209449  1
  H  H51  1  0.848061  0.114400  0.290551  1
  Cl  Cl52  1  0.633085  0.360289  0.942579  1
  Cl  Cl53  1  0.360289  0.633085  0.557421  1
  Cl  Cl54  1  0.366915  0.639711  0.057421  1
  Cl  Cl55  1  0.639711  0.366915  0.442579  1
  Cl  Cl56  1  0.943241  0.677743  0.866990  1
  Cl  Cl57  1  0.677743  0.943241  0.633010  1
  Cl  Cl58  1  0.056759  0.322257  0.133010  1
  Cl  Cl59  1  0.322257  0.056759  0.366990  1
  Cl  Cl60  1  0.855549  0.154609  0.958683  1
  Cl  Cl61  1  0.154609  0.855549  0.541317  1
  Cl  Cl62  1  0.144451  0.845391  0.041317  1
  Cl  Cl63  1  0.845391  0.144451  0.458683  1
  Cl  Cl64  1  0.156589  0.475209  0.879887  1
  Cl  Cl65  1  0.475209  0.156589  0.620113  1
  Cl  Cl66  1  0.843411  0.524791  0.120113  1
  Cl  Cl67  1  0.524791  0.843411  0.379887  1
  Cl  Cl68  1  0.744026  0.748664  0.991971  1
  Cl  Cl69  1  0.748664  0.744026  0.508029  1
  Cl  Cl70  1  0.255974  0.251336  0.008029  1
  Cl  Cl71  1  0.251336  0.255974  0.491971  1
  Cl  Cl72  1  0.764983  0.291559  0.783527  1
  Cl  Cl73  1  0.291559  0.764983  0.716473  1
  Cl  Cl74  1  0.235017  0.708441  0.216473  1
  Cl  Cl75  1  0.708441  0.235017  0.283527  1
  Cl  Cl76  1  0.442210  0.947344  0.884963  1
  Cl  Cl77  1  0.947344  0.442210  0.615037  1
  Cl  Cl78  1  0.557790  0.052656  0.115037  1
  Cl  Cl79  1  0.052656  0.557790  0.384963  1
  O  O80  1  0.378150  0.207831  0.791920  1
  O  O81  1  0.207831  0.378150  0.708080  1
  O  O82  1  0.621850  0.792169  0.208080  1
  O  O83  1  0.792169  0.621850  0.291920  1
  O  O84  1  0.149247  0.100967  0.863937  1
  O  O85  1  0.100967  0.149247  0.636063  1
  O  O86  1  0.850753  0.899033  0.136063  1
  O  O87  1  0.899033  0.850753  0.363937  1
  O  O88  1  0.616601  0.789806  0.830864  1
  O  O89  1  0.789806  0.616601  0.669136  1
  O  O90  1  0.383399  0.210194  0.169136  1
  O  O91  1  0.210194  0.383399  0.330864  1
  O  O92  1  0.528090  0.528090  0.750000  1
  O  O93  1  0.471910  0.471910  0.250000  1
  O  O94  1  0.906615  0.065528  0.798137  1
  O  O95  1  0.065528  0.906615  0.701863  1
  O  O96  1  0.093385  0.934472  0.201863  1
  O  O97  1  0.934472  0.093385  0.298137  1
