# generated using pymatgen
data_LiFe4(BO3)4
_symmetry_space_group_name_H-M   'P 1'
_cell_length_a   5.25182489
_cell_length_b   9.13413914
_cell_length_c   11.52404483
_cell_angle_alpha   66.34382699
_cell_angle_beta   77.30457595
_cell_angle_gamma   89.07381747
_symmetry_Int_Tables_number   1
_chemical_formula_structural   LiFe4(BO3)4
_chemical_formula_sum   'Li2 Fe8 B8 O24'
_cell_volume   492.37879932
_cell_formula_units_Z   2
loop_
 _symmetry_equiv_pos_site_id
 _symmetry_equiv_pos_as_xyz
  1  'x, y, z'
loop_
 _atom_site_type_symbol
 _atom_site_label
 _atom_site_symmetry_multiplicity
 _atom_site_fract_x
 _atom_site_fract_y
 _atom_site_fract_z
 _atom_site_occupancy
  Li  Li0  1  0.510360  0.495449  0.659869  1
  Li  Li1  1  0.229876  0.246182  0.163073  1
  Fe  Fe2  1  0.984901  0.646021  0.374531  1
  Fe  Fe3  1  0.732515  0.062970  0.885513  1
  Fe  Fe4  1  0.511581  0.854126  0.628818  1
  Fe  Fe5  1  0.765004  0.439314  0.122992  1
  Fe  Fe6  1  0.226203  0.568116  0.880192  1
  Fe  Fe7  1  0.491300  0.152625  0.378497  1
  Fe  Fe8  1  0.020421  0.340830  0.631504  1
  Fe  Fe9  1  0.262110  0.929556  0.124996  1
  B  B10  1  0.979185  0.317437  0.373678  1
  B  B11  1  0.743052  0.393681  0.871333  1
  B  B12  1  0.532830  0.191519  0.625835  1
  B  B13  1  0.763251  0.114233  0.126967  1
  B  B14  1  0.469462  0.810933  0.384430  1
  B  B15  1  0.236745  0.901828  0.871423  1
  B  B16  1  0.018662  0.681954  0.624186  1
  B  B17  1  0.261677  0.592333  0.136354  1
  O  O18  1  0.978112  0.918009  0.876590  1
  O  O19  1  0.893495  0.288427  0.825523  1
  O  O20  1  0.858489  0.463368  0.937334  1
  O  O21  1  0.855213  0.794741  0.632177  1
  O  O22  1  0.937416  0.565663  0.583894  1
  O  O23  1  0.754204  0.166717  0.676076  1
  O  O24  1  0.753120  0.331848  0.326949  1
  O  O25  1  0.506569  0.425282  0.845987  1
  O  O26  1  0.369100  0.802352  0.816546  1
  O  O27  1  0.526607  0.925697  0.430707  1
  O  O28  1  0.637527  0.696592  0.385051  1
  O  O29  1  0.372399  0.980875  0.922794  1
  O  O30  1  0.638426  0.032122  0.073835  1
  O  O31  1  0.382618  0.314636  0.627167  1
  O  O32  1  0.467876  0.088886  0.572010  1
  O  O33  1  0.599576  0.214915  0.176241  1
  O  O34  1  0.521586  0.586070  0.131022  1
  O  O35  1  0.262155  0.668525  0.655788  1
  O  O36  1  0.240148  0.818639  0.342811  1
  O  O37  1  0.023375  0.412755  0.436827  1
  O  O38  1  0.155570  0.215085  0.352979  1
  O  O39  1  0.142663  0.492525  0.092812  1
  O  O40  1  0.111150  0.691261  0.183605  1
  O  O41  1  0.013144  0.105580  0.135405  1
