# generated using pymatgen
data_LiFeSi3O8
_symmetry_space_group_name_H-M   'P 1'
_cell_length_a   7.72669113
_cell_length_b   7.68264083
_cell_length_c   7.10227537
_cell_angle_alpha   82.47375067
_cell_angle_beta   108.96343642
_cell_angle_gamma   61.95795281
_symmetry_Int_Tables_number   1
_chemical_formula_structural   LiFeSi3O8
_chemical_formula_sum   'Li2 Fe2 Si6 O16'
_cell_volume   330.95258956
_cell_formula_units_Z   2
loop_
 _symmetry_equiv_pos_site_id
 _symmetry_equiv_pos_as_xyz
  1  'x, y, z'
loop_
 _atom_site_type_symbol
 _atom_site_label
 _atom_site_symmetry_multiplicity
 _atom_site_fract_x
 _atom_site_fract_y
 _atom_site_fract_z
 _atom_site_occupancy
  Li  Li0  1  0.266056  0.746765  0.125077  1
  Li  Li1  1  0.733944  0.253235  0.874923  1
  Fe  Fe2  1  0.457489  0.781327  0.642010  1
  Fe  Fe3  1  0.542511  0.218673  0.357990  1
  Si  Si4  1  0.227584  0.560979  0.705258  1
  Si  Si5  1  0.850672  0.855383  0.795216  1
  Si  Si6  1  0.151192  0.204980  0.761440  1
  Si  Si7  1  0.848808  0.795020  0.238560  1
  Si  Si8  1  0.149328  0.144617  0.204784  1
  Si  Si9  1  0.772416  0.439021  0.294742  1
  O  O10  1  0.100201  0.732756  0.808194  1
  O  O11  1  0.309355  0.987422  0.740953  1
  O  O12  1  0.081600  0.645864  0.449640  1
  O  O13  1  0.289779  0.894502  0.339813  1
  O  O14  1  0.088603  0.154147  0.954990  1
  O  O15  1  0.461362  0.534601  0.751587  1
  O  O16  1  0.269126  0.335046  0.813839  1
  O  O17  1  0.735384  0.733003  0.715775  1
  O  O18  1  0.264616  0.266997  0.284225  1
  O  O19  1  0.730874  0.664954  0.186161  1
  O  O20  1  0.538638  0.465399  0.248413  1
  O  O21  1  0.911397  0.845853  0.045010  1
  O  O22  1  0.710221  0.105498  0.660187  1
  O  O23  1  0.918400  0.354136  0.550360  1
  O  O24  1  0.690645  0.012578  0.259047  1
  O  O25  1  0.899799  0.267244  0.191806  1
