# generated using pymatgen
data_LiVCrP2(O4F)2
_symmetry_space_group_name_H-M   'P 1'
_cell_length_a   7.93949467
_cell_length_b   6.87950588
_cell_length_c   7.35111278
_cell_angle_alpha   61.86608212
_cell_angle_beta   89.22999369
_cell_angle_gamma   92.03080070
_symmetry_Int_Tables_number   1
_chemical_formula_structural   LiVCrP2(O4F)2
_chemical_formula_sum   'Li2 V2 Cr2 P4 O16 F4'
_cell_volume   353.64680889
_cell_formula_units_Z   2
loop_
 _symmetry_equiv_pos_site_id
 _symmetry_equiv_pos_as_xyz
  1  'x, y, z'
loop_
 _atom_site_type_symbol
 _atom_site_label
 _atom_site_symmetry_multiplicity
 _atom_site_fract_x
 _atom_site_fract_y
 _atom_site_fract_z
 _atom_site_occupancy
  Li  Li0  1  0.679569  0.068201  0.180737  1
  Li  Li1  1  0.320431  0.931799  0.819263  1
  V  V2  1  0.000000  0.000000  0.000000  1
  V  V3  1  0.500000  0.500000  0.000000  1
  Cr  Cr4  1  0.000000  0.000000  0.500000  1
  Cr  Cr5  1  0.500000  0.500000  0.500000  1
  P  P6  1  0.160378  0.519494  0.755611  1
  P  P7  1  0.661994  0.019402  0.758795  1
  P  P8  1  0.338006  0.980598  0.241205  1
  P  P9  1  0.839622  0.480506  0.244389  1
  O  O10  1  0.234900  0.015577  0.397475  1
  O  O11  1  0.436914  0.204457  0.088611  1
  O  O12  1  0.070204  0.290160  0.913567  1
  O  O13  1  0.018970  0.676597  0.661210  1
  O  O14  1  0.265163  0.476827  0.603654  1
  O  O15  1  0.513427  0.170344  0.665811  1
  O  O16  1  0.231651  0.910621  0.104013  1
  O  O17  1  0.275645  0.599979  0.881397  1
  O  O18  1  0.724355  0.400021  0.118603  1
  O  O19  1  0.768349  0.089379  0.895987  1
  O  O20  1  0.486573  0.829656  0.334189  1
  O  O21  1  0.734837  0.523173  0.396346  1
  O  O22  1  0.981030  0.323403  0.338790  1
  O  O23  1  0.929796  0.709840  0.086433  1
  O  O24  1  0.563086  0.795543  0.911389  1
  O  O25  1  0.765100  0.984423  0.602525  1
  F  F26  1  0.094177  0.028595  0.737082  1
  F  F27  1  0.415802  0.469722  0.261404  1
  F  F28  1  0.584198  0.530278  0.738596  1
  F  F29  1  0.905823  0.971405  0.262918  1
