# generated using pymatgen
data_Sr16Fe6Co2Mo8O45
_symmetry_space_group_name_H-M   'P 1'
_cell_length_a   5.71196532
_cell_length_b   5.69999151
_cell_length_c   45.62623663
_cell_angle_alpha   120.10022915
_cell_angle_beta   120.30622817
_cell_angle_gamma   89.68092715
_symmetry_Int_Tables_number   1
_chemical_formula_structural   Sr16Fe6Co2Mo8O45
_chemical_formula_sum   'Sr16 Fe6 Co2 Mo8 O45'
_cell_volume   1046.86376062
_cell_formula_units_Z   1
loop_
 _symmetry_equiv_pos_site_id
 _symmetry_equiv_pos_as_xyz
  1  'x, y, z'
loop_
 _atom_site_type_symbol
 _atom_site_label
 _atom_site_symmetry_multiplicity
 _atom_site_fract_x
 _atom_site_fract_y
 _atom_site_fract_z
 _atom_site_occupancy
  Sr  Sr0  1  0.260203  0.761243  0.940132  1
  Sr  Sr1  1  0.256942  0.757572  0.814285  1
  Sr  Sr2  1  0.761978  0.262454  0.940500  1
  Sr  Sr3  1  0.256217  0.758272  0.689084  1
  Sr  Sr4  1  0.755181  0.255894  0.814064  1
  Sr  Sr5  1  0.240759  0.739841  0.559837  1
  Sr  Sr6  1  0.758121  0.260086  0.689826  1
  Sr  Sr7  1  0.266389  0.767524  0.441856  1
  Sr  Sr8  1  0.747746  0.246598  0.562015  1
  Sr  Sr9  1  0.257734  0.757929  0.314365  1
  Sr  Sr10  1  0.759977  0.260291  0.440106  1
  Sr  Sr11  1  0.263594  0.766206  0.191645  1
  Sr  Sr12  1  0.744198  0.243190  0.310859  1
  Sr  Sr13  1  0.252798  0.752134  0.062969  1
  Sr  Sr14  1  0.761381  0.261843  0.190805  1
  Sr  Sr15  1  0.740596  0.239463  0.059895  1
  Fe  Fe16  1  0.995963  0.996540  0.623960  1
  Fe  Fe17  1  0.007528  0.005852  0.501436  1
  Fe  Fe18  1  -0.000531  -0.000764  0.374808  1
  Fe  Fe19  1  0.006286  0.007017  0.001569  1
  Fe  Fe20  1  0.007668  0.008534  0.252256  1
  Fe  Fe21  1  0.997019  0.996888  0.124281  1
  Co  Co22  1  0.003931  0.003926  0.875983  1
  Co  Co23  1  0.006539  0.008312  0.751936  1
  Mo  Mo24  1  0.506330  0.506810  0.001541  1
  Mo  Mo25  1  0.500308  0.500480  0.875103  1
  Mo  Mo26  1  0.500536  0.501793  0.750308  1
  Mo  Mo27  1  0.513048  0.514224  0.628484  1
  Mo  Mo28  1  0.508554  0.507906  0.501951  1
  Mo  Mo29  1  0.511065  0.510540  0.377678  1
  Mo  Mo30  1  0.507919  0.508115  0.252138  1
  Mo  Mo31  1  0.508083  0.508007  0.127033  1
  O  O32  1  0.261330  0.259769  0.940182  1
  O  O33  1  0.217585  0.697960  0.873809  1
  O  O34  1  0.293446  0.218590  0.873999  1
  O  O35  1  0.253634  0.253511  0.813308  1
  O  O36  1  0.736711  0.734789  0.933940  1
  O  O37  1  0.699132  0.773917  0.874128  1
  O  O38  1  0.218873  0.697671  0.748979  1
  O  O39  1  0.773733  0.292975  0.873980  1
  O  O40  1  0.294293  0.219556  0.748794  1
  O  O41  1  0.253888  0.258926  0.688981  1
  O  O42  1  0.741311  0.741430  0.810372  1
  O  O43  1  0.696532  0.771475  0.748852  1
  O  O44  1  0.202368  0.698585  0.620877  1
  O  O45  1  0.771490  0.294299  0.748788  1
  O  O46  1  0.273003  0.210781  0.617654  1
  O  O47  1  0.749719  0.751037  0.687470  1
  O  O48  1  0.670364  0.729040  0.617855  1
  O  O49  1  0.221814  0.729551  0.502037  1
  O  O50  1  0.767259  0.271129  0.621692  1
  O  O51  1  0.294674  0.223932  0.503697  1
  O  O52  1  0.264646  0.262086  0.440651  1
  O  O53  1  0.739516  0.737727  0.559910  1
  O  O54  1  0.734497  0.805959  0.503864  1
  O  O55  1  0.202039  0.658571  0.364497  1
  O  O56  1  0.796577  0.288083  0.502409  1
  O  O57  1  0.286773  0.216019  0.374188  1
  O  O58  1  0.747492  0.742871  0.436319  1
  O  O59  1  0.708525  0.778744  0.374482  1
  O  O60  1  0.222306  0.728818  0.252227  1
  O  O61  1  0.712699  0.256218  0.364124  1
  O  O62  1  0.293694  0.225858  0.253185  1
  O  O63  1  0.266569  0.263335  0.191467  1
  O  O64  1  0.743546  0.743870  0.310873  1
  O  O65  1  0.728960  0.797450  0.252809  1
  O  O66  1  0.202860  0.659402  0.114861  1
  O  O67  1  0.797945  0.290498  0.252909  1
  O  O68  1  0.278984  0.211628  0.123327  1
  O  O69  1  0.743588  0.742516  0.185837  1
  O  O70  1  0.710207  0.777846  0.123947  1
  O  O71  1  0.223386  0.728975  0.002180  1
  O  O72  1  0.718284  0.262200  0.115058  1
  O  O73  1  0.289626  0.224282  0.002271  1
  O  O74  1  0.739229  0.739968  0.059681  1
  O  O75  1  0.727221  0.793860  0.001945  1
  O  O76  1  0.796414  0.290371  0.002576  1
