# generated using pymatgen
data_CaZrO3
_symmetry_space_group_name_H-M   'P 1'
_cell_length_a   5.83183526
_cell_length_b   11.45709201
_cell_length_c   8.12360446
_cell_angle_alpha   90.00000000
_cell_angle_beta   90.00000000
_cell_angle_gamma   90.00000000
_symmetry_Int_Tables_number   1
_chemical_formula_structural   CaZrO3
_chemical_formula_sum   'Ca8 Zr8 O24'
_cell_volume   542.78572521
_cell_formula_units_Z   8
loop_
 _symmetry_equiv_pos_site_id
 _symmetry_equiv_pos_as_xyz
  1  'x, y, z'
loop_
 _atom_site_type_symbol
 _atom_site_label
 _atom_site_symmetry_multiplicity
 _atom_site_fract_x
 _atom_site_fract_y
 _atom_site_fract_z
 _atom_site_occupancy
  Ca  Ca0  1  0.249361  0.361878  0.504657  1
  Ca  Ca1  1  0.235780  0.387891  0.005126  1
  Ca  Ca2  1  0.250639  0.861878  0.504657  1
  Ca  Ca3  1  0.264220  0.887891  0.005126  1
  Ca  Ca4  1  0.735780  0.112109  0.005126  1
  Ca  Ca5  1  0.749361  0.138122  0.504657  1
  Ca  Ca6  1  0.764220  0.612109  0.005126  1
  Ca  Ca7  1  0.750639  0.638122  0.504657  1
  Zr  Zr8  1  0.247490  0.125246  0.255331  1
  Zr  Zr9  1  0.249913  0.124943  0.755416  1
  Zr  Zr10  1  0.252510  0.625246  0.255331  1
  Zr  Zr11  1  0.250087  0.624943  0.755416  1
  Zr  Zr12  1  0.749913  0.375057  0.755416  1
  Zr  Zr13  1  0.747490  0.374754  0.255331  1
  Zr  Zr14  1  0.750087  0.875057  0.755416  1
  Zr  Zr15  1  0.752510  0.874754  0.255331  1
  O  O16  1  0.000000  0.000000  0.186710  1
  O  O17  1  0.000000  0.000000  0.822356  1
  O  O18  1  0.000000  0.500000  0.194227  1
  O  O19  1  0.000000  0.500000  0.822248  1
  O  O20  1  0.998758  0.249531  0.322703  1
  O  O21  1  0.012063  0.254598  0.691159  1
  O  O22  1  0.250117  0.565964  0.506297  1
  O  O23  1  0.231794  0.684451  0.006540  1
  O  O24  1  0.268206  0.184451  0.006540  1
  O  O25  1  0.249883  0.065964  0.506297  1
  O  O26  1  0.501242  0.749531  0.322703  1
  O  O27  1  0.487937  0.754598  0.691159  1
  O  O28  1  0.500000  0.000000  0.194227  1
  O  O29  1  0.500000  0.000000  0.822248  1
  O  O30  1  0.500000  0.500000  0.822356  1
  O  O31  1  0.500000  0.500000  0.186710  1
  O  O32  1  0.512063  0.245402  0.691159  1
  O  O33  1  0.498758  0.250469  0.322703  1
  O  O34  1  0.750117  0.934036  0.506297  1
  O  O35  1  0.731794  0.815549  0.006540  1
  O  O36  1  0.749883  0.434036  0.506297  1
  O  O37  1  0.768206  0.315549  0.006540  1
  O  O38  1  0.987937  0.745402  0.691159  1
  O  O39  1  0.001242  0.750469  0.322703  1
