# generated using pymatgen
data_Li2Co2(SO4)3
_symmetry_space_group_name_H-M   'P 1'
_cell_length_a   8.65126417
_cell_length_b   8.76094938
_cell_length_c   24.04798103
_cell_angle_alpha   90.00000000
_cell_angle_beta   89.99761088
_cell_angle_gamma   90.00000000
_symmetry_Int_Tables_number   1
_chemical_formula_structural   Li2Co2(SO4)3
_chemical_formula_sum   'Li16 Co16 S24 O96'
_cell_volume   1822.67553764
_cell_formula_units_Z   8
loop_
 _symmetry_equiv_pos_site_id
 _symmetry_equiv_pos_as_xyz
  1  'x, y, z'
loop_
 _atom_site_type_symbol
 _atom_site_label
 _atom_site_symmetry_multiplicity
 _atom_site_fract_x
 _atom_site_fract_y
 _atom_site_fract_z
 _atom_site_occupancy
  Li  Li0  1  0.037236  0.621890  0.290456  1
  Li  Li1  1  0.037236  0.878110  0.790456  1
  Li  Li2  1  0.145365  0.568702  0.509184  1
  Li  Li3  1  0.145365  0.931298  0.009184  1
  Li  Li4  1  0.354698  0.068599  0.509193  1
  Li  Li5  1  0.354698  0.431401  0.009193  1
  Li  Li6  1  0.462668  0.122271  0.290559  1
  Li  Li7  1  0.462668  0.377729  0.790559  1
  Li  Li8  1  0.537332  0.622271  0.209441  1
  Li  Li9  1  0.537332  0.877729  0.709441  1
  Li  Li10  1  0.645302  0.568599  0.990807  1
  Li  Li11  1  0.645302  0.931401  0.490807  1
  Li  Li12  1  0.854635  0.431298  0.490816  1
  Li  Li13  1  0.854635  0.068702  0.990816  1
  Li  Li14  1  0.962764  0.121890  0.209544  1
  Li  Li15  1  0.962764  0.378110  0.709544  1
  Co  Co16  1  0.003888  0.399432  0.063622  1
  Co  Co17  1  0.003888  0.100568  0.563622  1
  Co  Co18  1  0.999632  0.795657  0.179024  1
  Co  Co19  1  0.999632  0.704343  0.679024  1
  Co  Co20  1  0.500052  0.295333  0.178895  1
  Co  Co21  1  0.500052  0.204667  0.678895  1
  Co  Co22  1  0.495984  0.600727  0.563519  1
  Co  Co23  1  0.495984  0.899273  0.063519  1
  Co  Co24  1  0.504016  0.399273  0.436481  1
  Co  Co25  1  0.504016  0.100727  0.936481  1
  Co  Co26  1  0.499948  0.704667  0.821105  1
  Co  Co27  1  0.499948  0.795333  0.321105  1
  Co  Co28  1  0.000368  0.295657  0.320976  1
  Co  Co29  1  0.000368  0.204343  0.820976  1
  Co  Co30  1  0.996112  0.899432  0.436378  1
  Co  Co31  1  0.996112  0.600568  0.936378  1
  S  S32  1  0.143763  0.946917  0.299708  1
  S  S33  1  0.143763  0.553083  0.799708  1
  S  S34  1  0.148556  0.253547  0.446771  1
  S  S35  1  0.148556  0.246453  0.946771  1
  S  S36  1  0.196807  0.094064  0.116511  1
  S  S37  1  0.196807  0.405936  0.616511  1
  S  S38  1  0.303098  0.594142  0.116485  1
  S  S39  1  0.303098  0.905858  0.616485  1
  S  S40  1  0.351583  0.753527  0.446695  1
  S  S41  1  0.351583  0.746473  0.946695  1
  S  S42  1  0.356248  0.446967  0.299658  1
  S  S43  1  0.356248  0.053033  0.799658  1
  S  S44  1  0.643752  0.553033  0.700342  1
  S  S45  1  0.643752  0.946967  0.200342  1
  S  S46  1  0.648417  0.246473  0.553305  1
  S  S47  1  0.648417  0.253527  0.053305  1
  S  S48  1  0.696902  0.094142  0.383515  1
  S  S49  1  0.696902  0.405858  0.883515  1
  S  S50  1  0.803193  0.594064  0.383489  1
  S  S51  1  0.803193  0.905936  0.883489  1
  S  S52  1  0.851444  0.753547  0.053229  1
  S  S53  1  0.851444  0.746453  0.553229  1
  S  S54  1  0.856237  0.446917  0.200292  1
  S  S55  1  0.856237  0.053083  0.700292  1
  O  O56  1  0.063797  0.390311  0.465198  1
  O  O57  1  0.063797  0.109689  0.965198  1
  O  O58  1  0.081972  0.095937  0.279132  1
  O  O59  1  0.081972  0.404063  0.779132  1
  O  O60  1  0.083579  0.110493  0.474883  1
  O  O61  1  0.083579  0.389507  0.974883  1
  O  O62  1  0.086860  0.912271  0.355654  1
  O  O63  1  0.086860  0.587729  0.855654  1
  O  O64  1  0.094645  0.190970  0.082397  1
  O  O65  1  0.094645  0.309030  0.582397  1
  O  O66  1  0.091834  0.822766  0.261047  1
  O  O67  1  0.091834  0.677234  0.761046  1
  O  O68  1  0.098595  0.009357  0.157212  1
  O  O69  1  0.098595  0.490643  0.657212  1
  O  O70  1  0.139499  0.232237  0.386546  1
  O  O71  1  0.139499  0.267763  0.886546  1
  O  O72  1  0.183446  0.453706  0.298173  1
  O  O73  1  0.183446  0.046294  0.798173  1
  O  O74  1  0.187076  0.682755  0.146906  1
  O  O75  1  0.187076  0.817245  0.646906  1
  O  O76  1  0.187115  0.764290  0.465747  1
  O  O77  1  0.187115  0.735710  0.965747  1
  O  O78  1  0.227253  0.483130  0.077247  1
  O  O79  1  0.227253  0.016870  0.577247  1
  O  O80  1  0.272779  0.983074  0.077289  1
  O  O81  1  0.272779  0.516926  0.577289  1
  O  O82  1  0.313084  0.235757  0.965795  1
  O  O83  1  0.313084  0.264243  0.465795  1
  O  O84  1  0.312668  0.182787  0.146909  1
  O  O85  1  0.312668  0.317213  0.646909  1
  O  O86  1  0.316415  0.953817  0.298186  1
  O  O87  1  0.316415  0.546183  0.798186  1
  O  O88  1  0.360195  0.732118  0.386520  1
  O  O89  1  0.360195  0.767882  0.886520  1
  O  O90  1  0.401283  0.509560  0.157196  1
  O  O91  1  0.401283  0.990440  0.657196  1
  O  O92  1  0.408068  0.322588  0.261015  1
  O  O93  1  0.408068  0.177412  0.761015  1
  O  O94  1  0.405428  0.690905  0.082253  1
  O  O95  1  0.405428  0.809095  0.582253  1
  O  O96  1  0.412938  0.087834  0.855605  1
  O  O97  1  0.412938  0.412166  0.355605  1
  O  O98  1  0.416470  0.610174  0.474822  1
  O  O99  1  0.416470  0.889826  0.974822  1
  O  O100  1  0.417892  0.595808  0.279065  1
  O  O101  1  0.417892  0.904192  0.779065  1
  O  O102  1  0.436101  0.609700  0.965192  1
  O  O103  1  0.436101  0.890300  0.465192  1
  O  O104  1  0.563899  0.390300  0.034808  1
  O  O105  1  0.563899  0.109700  0.534808  1
  O  O106  1  0.582108  0.095808  0.220935  1
  O  O107  1  0.582108  0.404192  0.720935  1
  O  O108  1  0.583530  0.110174  0.025178  1
  O  O109  1  0.583530  0.389826  0.525178  1
  O  O110  1  0.587062  0.587834  0.644395  1
  O  O111  1  0.587062  0.912166  0.144395  1
  O  O112  1  0.594572  0.190905  0.417747  1
  O  O113  1  0.594572  0.309095  0.917747  1
  O  O114  1  0.591932  0.677412  0.738985  1
  O  O115  1  0.591932  0.822588  0.238985  1
  O  O116  1  0.598717  0.009560  0.342804  1
  O  O117  1  0.598717  0.490440  0.842804  1
  O  O118  1  0.639805  0.232118  0.113480  1
  O  O119  1  0.639805  0.267882  0.613480  1
  O  O120  1  0.683585  0.453817  0.201814  1
  O  O121  1  0.683585  0.046183  0.701814  1
  O  O122  1  0.687332  0.682787  0.353091  1
  O  O123  1  0.687332  0.817213  0.853091  1
  O  O124  1  0.686916  0.764243  0.034205  1
  O  O125  1  0.686916  0.735757  0.534205  1
  O  O126  1  0.727221  0.483074  0.422711  1
  O  O127  1  0.727221  0.016926  0.922711  1
  O  O128  1  0.772747  0.983130  0.422753  1
  O  O129  1  0.772747  0.516870  0.922753  1
  O  O130  1  0.812885  0.264290  0.034253  1
  O  O131  1  0.812885  0.235710  0.534253  1
  O  O132  1  0.812924  0.182755  0.353094  1
  O  O133  1  0.812924  0.317245  0.853094  1
  O  O134  1  0.816554  0.546294  0.701827  1
  O  O135  1  0.816554  0.953706  0.201827  1
  O  O136  1  0.860501  0.732237  0.113454  1
  O  O137  1  0.860501  0.767763  0.613454  1
  O  O138  1  0.901405  0.509357  0.342788  1
  O  O139  1  0.901405  0.990643  0.842788  1
  O  O140  1  0.908166  0.322766  0.238954  1
  O  O141  1  0.908166  0.177234  0.738954  1
  O  O142  1  0.905355  0.690970  0.417603  1
  O  O143  1  0.905355  0.809030  0.917603  1
  O  O144  1  0.913140  0.412271  0.144346  1
  O  O145  1  0.913140  0.087729  0.644346  1
  O  O146  1  0.916421  0.610493  0.025117  1
  O  O147  1  0.916421  0.889507  0.525117  1
  O  O148  1  0.918028  0.595937  0.220868  1
  O  O149  1  0.918028  0.904063  0.720868  1
  O  O150  1  0.936203  0.609689  0.534802  1
  O  O151  1  0.936203  0.890311  0.034802  1
