# generated using pymatgen
data_Li2VSiO4
_symmetry_space_group_name_H-M   'P 1'
_cell_length_a   6.32643071
_cell_length_b   5.80103276
_cell_length_c   4.82890852
_cell_angle_alpha   90.00000000
_cell_angle_beta   89.64166315
_cell_angle_gamma   90.00000000
_symmetry_Int_Tables_number   1
_chemical_formula_structural   Li2VSiO4
_chemical_formula_sum   'Li4 V2 Si2 O8'
_cell_volume   177.21666461
_cell_formula_units_Z   2
loop_
 _symmetry_equiv_pos_site_id
 _symmetry_equiv_pos_as_xyz
  1  'x, y, z'
loop_
 _atom_site_type_symbol
 _atom_site_label
 _atom_site_symmetry_multiplicity
 _atom_site_fract_x
 _atom_site_fract_y
 _atom_site_fract_z
 _atom_site_occupancy
  Li  Li0  1  0.002075  0.854700  0.491172  1
  Li  Li1  1  0.244126  0.694339  0.991479  1
  Li  Li2  1  0.502075  0.145300  0.991172  1
  Li  Li3  1  0.744126  0.305661  0.491479  1
  V  V4  1  0.260568  0.348744  0.469029  1
  V  V5  1  0.760568  0.651256  0.969029  1
  Si  Si6  1  0.999022  0.165168  0.008059  1
  Si  Si7  1  0.499022  0.834832  0.508059  1
  O  O8  1  0.214251  0.319389  0.920569  1
  O  O9  1  0.282223  0.700583  0.403590  1
  O  O10  1  0.496735  0.838166  0.849680  1
  O  O11  1  0.502302  0.102962  0.396522  1
  O  O12  1  0.714251  0.680611  0.420569  1
  O  O13  1  0.782223  0.299417  0.903590  1
  O  O14  1  0.002302  0.897038  0.896522  1
  O  O15  1  0.996735  0.161834  0.349680  1
