# generated using pymatgen
data_Li2ZrFe(PO4)3
_symmetry_space_group_name_H-M   'P 1'
_cell_length_a   10.90359012
_cell_length_b   10.10076307
_cell_length_c   10.88188882
_cell_angle_alpha   90.00000000
_cell_angle_beta   102.67660575
_cell_angle_gamma   90.00000000
_symmetry_Int_Tables_number   1
_chemical_formula_structural   Li2ZrFe(PO4)3
_chemical_formula_sum   'Li8 Zr4 Fe4 P12 O48'
_cell_volume   1169.25857195
_cell_formula_units_Z   4
loop_
 _symmetry_equiv_pos_site_id
 _symmetry_equiv_pos_as_xyz
  1  'x, y, z'
loop_
 _atom_site_type_symbol
 _atom_site_label
 _atom_site_symmetry_multiplicity
 _atom_site_fract_x
 _atom_site_fract_y
 _atom_site_fract_z
 _atom_site_occupancy
  Li  Li0  1  0.147438  0.900728  0.984179  1
  Li  Li1  1  0.264656  0.677669  0.141889  1
  Li  Li2  1  0.235344  0.177669  0.358111  1
  Li  Li3  1  0.352562  0.400728  0.515821  1
  Li  Li4  1  0.647438  0.599272  0.484179  1
  Li  Li5  1  0.764656  0.822331  0.641889  1
  Li  Li6  1  0.735344  0.322331  0.858111  1
  Li  Li7  1  0.852562  0.099272  0.015821  1
  Zr  Zr8  1  0.237805  0.036801  0.780563  1
  Zr  Zr9  1  0.262195  0.536801  0.719437  1
  Zr  Zr10  1  0.737805  0.463199  0.280563  1
  Zr  Zr11  1  0.762195  0.963199  0.219437  1
  Fe  Fe12  1  0.167246  0.622395  0.382181  1
  Fe  Fe13  1  0.332754  0.122395  0.117819  1
  Fe  Fe14  1  0.667246  0.877605  0.882181  1
  Fe  Fe15  1  0.832754  0.377605  0.617819  1
  P  P16  1  0.079213  0.244279  0.547631  1
  P  P17  1  0.888621  0.195322  0.303022  1
  P  P18  1  0.791576  0.088955  0.737630  1
  P  P19  1  0.611379  0.695322  0.196978  1
  P  P20  1  0.708424  0.588955  0.762370  1
  P  P21  1  0.420787  0.744279  0.952369  1
  P  P22  1  0.579213  0.255721  0.047631  1
  P  P23  1  0.388621  0.304678  0.803022  1
  P  P24  1  0.291576  0.411045  0.237630  1
  P  P25  1  0.111379  0.804678  0.696978  1
  P  P26  1  0.208424  0.911045  0.262370  1
  P  P27  1  0.920787  0.755721  0.452369  1
  O  O28  1  0.992805  0.643827  0.402934  1
  O  O29  1  0.019519  0.829286  0.564420  1
  O  O30  1  0.110354  0.656715  0.729322  1
  O  O31  1  0.111917  0.882664  0.140860  1
  O  O32  1  0.112320  0.134716  0.648369  1
  O  O33  1  0.191812  0.287654  0.498874  1
  O  O34  1  0.256683  0.354376  0.815929  1
  O  O35  1  0.174333  0.000082  0.361415  1
  O  O36  1  0.250009  0.265526  0.182756  1
  O  O37  1  0.421711  0.395103  0.702948  1
  O  O38  1  0.170221  0.477920  0.274099  1
  O  O39  1  0.243128  0.070595  0.956163  1
  O  O40  1  0.256872  0.570595  0.543837  1
  O  O41  1  0.329779  0.977920  0.225901  1
  O  O42  1  0.249991  0.765526  0.317244  1
  O  O43  1  0.078289  0.895103  0.797052  1
  O  O44  1  0.325667  0.500082  0.138585  1
  O  O45  1  0.243317  0.854376  0.684071  1
  O  O46  1  0.308188  0.787654  0.001126  1
  O  O47  1  0.387680  0.634716  0.851631  1
  O  O48  1  0.388083  0.382664  0.359140  1
  O  O49  1  0.389646  0.156715  0.770678  1
  O  O50  1  0.507195  0.143827  0.097066  1
  O  O51  1  0.480481  0.329286  0.935580  1
  O  O52  1  0.519519  0.670714  0.064420  1
  O  O53  1  0.492805  0.856173  0.902934  1
  O  O54  1  0.611917  0.617336  0.640860  1
  O  O55  1  0.610354  0.843285  0.229322  1
  O  O56  1  0.612320  0.365284  0.148369  1
  O  O57  1  0.691812  0.212346  0.998874  1
  O  O58  1  0.756683  0.145624  0.315929  1
  O  O59  1  0.674333  0.499918  0.861415  1
  O  O60  1  0.921711  0.104897  0.202948  1
  O  O61  1  0.750009  0.234474  0.682756  1
  O  O62  1  0.670221  0.022080  0.774099  1
  O  O63  1  0.743128  0.429405  0.456163  1
  O  O64  1  0.756872  0.929405  0.043837  1
  O  O65  1  0.829779  0.522080  0.725901  1
  O  O66  1  0.578289  0.604897  0.297052  1
  O  O67  1  0.749991  0.734474  0.817244  1
  O  O68  1  0.743317  0.645624  0.184071  1
  O  O69  1  0.825667  0.999918  0.638585  1
  O  O70  1  0.808188  0.712346  0.501126  1
  O  O71  1  0.887680  0.865284  0.351631  1
  O  O72  1  0.888083  0.117336  0.859140  1
  O  O73  1  0.889646  0.343285  0.270678  1
  O  O74  1  0.980481  0.170714  0.435580  1
  O  O75  1  0.007195  0.356173  0.597066  1
