# generated using pymatgen
data_CaZn2(H5O4)2
_symmetry_space_group_name_H-M   'P 1'
_cell_length_a   7.82731886
_cell_length_b   9.93772596
_cell_length_c   6.70909692
_cell_angle_alpha   90.00000000
_cell_angle_beta   128.94613407
_cell_angle_gamma   90.00000000
_symmetry_Int_Tables_number   1
_chemical_formula_structural   CaZn2(H5O4)2
_chemical_formula_sum   'Ca2 Zn4 H20 O16'
_cell_volume   405.87940726
_cell_formula_units_Z   2
loop_
 _symmetry_equiv_pos_site_id
 _symmetry_equiv_pos_as_xyz
  1  'x, y, z'
loop_
 _atom_site_type_symbol
 _atom_site_label
 _atom_site_symmetry_multiplicity
 _atom_site_fract_x
 _atom_site_fract_y
 _atom_site_fract_z
 _atom_site_occupancy
  Ca  Ca0  1  0.000000  0.500000  0.500000  1
  Ca  Ca1  1  0.000000  0.000000  0.000000  1
  Zn  Zn2  1  0.492698  0.264751  0.665867  1
  Zn  Zn3  1  0.507302  0.764751  0.834133  1
  Zn  Zn4  1  0.507302  0.735249  0.334133  1
  Zn  Zn5  1  0.492698  0.235249  0.165867  1
  H  H6  1  0.581445  0.454598  0.297866  1
  H  H7  1  0.418555  0.954598  0.202134  1
  H  H8  1  0.418555  0.545402  0.702134  1
  H  H9  1  0.581445  0.045402  0.797866  1
  H  H10  1  0.314557  0.533171  0.329227  1
  H  H11  1  0.685443  0.033171  0.170773  1
  H  H12  1  0.685443  0.466829  0.670773  1
  H  H13  1  0.314557  0.966829  0.829227  1
  H  H14  1  0.837993  0.410850  0.004088  1
  H  H15  1  0.162007  0.910850  0.495912  1
  H  H16  1  0.162007  0.589150  0.995912  1
  H  H17  1  0.837993  0.089150  0.504088  1
  H  H18  1  0.202375  0.281648  0.215814  1
  H  H19  1  0.797625  0.781648  0.284186  1
  H  H20  1  0.797625  0.718352  0.784186  1
  H  H21  1  0.202375  0.218352  0.715814  1
  H  H22  1  0.935199  0.285709  0.200935  1
  H  H23  1  0.064801  0.785709  0.299065  1
  H  H24  1  0.064801  0.714291  0.799065  1
  H  H25  1  0.935199  0.214291  0.700935  1
  O  O26  1  0.314705  0.209895  0.290844  1
  O  O27  1  0.685295  0.709895  0.209156  1
  O  O28  1  0.685295  0.790105  0.709156  1
  O  O29  1  0.314705  0.290105  0.790844  1
  O  O30  1  0.352618  0.558261  0.220293  1
  O  O31  1  0.647382  0.058261  0.279707  1
  O  O32  1  0.647382  0.441739  0.779707  1
  O  O33  1  0.352618  0.941739  0.720293  1
  O  O34  1  0.696701  0.384330  0.367609  1
  O  O35  1  0.303299  0.884330  0.132391  1
  O  O36  1  0.303299  0.615670  0.632391  1
  O  O37  1  0.696701  0.115670  0.867609  1
  O  O38  1  0.987937  0.373369  0.194009  1
  O  O39  1  0.012063  0.873369  0.305991  1
  O  O40  1  0.012063  0.626631  0.805991  1
  O  O41  1  0.987937  0.126631  0.694009  1
