# generated using pymatgen
data_Li4Fe3OF11
_symmetry_space_group_name_H-M   'P 1'
_cell_length_a   6.16867986
_cell_length_b   5.96300374
_cell_length_c   5.87147491
_cell_angle_alpha   98.26805097
_cell_angle_beta   100.01993328
_cell_angle_gamma   99.93134972
_symmetry_Int_Tables_number   1
_chemical_formula_structural   Li4Fe3OF11
_chemical_formula_sum   'Li4 Fe3 O1 F11'
_cell_volume   206.10354055
_cell_formula_units_Z   1
loop_
 _symmetry_equiv_pos_site_id
 _symmetry_equiv_pos_as_xyz
  1  'x, y, z'
loop_
 _atom_site_type_symbol
 _atom_site_label
 _atom_site_symmetry_multiplicity
 _atom_site_fract_x
 _atom_site_fract_y
 _atom_site_fract_z
 _atom_site_occupancy
  Li  Li0  1  0.416808  0.665697  0.876870  1
  Li  Li1  1  0.690198  0.867561  0.398005  1
  Li  Li2  1  0.598733  0.337004  0.140140  1
  Li  Li3  1  0.854145  0.397090  0.670909  1
  Fe  Fe4  1  0.133155  0.626245  0.312935  1
  Fe  Fe5  1  0.992809  0.996401  0.005932  1
  Fe  Fe6  1  0.341609  0.142854  0.590905  1
  O  O7  1  0.126690  0.954467  0.320955  1
  F  F8  1  0.046320  0.678473  0.920100  1
  F  F9  1  0.406836  0.820372  0.601221  1
  F  F10  1  0.183110  0.407359  0.562817  1
  F  F11  1  0.693721  0.882377  0.053770  1
  F  F12  1  0.394384  0.569231  0.190486  1
  F  F13  1  0.578378  0.398510  0.806517  1
  F  F14  1  0.291341  0.107495  0.918551  1
  F  F15  1  0.842902  0.600762  0.417717  1
  F  F16  1  0.571329  0.176910  0.399886  1
  F  F17  1  0.954987  0.317499  0.117487  1
  F  F18  1  0.882548  0.053695  0.694795  1
