# generated using pymatgen
data_TbNbO4
_symmetry_space_group_name_H-M   'P 1'
_cell_length_a   5.43704870
_cell_length_b   5.13460083
_cell_length_c   5.43788970
_cell_angle_alpha   89.92928848
_cell_angle_beta   90.00928966
_cell_angle_gamma   90.05682358
_symmetry_Int_Tables_number   1
_chemical_formula_structural   TbNbO4
_chemical_formula_sum   'Tb2 Nb2 O8'
_cell_volume   151.80978110
_cell_formula_units_Z   2
loop_
 _symmetry_equiv_pos_site_id
 _symmetry_equiv_pos_as_xyz
  1  'x, y, z'
loop_
 _atom_site_type_symbol
 _atom_site_label
 _atom_site_symmetry_multiplicity
 _atom_site_fract_x
 _atom_site_fract_y
 _atom_site_fract_z
 _atom_site_occupancy
  Tb  Tb0  1  0.257594  0.999787  0.750184  1
  Tb  Tb1  1  0.757706  0.999989  0.249736  1
  Nb  Nb2  1  0.258457  0.499980  0.249298  1
  Nb  Nb3  1  0.756896  0.500039  0.750645  1
  O  O4  1  0.068318  0.742418  0.061520  1
  O  O5  1  0.070185  0.257053  0.438117  1
  O  O6  1  0.446956  0.741591  0.438991  1
  O  O7  1  0.448724  0.258996  0.060694  1
  O  O8  1  0.569725  0.256764  0.561717  1
  O  O9  1  0.567780  0.742723  0.938492  1
  O  O10  1  0.946402  0.741326  0.561009  1
  O  O11  1  0.948142  0.259333  0.939268  1
