# generated using pymatgen
data_Li4Nb2Fe3Co3O16
_symmetry_space_group_name_H-M   'P 1'
_cell_length_a   5.87812183
_cell_length_b   5.88902884
_cell_length_c   9.60763127
_cell_angle_alpha   90.00328362
_cell_angle_beta   91.10529697
_cell_angle_gamma   120.06665918
_symmetry_Int_Tables_number   1
_chemical_formula_structural   Li4Nb2Fe3Co3O16
_chemical_formula_sum   'Li4 Nb2 Fe3 Co3 O16'
_cell_volume   287.75898068
_cell_formula_units_Z   1
loop_
 _symmetry_equiv_pos_site_id
 _symmetry_equiv_pos_as_xyz
  1  'x, y, z'
loop_
 _atom_site_type_symbol
 _atom_site_label
 _atom_site_symmetry_multiplicity
 _atom_site_fract_x
 _atom_site_fract_y
 _atom_site_fract_z
 _atom_site_occupancy
  Li  Li0  1  0.325094  0.662530  0.903390  1
  Li  Li1  1  0.012321  0.006223  0.994047  1
  Li  Li2  1  0.015647  0.007818  0.490769  1
  Li  Li3  1  0.658377  0.329253  0.396780  1
  Nb  Nb4  1  0.325842  0.662930  0.492807  1
  Nb  Nb5  1  0.662905  0.331463  0.998253  1
  Fe  Fe6  1  0.658334  0.829215  0.219757  1
  Fe  Fe7  1  0.827117  0.657590  0.718391  1
  Fe  Fe8  1  0.827065  0.169519  0.718379  1
  Co  Co9  1  0.172643  0.831126  0.214229  1
  Co  Co10  1  0.172631  0.341506  0.214219  1
  Co  Co11  1  0.342649  0.171341  0.714352  1
  O  O12  1  0.174615  0.840402  0.596294  1
  O  O13  1  0.040083  0.520014  0.330688  1
  O  O14  1  0.324362  0.662174  0.111460  1
  O  O15  1  0.012426  0.006214  0.304328  1
  O  O16  1  0.012086  0.006095  0.806114  1
  O  O17  1  0.174674  0.334258  0.596307  1
  O  O18  1  0.470528  0.962379  0.339452  1
  O  O19  1  0.470500  0.508189  0.339431  1
  O  O20  1  0.333677  0.166836  0.103671  1
  O  O21  1  0.671019  0.835510  0.584163  1
  O  O22  1  0.506616  0.471508  0.840128  1
  O  O23  1  0.506555  0.035087  0.840091  1
  O  O24  1  0.660292  0.330146  0.606846  1
  O  O25  1  0.840441  0.670452  0.093218  1
  O  O26  1  0.961136  0.480586  0.847072  1
  O  O27  1  0.840366  0.169941  0.093204  1
