# generated using pymatgen
data_Li3V4O11F
_symmetry_space_group_name_H-M   'P 1'
_cell_length_a   5.21776154
_cell_length_b   8.34440665
_cell_length_c   5.16222035
_cell_angle_alpha   83.90369296
_cell_angle_beta   100.94972719
_cell_angle_gamma   86.99051651
_symmetry_Int_Tables_number   1
_chemical_formula_structural   Li3V4O11F
_chemical_formula_sum   'Li3 V4 O11 F1'
_cell_volume   218.80991736
_cell_formula_units_Z   1
loop_
 _symmetry_equiv_pos_site_id
 _symmetry_equiv_pos_as_xyz
  1  'x, y, z'
loop_
 _atom_site_type_symbol
 _atom_site_label
 _atom_site_symmetry_multiplicity
 _atom_site_fract_x
 _atom_site_fract_y
 _atom_site_fract_z
 _atom_site_occupancy
  Li  Li0  1  0.377706  0.862361  0.861777  1
  Li  Li1  1  0.684026  0.787580  0.411465  1
  Li  Li2  1  0.914557  0.373808  0.352543  1
  V  V3  1  0.095342  0.977179  0.262996  1
  V  V4  1  0.308044  0.556635  0.172072  1
  V  V5  1  0.590695  0.451768  0.730962  1
  V  V6  1  0.816259  0.038230  0.697502  1
  O  O7  1  0.015548  0.510123  0.026512  1
  O  O8  1  0.012485  0.869798  0.616427  1
  O  O9  1  0.231937  0.061474  0.016509  1
  O  O10  1  0.295441  0.432122  0.507690  1
  O  O11  1  0.277988  0.756812  0.255068  1
  O  O12  1  0.476450  0.624934  0.892111  1
  O  O13  1  0.518017  0.987328  0.547202  1
  O  O14  1  0.749206  0.251246  0.761403  1
  O  O15  1  0.734657  0.554502  0.500332  1
  O  O16  1  0.795272  0.936526  0.051918  1
  O  O17  1  0.976495  0.142525  0.412602  1
  F  F18  1  0.537553  0.361732  0.122664  1
