# generated using pymatgen
data_Li14Fe2S9
_symmetry_space_group_name_H-M   'P 1'
_cell_length_a   7.05214581
_cell_length_b   7.08153319
_cell_length_c   9.85976443
_cell_angle_alpha   90.66956426
_cell_angle_beta   89.82933357
_cell_angle_gamma   120.34739457
_symmetry_Int_Tables_number   1
_chemical_formula_structural   Li14Fe2S9
_chemical_formula_sum   'Li14 Fe2 S9'
_cell_volume   424.89600416
_cell_formula_units_Z   1
loop_
 _symmetry_equiv_pos_site_id
 _symmetry_equiv_pos_as_xyz
  1  'x, y, z'
loop_
 _atom_site_type_symbol
 _atom_site_label
 _atom_site_symmetry_multiplicity
 _atom_site_fract_x
 _atom_site_fract_y
 _atom_site_fract_z
 _atom_site_occupancy
  Li  Li0  1  0.017520  0.671837  0.909240  1
  Li  Li1  1  0.325542  0.964086  0.590936  1
  Li  Li2  1  0.037084  0.363044  0.591966  1
  Li  Li3  1  0.999320  0.999103  0.250797  1
  Li  Li4  1  0.000740  0.000971  0.748986  1
  Li  Li5  1  0.327989  0.346040  0.909759  1
  Li  Li6  1  0.654101  0.979082  0.910947  1
  Li  Li7  1  0.363714  0.321817  0.410220  1
  Li  Li8  1  0.636562  0.677524  0.590501  1
  Li  Li9  1  0.346075  0.022016  0.088374  1
  Li  Li10  1  0.673127  0.653623  0.089464  1
  Li  Li11  1  0.961707  0.636822  0.408892  1
  Li  Li12  1  0.675454  0.037150  0.409893  1
  Li  Li13  1  0.980973  0.326945  0.089980  1
  Fe  Fe14  1  0.332824  0.665385  0.255622  1
  Fe  Fe15  1  0.667234  0.334510  0.744459  1
  S  S16  1  0.310746  0.967508  0.336669  1
  S  S17  1  0.033018  0.341489  0.338515  1
  S  S18  1  0.332708  0.666697  0.018109  1
  S  S19  1  0.999967  0.999990  -0.000014  1
  S  S20  1  0.343959  0.311886  0.662338  1
  S  S21  1  0.656819  0.688259  0.337768  1
  S  S22  1  0.667243  0.333235  0.981427  1
  S  S23  1  0.966172  0.657740  0.661646  1
  S  S24  1  0.689202  0.033242  0.663507  1
