# generated using pymatgen
data_Rb2Ga2Ge3O10
_symmetry_space_group_name_H-M   'P 1'
_cell_length_a   6.84169591
_cell_length_b   9.55747460
_cell_length_c   10.08926125
_cell_angle_alpha   95.91180517
_cell_angle_beta   109.81951513
_cell_angle_gamma   69.02725062
_symmetry_Int_Tables_number   1
_chemical_formula_structural   Rb2Ga2Ge3O10
_chemical_formula_sum   'Rb4 Ga4 Ge6 O20'
_cell_volume   579.40693880
_cell_formula_units_Z   2
loop_
 _symmetry_equiv_pos_site_id
 _symmetry_equiv_pos_as_xyz
  1  'x, y, z'
loop_
 _atom_site_type_symbol
 _atom_site_label
 _atom_site_symmetry_multiplicity
 _atom_site_fract_x
 _atom_site_fract_y
 _atom_site_fract_z
 _atom_site_occupancy
  Rb  Rb0  1  0.042461  0.381834  0.165351  1
  Rb  Rb1  1  0.634848  0.098491  0.623087  1
  Rb  Rb2  1  0.110251  0.901509  0.376913  1
  Rb  Rb3  1  0.258944  0.618166  0.834649  1
  Ga  Ga4  1  0.567474  0.474831  0.259615  1
  Ga  Ga5  1  0.237592  0.070027  0.806989  1
  Ga  Ga6  1  0.500631  0.929973  0.193011  1
  Ga  Ga7  1  0.782691  0.525169  0.740385  1
  Ge  Ge8  1  0.997753  1.000000  0.000000  1
  Ge  Ge9  1  0.555594  0.195690  0.061587  1
  Ge  Ge10  1  0.026821  0.290624  0.552832  1
  Ge  Ge11  1  0.488766  0.500000  0.500000  1
  Ge  Ge12  1  0.764614  0.709376  0.447168  1
  Ge  Ge13  1  0.689695  0.804310  0.938413  1
  O  O14  1  0.852891  0.116256  0.112650  1
  O  O15  1  0.448288  0.134795  0.171529  1
  O  O16  1  0.503866  0.392045  0.088697  1
  O  O17  1  0.714285  0.353862  0.441332  1
  O  O18  1  0.084149  0.107086  0.615864  1
  O  O19  1  0.176457  0.291379  0.449689  1
  O  O20  1  0.317615  0.550901  0.327210  1
  O  O21  1  0.723198  0.599978  0.290331  1
  O  O22  1  0.729580  0.835099  0.118218  1
  O  O23  1  0.015775  0.120635  0.888663  1
  O  O24  1  0.247748  0.879365  0.111337  1
  O  O25  1  0.446460  0.164901  0.881782  1
  O  O26  1  0.032843  0.400022  0.709669  1
  O  O27  1  0.541305  0.449099  0.672790  1
  O  O28  1  0.018147  0.708621  0.550311  1
  O  O29  1  0.575369  0.892914  0.384136  1
  O  O30  1  0.626814  0.646138  0.558668  1
  O  O31  1  0.807214  0.607955  0.911303  1
  O  O32  1  0.411555  0.865205  0.828471  1
  O  O33  1  0.856497  0.883744  0.887350  1
