# generated using pymatgen
data_MnH6(OF)3
_symmetry_space_group_name_H-M   'P 1'
_cell_length_a   8.58239979
_cell_length_b   9.60012920
_cell_length_c   6.52924352
_cell_angle_alpha   90.00000000
_cell_angle_beta   101.19691509
_cell_angle_gamma   90.00000000
_symmetry_Int_Tables_number   1
_chemical_formula_structural   MnH6(OF)3
_chemical_formula_sum   'Mn4 H24 O12 F12'
_cell_volume   527.71868235
_cell_formula_units_Z   4
loop_
 _symmetry_equiv_pos_site_id
 _symmetry_equiv_pos_as_xyz
  1  'x, y, z'
loop_
 _atom_site_type_symbol
 _atom_site_label
 _atom_site_symmetry_multiplicity
 _atom_site_fract_x
 _atom_site_fract_y
 _atom_site_fract_z
 _atom_site_occupancy
  Mn  Mn0  1  0.000000  0.500000  0.000000  1
  Mn  Mn1  1  0.500000  0.000000  0.000000  1
  Mn  Mn2  1  0.500000  0.500000  0.500000  1
  Mn  Mn3  1  0.000000  0.000000  0.500000  1
  H  H4  1  0.043288  0.253264  0.233876  1
  H  H5  1  0.456712  0.753264  0.766124  1
  H  H6  1  0.956712  0.746736  0.766124  1
  H  H7  1  0.543288  0.246736  0.233876  1
  H  H8  1  0.215393  0.317918  0.236436  1
  H  H9  1  0.284607  0.817918  0.763564  1
  H  H10  1  0.784607  0.682082  0.763564  1
  H  H11  1  0.715393  0.182082  0.236436  1
  H  H12  1  0.640365  0.400119  0.871830  1
  H  H13  1  0.859635  0.900119  0.128170  1
  H  H14  1  0.359635  0.599881  0.128170  1
  H  H15  1  0.140365  0.099881  0.871830  1
  H  H16  1  0.525843  0.277208  0.753858  1
  H  H17  1  0.974157  0.777208  0.246142  1
  H  H18  1  0.474157  0.722792  0.246142  1
  H  H19  1  0.025843  0.222792  0.753858  1
  H  H20  1  0.758411  0.466441  0.294700  1
  H  H21  1  0.741589  0.966441  0.705300  1
  H  H22  1  0.241589  0.533559  0.705300  1
  H  H23  1  0.258411  0.033559  0.294700  1
  H  H24  1  0.825499  0.436150  0.539991  1
  H  H25  1  0.674501  0.936150  0.460009  1
  H  H26  1  0.174501  0.563850  0.460009  1
  H  H27  1  0.325499  0.063850  0.539991  1
  O  O28  1  0.105292  0.313236  0.156500  1
  O  O29  1  0.394708  0.813236  0.843500  1
  O  O30  1  0.894708  0.686764  0.843500  1
  O  O31  1  0.605292  0.186764  0.156500  1
  O  O32  1  0.545802  0.378946  0.760072  1
  O  O33  1  0.954198  0.878946  0.239928  1
  O  O34  1  0.454198  0.621054  0.239928  1
  O  O35  1  0.045802  0.121054  0.760072  1
  O  O36  1  0.728673  0.450911  0.431517  1
  O  O37  1  0.771327  0.950911  0.568483  1
  O  O38  1  0.271327  0.549089  0.568483  1
  O  O39  1  0.228673  0.049089  0.431517  1
  F  F40  1  0.794129  0.451182  0.042286  1
  F  F41  1  0.705871  0.951182  0.957714  1
  F  F42  1  0.205871  0.548818  0.957714  1
  F  F43  1  0.294129  0.048818  0.042286  1
  F  F44  1  0.033326  0.603423  0.255874  1
  F  F45  1  0.466674  0.103423  0.744126  1
  F  F46  1  0.966674  0.396577  0.744126  1
  F  F47  1  0.533326  0.896577  0.255874  1
  F  F48  1  0.413365  0.347719  0.341185  1
  F  F49  1  0.086635  0.847719  0.658815  1
  F  F50  1  0.586635  0.652281  0.658815  1
  F  F51  1  0.913365  0.152281  0.341185  1
