# generated using pymatgen
data_Hf2N2O
_symmetry_space_group_name_H-M   'P 1'
_cell_length_a   8.72722000
_cell_length_b   8.73237893
_cell_length_c   8.74160676
_cell_angle_alpha   109.53243300
_cell_angle_beta   109.48689259
_cell_angle_gamma   109.43804655
_symmetry_Int_Tables_number   1
_chemical_formula_structural   Hf2N2O
_chemical_formula_sum   'Hf16 N16 O8'
_cell_volume   512.55816096
_cell_formula_units_Z   8
loop_
 _symmetry_equiv_pos_site_id
 _symmetry_equiv_pos_as_xyz
  1  'x, y, z'
loop_
 _atom_site_type_symbol
 _atom_site_label
 _atom_site_symmetry_multiplicity
 _atom_site_fract_x
 _atom_site_fract_y
 _atom_site_fract_z
 _atom_site_occupancy
  Hf  Hf0  1  0.960718  0.248558  0.219229  1
  Hf  Hf1  1  0.506850  0.005369  0.996212  1
  Hf  Hf2  1  0.780136  0.032193  0.752924  1
  Hf  Hf3  1  0.714961  0.466218  0.251297  1
  Hf  Hf4  1  0.755680  0.294434  0.538102  1
  Hf  Hf5  1  0.749539  0.778686  0.031384  1
  Hf  Hf6  1  0.996669  0.503923  0.987275  1
  Hf  Hf7  1  0.007206  0.996605  0.507795  1
  Hf  Hf8  1  0.502837  0.508489  0.513199  1
  Hf  Hf9  1  0.464811  0.249421  0.720887  1
  Hf  Hf10  1  0.536844  0.750342  0.289576  1
  Hf  Hf11  1  0.256441  0.716730  0.468980  1
  Hf  Hf12  1  0.246198  0.213358  0.954182  1
  Hf  Hf13  1  0.281319  0.533348  0.741673  1
  Hf  Hf14  1  0.214923  0.953518  0.249738  1
  Hf  Hf15  1  0.031931  0.746943  0.779040  1
  N  N16  1  0.742268  0.224764  0.275267  1
  N  N17  1  0.770838  0.726249  0.259791  1
  N  N18  1  0.726580  0.257887  0.770461  1
  N  N19  1  0.768269  0.543405  0.531213  1
  N  N20  1  0.225579  0.451265  0.462035  1
  N  N21  1  0.508155  0.238711  0.969497  1
  N  N22  1  0.273710  0.736066  0.223072  1
  N  N23  1  0.989915  0.959257  0.730872  1
  N  N24  1  0.958917  0.731876  0.993056  1
  N  N25  1  0.545295  0.533963  0.772519  1
  N  N26  1  0.223002  0.272874  0.739394  1
  N  N27  1  0.536267  0.771727  0.542758  1
  N  N28  1  0.032705  0.486794  0.760110  1
  N  N29  1  0.729757  0.988122  0.956475  1
  N  N30  1  0.263886  0.776989  0.730455  1
  N  N31  1  0.236409  0.966502  0.507357  1
  O  O32  1  0.756588  0.030942  0.481865  1
  O  O33  1  0.963582  0.507070  0.235838  1
  O  O34  1  0.277143  0.016115  0.053010  1
  O  O35  1  0.461900  0.225616  0.447814  1
  O  O36  1  0.449663  0.464618  0.224719  1
  O  O37  1  0.051924  0.279465  0.019786  1
  O  O38  1  0.012797  0.048330  0.274909  1
  O  O39  1  0.487785  0.763260  0.036231  1
