# generated using pymatgen
data_Li5MnCr3O8
_symmetry_space_group_name_H-M   'P 1'
_cell_length_a   6.01291054
_cell_length_b   5.99103194
_cell_length_c   9.94109562
_cell_angle_alpha   89.99985189
_cell_angle_beta   89.99999639
_cell_angle_gamma   60.12034005
_symmetry_Int_Tables_number   1
_chemical_formula_structural   Li5MnCr3O8
_chemical_formula_sum   'Li10 Mn2 Cr6 O16'
_cell_volume   310.51073656
_cell_formula_units_Z   2
loop_
 _symmetry_equiv_pos_site_id
 _symmetry_equiv_pos_as_xyz
  1  'x, y, z'
loop_
 _atom_site_type_symbol
 _atom_site_label
 _atom_site_symmetry_multiplicity
 _atom_site_fract_x
 _atom_site_fract_y
 _atom_site_fract_z
 _atom_site_occupancy
  Li  Li0  1  0.803387  0.388402  0.562940  1
  Li  Li1  1  0.663970  0.668017  0.775581  1
  Li  Li2  1  0.401879  0.799063  0.558800  1
  Li  Li3  1  0.803379  0.808222  0.562939  1
  Li  Li4  1  0.007513  0.996249  0.484270  1
  Li  Li5  1  0.598123  0.200950  0.058795  1
  Li  Li6  1  0.336051  0.331984  0.275584  1
  Li  Li7  1  0.196633  0.191773  0.062947  1
  Li  Li8  1  0.992504  0.003749  0.984273  1
  Li  Li9  1  0.196631  0.611611  0.062946  1
  Mn  Mn10  1  0.333284  0.333359  0.524514  1
  Mn  Mn11  1  0.666736  0.666640  0.024515  1
  Cr  Cr12  1  0.658930  0.170544  0.785411  1
  Cr  Cr13  1  0.836898  0.332877  0.285739  1
  Cr  Cr14  1  0.163126  0.169765  0.785745  1
  Cr  Cr15  1  0.836893  0.830236  0.285742  1
  Cr  Cr16  1  0.163127  0.667120  0.785738  1
  Cr  Cr17  1  0.341084  0.829466  0.285404  1
  O  O18  1  0.835256  0.321277  0.899337  1
  O  O19  1  0.688194  0.155908  0.401354  1
  O  O20  1  0.489632  0.013464  0.670540  1
  O  O21  1  0.991030  0.504492  0.170242  1
  O  O22  1  0.993634  0.003188  0.674291  1
  O  O23  1  0.328739  0.335636  0.900063  1
  O  O24  1  0.835260  0.843471  0.899334  1
  O  O25  1  0.489635  0.496909  0.670537  1
  O  O26  1  0.006400  0.996808  0.174287  1
  O  O27  1  0.164771  0.156520  0.399332  1
  O  O28  1  0.671296  0.664359  0.400062  1
  O  O29  1  0.510391  0.503088  0.170535  1
  O  O30  1  0.008997  0.495505  0.670242  1
  O  O31  1  0.510394  0.986538  0.170535  1
  O  O32  1  0.311829  0.844089  0.901363  1
  O  O33  1  0.164773  0.678719  0.399330  1
