# generated using pymatgen
data_Mn6O5F7
_symmetry_space_group_name_H-M   'P 1'
_cell_length_a   4.70102613
_cell_length_b   5.71429816
_cell_length_c   15.62877234
_cell_angle_alpha   89.33083054
_cell_angle_beta   89.60923525
_cell_angle_gamma   90.05582057
_symmetry_Int_Tables_number   1
_chemical_formula_structural   Mn6O5F7
_chemical_formula_sum   'Mn12 O10 F14'
_cell_volume   419.79809674
_cell_formula_units_Z   2
loop_
 _symmetry_equiv_pos_site_id
 _symmetry_equiv_pos_as_xyz
  1  'x, y, z'
loop_
 _atom_site_type_symbol
 _atom_site_label
 _atom_site_symmetry_multiplicity
 _atom_site_fract_x
 _atom_site_fract_y
 _atom_site_fract_z
 _atom_site_occupancy
  Mn  Mn0  1  0.001499  0.155036  0.410498  1
  Mn  Mn1  1  0.987478  0.844883  0.246429  1
  Mn  Mn2  1  0.001019  0.170107  0.071456  1
  Mn  Mn3  1  0.049247  0.157492  0.749645  1
  Mn  Mn4  1  0.046105  0.839610  0.583312  1
  Mn  Mn5  1  0.027478  0.861764  0.911820  1
  Mn  Mn6  1  0.491006  0.339048  0.591278  1
  Mn  Mn7  1  0.493181  0.345318  0.917724  1
  Mn  Mn8  1  0.503785  0.341440  0.259630  1
  Mn  Mn9  1  0.531975  0.634913  0.089071  1
  Mn  Mn10  1  0.484532  0.657999  0.419110  1
  Mn  Mn11  1  0.480534  0.653101  0.751148  1
  O  O12  1  0.202609  0.113129  0.301623  1
  O  O13  1  0.236486  0.106583  0.641776  1
  O  O14  1  0.218995  0.121400  0.967094  1
  O  O15  1  0.223350  0.893287  0.467622  1
  O  O16  1  0.228545  0.895758  0.805725  1
  O  O17  1  0.292239  0.597171  0.644460  1
  O  O18  1  0.290957  0.398940  0.810409  1
  O  O19  1  0.715984  0.374074  0.024352  1
  O  O20  1  0.723866  0.605389  0.199813  1
  O  O21  1  0.700431  0.387393  0.366990  1
  F  F22  1  0.234442  0.886676  0.130370  1
  F  F23  1  0.268533  0.372567  0.150018  1
  F  F24  1  0.232300  0.617394  0.309020  1
  F  F25  1  0.249829  0.406068  0.477511  1
  F  F26  1  0.270433  0.618780  0.983049  1
  F  F27  1  0.738190  0.607830  0.533730  1
  F  F28  1  0.730941  0.633758  0.861728  1
  F  F29  1  0.770460  0.378106  0.699195  1
  F  F30  1  0.764722  0.100806  0.180854  1
  F  F31  1  0.764920  0.120029  0.526845  1
  F  F32  1  0.730001  0.886374  0.357275  1
  F  F33  1  0.774733  0.873770  0.015597  1
  F  F34  1  0.775833  0.133194  0.850283  1
  F  F35  1  0.763362  0.870814  0.693542  1
