# generated using pymatgen
data_MnV3Sb2(PO4)6
_symmetry_space_group_name_H-M   'P 1'
_cell_length_a   8.88241039
_cell_length_b   8.73675730
_cell_length_c   8.73675675
_cell_angle_alpha   60.00000308
_cell_angle_beta   60.54097005
_cell_angle_gamma   60.54097064
_symmetry_Int_Tables_number   1
_chemical_formula_structural   MnV3Sb2(PO4)6
_chemical_formula_sum   'Mn1 V3 Sb2 P6 O24'
_cell_volume   483.30301929
_cell_formula_units_Z   1
loop_
 _symmetry_equiv_pos_site_id
 _symmetry_equiv_pos_as_xyz
  1  'x, y, z'
loop_
 _atom_site_type_symbol
 _atom_site_label
 _atom_site_symmetry_multiplicity
 _atom_site_fract_x
 _atom_site_fract_y
 _atom_site_fract_z
 _atom_site_occupancy
  Mn  Mn0  1  0.550073  0.149976  0.149976  1
  V  V1  1  0.055433  0.648189  0.648189  1
  V  V2  1  0.436544  0.854485  0.854485  1
  V  V3  1  0.941842  0.352719  0.352719  1
  Sb  Sb4  1  0.986160  0.004614  0.004614  1
  Sb  Sb5  1  0.492160  0.502614  0.502614  1
  P  P6  1  0.249265  0.249691  0.544095  1
  P  P7  1  0.249265  0.956949  0.249691  1
  P  P8  1  0.249265  0.544095  0.956949  1
  P  P9  1  0.752445  0.462594  0.038946  1
  P  P10  1  0.752445  0.038946  0.746014  1
  P  P11  1  0.752445  0.746014  0.462594  1
  O  O12  1  0.074514  0.115908  0.301731  1
  O  O13  1  0.074514  0.507849  0.115908  1
  O  O14  1  0.074514  0.301731  0.507849  1
  O  O15  1  0.241693  0.086552  0.737188  1
  O  O16  1  0.427628  0.202730  0.393972  1
  O  O17  1  0.245757  0.420137  0.570031  1
  O  O18  1  0.241693  0.934567  0.086552  1
  O  O19  1  0.245757  0.764075  0.420137  1
  O  O20  1  0.577529  0.616459  0.005684  1
  O  O21  1  0.245757  0.570031  0.764075  1
  O  O22  1  0.768740  0.269979  0.053068  1
  O  O23  1  0.577529  0.005684  0.800328  1
  O  O24  1  0.427628  0.975670  0.202730  1
  O  O25  1  0.241693  0.737188  0.934567  1
  O  O26  1  0.747444  0.440905  0.231260  1
  O  O27  1  0.427628  0.393972  0.975670  1
  O  O28  1  0.747444  0.231260  0.580391  1
  O  O29  1  0.768740  0.053068  0.908212  1
  O  O30  1  0.747444  0.580391  0.440905  1
  O  O31  1  0.577529  0.800328  0.616459  1
  O  O32  1  0.768740  0.908212  0.269979  1
  O  O33  1  0.927581  0.685606  0.503656  1
  O  O34  1  0.927581  0.503656  0.883157  1
  O  O35  1  0.927581  0.883157  0.685606  1
