# generated using pymatgen
data_Li8Mn3Fe5(BO3)8
_symmetry_space_group_name_H-M   'P 1'
_cell_length_a   6.02856350
_cell_length_b   5.22858558
_cell_length_c   16.20040504
_cell_angle_alpha   90.82002739
_cell_angle_beta   98.38560665
_cell_angle_gamma   88.92713585
_symmetry_Int_Tables_number   1
_chemical_formula_structural   Li8Mn3Fe5(BO3)8
_chemical_formula_sum   'Li8 Mn3 Fe5 B8 O24'
_cell_volume   505.06814999
_cell_formula_units_Z   1
loop_
 _symmetry_equiv_pos_site_id
 _symmetry_equiv_pos_as_xyz
  1  'x, y, z'
loop_
 _atom_site_type_symbol
 _atom_site_label
 _atom_site_symmetry_multiplicity
 _atom_site_fract_x
 _atom_site_fract_y
 _atom_site_fract_z
 _atom_site_occupancy
  Li  Li0  1  0.063078  0.847977  0.609389  1
  Li  Li1  1  0.433925  0.152190  0.890260  1
  Li  Li2  1  0.187836  0.652554  0.143042  1
  Li  Li3  1  0.314655  0.347865  0.359128  1
  Li  Li4  1  0.686122  0.652196  0.639814  1
  Li  Li5  1  0.813415  0.347621  0.858439  1
  Li  Li6  1  0.567014  0.846561  0.111123  1
  Li  Li7  1  0.934487  0.150368  0.389719  1
  Mn  Mn8  1  0.274288  0.670042  0.958903  1
  Mn  Mn9  1  0.519513  0.168881  0.708672  1
  Mn  Mn10  1  0.724778  0.329659  0.040503  1
  Fe  Fe11  1  0.028945  0.166277  0.208278  1
  Fe  Fe12  1  0.222270  0.331179  0.537643  1
  Fe  Fe13  1  0.475737  0.834294  0.293132  1
  Fe  Fe14  1  0.775398  0.664014  0.460613  1
  Fe  Fe15  1  0.972515  0.838398  0.790754  1
  B  B16  1  0.036255  0.331107  0.701979  1
  B  B17  1  0.287997  0.829722  0.453608  1
  B  B18  1  0.462272  0.671194  0.796709  1
  B  B19  1  0.215500  0.167660  0.049066  1
  B  B20  1  0.785207  0.830341  0.950950  1
  B  B21  1  0.539536  0.329127  0.204098  1
  B  B22  1  0.712091  0.171835  0.545729  1
  B  B23  1  0.962470  0.668889  0.298056  1
  O  O24  1  0.012101  0.591770  0.691160  1
  O  O25  1  0.165761  0.185519  0.652801  1
  O  O26  1  0.175633  0.709118  0.510940  1
  O  O27  1  0.329198  0.287336  0.991904  1
  O  O28  1  0.077544  0.794280  0.242167  1
  O  O29  1  0.327635  0.821337  0.842828  1
  O  O30  1  0.082578  0.316500  0.096895  1
  O  O31  1  0.264051  0.092532  0.442181  1
  O  O32  1  0.485202  0.410399  0.810693  1
  O  O33  1  0.236770  0.906993  0.061558  1
  O  O34  1  0.419338  0.685831  0.404596  1
  O  O35  1  0.423079  0.204158  0.259779  1
  O  O36  1  0.580299  0.787306  0.740097  1
  O  O37  1  0.579712  0.317083  0.593420  1
  O  O38  1  0.764246  0.091276  0.938277  1
  O  O39  1  0.514120  0.589602  0.192194  1
  O  O40  1  0.736984  0.910440  0.556807  1
  O  O41  1  0.917783  0.680949  0.903365  1
  O  O42  1  0.672962  0.181608  0.156487  1
  O  O43  1  0.925163  0.206694  0.759483  1
  O  O44  1  0.670269  0.712503  0.008200  1
  O  O45  1  0.826879  0.294260  0.488688  1
  O  O46  1  0.829339  0.814837  0.346287  1
  O  O47  1  0.988050  0.407722  0.309591  1
