# generated using pymatgen
data_Li3Fe4(BO3)4
_symmetry_space_group_name_H-M   'P 1'
_cell_length_a   5.24167169
_cell_length_b   9.10279148
_cell_length_c   11.39611354
_cell_angle_alpha   67.47200308
_cell_angle_beta   77.29643747
_cell_angle_gamma   90.17553912
_symmetry_Int_Tables_number   1
_chemical_formula_structural   Li3Fe4(BO3)4
_chemical_formula_sum   'Li6 Fe8 B8 O24'
_cell_volume   487.65920758
_cell_formula_units_Z   2
loop_
 _symmetry_equiv_pos_site_id
 _symmetry_equiv_pos_as_xyz
  1  'x, y, z'
loop_
 _atom_site_type_symbol
 _atom_site_label
 _atom_site_symmetry_multiplicity
 _atom_site_fract_x
 _atom_site_fract_y
 _atom_site_fract_z
 _atom_site_occupancy
  Li  Li0  1  0.970981  0.959752  0.406282  1
  Li  Li1  1  0.698530  0.717704  0.912263  1
  Li  Li2  1  0.510737  0.490544  0.666946  1
  Li  Li3  1  0.729876  0.750848  0.169827  1
  Li  Li4  1  0.019240  0.994108  0.664140  1
  Li  Li5  1  0.232075  0.255823  0.160232  1
  Fe  Fe6  1  0.991075  0.641906  0.379481  1
  Fe  Fe7  1  0.731878  0.075029  0.879896  1
  Fe  Fe8  1  0.521414  0.839444  0.632699  1
  Fe  Fe9  1  0.749841  0.436207  0.131927  1
  Fe  Fe10  1  0.224277  0.548676  0.885574  1
  Fe  Fe11  1  0.480348  0.149003  0.384525  1
  Fe  Fe12  1  0.037517  0.349706  0.628303  1
  Fe  Fe13  1  0.251378  0.940451  0.125678  1
  B  B14  1  0.979330  0.307002  0.379900  1
  B  B15  1  0.728330  0.400109  0.875134  1
  B  B16  1  0.525363  0.183715  0.631451  1
  B  B17  1  0.761056  0.103862  0.130255  1
  B  B18  1  0.481361  0.824343  0.371303  1
  B  B19  1  0.238956  0.895693  0.875852  1
  B  B20  1  0.022791  0.685760  0.624848  1
  B  B21  1  0.266196  0.604535  0.125913  1
  O  O22  1  0.978455  0.912595  0.863748  1
  O  O23  1  0.879819  0.285772  0.845484  1
  O  O24  1  0.831719  0.504806  0.920056  1
  O  O25  1  0.915276  0.829628  0.613054  1
  O  O26  1  0.896269  0.572971  0.596833  1
  O  O27  1  0.755609  0.145298  0.677870  1
  O  O28  1  0.741927  0.319410  0.341322  1
  O  O29  1  0.480510  0.407046  0.857740  1
  O  O30  1  0.377751  0.782062  0.842696  1
  O  O31  1  0.578107  0.934079  0.416983  1
  O  O32  1  0.634099  0.712391  0.352583  1
  O  O33  1  0.362543  0.993605  0.918615  1
  O  O34  1  0.664594  0.001176  0.079822  1
  O  O35  1  0.408093  0.315586  0.630893  1
  O  O36  1  0.417949  0.078739  0.585154  1
  O  O37  1  0.588561  0.201206  0.173338  1
  O  O38  1  0.537178  0.624152  0.109320  1
  O  O39  1  0.259113  0.657133  0.662548  1
  O  O40  1  0.234222  0.842410  0.343678  1
  O  O41  1  0.064214  0.410142  0.426287  1
  O  O42  1  0.125088  0.182030  0.368057  1
  O  O43  1  0.157524  0.482166  0.101087  1
  O  O44  1  0.106743  0.708743  0.162803  1
  O  O45  1  0.014236  0.104779  0.141032  1
