# generated using pymatgen
data_Li9(NbS2)14
_symmetry_space_group_name_H-M   'P 1'
_cell_length_a   5.85019997
_cell_length_b   12.18916617
_cell_length_c   13.38202269
_cell_angle_alpha   75.81040327
_cell_angle_beta   89.97244312
_cell_angle_gamma   103.84882369
_symmetry_Int_Tables_number   1
_chemical_formula_structural   Li9(NbS2)14
_chemical_formula_sum   'Li9 Nb14 S28'
_cell_volume   896.47599563
_cell_formula_units_Z   1
loop_
 _symmetry_equiv_pos_site_id
 _symmetry_equiv_pos_as_xyz
  1  'x, y, z'
loop_
 _atom_site_type_symbol
 _atom_site_label
 _atom_site_symmetry_multiplicity
 _atom_site_fract_x
 _atom_site_fract_y
 _atom_site_fract_z
 _atom_site_occupancy
  Li  Li0  1  0.000157  0.000140  0.999973  1
  Li  Li1  1  0.498894  0.997988  0.499993  1
  Li  Li2  1  0.142652  0.285575  0.000028  1
  Li  Li3  1  0.071412  0.142858  0.500000  1
  Li  Li4  1  0.643930  0.287736  0.500000  1
  Li  Li5  1  0.285648  0.571351  0.999925  1
  Li  Li6  1  0.857173  0.714374  0.000081  1
  Li  Li7  1  0.785871  0.571553  0.499932  1
  Li  Li8  1  0.356951  0.714169  0.500069  1
  Nb  Nb9  1  0.536780  0.071353  0.248991  1
  Nb  Nb10  1  0.035527  0.071147  0.750097  1
  Nb  Nb11  1  0.107356  0.214537  0.249882  1
  Nb  Nb12  1  0.679138  0.357357  0.249116  1
  Nb  Nb13  1  0.606068  0.214380  0.750991  1
  Nb  Nb14  1  0.180518  0.357283  0.749436  1
  Nb  Nb15  1  0.250320  0.499840  0.250604  1
  Nb  Nb16  1  0.821392  0.642734  0.249994  1
  Nb  Nb17  1  0.748564  0.499292  0.750751  1
  Nb  Nb18  1  0.321456  0.642971  0.750025  1
  Nb  Nb19  1  0.394279  0.786414  0.249275  1
  Nb  Nb20  1  0.962264  0.928430  0.250568  1
  Nb  Nb21  1  0.892544  0.785856  0.749441  1
  Nb  Nb22  1  0.463701  0.928361  0.750832  1
  S  S23  1  0.220182  0.105762  0.129100  1
  S  S24  1  0.184767  0.036414  0.370969  1
  S  S25  1  0.790085  0.248624  0.129405  1
  S  S26  1  0.756016  0.179545  0.371666  1
  S  S27  1  0.386924  0.106224  0.628292  1
  S  S28  1  0.352803  0.037077  0.870553  1
  S  S29  1  0.363519  0.391853  0.128906  1
  S  S30  1  0.328192  0.322959  0.371166  1
  S  S31  1  0.922684  0.179927  0.870859  1
  S  S32  1  0.958123  0.249267  0.629037  1
  S  S33  1  0.933749  0.534122  0.128795  1
  S  S34  1  0.495419  0.322564  0.870873  1
  S  S35  1  0.900225  0.465299  0.371004  1
  S  S36  1  0.528900  0.391951  0.628739  1
  S  S37  1  0.505191  0.677872  0.128870  1
  S  S38  1  0.469961  0.607902  0.371070  1
  S  S39  1  0.100827  0.534162  0.629096  1
  S  S40  1  0.065110  0.465296  0.870885  1
  S  S41  1  0.077632  0.820384  0.129125  1
  S  S42  1  0.637717  0.607870  0.871116  1
  S  S43  1  0.672952  0.677807  0.628941  1
  S  S44  1  0.042036  0.751556  0.370911  1
  S  S45  1  0.647324  0.963128  0.129138  1
  S  S46  1  0.613916  0.893826  0.371329  1
  S  S47  1  0.242480  0.820323  0.628997  1
  S  S48  1  0.209199  0.751628  0.871195  1
  S  S49  1  0.814670  0.962670  0.628839  1
  S  S50  1  0.779256  0.893907  0.871122  1
