# generated using pymatgen
data_Li8VFe7(PO4)12
_symmetry_space_group_name_H-M   'P 1'
_cell_length_a   8.65158127
_cell_length_b   8.76392512
_cell_length_c   12.17788571
_cell_angle_alpha   90.18943784
_cell_angle_beta   90.05692498
_cell_angle_gamma   90.04113193
_symmetry_Int_Tables_number   1
_chemical_formula_structural   Li8VFe7(PO4)12
_chemical_formula_sum   'Li8 V1 Fe7 P12 O48'
_cell_volume   923.34359901
_cell_formula_units_Z   1
loop_
 _symmetry_equiv_pos_site_id
 _symmetry_equiv_pos_as_xyz
  1  'x, y, z'
loop_
 _atom_site_type_symbol
 _atom_site_label
 _atom_site_symmetry_multiplicity
 _atom_site_fract_x
 _atom_site_fract_y
 _atom_site_fract_z
 _atom_site_occupancy
  Li  Li0  1  0.217207  0.722463  0.181366  1
  Li  Li1  1  0.218183  0.777214  0.818292  1
  Li  Li2  1  0.282308  0.222779  0.319598  1
  Li  Li3  1  0.282804  0.278003  0.681929  1
  Li  Li4  1  0.716531  0.724877  0.317383  1
  Li  Li5  1  0.715244  0.781886  0.681238  1
  Li  Li6  1  0.784082  0.222149  0.181566  1
  Li  Li7  1  0.784296  0.277946  0.820472  1
  V  V8  1  0.753894  0.461543  0.610604  1
  Fe  Fe9  1  0.247888  0.959704  0.613581  1
  Fe  Fe10  1  0.249004  0.541940  0.386673  1
  Fe  Fe11  1  0.251125  0.041008  0.113048  1
  Fe  Fe12  1  0.251229  0.458667  0.887253  1
  Fe  Fe13  1  0.749955  0.541134  0.111133  1
  Fe  Fe14  1  0.748450  0.960753  0.887946  1
  Fe  Fe15  1  0.750521  0.037321  0.386902  1
  P  P16  1  0.039615  0.248654  0.498594  1
  P  P17  1  0.105326  0.393154  0.147243  1
  P  P18  1  0.105885  0.106576  0.852697  1
  P  P19  1  0.395909  0.603779  0.646144  1
  P  P20  1  0.394021  0.893472  0.353487  1
  P  P21  1  0.460851  0.749802  0.000323  1
  P  P22  1  0.539773  0.250501  0.000595  1
  P  P23  1  0.605614  0.392804  0.353346  1
  P  P24  1  0.604579  0.108926  0.644739  1
  P  P25  1  0.894836  0.607579  0.850087  1
  P  P26  1  0.894611  0.892816  0.147103  1
  P  P27  1  0.960844  0.747973  0.499277  1
  O  O28  1  0.054864  0.638399  0.430339  1
  O  O29  1  0.052554  0.853045  0.575328  1
  O  O30  1  0.073354  0.894978  0.156271  1
  O  O31  1  0.072512  0.603719  0.840735  1
  O  O32  1  0.140953  0.166574  0.584128  1
  O  O33  1  0.145074  0.340220  0.421981  1
  O  O34  1  0.154884  0.433729  0.030110  1
  O  O35  1  0.155956  0.066718  0.969719  1
  O  O36  1  0.162179  0.232493  0.180726  1
  O  O37  1  0.162226  0.267908  0.819469  1
  O  O38  1  0.174578  0.514736  0.225711  1
  O  O39  1  0.174738  0.984764  0.774037  1
  O  O40  1  0.325650  0.014956  0.274685  1
  O  O41  1  0.328566  0.484138  0.725363  1
  O  O42  1  0.347044  0.766887  0.680635  1
  O  O43  1  0.336915  0.732564  0.319943  1
  O  O44  1  0.349067  0.566327  0.528919  1
  O  O45  1  0.342739  0.934704  0.470684  1
  O  O46  1  0.352037  0.837199  0.079834  1
  O  O47  1  0.351857  0.662167  0.920629  1
  O  O48  1  0.427328  0.111475  0.657145  1
  O  O49  1  0.428687  0.393843  0.349269  1
  O  O50  1  0.443985  0.142105  0.071129  1
  O  O51  1  0.444000  0.358298  0.929178  1
  O  O52  1  0.556798  0.642294  0.071911  1
  O  O53  1  0.556710  0.857342  0.928667  1
  O  O54  1  0.579079  0.594581  0.654084  1
  O  O55  1  0.572475  0.895191  0.343662  1
  O  O56  1  0.647486  0.338192  0.081157  1
  O  O57  1  0.648331  0.164277  0.920109  1
  O  O58  1  0.654530  0.068958  0.529022  1
  O  O59  1  0.661052  0.430673  0.476791  1
  O  O60  1  0.665375  0.233943  0.322573  1
  O  O61  1  0.665761  0.276435  0.673856  1
  O  O62  1  0.677446  0.516912  0.281179  1
  O  O63  1  0.677004  0.993389  0.725207  1
  O  O64  1  0.825945  0.013765  0.226230  1
  O  O65  1  0.826020  0.486211  0.765653  1
  O  O66  1  0.837622  0.731395  0.179569  1
  O  O67  1  0.835472  0.767142  0.816883  1
  O  O68  1  0.840375  0.560532  0.964034  1
  O  O69  1  0.844219  0.932889  0.030149  1
  O  O70  1  0.848526  0.651207  0.578486  1
  O  O71  1  0.847238  0.833251  0.424050  1
  O  O72  1  0.926991  0.105101  0.843750  1
  O  O73  1  0.926310  0.395873  0.155839  1
  O  O74  1  0.941074  0.142164  0.430181  1
  O  O75  1  0.931820  0.360916  0.568372  1
