# generated using pymatgen
data_Zr4H22N4O3F20
_symmetry_space_group_name_H-M   'P 1'
_cell_length_a   12.40568473
_cell_length_b   15.22810404
_cell_length_c   12.40568473
_cell_angle_alpha   62.19607765
_cell_angle_beta   147.69803270
_cell_angle_gamma   117.80392235
_symmetry_Int_Tables_number   1
_chemical_formula_structural   Zr4H22N4O3F20
_chemical_formula_sum   'Zr8 H44 N8 O6 F40'
_cell_volume   1094.80395747
_cell_formula_units_Z   2
loop_
 _symmetry_equiv_pos_site_id
 _symmetry_equiv_pos_as_xyz
  1  'x, y, z'
loop_
 _atom_site_type_symbol
 _atom_site_label
 _atom_site_symmetry_multiplicity
 _atom_site_fract_x
 _atom_site_fract_y
 _atom_site_fract_z
 _atom_site_occupancy
  Zr  Zr0  1  0.952782  0.496099  0.959117  1
  Zr  Zr1  1  0.040883  0.996099  0.047218  1
  Zr  Zr2  1  0.126423  0.731043  0.821633  1
  Zr  Zr3  1  0.178367  0.231043  0.873577  1
  Zr  Zr4  1  0.333150  0.670061  0.760548  1
  Zr  Zr5  1  0.239452  0.170061  0.666850  1
  Zr  Zr6  1  0.487205  0.910350  0.607120  1
  Zr  Zr7  1  0.392880  0.410350  0.512795  1
  H  H8  1  0.552746  0.143467  0.274621  1
  H  H9  1  0.725379  0.643467  0.447254  1
  H  H10  1  0.653045  0.056514  0.393982  1
  H  H11  1  0.606018  0.556514  0.346955  1
  H  H12  1  0.616175  0.064670  0.300929  1
  H  H13  1  0.699071  0.564670  0.383825  1
  H  H14  1  0.798314  0.263309  0.202150  1
  H  H15  1  0.797850  0.763309  0.201686  1
  H  H16  1  0.550391  0.772398  0.520071  1
  H  H17  1  0.479929  0.272398  0.449609  1
  H  H18  1  0.415817  0.727411  0.321518  1
  H  H19  1  0.678482  0.227411  0.584183  1
  H  H20  1  0.464815  0.644677  0.506540  1
  H  H21  1  0.493460  0.144677  0.535185  1
  H  H22  1  0.649775  0.702389  0.550296  1
  H  H23  1  0.449705  0.202389  0.350225  1
  H  H24  1  0.011654  0.682181  0.246159  1
  H  H25  1  0.753841  0.182181  0.988346  1
  H  H26  1  0.774826  0.694923  0.008053  1
  H  H27  1  -0.008053  0.194923  0.225174  1
  H  H28  1  0.904909  0.632292  0.066988  1
  H  H29  1  0.933012  0.132292  0.095091  1
  H  H30  1  0.965527  0.760339  0.059989  1
  H  H31  1  0.940011  0.260339  0.034473  1
  H  H32  1  0.786141  0.387006  0.101298  1
  H  H33  1  0.898702  0.887006  0.213859  1
  H  H34  1  0.839572  0.344079  0.292991  1
  H  H35  1  0.707009  0.844079  0.160428  1
  H  H36  1  0.083950  0.447284  0.507780  1
  H  H37  1  0.492220  0.947284  0.916050  1
  H  H38  1  0.941799  0.817640  0.398547  1
  H  H39  1  0.601453  0.317640  0.058201  1
  H  H40  1  0.896055  0.487087  0.423358  1
  H  H41  1  0.576642  0.987087  0.103945  1
  H  H42  1  0.808356  0.384424  0.458552  1
  H  H43  1  0.541448  0.884424  0.191644  1
  H  H44  1  0.164077  0.347481  -0.003836  1
  H  H45  1  0.003836  0.847481  0.835923  1
  H  H46  1  0.288734  0.418070  0.975193  1
  H  H47  1  0.024807  0.918070  0.711266  1
  H  H48  1  0.405050  0.482813  0.837226  1
  H  H49  1  0.162774  0.982813  0.594950  1
  H  H50  1  0.403733  0.548978  0.692866  1
  H  H51  1  0.307134  0.048978  0.596267  1
  N  N52  1  0.816285  0.409141  0.627471  1
  N  N53  1  0.372529  0.909141  0.183715  1
  N  N54  1  0.519243  0.711980  0.474957  1
  N  N55  1  0.525043  0.211980  0.480757  1
  N  N56  1  0.916334  0.692274  0.095651  1
  N  N57  1  0.904349  0.192274  0.083666  1
  N  N58  1  0.754039  0.327921  0.161130  1
  N  N59  1  0.838870  0.827921  0.245961  1
  O  O60  1  0.768039  0.442649  0.354242  1
  O  O61  1  0.645758  0.942649  0.231961  1
  O  O62  1  0.253790  0.346439  0.009523  1
  O  O63  1  0.990477  0.846439  0.746210  1
  O  O64  1  0.431096  0.552783  0.792039  1
  O  O65  1  0.207961  0.052783  0.568904  1
  F  F66  1  0.364265  0.025179  0.330282  1
  F  F67  1  0.669718  0.525179  0.635735  1
  F  F68  1  0.501907  0.202433  0.228407  1
  F  F69  1  0.771593  0.702433  0.498093  1
  F  F70  1  0.112673  0.161418  0.021229  1
  F  F71  1  0.978771  0.661418  0.887327  1
  F  F72  1  0.591519  0.880441  0.566025  1
  F  F73  1  0.433975  0.380441  0.408481  1
  F  F74  1  0.170179  0.873390  0.318501  1
  F  F75  1  0.681499  0.373390  0.829821  1
  F  F76  1  0.448400  0.025041  0.615235  1
  F  F77  1  0.384765  0.525041  0.551600  1
  F  F78  1  0.061598  0.684968  0.621352  1
  F  F79  1  0.378648  0.184968  0.938402  1
  F  F80  1  0.130102  0.071236  0.925441  1
  F  F81  1  0.074559  0.571236  0.869898  1
  F  F82  1  0.348925  0.358450  0.888659  1
  F  F83  1  0.111341  0.858450  0.651075  1
  F  F84  1  0.353887  0.762546  0.102789  1
  F  F85  1  0.897211  0.262546  0.646113  1
  F  F86  1  0.096761  0.652147  0.464746  1
  F  F87  1  0.535254  0.152147  0.903239  1
  F  F88  1  0.765539  0.885964  0.930736  1
  F  F89  1  0.069264  0.385964  0.234461  1
  F  F90  1  0.759436  0.036806  0.736154  1
  F  F91  1  0.263846  0.536806  0.240564  1
  F  F92  1  0.466225  0.748432  0.675059  1
  F  F93  1  0.324941  0.248432  0.533775  1
  F  F94  1  0.640668  0.683157  0.036472  1
  F  F95  1  0.963528  0.183157  0.359332  1
  F  F96  1  0.393241  0.721944  0.962444  1
  F  F97  1  0.037556  0.221944  0.606759  1
  F  F98  1  0.359304  0.833718  0.689280  1
  F  F99  1  0.310720  0.333718  0.640696  1
  F  F100  1  0.019142  0.881021  0.985674  1
  F  F101  1  0.014326  0.381021  0.980858  1
  F  F102  1  -0.007134  0.026636  0.146950  1
  F  F103  1  0.853050  0.526636  0.007134  1
  F  F104  1  0.289250  0.536614  0.874819  1
  F  F105  1  0.125181  0.036614  0.710750  1
