# generated using pymatgen
data_Ba2Ti6N2O11
_symmetry_space_group_name_H-M   'P 1'
_cell_length_a   3.91148727
_cell_length_b   8.00915750
_cell_length_c   9.27685720
_cell_angle_alpha   82.39688365
_cell_angle_beta   89.97790288
_cell_angle_gamma   75.81093659
_symmetry_Int_Tables_number   1
_chemical_formula_structural   Ba2Ti6N2O11
_chemical_formula_sum   'Ba2 Ti6 N2 O11'
_cell_volume   279.12404642
_cell_formula_units_Z   1
loop_
 _symmetry_equiv_pos_site_id
 _symmetry_equiv_pos_as_xyz
  1  'x, y, z'
loop_
 _atom_site_type_symbol
 _atom_site_label
 _atom_site_symmetry_multiplicity
 _atom_site_fract_x
 _atom_site_fract_y
 _atom_site_fract_z
 _atom_site_occupancy
  Ba  Ba0  1  0.548319  0.903666  0.774900  1
  Ba  Ba1  1  0.449405  0.102898  0.235961  1
  Ti  Ti2  1  0.117510  0.771520  0.094191  1
  Ti  Ti3  1  0.169657  0.658673  0.439228  1
  Ti  Ti4  1  0.237329  0.521615  0.771521  1
  Ti  Ti5  1  0.751618  0.498955  0.220095  1
  Ti  Ti6  1  0.831177  0.336713  0.559653  1
  Ti  Ti7  1  0.883619  0.232473  0.912169  1
  N  N8  1  0.641700  0.720531  0.110795  1
  N  N9  1  0.001745  0.004642  0.000347  1
  O  O10  1  0.075203  0.851281  0.303190  1
  O  O11  1  0.128491  0.736420  0.616964  1
  O  O12  1  0.167973  0.664864  0.907952  1
  O  O13  1  0.702563  0.595450  0.428529  1
  O  O14  1  0.754767  0.487588  0.753931  1
  O  O15  1  0.244882  0.513275  0.249807  1
  O  O16  1  0.297266  0.403973  0.570619  1
  O  O17  1  0.356988  0.284437  0.883329  1
  O  O18  1  0.828692  0.336250  0.088954  1
  O  O19  1  0.877186  0.250134  0.391341  1
  O  O20  1  0.923571  0.149817  0.704161  1
