# generated using pymatgen
data_LiMo4P7O24
_symmetry_space_group_name_H-M   'P 1'
_cell_length_a   10.57889860
_cell_length_b   10.60302822
_cell_length_c   11.36483172
_cell_angle_alpha   112.74119659
_cell_angle_beta   109.39967040
_cell_angle_gamma   104.88540426
_symmetry_Int_Tables_number   1
_chemical_formula_structural   LiMo4P7O24
_chemical_formula_sum   'Li2 Mo8 P14 O48'
_cell_volume   994.22360432
_cell_formula_units_Z   2
loop_
 _symmetry_equiv_pos_site_id
 _symmetry_equiv_pos_as_xyz
  1  'x, y, z'
loop_
 _atom_site_type_symbol
 _atom_site_label
 _atom_site_symmetry_multiplicity
 _atom_site_fract_x
 _atom_site_fract_y
 _atom_site_fract_z
 _atom_site_occupancy
  Li  Li0  1  0.025417  0.396191  0.647743  1
  Li  Li1  1  0.974583  0.603809  0.352256  1
  Mo  Mo2  1  0.244611  0.844408  0.745899  1
  Mo  Mo3  1  0.072707  0.693621  0.075573  1
  Mo  Mo4  1  0.376603  0.224802  0.886279  1
  Mo  Mo5  1  0.570991  0.412434  0.587644  1
  Mo  Mo6  1  0.927293  0.306379  0.924427  1
  Mo  Mo7  1  0.755389  0.155592  0.254101  1
  Mo  Mo8  1  0.429009  0.587566  0.412356  1
  Mo  Mo9  1  0.623397  0.775198  0.113721  1
  P  P10  1  0.701129  0.487854  0.952273  1
  P  P11  1  0.493628  0.717285  0.756297  1
  P  P12  1  0.936478  0.678656  0.734598  1
  P  P13  1  0.611959  0.051625  0.876246  1
  P  P14  1  0.506371  0.282715  0.243703  1
  P  P15  1  0.237656  0.807321  0.433063  1
  P  P16  1  0.762344  0.192679  0.566937  1
  P  P17  1  0.388041  0.948375  0.123755  1
  P  P18  1  0.261993  0.123127  0.517216  1
  P  P19  1  0.999394  0.011285  0.232082  1
  P  P20  1  0.063522  0.321344  0.265402  1
  P  P21  1  0.738007  0.876873  0.482784  1
  P  P22  1  0.298871  0.512146  0.047726  1
  P  P23  1  0.000606  0.988715  0.767919  1
  O  O24  1  0.627482  0.223801  0.535651  1
  O  O25  1  0.970914  0.334985  0.345856  1
  O  O26  1  0.490725  0.395618  0.369341  1
  O  O27  1  0.648030  0.758107  0.500131  1
  O  O28  1  0.223933  0.436558  0.368338  1
  O  O29  1  0.161569  0.019251  0.797257  1
  O  O30  1  0.704856  0.143034  0.835347  1
  O  O31  1  0.137716  0.509884  0.009568  1
  O  O32  1  0.551585  0.960949  0.181716  1
  O  O33  1  0.862284  0.490116  0.990432  1
  O  O34  1  0.351970  0.241893  0.499868  1
  O  O35  1  0.602173  0.362574  0.962627  1
  O  O36  1  0.413811  0.120330  0.221317  1
  O  O37  1  0.839069  0.205842  0.474830  1
  O  O38  1  0.838431  0.980749  0.202743  1
  O  O39  1  0.911808  0.939003  0.599219  1
  O  O40  1  0.935250  0.847132  0.782677  1
  O  O41  1  0.776067  0.563442  0.631662  1
  O  O42  1  0.268458  0.169061  0.662035  1
  O  O43  1  0.702060  0.020179  0.536071  1
  O  O44  1  0.731543  0.830940  0.337965  1
  O  O45  1  0.016528  0.882490  0.135612  1
  O  O46  1  0.990086  0.323962  0.128565  1
  O  O47  1  0.064749  0.152868  0.217322  1
  O  O48  1  0.679949  0.098182  0.034564  1
  O  O49  1  0.320051  0.901818  0.965436  1
  O  O50  1  0.106639  0.702149  0.276184  1
  O  O51  1  0.261453  0.355841  0.923886  1
  O  O52  1  0.448415  0.039051  0.818285  1
  O  O53  1  0.160931  0.794158  0.525170  1
  O  O54  1  0.369768  0.536938  0.200083  1
  O  O55  1  0.893361  0.297850  0.723816  1
  O  O56  1  0.509274  0.604382  0.630659  1
  O  O57  1  0.738548  0.644159  0.076114  1
  O  O58  1  0.630232  0.463062  0.799917  1
  O  O59  1  0.029086  0.665015  0.654144  1
  O  O60  1  0.434683  0.276591  0.102404  1
  O  O61  1  0.088192  0.060998  0.400782  1
  O  O62  1  0.565317  0.723409  0.897596  1
  O  O63  1  0.009913  0.676038  0.871435  1
  O  O64  1  0.397827  0.637426  0.037374  1
  O  O65  1  0.328883  0.683956  0.699504  1
  O  O66  1  0.297939  0.979821  0.463928  1
  O  O67  1  0.983472  0.117511  0.864389  1
  O  O68  1  0.671117  0.316044  0.300496  1
  O  O69  1  0.295144  0.856966  0.164653  1
  O  O70  1  0.372518  0.776199  0.464349  1
  O  O71  1  0.586189  0.879669  0.778683  1
