# generated using pymatgen
data_Na2MnBPO7
_symmetry_space_group_name_H-M   'P 1'
_cell_length_a   9.10274131
_cell_length_b   6.39546684
_cell_length_c   5.33580132
_cell_angle_alpha   90.00000000
_cell_angle_beta   87.80990406
_cell_angle_gamma   90.00000000
_symmetry_Int_Tables_number   1
_chemical_formula_structural   Na2MnBPO7
_chemical_formula_sum   'Na4 Mn2 B2 P2 O14'
_cell_volume   310.40360057
_cell_formula_units_Z   2
loop_
 _symmetry_equiv_pos_site_id
 _symmetry_equiv_pos_as_xyz
  1  'x, y, z'
loop_
 _atom_site_type_symbol
 _atom_site_label
 _atom_site_symmetry_multiplicity
 _atom_site_fract_x
 _atom_site_fract_y
 _atom_site_fract_z
 _atom_site_occupancy
  Na  Na0  1  0.225276  0.004180  0.237666  1
  Na  Na1  1  0.225276  0.495820  0.237666  1
  Na  Na2  1  0.774724  0.504180  0.762334  1
  Na  Na3  1  0.774724  0.995820  0.762334  1
  Mn  Mn4  1  0.344590  0.750000  0.779999  1
  Mn  Mn5  1  0.655410  0.250000  0.220001  1
  B  B6  1  0.081436  0.750000  0.727942  1
  B  B7  1  0.918564  0.250000  0.272058  1
  P  P8  1  0.432651  0.250000  0.719567  1
  P  P9  1  0.567349  0.750000  0.280433  1
  O  O10  1  0.060501  0.250000  0.303125  1
  O  O11  1  0.154303  0.750000  0.955954  1
  O  O12  1  0.194712  0.750000  0.536752  1
  O  O13  1  0.335028  0.058169  0.791575  1
  O  O14  1  0.335028  0.441831  0.791575  1
  O  O15  1  0.425103  0.750000  0.132466  1
  O  O16  1  0.469357  0.250000  0.431433  1
  O  O17  1  0.530643  0.750000  0.568568  1
  O  O18  1  0.574897  0.250000  0.867534  1
  O  O19  1  0.664972  0.558169  0.208425  1
  O  O20  1  0.664972  0.941831  0.208425  1
  O  O21  1  0.805288  0.250000  0.463248  1
  O  O22  1  0.845697  0.250000  0.044046  1
  O  O23  1  0.939499  0.750000  0.696875  1
