# generated using pymatgen
data_Li4V3P8O29
_symmetry_space_group_name_H-M   'P 1'
_cell_length_a   9.74237636
_cell_length_b   9.73842503
_cell_length_c   14.20958523
_cell_angle_alpha   90.45212750
_cell_angle_beta   90.52299807
_cell_angle_gamma   60.34262212
_symmetry_Int_Tables_number   1
_chemical_formula_structural   Li4V3P8O29
_chemical_formula_sum   'Li8 V6 P16 O58'
_cell_volume   1171.47590372
_cell_formula_units_Z   2
loop_
 _symmetry_equiv_pos_site_id
 _symmetry_equiv_pos_as_xyz
  1  'x, y, z'
loop_
 _atom_site_type_symbol
 _atom_site_label
 _atom_site_symmetry_multiplicity
 _atom_site_fract_x
 _atom_site_fract_y
 _atom_site_fract_z
 _atom_site_occupancy
  Li  Li0  1  0.769978  0.328391  0.051767  1
  Li  Li1  1  0.328494  0.908312  0.058914  1
  Li  Li2  1  0.666966  0.236169  0.448273  1
  Li  Li3  1  0.332588  0.769282  0.561515  1
  Li  Li4  1  0.231779  0.667531  0.938961  1
  Li  Li5  1  0.087070  0.674395  0.439803  1
  Li  Li6  1  0.948661  0.012623  0.986169  1
  Li  Li7  1  0.989233  0.056260  0.516370  1
  V  V8  1  0.567750  0.433826  0.249222  1
  V  V9  1  0.435460  0.564513  0.750083  1
  V  V10  1  0.567109  0.997058  0.752625  1
  V  V11  1  0.436442  0.004478  0.250833  1
  V  V12  1  0.995661  0.563196  0.249528  1
  V  V13  1  0.002884  0.433315  0.747446  1
  P  P14  1  0.917631  0.780159  0.835985  1
  P  P15  1  0.777942  0.918807  0.339991  1
  P  P16  1  0.918388  0.303139  0.345418  1
  P  P17  1  0.662106  0.667856  0.132230  1
  P  P18  1  0.666327  0.668717  0.632267  1
  P  P19  1  0.778517  0.313456  0.839489  1
  P  P20  1  0.686608  0.221679  0.660557  1
  P  P21  1  0.311724  0.913367  0.846705  1
  P  P22  1  0.695318  0.083087  0.154378  1
  P  P23  1  0.316809  0.775008  0.339504  1
  P  P24  1  0.224924  0.683332  0.160046  1
  P  P25  1  0.336997  0.336100  0.367594  1
  P  P26  1  0.331930  0.333149  0.867727  1
  P  P27  1  0.086542  0.688572  0.653188  1
  P  P28  1  0.219961  0.082988  0.664036  1
  P  P29  1  0.082576  0.220372  0.160408  1
  O  O30  1  0.016215  0.767876  0.561921  1
  O  O31  1  0.915374  0.746481  0.339724  1
  O  O32  1  0.788265  0.010274  0.068242  1
  O  O33  1  0.742979  0.914732  0.835172  1
  O  O34  1  0.926944  0.618049  0.828520  1
  O  O35  1  0.805226  0.671248  0.177406  1
  O  O36  1  0.925901  0.457662  0.332863  1
  O  O37  1  0.994212  0.207042  0.078172  1
  O  O38  1  0.917101  0.347398  0.829816  1
  O  O39  1  0.665873  0.814955  0.681370  1
  O  O40  1  0.618182  0.918431  0.324342  1
  O  O41  1  0.813876  0.524126  0.678327  1
  O  O42  1  0.652882  0.656179  0.028286  1
  O  O43  1  0.666275  0.673495  0.527954  1
  O  O44  1  0.669140  0.513026  0.176089  1
  O  O45  1  0.468449  0.913167  0.829991  1
  O  O46  1  0.509124  0.815593  0.172206  1
  O  O47  1  0.740671  0.344028  0.335584  1
  O  O48  1  0.797785  0.202120  0.750160  1
  O  O49  1  0.773377  0.207551  0.571713  1
  O  O50  1  0.793430  0.226658  0.928567  1
  O  O51  1  0.620675  0.467664  0.828004  1
  O  O52  1  0.513576  0.672669  0.670189  1
  O  O53  1  0.657270  0.259604  0.162709  1
  O  O54  1  0.473717  0.618116  0.324064  1
  O  O55  1  0.347672  0.915360  0.333783  1
  O  O56  1  0.800675  0.997354  0.245999  1
  O  O57  1  0.777998  0.012798  0.422659  1
  O  O58  1  0.199246  0.994339  0.583305  1
  O  O59  1  0.653132  0.082761  0.670220  1
  O  O60  1  0.532126  0.379659  0.671882  1
  O  O61  1  0.340792  0.741284  0.837564  1
  O  O62  1  0.490279  0.329217  0.324052  1
  O  O63  1  0.382214  0.526442  0.176339  1
  O  O64  1  0.230019  0.763155  0.071416  1
  O  O65  1  0.236442  0.771747  0.428735  1
  O  O66  1  0.205471  0.795308  0.249913  1
  O  O67  1  0.258512  0.659204  0.662479  1
  O  O68  1  0.476229  0.186138  0.821161  1
  O  O69  1  0.539461  0.077550  0.168450  1
  O  O70  1  0.327558  0.486312  0.830122  1
  O  O71  1  0.328587  0.331423  0.972032  1
  O  O72  1  0.356707  0.323869  0.471518  1
  O  O73  1  0.189125  0.487929  0.331945  1
  O  O74  1  0.382026  0.073550  0.671462  1
  O  O75  1  0.334818  0.190145  0.317808  1
  O  O76  1  0.085227  0.652613  0.166082  1
  O  O77  1  0.991123  0.803528  0.739355  1
  O  O78  1  0.006677  0.800763  0.916683  1
  O  O79  1  0.086514  0.531880  0.669761  1
  O  O80  1  0.185233  0.334193  0.818747  1
  O  O81  1  0.084227  0.376220  0.172661  1
  O  O82  1  0.257384  0.079803  0.163259  1
  O  O83  1  0.232397  0.984048  0.937618  1
  O  O84  1  0.196687  0.008739  0.760362  1
  O  O85  1  0.084985  0.257525  0.664898  1
  O  O86  1  0.988049  0.208565  0.430864  1
  O  O87  1  0.004243  0.196352  0.254436  1
