# generated using pymatgen
data_Na2CdO2
_symmetry_space_group_name_H-M   'P 1'
_cell_length_a   9.39789417
_cell_length_b   9.39789417
_cell_length_c   9.40453640
_cell_angle_alpha   109.44428183
_cell_angle_beta   109.07747080
_cell_angle_gamma   109.86453023
_symmetry_Int_Tables_number   1
_chemical_formula_structural   Na2CdO2
_chemical_formula_sum   'Na16 Cd8 O16'
_cell_volume   639.59913128
_cell_formula_units_Z   8
loop_
 _symmetry_equiv_pos_site_id
 _symmetry_equiv_pos_as_xyz
  1  'x, y, z'
loop_
 _atom_site_type_symbol
 _atom_site_label
 _atom_site_symmetry_multiplicity
 _atom_site_fract_x
 _atom_site_fract_y
 _atom_site_fract_z
 _atom_site_occupancy
  Na  Na0  1  0.741951  0.239992  0.277989  1
  Na  Na1  1  0.768200  0.038011  0.491656  1
  Na  Na2  1  0.277857  0.021862  0.048784  1
  Na  Na3  1  0.957638  0.501822  0.231212  1
  Na  Na4  1  0.473078  0.229073  0.451216  1
  Na  Na5  1  0.770610  0.726427  0.268788  1
  Na  Na6  1  0.462003  0.463962  0.222011  1
  Na  Na7  1  0.046355  0.276546  0.008344  1
  Na  Na8  1  0.719619  0.255687  0.768780  1
  Na  Na9  1  0.010806  0.051297  0.276228  1
  Na  Na10  1  0.490953  0.760345  0.045390  1
  Na  Na11  1  0.770447  0.542913  0.526976  1
  Na  Na12  1  0.214954  0.445563  0.454610  1
  Na  Na13  1  0.515938  0.243471  0.973024  1
  Na  Na14  1  0.275069  0.734578  0.223772  1
  Na  Na15  1  0.986906  0.950838  0.731220  1
  Cd  Cd16  1  0.545506  0.532662  0.765415  1
  Cd  Cd17  1  0.965494  0.732369  0.000803  1
  Cd  Cd18  1  0.539376  0.768299  0.536064  1
  Cd  Cd19  1  0.223957  0.270125  0.748956  1
  Cd  Cd20  1  0.021168  0.475001  0.751044  1
  Cd  Cd21  1  0.732235  0.003312  0.963936  1
  Cd  Cd22  1  0.231566  0.964690  0.499196  1
  Cd  Cd23  1  0.267247  0.780091  0.734585  1
  O  O24  1  0.959231  0.241980  0.205462  1
  O  O25  1  0.497769  0.987521  0.988092  1
  O  O26  1  0.770525  0.020525  0.750000  1
  O  O27  1  0.716823  0.466823  0.250000  1
  O  O28  1  0.757567  0.286929  0.540734  1
  O  O29  1  0.747494  0.774230  0.015706  1
  O  O30  1  0.536518  0.753769  0.294538  1
  O  O31  1  0.499431  0.509677  0.511908  1
  O  O32  1  0.455065  0.252352  0.710024  1
  O  O33  1  0.014299  0.007401  0.507777  1
  O  O34  1  0.999623  0.506522  0.992223  1
  O  O35  1  0.258524  0.731789  0.484294  1
  O  O36  1  0.246194  0.216834  0.959266  1
  O  O37  1  0.212109  0.962109  0.250000  1
  O  O38  1  0.277562  0.527562  0.750000  1
  O  O39  1  0.042328  0.745042  0.789976  1
