# generated using pymatgen
data_V3O5F
_symmetry_space_group_name_H-M   'P 1'
_cell_length_a   10.29778397
_cell_length_b   6.43631875
_cell_length_c   3.06615491
_cell_angle_alpha   90.00000000
_cell_angle_beta   90.00000000
_cell_angle_gamma   108.28398900
_symmetry_Int_Tables_number   1
_chemical_formula_structural   V3O5F
_chemical_formula_sum   'V6 O10 F2'
_cell_volume   192.96405305
_cell_formula_units_Z   2
loop_
 _symmetry_equiv_pos_site_id
 _symmetry_equiv_pos_as_xyz
  1  'x, y, z'
loop_
 _atom_site_type_symbol
 _atom_site_label
 _atom_site_symmetry_multiplicity
 _atom_site_fract_x
 _atom_site_fract_y
 _atom_site_fract_z
 _atom_site_occupancy
  V  V0  1  0.016562  0.009074  0.000000  1
  V  V1  1  0.342298  0.153934  0.500000  1
  V  V2  1  0.998390  0.499123  0.500000  1
  V  V3  1  0.321798  0.673218  0.000000  1
  V  V4  1  0.669595  0.335269  0.000000  1
  V  V5  1  0.643854  0.821319  0.500000  1
  O  O6  1  0.134712  0.072058  0.500000  1
  O  O7  1  0.997770  0.293449  0.000000  1
  O  O8  1  -0.000399  0.707047  0.000000  1
  O  O9  1  0.666574  0.030765  0.000000  1
  O  O10  1  0.188660  0.591249  0.500000  1
  O  O11  1  0.542521  0.275128  0.500000  1
  O  O12  1  0.463124  0.726051  0.500000  1
  O  O13  1  0.802976  0.402192  0.500000  1
  O  O14  1  0.335432  0.968407  0.000000  1
  O  O15  1  0.668630  0.638130  0.000000  1
  F  F16  1  0.335548  0.367102  0.000000  1
  F  F17  1  0.871957  0.936486  0.500000  1
