# generated using pymatgen
data_Cs2SnF6
_symmetry_space_group_name_H-M   'P 1'
_cell_length_a   6.44625577
_cell_length_b   6.44625576
_cell_length_c   5.17530298
_cell_angle_alpha   90.00000000
_cell_angle_beta   90.00000000
_cell_angle_gamma   119.99999999
_symmetry_Int_Tables_number   1
_chemical_formula_structural   Cs2SnF6
_chemical_formula_sum   'Cs2 Sn1 F6'
_cell_volume   186.24365134
_cell_formula_units_Z   1
loop_
 _symmetry_equiv_pos_site_id
 _symmetry_equiv_pos_as_xyz
  1  'x, y, z'
loop_
 _atom_site_type_symbol
 _atom_site_label
 _atom_site_symmetry_multiplicity
 _atom_site_fract_x
 _atom_site_fract_y
 _atom_site_fract_z
 _atom_site_occupancy
  F  F0  1  0.849889  0.150111  0.215221  1
  F  F1  1  0.849889  0.699778  0.215221  1
  F  F2  1  0.300222  0.150111  0.215221  1
  F  F3  1  0.150111  0.849889  0.784779  1
  F  F4  1  0.150111  0.300222  0.784779  1
  F  F5  1  0.699778  0.849889  0.784779  1
  Sn  Sn6  1  0.000000  0.000000  0.000000  1
  Cs  Cs7  1  0.666667  0.333333  0.696698  1
  Cs  Cs8  1  0.333333  0.666667  0.303302  1
