# generated using pymatgen
data_HOs3C10ClO10
_symmetry_space_group_name_H-M   'P 1'
_cell_length_a   7.88503723
_cell_length_b   8.93369389
_cell_length_c   13.73764198
_cell_angle_alpha   94.85752630
_cell_angle_beta   102.97847031
_cell_angle_gamma   110.67435271
_symmetry_Int_Tables_number   1
_chemical_formula_structural   HOs3C10ClO10
_chemical_formula_sum   'H2 Os6 C20 Cl2 O20'
_cell_volume   867.88036549
_cell_formula_units_Z   2
loop_
 _symmetry_equiv_pos_site_id
 _symmetry_equiv_pos_as_xyz
  1  'x, y, z'
loop_
 _atom_site_type_symbol
 _atom_site_label
 _atom_site_symmetry_multiplicity
 _atom_site_fract_x
 _atom_site_fract_y
 _atom_site_fract_z
 _atom_site_occupancy
  H  H0  1  0.039159  0.937088  0.871623  1
  H  H1  1  0.960841  0.062912  0.128377  1
  Os  Os2  1  0.907342  0.720223  0.810146  1
  Os  Os3  1  0.092658  0.279777  0.189854  1
  Os  Os4  1  0.618757  0.821290  0.703377  1
  Os  Os5  1  0.381243  0.178710  0.296623  1
  Os  Os6  1  0.008715  0.044114  0.762395  1
  Os  Os7  1  0.991285  0.955886  0.237605  1
  C  C8  1  0.772448  0.671375  0.907972  1
  C  C9  1  0.227552  0.328625  0.092028  1
  C  C10  1  0.123741  0.684957  0.884924  1
  C  C11  1  0.876259  0.315043  0.115076  1
  C  C12  1  0.770836  0.506540  0.733205  1
  C  C13  1  0.229164  0.493460  0.266795  1
  C  C14  1  0.660053  0.735256  0.578346  1
  C  C15  1  0.339947  0.264744  0.421654  1
  C  C16  1  0.504033  0.955630  0.636920  1
  C  C17  1  0.495967  0.044370  0.363080  1
  C  C18  1  0.616629  0.910287  0.837811  1
  C  C19  1  0.383371  0.089713  0.162189  1
  C  C20  1  0.402797  0.629275  0.694144  1
  C  C21  1  0.597203  0.370725  0.305856  1
  C  C22  1  0.944501  0.193190  0.835378  1
  C  C23  1  0.055499  0.806810  0.164622  1
  C  C24  1  0.957718  0.133697  0.642914  1
  C  C25  1  0.042282  0.866303  0.357086  1
  C  C26  1  0.276612  0.170156  0.810178  1
  C  C27  1  0.723388  0.829844  0.189822  1
  Cl  Cl28  1  0.071168  0.818203  0.679980  1
  Cl  Cl29  1  0.928832  0.181797  0.320020  1
  O  O30  1  0.688430  0.640164  0.968238  1
  O  O31  1  0.311570  0.359836  0.031762  1
  O  O32  1  0.250061  0.657177  0.929312  1
  O  O33  1  0.749939  0.342823  0.070688  1
  O  O34  1  0.693356  0.378923  0.681572  1
  O  O35  1  0.306644  0.621077  0.318428  1
  O  O36  1  0.674862  0.680729  0.502345  1
  O  O37  1  0.325138  0.319271  0.497655  1
  O  O38  1  0.432144  0.035896  0.596293  1
  O  O39  1  0.567856  0.964104  0.403707  1
  O  O40  1  0.611611  0.961283  0.917282  1
  O  O41  1  0.388389  0.038717  0.082718  1
  O  O42  1  0.271959  0.514017  0.692136  1
  O  O43  1  0.728041  0.485983  0.307864  1
  O  O44  1  0.908394  0.289166  0.880368  1
  O  O45  1  0.091606  0.710834  0.119632  1
  O  O46  1  0.929432  0.186858  0.569564  1
  O  O47  1  0.070568  0.813142  0.430436  1
  O  O48  1  0.436633  0.249790  0.837297  1
  O  O49  1  0.563367  0.750210  0.162703  1
