# generated using pymatgen
data_Li2MnFe3O8
_symmetry_space_group_name_H-M   'P 1'
_cell_length_a   8.42382259
_cell_length_b   8.42782929
_cell_length_c   8.40818388
_cell_angle_alpha   90.02193784
_cell_angle_beta   89.95825040
_cell_angle_gamma   89.97082165
_symmetry_Int_Tables_number   1
_chemical_formula_structural   Li2MnFe3O8
_chemical_formula_sum   'Li8 Mn4 Fe12 O32'
_cell_volume   596.93485665
_cell_formula_units_Z   4
loop_
 _symmetry_equiv_pos_site_id
 _symmetry_equiv_pos_as_xyz
  1  'x, y, z'
loop_
 _atom_site_type_symbol
 _atom_site_label
 _atom_site_symmetry_multiplicity
 _atom_site_fract_x
 _atom_site_fract_y
 _atom_site_fract_z
 _atom_site_occupancy
  Li  Li0  1  0.000799  0.000551  0.001317  1
  Li  Li1  1  0.249486  0.248834  0.248641  1
  Li  Li2  1  0.251465  0.752133  0.748372  1
  Li  Li3  1  0.498788  -0.002077  0.501533  1
  Li  Li4  1  0.500066  0.498328  -0.000165  1
  Li  Li5  1  0.750499  0.251752  0.750777  1
  Li  Li6  1  0.751629  0.750659  0.249492  1
  Li  Li7  1  -0.001518  0.499850  0.499527  1
  Mn  Mn8  1  0.123923  0.875234  0.375186  1
  Mn  Mn9  1  0.375670  0.125621  0.874464  1
  Mn  Mn10  1  0.625917  0.624036  0.625466  1
  Mn  Mn11  1  0.874482  0.375433  0.125439  1
  Fe  Fe12  1  0.125374  0.124660  0.624398  1
  Fe  Fe13  1  0.124844  0.374142  0.875225  1
  Fe  Fe14  1  0.122909  0.625234  0.126397  1
  Fe  Fe15  1  0.376882  0.373657  0.625301  1
  Fe  Fe16  1  0.374670  0.625376  0.375926  1
  Fe  Fe17  1  0.373608  0.876179  0.125085  1
  Fe  Fe18  1  0.625977  0.375239  0.375075  1
  Fe  Fe19  1  0.625076  0.126916  0.123920  1
  Fe  Fe20  1  0.625149  0.875201  0.874439  1
  Fe  Fe21  1  0.874946  0.124240  0.374317  1
  Fe  Fe22  1  0.875071  0.874662  0.624797  1
  Fe  Fe23  1  0.874572  0.624322  0.875089  1
  O  O24  1  0.115450  0.105681  0.384161  1
  O  O25  1  0.115530  0.885769  0.605846  1
  O  O26  1  0.113730  0.612976  0.885161  1
  O  O27  1  0.145046  0.134822  0.865418  1
  O  O28  1  0.104180  0.386287  0.117244  1
  O  O29  1  0.136920  0.361425  0.634462  1
  O  O30  1  0.134809  0.644938  0.368213  1
  O  O31  1  0.132566  0.865177  0.144471  1
  O  O32  1  0.367654  0.134269  0.644798  1
  O  O33  1  0.364095  0.355988  0.866587  1
  O  O34  1  0.362443  0.637165  0.136547  1
  O  O35  1  0.395657  0.613206  0.616123  1
  O  O36  1  0.355377  0.865887  0.364632  1
  O  O37  1  0.388701  0.385723  0.385009  1
  O  O38  1  0.383798  0.116407  0.105204  1
  O  O39  1  0.384955  0.895059  0.884809  1
  O  O40  1  0.618202  0.393532  0.615693  1
  O  O41  1  0.615288  0.616196  0.394702  1
  O  O42  1  0.613689  0.887843  0.113961  1
  O  O43  1  0.643491  0.366382  0.134003  1
  O  O44  1  0.605741  0.115772  0.883436  1
  O  O45  1  0.635405  0.135547  0.362548  1
  O  O46  1  0.635424  0.853832  0.634209  1
  O  O47  1  0.634009  0.634985  0.856237  1
  O  O48  1  0.864104  0.364823  0.355837  1
  O  O49  1  0.864830  0.145891  0.133078  1
  O  O50  1  0.863706  0.863310  0.864868  1
  O  O51  1  0.894309  0.885435  0.384060  1
  O  O52  1  0.856364  0.633102  0.635002  1
  O  O53  1  0.886058  0.113384  0.614288  1
  O  O54  1  0.885827  0.383393  0.894199  1
  O  O55  1  0.882358  0.605746  0.115315  1
