# generated using pymatgen
data_LiFe2OF3
_symmetry_space_group_name_H-M   'P 1'
_cell_length_a   10.64647682
_cell_length_b   6.30506811
_cell_length_c   5.23378159
_cell_angle_alpha   90.00000000
_cell_angle_beta   87.61159252
_cell_angle_gamma   90.00000000
_symmetry_Int_Tables_number   1
_chemical_formula_structural   LiFe2OF3
_chemical_formula_sum   'Li4 Fe8 O4 F12'
_cell_volume   351.02160451
_cell_formula_units_Z   4
loop_
 _symmetry_equiv_pos_site_id
 _symmetry_equiv_pos_as_xyz
  1  'x, y, z'
loop_
 _atom_site_type_symbol
 _atom_site_label
 _atom_site_symmetry_multiplicity
 _atom_site_fract_x
 _atom_site_fract_y
 _atom_site_fract_z
 _atom_site_occupancy
  Li  Li0  1  0.168011  0.500000  0.022637  1
  Li  Li1  1  0.324715  0.000000  0.961695  1
  Li  Li2  1  0.697014  0.000000  0.085408  1
  Li  Li3  1  0.826615  0.500000  0.937833  1
  Fe  Fe4  1  0.990382  0.000000  0.490354  1
  Fe  Fe5  1  0.008682  0.500000  0.502577  1
  Fe  Fe6  1  0.259838  0.254199  0.486007  1
  Fe  Fe7  1  0.259838  0.745801  0.486007  1
  Fe  Fe8  1  0.498757  0.000000  0.495463  1
  Fe  Fe9  1  0.510940  0.500000  0.970089  1
  Fe  Fe10  1  0.735665  0.258055  0.523549  1
  Fe  Fe11  1  0.735665  0.741945  0.523549  1
  O  O12  1  0.176025  0.500000  0.661814  1
  O  O13  1  0.339221  0.000000  0.317754  1
  O  O14  1  0.669228  0.500000  0.742741  1
  O  O15  1  0.817897  0.000000  0.353952  1
  F  F16  1  0.087804  0.257899  0.252883  1
  F  F17  1  0.087804  0.742101  0.252883  1
  F  F18  1  0.153688  0.000000  0.705870  1
  F  F19  1  0.338545  0.500000  0.192753  1
  F  F20  1  0.411386  0.232941  0.769575  1
  F  F21  1  0.411386  0.767059  0.769575  1
  F  F22  1  0.592202  0.237822  0.235879  1
  F  F23  1  0.592202  0.762178  0.235879  1
  F  F24  1  0.642475  0.000000  0.750425  1
  F  F25  1  0.841846  0.500000  0.290872  1
  F  F26  1  0.911086  0.269763  0.740987  1
  F  F27  1  0.911086  0.730237  0.740987  1
