# generated using pymatgen
data_Li6Mn5FeO12
_symmetry_space_group_name_H-M   'P 1'
_cell_length_a   5.11559682
_cell_length_b   5.30818074
_cell_length_c   10.25008612
_cell_angle_alpha   89.18967040
_cell_angle_beta   91.67469397
_cell_angle_gamma   118.80603643
_symmetry_Int_Tables_number   1
_chemical_formula_structural   Li6Mn5FeO12
_chemical_formula_sum   'Li6 Mn5 Fe1 O12'
_cell_volume   243.78947180
_cell_formula_units_Z   1
loop_
 _symmetry_equiv_pos_site_id
 _symmetry_equiv_pos_as_xyz
  1  'x, y, z'
loop_
 _atom_site_type_symbol
 _atom_site_label
 _atom_site_symmetry_multiplicity
 _atom_site_fract_x
 _atom_site_fract_y
 _atom_site_fract_z
 _atom_site_occupancy
  Li  Li0  1  0.996120  0.330448  0.775459  1
  Li  Li1  1  0.668076  0.999983  0.224153  1
  Li  Li2  1  0.665699  0.669587  0.775480  1
  Li  Li3  1  0.331947  0.000000  0.775847  1
  Li  Li4  1  0.334342  0.330443  0.224541  1
  Li  Li5  1  0.003885  0.669574  0.224531  1
  Mn  Mn6  1  0.664679  0.329382  0.000010  1
  Mn  Mn7  1  0.833521  0.667064  0.500024  1
  Mn  Mn8  1  0.499939  0.999951  0.499968  1
  Mn  Mn9  1  0.335314  0.670623  0.000008  1
  Mn  Mn10  1  0.166470  0.332948  0.500009  1
  Fe  Fe11  1  0.000007  0.000034  0.000002  1
  O  O12  1  0.813727  0.999856  0.398112  1
  O  O13  1  0.851575  0.332636  0.601486  1
  O  O14  1  0.011543  0.679038  0.887659  1
  O  O15  1  0.678824  0.999963  0.882996  1
  O  O16  1  0.321152  0.999981  0.117024  1
  O  O17  1  0.667509  0.679070  0.112387  1
  O  O18  1  0.481024  0.332660  0.398469  1
  O  O19  1  0.519092  0.667434  0.601554  1
  O  O20  1  0.186187  0.999926  0.601863  1
  O  O21  1  0.332404  0.320961  0.887603  1
  O  O22  1  0.988570  0.320998  0.112379  1
  O  O23  1  0.148392  0.667430  0.398441  1
