# generated using pymatgen
data_Li2V(Si2O5)2
_symmetry_space_group_name_H-M   'P 1'
_cell_length_a   9.73171345
_cell_length_b   7.57544034
_cell_length_c   6.98277857
_cell_angle_alpha   63.15041271
_cell_angle_beta   77.50077662
_cell_angle_gamma   99.39366448
_symmetry_Int_Tables_number   1
_chemical_formula_structural   Li2V(Si2O5)2
_chemical_formula_sum   'Li4 V2 Si8 O20'
_cell_volume   427.80534741
_cell_formula_units_Z   2
loop_
 _symmetry_equiv_pos_site_id
 _symmetry_equiv_pos_as_xyz
  1  'x, y, z'
loop_
 _atom_site_type_symbol
 _atom_site_label
 _atom_site_symmetry_multiplicity
 _atom_site_fract_x
 _atom_site_fract_y
 _atom_site_fract_z
 _atom_site_occupancy
  Li  Li0  1  0.056199  0.254544  0.612151  1
  Li  Li1  1  0.571985  0.681683  0.781985  1
  Li  Li2  1  0.428015  0.318317  0.218015  1
  Li  Li3  1  0.943801  0.745455  0.387849  1
  V  V4  1  0.425734  0.300231  0.759089  1
  V  V5  1  0.574266  0.699769  0.240911  1
  Si  Si6  1  0.187211  0.949568  0.752529  1
  Si  Si7  1  0.257116  0.637994  0.611041  1
  Si  Si8  1  0.239357  0.614904  0.189044  1
  Si  Si9  1  0.141966  0.276246  0.104659  1
  Si  Si10  1  0.858034  0.723754  0.895341  1
  Si  Si11  1  0.760643  0.385096  0.810956  1
  Si  Si12  1  0.742884  0.362006  0.388959  1
  Si  Si13  1  0.812789  0.050432  0.247471  1
  O  O14  1  0.009101  0.922185  0.777376  1
  O  O15  1  0.137655  0.450254  0.856220  1
  O  O16  1  0.260528  0.862933  0.590423  1
  O  O17  1  0.181815  0.622588  0.425601  1
  O  O18  1  0.196416  0.807037  0.006900  1
  O  O19  1  0.123889  0.388131  0.263833  1
  O  O20  1  0.421600  0.615655  0.572007  1
  O  O21  1  0.257596  0.192326  0.646415  1
  O  O22  1  0.710322  0.788503  0.911569  1
  O  O23  1  0.592351  0.380547  0.893422  1
  O  O24  1  0.407649  0.619453  0.106578  1
  O  O25  1  0.289678  0.211497  0.088431  1
  O  O26  1  0.742404  0.807674  0.353585  1
  O  O27  1  0.578400  0.384345  0.427993  1
  O  O28  1  0.876111  0.611869  0.736167  1
  O  O29  1  0.803584  0.192963  0.993100  1
  O  O30  1  0.818185  0.377412  0.574399  1
  O  O31  1  0.739472  0.137067  0.409577  1
  O  O32  1  0.862345  0.549746  0.143780  1
  O  O33  1  0.990899  0.077815  0.222624  1
