# generated using pymatgen
data_Fe21O23
_symmetry_space_group_name_H-M   'P 1'
_cell_length_a   70.67621161
_cell_length_b   20.14780195
_cell_length_c   8.11798601
_cell_angle_alpha   18.07424478
_cell_angle_beta   19.17989400
_cell_angle_gamma   7.61764435
_symmetry_Int_Tables_number   1
_chemical_formula_structural   Fe21O23
_chemical_formula_sum   'Fe21 O23'
_cell_volume   474.72321494
_cell_formula_units_Z   1
loop_
 _symmetry_equiv_pos_site_id
 _symmetry_equiv_pos_as_xyz
  1  'x, y, z'
loop_
 _atom_site_type_symbol
 _atom_site_label
 _atom_site_symmetry_multiplicity
 _atom_site_fract_x
 _atom_site_fract_y
 _atom_site_fract_z
 _atom_site_occupancy
  Fe  Fe0  1  0.039951  0.007716  0.002735  1
  Fe  Fe1  1  0.081103  0.013973  0.022608  1
  Fe  Fe2  1  0.129639  0.986807  0.036216  1
  Fe  Fe3  1  0.175481  0.000043  0.990153  1
  Fe  Fe4  1  0.226066  0.963484  0.013116  1
  Fe  Fe5  1  0.248716  0.044045  0.998273  1
  Fe  Fe6  1  0.296637  0.017277  0.019026  1
  Fe  Fe7  1  0.353354  0.996431  0.962862  1
  Fe  Fe8  1  0.396114  0.992447  0.973085  1
  Fe  Fe9  1  0.434916  0.007085  0.987726  1
  Fe  Fe10  1  0.520418  0.003545  0.996015  1
  Fe  Fe11  1  0.560688  0.006797  0.027788  1
  Fe  Fe12  1  0.603400  0.000373  0.039069  1
  Fe  Fe13  1  0.650512  0.010918  0.982404  1
  Fe  Fe14  1  0.703704  0.978078  0.991274  1
  Fe  Fe15  1  0.737518  0.005115  0.003736  1
  Fe  Fe16  1  0.776634  0.019862  0.995859  1
  Fe  Fe17  1  0.828923  0.982682  0.017010  1
  Fe  Fe18  1  0.874065  0.993351  0.981657  1
  Fe  Fe19  1  0.915331  0.001859  0.972273  1
  Fe  Fe20  1  0.959313  0.995066  -0.005439  1
  O  O21  1  0.020849  0.509019  0.484130  1
  O  O22  1  0.065773  0.471400  0.561546  1
  O  O23  1  0.124333  0.448150  0.499547  1
  O  O24  1  0.154872  0.502352  0.468130  1
  O  O25  1  0.211923  0.453890  0.482912  1
  O  O26  1  0.246617  0.457221  0.543309  1
  O  O27  1  0.272924  0.511576  0.546207  1
  O  O28  1  0.326939  0.496809  0.508128  1
  O  O29  1  0.364333  0.542445  0.438502  1
  O  O30  1  0.403380  0.561527  0.436337  1
  O  O31  1  0.450889  0.519331  0.484525  1
  O  O32  1  0.500162  0.501943  0.489900  1
  O  O33  1  0.540797  0.496818  0.524342  1
  O  O34  1  0.598423  0.451308  0.544115  1
  O  O35  1  0.635134  0.469459  0.530184  1
  O  O36  1  0.693219  0.445700  0.457490  1
  O  O37  1  0.719592  0.490811  0.510100  1
  O  O38  1  0.758266  0.514297  0.498397  1
  O  O39  1  0.792215  0.529007  0.524719  1
  O  O40  1  0.847428  0.498706  0.505195  1
  O  O41  1  0.881882  0.524543  0.513103  1
  O  O42  1  0.928745  0.543516  0.461530  1
  O  O43  1  0.970561  0.533218  0.480208  1
