# generated using pymatgen
data_Mn6O11F
_symmetry_space_group_name_H-M   'P 1'
_cell_length_a   9.99676271
_cell_length_b   6.42175655
_cell_length_c   2.96935419
_cell_angle_alpha   90.00000000
_cell_angle_beta   90.00000000
_cell_angle_gamma   108.72310982
_symmetry_Int_Tables_number   1
_chemical_formula_structural   Mn6O11F
_chemical_formula_sum   'Mn6 O11 F1'
_cell_volume   180.53536788
_cell_formula_units_Z   1
loop_
 _symmetry_equiv_pos_site_id
 _symmetry_equiv_pos_as_xyz
  1  'x, y, z'
loop_
 _atom_site_type_symbol
 _atom_site_label
 _atom_site_symmetry_multiplicity
 _atom_site_fract_x
 _atom_site_fract_y
 _atom_site_fract_z
 _atom_site_occupancy
  Mn  Mn0  1  0.000306  0.998757  0.000000  1
  Mn  Mn1  1  0.332810  0.166818  0.500000  1
  Mn  Mn2  1  0.000536  0.500624  0.500000  1
  Mn  Mn3  1  0.666665  0.345389  0.000000  1
  Mn  Mn4  1  0.333034  0.665199  0.000000  1
  Mn  Mn5  1  0.666688  0.817495  0.500000  1
  O  O6  1  0.129295  0.064823  0.500000  1
  O  O7  1  0.999224  0.305360  0.000000  1
  O  O8  1  0.334331  0.361877  0.000000  1
  O  O9  1  0.998941  0.694131  0.000000  1
  O  O10  1  0.537505  0.266125  0.500000  1
  O  O11  1  0.204035  0.602442  0.500000  1
  O  O12  1  0.464580  0.736128  0.500000  1
  O  O13  1  0.795854  0.395277  0.500000  1
  O  O14  1  0.666675  0.634992  0.000000  1
  O  O15  1  0.334131  0.972879  0.000000  1
  O  O16  1  0.868745  0.938331  0.500000  1
  F  F17  1  0.666646  0.033351  0.000000  1
