# generated using pymatgen
data_VCo(PO4)2
_symmetry_space_group_name_H-M   'P 1'
_cell_length_a   9.90301067
_cell_length_b   5.96264312
_cell_length_c   4.87588056
_cell_angle_alpha   90.00000000
_cell_angle_beta   88.90467164
_cell_angle_gamma   90.00000000
_symmetry_Int_Tables_number   1
_chemical_formula_structural   VCo(PO4)2
_chemical_formula_sum   'V2 Co2 P4 O16'
_cell_volume   287.85896428
_cell_formula_units_Z   2
loop_
 _symmetry_equiv_pos_site_id
 _symmetry_equiv_pos_as_xyz
  1  'x, y, z'
loop_
 _atom_site_type_symbol
 _atom_site_label
 _atom_site_symmetry_multiplicity
 _atom_site_fract_x
 _atom_site_fract_y
 _atom_site_fract_z
 _atom_site_occupancy
  V  V0  1  0.226096  0.750000  0.483643  1
  V  V1  1  0.773904  0.250000  0.516357  1
  Co  Co2  1  0.267131  0.250000  0.968419  1
  Co  Co3  1  0.732869  0.750000  0.031581  1
  P  P4  1  0.096365  0.250000  0.428685  1
  P  P5  1  0.401002  0.750000  0.899710  1
  P  P6  1  0.598998  0.250000  0.100290  1
  P  P7  1  0.903635  0.750000  0.571315  1
  O  O8  1  0.058351  0.750000  0.651976  1
  O  O9  1  0.104792  0.250000  0.736453  1
  O  O10  1  0.165308  0.044012  0.283042  1
  O  O11  1  0.165308  0.455988  0.283042  1
  O  O12  1  0.326240  0.948571  0.746566  1
  O  O13  1  0.326240  0.551429  0.746566  1
  O  O14  1  0.363404  0.750000  0.210678  1
  O  O15  1  0.449129  0.250000  0.143526  1
  O  O16  1  0.550871  0.750000  0.856474  1
  O  O17  1  0.636596  0.250000  0.789322  1
  O  O18  1  0.673760  0.051429  0.253434  1
  O  O19  1  0.673760  0.448571  0.253434  1
  O  O20  1  0.834692  0.544012  0.716958  1
  O  O21  1  0.834692  0.955988  0.716958  1
  O  O22  1  0.895208  0.750000  0.263547  1
  O  O23  1  0.941649  0.250000  0.348024  1
