# generated using pymatgen
data_VOF3
_symmetry_space_group_name_H-M   'P 1'
_cell_length_a   5.64757614
_cell_length_b   5.64757627
_cell_length_c   4.96826429
_cell_angle_alpha   91.53230911
_cell_angle_beta   88.46769688
_cell_angle_gamma   116.98462126
_symmetry_Int_Tables_number   1
_chemical_formula_structural   VOF3
_chemical_formula_sum   'V2 O2 F6'
_cell_volume   141.14172691
_cell_formula_units_Z   2
loop_
 _symmetry_equiv_pos_site_id
 _symmetry_equiv_pos_as_xyz
  1  'x, y, z'
loop_
 _atom_site_type_symbol
 _atom_site_label
 _atom_site_symmetry_multiplicity
 _atom_site_fract_x
 _atom_site_fract_y
 _atom_site_fract_z
 _atom_site_occupancy
  V  V0  1  0.331158  0.331158  0.250000  1
  V  V1  1  0.636808  0.636808  0.750000  1
  O  O2  1  0.325826  0.506176  0.956722  1
  O  O3  1  0.506176  0.325826  0.543278  1
  F  F4  1  0.260945  0.018803  0.117100  1
  F  F5  1  0.489945  0.719324  0.439963  1
  F  F6  1  0.722603  0.967758  0.852873  1
  F  F7  1  0.719324  0.489945  0.060037  1
  F  F8  1  0.967758  0.722603  0.647127  1
  F  F9  1  0.018803  0.260945  0.382900  1
