# generated using pymatgen
data_LiFeSiO4
_symmetry_space_group_name_H-M   'P 1'
_cell_length_a   5.42022883
_cell_length_b   10.22395978
_cell_length_c   6.16756085
_cell_angle_alpha   90.00000000
_cell_angle_beta   90.00000000
_cell_angle_gamma   79.84322084
_symmetry_Int_Tables_number   1
_chemical_formula_structural   LiFeSiO4
_chemical_formula_sum   'Li4 Fe4 Si4 O16'
_cell_volume   336.42668672
_cell_formula_units_Z   4
loop_
 _symmetry_equiv_pos_site_id
 _symmetry_equiv_pos_as_xyz
  1  'x, y, z'
loop_
 _atom_site_type_symbol
 _atom_site_label
 _atom_site_symmetry_multiplicity
 _atom_site_fract_x
 _atom_site_fract_y
 _atom_site_fract_z
 _atom_site_occupancy
  Li  Li0  1  0.255837  0.279062  0.580274  1
  Li  Li1  1  0.244163  0.220938  0.080274  1
  Li  Li2  1  0.755837  0.779062  0.919726  1
  Li  Li3  1  0.744163  0.720938  0.419726  1
  Fe  Fe4  1  0.161452  0.895178  0.649110  1
  Fe  Fe5  1  0.338548  0.604822  0.149109  1
  Fe  Fe6  1  0.661452  0.395178  0.850890  1
  Fe  Fe7  1  0.838548  0.104822  0.350891  1
  Si  Si8  1  0.253762  0.630610  0.638415  1
  Si  Si9  1  0.246238  0.869390  0.138415  1
  Si  Si10  1  0.753762  0.130610  0.861585  1
  Si  Si11  1  0.746238  0.369390  0.361585  1
  O  O12  1  0.984832  0.739658  0.660092  1
  O  O13  1  0.054893  0.758899  0.129439  1
  O  O14  1  0.248116  0.540262  0.420759  1
  O  O15  1  0.316292  0.531565  0.853556  1
  O  O16  1  0.183708  0.968435  0.353556  1
  O  O17  1  0.251884  0.959738  0.920759  1
  O  O18  1  0.484832  0.239658  0.839908  1
  O  O19  1  0.554893  0.258899  0.370561  1
  O  O20  1  0.445107  0.741101  0.629439  1
  O  O21  1  0.515168  0.760342  0.160092  1
  O  O22  1  0.748116  0.040262  0.079241  1
  O  O23  1  0.816292  0.031565  0.646444  1
  O  O24  1  0.683708  0.468435  0.146444  1
  O  O25  1  0.751884  0.459738  0.579241  1
  O  O26  1  0.945107  0.241101  0.870561  1
  O  O27  1  0.015168  0.260342  0.339908  1
