# generated using pymatgen
data_UGeAu
_symmetry_space_group_name_H-M   'P 1'
_cell_length_a   4.45076529
_cell_length_b   4.45076529
_cell_length_c   15.15786137
_cell_angle_alpha   90.00000000
_cell_angle_beta   90.00000000
_cell_angle_gamma   119.99999993
_symmetry_Int_Tables_number   1
_chemical_formula_structural   UGeAu
_chemical_formula_sum   'U4 Ge4 Au4'
_cell_volume   260.03867695
_cell_formula_units_Z   4
loop_
 _symmetry_equiv_pos_site_id
 _symmetry_equiv_pos_as_xyz
  1  'x, y, z'
loop_
 _atom_site_type_symbol
 _atom_site_label
 _atom_site_symmetry_multiplicity
 _atom_site_fract_x
 _atom_site_fract_y
 _atom_site_fract_z
 _atom_site_occupancy
  Ge  Ge0  1  0.333333  0.666667  0.889403  1
  Ge  Ge1  1  0.666667  0.333333  0.389403  1
  Ge  Ge2  1  0.666667  0.333333  0.110597  1
  Ge  Ge3  1  0.333333  0.666667  0.610597  1
  Au  Au4  1  0.333333  0.666667  0.143056  1
  Au  Au5  1  0.666667  0.333333  0.643056  1
  Au  Au6  1  0.666667  0.333333  0.856944  1
  Au  Au7  1  0.333333  0.666667  0.356944  1
  U  U8  1  0.000000  0.000000  0.750000  1
  U  U9  1  0.000000  0.000000  0.250000  1
  U  U10  1  0.000000  0.000000  0.500000  1
  U  U11  1  0.000000  0.000000  0.000000  1
