# generated using pymatgen
data_LiV6O7F5
_symmetry_space_group_name_H-M   'P 1'
_cell_length_a   4.94060220
_cell_length_b   5.67361449
_cell_length_c   7.81932027
_cell_angle_alpha   84.38145220
_cell_angle_beta   92.47132266
_cell_angle_gamma   94.55604424
_symmetry_Int_Tables_number   1
_chemical_formula_structural   LiV6O7F5
_chemical_formula_sum   'Li1 V6 O7 F5'
_cell_volume   217.30361951
_cell_formula_units_Z   1
loop_
 _symmetry_equiv_pos_site_id
 _symmetry_equiv_pos_as_xyz
  1  'x, y, z'
loop_
 _atom_site_type_symbol
 _atom_site_label
 _atom_site_symmetry_multiplicity
 _atom_site_fract_x
 _atom_site_fract_y
 _atom_site_fract_z
 _atom_site_occupancy
  Li  Li0  1  0.500677  0.214096  0.783063  1
  V  V1  1  0.003660  0.992295  0.002219  1
  V  V2  1  0.447835  0.543298  0.020461  1
  V  V3  1  0.560716  0.789969  0.659624  1
  V  V4  1  0.505977  0.181384  0.324379  1
  V  V5  1  0.982650  0.659173  0.325172  1
  V  V6  1  0.996828  0.346040  0.658706  1
  O  O7  1  0.173524  0.715064  0.107450  1
  O  O8  1  0.326371  0.514062  0.761661  1
  O  O9  1  0.309696  0.206518  0.093922  1
  O  O10  1  0.686260  0.810324  0.906761  1
  O  O11  1  0.679798  0.479031  0.239444  1
  O  O12  1  0.676129  0.128288  0.573988  1
  O  O13  1  0.836295  0.627540  0.563305  1
  F  F14  1  0.178177  0.030734  0.759470  1
  F  F15  1  0.188749  0.360970  0.423964  1
  F  F16  1  0.313400  0.858283  0.425543  1
  F  F17  1  0.808363  0.978072  0.238274  1
  F  F18  1  0.822066  0.302827  0.897982  1
