# generated using pymatgen
data_KFePO4
_symmetry_space_group_name_H-M   'P 1'
_cell_length_a   5.40459222
_cell_length_b   6.76300213
_cell_length_c   10.43027048
_cell_angle_alpha   90.00918694
_cell_angle_beta   90.02818388
_cell_angle_gamma   89.99597653
_symmetry_Int_Tables_number   1
_chemical_formula_structural   KFePO4
_chemical_formula_sum   'K4 Fe4 P4 O16'
_cell_volume   381.23956667
_cell_formula_units_Z   4
loop_
 _symmetry_equiv_pos_site_id
 _symmetry_equiv_pos_as_xyz
  1  'x, y, z'
loop_
 _atom_site_type_symbol
 _atom_site_label
 _atom_site_symmetry_multiplicity
 _atom_site_fract_x
 _atom_site_fract_y
 _atom_site_fract_z
 _atom_site_occupancy
  K  K0  1  0.999962  0.000278  0.999865  1
  K  K1  1  0.500071  0.000018  0.500099  1
  K  K2  1  0.999938  0.499688  0.999866  1
  K  K3  1  0.500051  0.499934  0.500023  1
  Fe  Fe4  1  0.028066  0.750081  0.702304  1
  Fe  Fe5  1  0.472088  0.750226  0.202365  1
  Fe  Fe6  1  0.972169  0.249920  0.297650  1
  Fe  Fe7  1  0.527301  0.249971  0.797514  1
  P  P8  1  0.541824  0.750017  0.874040  1
  P  P9  1  0.958288  0.749976  0.373933  1
  P  P10  1  0.458311  0.250024  0.126043  1
  P  P11  1  0.041610  0.249974  0.626028  1
  O  O12  1  0.743947  0.249864  0.142456  1
  O  O13  1  0.165181  0.434644  0.689077  1
  O  O14  1  0.665092  0.565308  0.810961  1
  O  O15  1  0.834700  0.934511  0.310840  1
  O  O16  1  0.334806  0.065512  0.189138  1
  O  O17  1  0.834923  0.565247  0.310931  1
  O  O18  1  0.334924  0.434708  0.189053  1
  O  O19  1  0.165218  0.065443  0.689169  1
  O  O20  1  0.256115  0.750100  0.857659  1
  O  O21  1  0.756025  0.249926  0.642446  1
  O  O22  1  0.665159  0.934544  0.810866  1
  O  O23  1  0.243926  0.750132  0.357619  1
  O  O24  1  0.602285  0.750087  0.021180  1
  O  O25  1  0.398070  0.249917  0.978851  1
  O  O26  1  0.101892  0.249891  0.478919  1
  O  O27  1  0.898060  0.750054  0.521106  1
