# generated using pymatgen
data_Li2MnNi3O8
_symmetry_space_group_name_H-M   'P 1'
_cell_length_a   8.20818709
_cell_length_b   8.20226472
_cell_length_c   8.11757749
_cell_angle_alpha   89.92724937
_cell_angle_beta   90.02582752
_cell_angle_gamma   90.12152865
_symmetry_Int_Tables_number   1
_chemical_formula_structural   Li2MnNi3O8
_chemical_formula_sum   'Li8 Mn4 Ni12 O32'
_cell_volume   546.52005185
_cell_formula_units_Z   4
loop_
 _symmetry_equiv_pos_site_id
 _symmetry_equiv_pos_as_xyz
  1  'x, y, z'
loop_
 _atom_site_type_symbol
 _atom_site_label
 _atom_site_symmetry_multiplicity
 _atom_site_fract_x
 _atom_site_fract_y
 _atom_site_fract_z
 _atom_site_occupancy
  Li  Li0  1  0.999138  0.000283  0.000503  1
  Li  Li1  1  0.249236  0.250330  0.250865  1
  Li  Li2  1  0.251708  0.747969  0.752920  1
  Li  Li3  1  0.502980  0.001223  0.498946  1
  Li  Li4  1  0.496433  0.501532  0.002885  1
  Li  Li5  1  0.752117  0.249018  0.748575  1
  Li  Li6  1  0.747847  0.753883  0.246694  1
  Li  Li7  1  0.999136  0.498773  0.501603  1
  Mn  Mn8  1  0.123775  0.871218  0.375436  1
  Mn  Mn9  1  0.376615  0.124044  0.872744  1
  Mn  Mn10  1  0.630044  0.621726  0.622087  1
  Mn  Mn11  1  0.875434  0.373601  0.124141  1
  Ni  Ni12  1  0.123292  0.121490  0.628141  1
  Ni  Ni13  1  0.121735  0.370956  0.874254  1
  Ni  Ni14  1  0.121179  0.627958  0.124664  1
  Ni  Ni15  1  0.377081  0.373690  0.623412  1
  Ni  Ni16  1  0.376584  0.626759  0.375843  1
  Ni  Ni17  1  0.371877  0.879701  0.126609  1
  Ni  Ni18  1  0.631411  0.377830  0.375087  1
  Ni  Ni19  1  0.622897  0.127686  0.124476  1
  Ni  Ni20  1  0.624349  0.876575  0.872830  1
  Ni  Ni21  1  0.876150  0.125965  0.376635  1
  Ni  Ni22  1  0.876193  0.872210  0.626224  1
  Ni  Ni23  1  0.873478  0.624136  0.876494  1
  O  O24  1  0.108911  0.111304  0.393424  1
  O  O25  1  0.108020  0.887093  0.616761  1
  O  O26  1  0.103395  0.620447  0.892569  1
  O  O27  1  0.140689  0.123092  0.856845  1
  O  O28  1  0.108093  0.380970  0.108116  1
  O  O29  1  0.125139  0.350328  0.642602  1
  O  O30  1  0.125280  0.639327  0.357573  1
  O  O31  1  0.138135  0.873574  0.142958  1
  O  O32  1  0.356146  0.138554  0.632575  1
  O  O33  1  0.361372  0.359860  0.859801  1
  O  O34  1  0.362708  0.646659  0.142393  1
  O  O35  1  0.395392  0.610093  0.613280  1
  O  O36  1  0.354896  0.859685  0.380609  1
  O  O37  1  0.399499  0.388673  0.387250  1
  O  O38  1  0.376045  0.111733  0.107222  1
  O  O39  1  0.396780  0.891324  0.871730  1
  O  O40  1  0.630176  0.390241  0.604880  1
  O  O41  1  0.626688  0.607169  0.387130  1
  O  O42  1  0.606907  0.898219  0.114940  1
  O  O43  1  0.637249  0.360715  0.140806  1
  O  O44  1  0.607543  0.123769  0.882414  1
  O  O45  1  0.645849  0.146039  0.368313  1
  O  O46  1  0.645674  0.857653  0.628698  1
  O  O47  1  0.642317  0.626656  0.858763  1
  O  O48  1  0.860028  0.373759  0.359186  1
  O  O49  1  0.869868  0.142807  0.136227  1
  O  O50  1  0.857044  0.857143  0.862157  1
  O  O51  1  0.888842  0.877916  0.394870  1
  O  O52  1  0.867122  0.641122  0.641953  1
  O  O53  1  0.891546  0.101291  0.619399  1
  O  O54  1  0.882864  0.393506  0.886362  1
  O  O55  1  0.879090  0.610862  0.106268  1
