# generated using pymatgen
data_Li4Nb3Cr2Fe3O16
_symmetry_space_group_name_H-M   'P 1'
_cell_length_a   6.08361990
_cell_length_b   6.11055882
_cell_length_c   9.75518669
_cell_angle_alpha   90.53949774
_cell_angle_beta   88.77760443
_cell_angle_gamma   119.62851354
_symmetry_Int_Tables_number   1
_chemical_formula_structural   Li4Nb3Cr2Fe3O16
_chemical_formula_sum   'Li4 Nb3 Cr2 Fe3 O16'
_cell_volume   315.15454479
_cell_formula_units_Z   1
loop_
 _symmetry_equiv_pos_site_id
 _symmetry_equiv_pos_as_xyz
  1  'x, y, z'
loop_
 _atom_site_type_symbol
 _atom_site_label
 _atom_site_symmetry_multiplicity
 _atom_site_fract_x
 _atom_site_fract_y
 _atom_site_fract_z
 _atom_site_occupancy
  Li  Li0  1  0.336162  0.667930  0.903172  1
  Li  Li1  1  0.020812  0.004569  0.002349  1
  Li  Li2  1  0.039406  0.017734  0.485658  1
  Li  Li3  1  0.675138  0.336943  0.381232  1
  Nb  Nb4  1  0.655904  0.834435  0.211738  1
  Nb  Nb5  1  0.826654  0.661150  0.713799  1
  Nb  Nb6  1  0.821862  0.162603  0.710522  1
  Cr  Cr7  1  0.314161  0.655805  0.475489  1
  Cr  Cr8  1  0.655446  0.333377  0.995187  1
  Fe  Fe9  1  0.170048  0.829626  0.212570  1
  Fe  Fe10  1  0.170015  0.338905  0.213920  1
  Fe  Fe11  1  0.337989  0.168029  0.716406  1
  O  O12  1  0.146240  0.821362  0.600618  1
  O  O13  1  0.041461  0.507790  0.344382  1
  O  O14  1  0.345718  0.662914  0.099928  1
  O  O15  1  0.990184  0.001463  0.306187  1
  O  O16  1  0.978240  0.989179  0.816932  1
  O  O17  1  0.144204  0.322413  0.600739  1
  O  O18  1  0.488165  0.957070  0.350262  1
  O  O19  1  0.482362  0.525037  0.343735  1
  O  O20  1  0.333615  0.179682  0.097485  1
  O  O21  1  0.667969  0.833900  0.604467  1
  O  O22  1  0.531864  0.489793  0.842691  1
  O  O23  1  0.534968  0.045518  0.845318  1
  O  O24  1  0.689751  0.346461  0.597557  1
  O  O25  1  0.817892  0.664585  0.099894  1
  O  O26  1  0.961589  0.481569  0.834584  1
  O  O27  1  0.822183  0.160461  0.101017  1
