# generated using pymatgen
data_LiAg2F4
_symmetry_space_group_name_H-M   'P 1'
_cell_length_a   6.61998036
_cell_length_b   6.61998036
_cell_length_c   6.61998082
_cell_angle_alpha   120.00000390
_cell_angle_beta   59.99999610
_cell_angle_gamma   120.00000097
_symmetry_Int_Tables_number   1
_chemical_formula_structural   LiAg2F4
_chemical_formula_sum   'Li2 Ag4 F8'
_cell_volume   205.14224604
_cell_formula_units_Z   2
loop_
 _symmetry_equiv_pos_site_id
 _symmetry_equiv_pos_as_xyz
  1  'x, y, z'
loop_
 _atom_site_type_symbol
 _atom_site_label
 _atom_site_symmetry_multiplicity
 _atom_site_fract_x
 _atom_site_fract_y
 _atom_site_fract_z
 _atom_site_occupancy
  Li  Li0  1  0.000000  0.000000  0.000000  1
  Li  Li1  1  0.250000  0.750000  0.250000  1
  Ag  Ag2  1  0.125000  0.375000  0.625000  1
  Ag  Ag3  1  0.625000  0.375000  0.625000  1
  Ag  Ag4  1  0.625000  0.375000  0.125000  1
  Ag  Ag5  1  0.625000  0.875000  0.625000  1
  F  F6  1  0.365314  0.121771  0.878229  1
  F  F7  1  0.371771  0.115314  0.371771  1
  F  F8  1  0.878229  0.121771  0.365314  1
  F  F9  1  0.878229  0.121771  0.878229  1
  F  F10  1  0.371771  0.628229  0.884686  1
  F  F11  1  0.371771  0.628229  0.371771  1
  F  F12  1  0.878229  0.634686  0.878229  1
  F  F13  1  0.884686  0.628229  0.371771  1
