# generated using pymatgen
data_Na2CoCSO7
_symmetry_space_group_name_H-M   'P 1'
_cell_length_a   8.98631775
_cell_length_b   6.72854293
_cell_length_c   5.30252308
_cell_angle_alpha   90.00000000
_cell_angle_beta   88.89396158
_cell_angle_gamma   90.00000000
_symmetry_Int_Tables_number   1
_chemical_formula_structural   Na2CoCSO7
_chemical_formula_sum   'Na4 Co2 C2 S2 O14'
_cell_volume   320.55639312
_cell_formula_units_Z   2
loop_
 _symmetry_equiv_pos_site_id
 _symmetry_equiv_pos_as_xyz
  1  'x, y, z'
loop_
 _atom_site_type_symbol
 _atom_site_label
 _atom_site_symmetry_multiplicity
 _atom_site_fract_x
 _atom_site_fract_y
 _atom_site_fract_z
 _atom_site_occupancy
  Na  Na0  1  0.220588  0.505777  0.230665  1
  Na  Na1  1  0.220588  0.994223  0.230665  1
  Na  Na2  1  0.779412  0.494223  0.769335  1
  Na  Na3  1  0.779412  0.005777  0.769335  1
  Co  Co4  1  0.350940  0.750000  0.765712  1
  Co  Co5  1  0.649060  0.250000  0.234288  1
  C  C6  1  0.075842  0.750000  0.727880  1
  C  C7  1  0.924158  0.250000  0.272120  1
  S  S8  1  0.422048  0.250000  0.710586  1
  S  S9  1  0.577952  0.750000  0.289414  1
  O  O10  1  0.063771  0.250000  0.287070  1
  O  O11  1  0.145761  0.750000  0.943978  1
  O  O12  1  0.166898  0.750000  0.529819  1
  O  O13  1  0.336258  0.070888  0.788503  1
  O  O14  1  0.336258  0.429113  0.788503  1
  O  O15  1  0.428398  0.750000  0.170490  1
  O  O16  1  0.442349  0.250000  0.426770  1
  O  O17  1  0.557651  0.750000  0.573230  1
  O  O18  1  0.571602  0.250000  0.829510  1
  O  O19  1  0.663742  0.570887  0.211497  1
  O  O20  1  0.663742  0.929113  0.211497  1
  O  O21  1  0.833102  0.250000  0.470181  1
  O  O22  1  0.854239  0.250000  0.056022  1
  O  O23  1  0.936229  0.750000  0.712930  1
