# generated using pymatgen
data_Na2SnCSO7
_symmetry_space_group_name_H-M   'P 1'
_cell_length_a   9.37947083
_cell_length_b   7.10661151
_cell_length_c   5.47659538
_cell_angle_alpha   90.00000000
_cell_angle_beta   92.66987168
_cell_angle_gamma   90.00000000
_symmetry_Int_Tables_number   1
_chemical_formula_structural   Na2SnCSO7
_chemical_formula_sum   'Na4 Sn2 C2 S2 O14'
_cell_volume   364.65308183
_cell_formula_units_Z   2
loop_
 _symmetry_equiv_pos_site_id
 _symmetry_equiv_pos_as_xyz
  1  'x, y, z'
loop_
 _atom_site_type_symbol
 _atom_site_label
 _atom_site_symmetry_multiplicity
 _atom_site_fract_x
 _atom_site_fract_y
 _atom_site_fract_z
 _atom_site_occupancy
  Na  Na0  1  0.210045  0.495937  0.234955  1
  Na  Na1  1  0.210045  0.004063  0.234955  1
  Na  Na2  1  0.789955  0.504063  0.765045  1
  Na  Na3  1  0.789955  0.995937  0.765045  1
  Sn  Sn4  1  0.374031  0.750000  0.766553  1
  Sn  Sn5  1  0.625969  0.250000  0.233447  1
  C  C6  1  0.082664  0.750000  0.736831  1
  C  C7  1  0.917336  0.250000  0.263169  1
  S  S8  1  0.393521  0.250000  0.731934  1
  S  S9  1  0.606479  0.750000  0.268066  1
  O  O10  1  0.051882  0.250000  0.266144  1
  O  O11  1  0.161490  0.750000  0.945705  1
  O  O12  1  0.156306  0.750000  0.536602  1
  O  O13  1  0.336940  0.081217  0.859399  1
  O  O14  1  0.336940  0.418783  0.859399  1
  O  O15  1  0.445200  0.750000  0.245168  1
  O  O16  1  0.346614  0.250000  0.470331  1
  O  O17  1  0.653386  0.750000  0.529669  1
  O  O18  1  0.554800  0.250000  0.754833  1
  O  O19  1  0.663060  0.581217  0.140601  1
  O  O20  1  0.663060  0.918783  0.140601  1
  O  O21  1  0.843694  0.250000  0.463398  1
  O  O22  1  0.838510  0.250000  0.054295  1
  O  O23  1  0.948118  0.750000  0.733856  1
