# generated using pymatgen
data_Na2NiPCO7
_symmetry_space_group_name_H-M   'P 1'
_cell_length_a   10.17738151
_cell_length_b   10.42785309
_cell_length_c   6.61506903
_cell_angle_alpha   90.04332442
_cell_angle_beta   89.90882507
_cell_angle_gamma   60.48311619
_symmetry_Int_Tables_number   1
_chemical_formula_structural   Na2NiPCO7
_chemical_formula_sum   'Na8 Ni4 P4 C4 O28'
_cell_volume   610.92578328
_cell_formula_units_Z   4
loop_
 _symmetry_equiv_pos_site_id
 _symmetry_equiv_pos_as_xyz
  1  'x, y, z'
loop_
 _atom_site_type_symbol
 _atom_site_label
 _atom_site_symmetry_multiplicity
 _atom_site_fract_x
 _atom_site_fract_y
 _atom_site_fract_z
 _atom_site_occupancy
  Na  Na0  1  0.013112  0.254602  0.458622  1
  Na  Na1  1  0.486229  0.260270  0.989566  1
  Na  Na2  1  0.486089  0.259205  0.509478  1
  Na  Na3  1  0.852608  0.074921  0.767436  1
  Na  Na4  1  0.501944  0.749133  0.010814  1
  Na  Na5  1  0.505758  0.744716  0.491132  1
  Na  Na6  1  0.001488  0.737087  0.988747  1
  Na  Na7  1  0.001563  0.737012  0.512522  1
  Ni  Ni8  1  0.282197  0.066987  0.753725  1
  Ni  Ni9  1  0.212115  0.435669  0.249692  1
  Ni  Ni10  1  0.787836  0.560877  0.753852  1
  Ni  Ni11  1  0.716474  0.935110  0.251596  1
  P  P12  1  0.355963  0.065454  0.249857  1
  P  P13  1  0.146428  0.428328  0.750230  1
  P  P14  1  0.849731  0.573240  0.251006  1
  P  P15  1  0.647751  0.932234  0.750501  1
  C  C16  1  0.816360  0.106549  0.254138  1
  C  C17  1  0.321590  0.602526  0.250103  1
  C  C18  1  0.682317  0.391455  0.747163  1
  C  C19  1  0.177636  0.893665  0.746799  1
  O  O20  1  0.099501  0.036562  0.744336  1
  O  O21  1  0.283083  0.041930  0.060841  1
  O  O22  1  0.271121  0.054031  0.436143  1
  O  O23  1  0.142891  0.283827  0.740618  1
  O  O24  1  0.016294  0.445265  0.256399  1
  O  O25  1  0.482190  0.064968  0.750159  1
  O  O26  1  0.356181  0.213293  0.247508  1
  O  O27  1  0.227692  0.441987  0.938615  1
  O  O28  1  0.227670  0.446401  0.563282  1
  O  O29  1  0.671763  0.151055  0.249878  1
  O  O30  1  0.176666  0.653451  0.249281  1
  O  O31  1  0.399906  0.459266  0.249177  1
  O  O32  1  0.624835  0.307326  0.748949  1
  O  O33  1  0.111040  0.817817  0.748887  1
  O  O34  1  0.869149  0.191480  0.262319  1
  O  O35  1  0.381486  0.682523  0.251835  1
  O  O36  1  0.602359  0.534327  0.754382  1
  O  O37  1  0.826113  0.340958  0.739184  1
  O  O38  1  0.322232  0.839439  0.748264  1
  O  O39  1  0.765278  0.565401  0.063336  1
  O  O40  1  0.766467  0.560427  0.438161  1
  O  O41  1  0.642790  0.787179  0.749296  1
  O  O42  1  0.523583  0.935364  0.257076  1
  O  O43  1  0.980191  0.562287  0.750536  1
  O  O44  1  0.856841  0.718682  0.253039  1
  O  O45  1  0.733627  0.947509  0.566578  1
  O  O46  1  0.732609  0.945949  0.936431  1
  O  O47  1  0.900360  0.963401  0.248667  1
