# generated using pymatgen
data_LiFe2F7
_symmetry_space_group_name_H-M   'P 1'
_cell_length_a   13.00480101
_cell_length_b   5.10341286
_cell_length_c   7.47101339
_cell_angle_alpha   90.00000000
_cell_angle_beta   95.56608932
_cell_angle_gamma   90.00000000
_symmetry_Int_Tables_number   1
_chemical_formula_structural   LiFe2F7
_chemical_formula_sum   'Li4 Fe8 F28'
_cell_volume   493.50479886
_cell_formula_units_Z   4
loop_
 _symmetry_equiv_pos_site_id
 _symmetry_equiv_pos_as_xyz
  1  'x, y, z'
loop_
 _atom_site_type_symbol
 _atom_site_label
 _atom_site_symmetry_multiplicity
 _atom_site_fract_x
 _atom_site_fract_y
 _atom_site_fract_z
 _atom_site_occupancy
  Li  Li0  1  0.071138  0.745073  0.852918  1
  Li  Li1  1  0.071138  0.754927  0.352918  1
  Li  Li2  1  0.928862  0.245073  0.647082  1
  Li  Li3  1  0.928862  0.254927  0.147082  1
  Fe  Fe4  1  0.181427  0.247912  0.656399  1
  Fe  Fe5  1  0.181427  0.252088  0.156399  1
  Fe  Fe6  1  0.393265  0.752696  0.723798  1
  Fe  Fe7  1  0.393265  0.747304  0.223798  1
  Fe  Fe8  1  0.606735  0.252696  0.776202  1
  Fe  Fe9  1  0.606735  0.247304  0.276202  1
  Fe  Fe10  1  0.818573  0.747912  0.843601  1
  Fe  Fe11  1  0.818573  0.752088  0.343601  1
  F  F12  1  0.105762  0.945317  0.576780  1
  F  F13  1  0.057167  0.440446  0.688377  1
  F  F14  1  0.176595  0.104960  0.908247  1
  F  F15  1  0.105762  0.554683  0.076780  1
  F  F16  1  0.057167  0.059554  0.188377  1
  F  F17  1  0.176595  0.395040  0.408247  1
  F  F18  1  0.313333  0.062462  0.642303  1
  F  F19  1  0.263998  0.556732  0.748444  1
  F  F20  1  0.313333  0.437538  0.142303  1
  F  F21  1  0.263998  0.943268  0.248444  1
  F  F22  1  0.391870  0.633924  0.473877  1
  F  F23  1  0.391870  0.866076  0.973877  1
  F  F24  1  0.478325  0.449044  0.800592  1
  F  F25  1  0.521675  0.949044  0.699408  1
  F  F26  1  0.478325  0.050956  0.300592  1
  F  F27  1  0.521675  0.550956  0.199408  1
  F  F28  1  0.608130  0.133924  0.026123  1
  F  F29  1  0.608130  0.366076  0.526123  1
  F  F30  1  0.736002  0.056732  0.751556  1
  F  F31  1  0.686667  0.562462  0.857697  1
  F  F32  1  0.736002  0.443268  0.251556  1
  F  F33  1  0.686667  0.937538  0.357697  1
  F  F34  1  0.823405  0.604960  0.591753  1
  F  F35  1  0.942833  0.940446  0.811623  1
  F  F36  1  0.894238  0.445317  0.923220  1
  F  F37  1  0.823405  0.895040  0.091753  1
  F  F38  1  0.942833  0.559554  0.311623  1
  F  F39  1  0.894238  0.054683  0.423220  1
