# generated using pymatgen
data_LiTi2(PO4)3
_symmetry_space_group_name_H-M   'P 1'
_cell_length_a   8.64861030
_cell_length_b   12.00716347
_cell_length_c   8.70920450
_cell_angle_alpha   90.00000000
_cell_angle_beta   90.00000000
_cell_angle_gamma   90.00000000
_symmetry_Int_Tables_number   1
_chemical_formula_structural   LiTi2(PO4)3
_chemical_formula_sum   'Li4 Ti8 P12 O48'
_cell_volume   904.40975950
_cell_formula_units_Z   4
loop_
 _symmetry_equiv_pos_site_id
 _symmetry_equiv_pos_as_xyz
  1  'x, y, z'
loop_
 _atom_site_type_symbol
 _atom_site_label
 _atom_site_symmetry_multiplicity
 _atom_site_fract_x
 _atom_site_fract_y
 _atom_site_fract_z
 _atom_site_occupancy
  Li  Li0  1  0.215921  0.817106  0.728798  1
  Li  Li1  1  0.284079  0.317107  0.271202  1
  Li  Li2  1  0.715921  0.317107  0.771202  1
  Li  Li3  1  0.784079  0.817106  0.228798  1
  Ti  Ti4  1  0.244890  0.379446  0.951614  1
  Ti  Ti5  1  0.251531  0.616208  0.528304  1
  Ti  Ti6  1  0.248469  0.116208  0.471696  1
  Ti  Ti7  1  0.255110  0.879446  0.048386  1
  Ti  Ti8  1  0.751531  0.116208  0.971696  1
  Ti  Ti9  1  0.744890  0.879446  0.548386  1
  Ti  Ti10  1  0.755110  0.379446  0.451614  1
  Ti  Ti11  1  0.748469  0.616208  0.028304  1
  P  P12  1  0.037912  0.501686  0.246513  1
  P  P13  1  0.103124  0.855561  0.395337  1
  P  P14  1  0.108674  0.144214  0.105692  1
  P  P15  1  0.396876  0.355561  0.604663  1
  P  P16  1  0.391326  0.644214  0.894308  1
  P  P17  1  0.462088  0.001686  0.753487  1
  P  P18  1  0.537912  0.001686  0.253487  1
  P  P19  1  0.603124  0.355561  0.104663  1
  P  P20  1  0.608674  0.644214  0.394308  1
  P  P21  1  0.896876  0.855561  0.895337  1
  P  P22  1  0.891326  0.144214  0.605692  1
  P  P23  1  0.962088  0.501686  0.746513  1
  O  O24  1  0.063128  0.575697  0.646034  1
  O  O25  1  0.062264  0.424390  0.849814  1
  O  O26  1  0.068757  0.154218  0.591097  1
  O  O27  1  0.074138  0.844433  0.901609  1
  O  O28  1  0.161454  0.025050  0.068387  1
  O  O29  1  0.156727  0.974464  0.435473  1
  O  O30  1  0.160476  0.176158  0.270581  1
  O  O31  1  0.153592  0.826664  0.229956  1
  O  O32  1  0.146931  0.423863  0.155497  1
  O  O33  1  0.140457  0.576564  0.349337  1
  O  O34  1  0.182500  0.227847  0.992102  1
  O  O35  1  0.178169  0.777038  0.515264  1
  O  O36  1  0.321831  0.277038  0.484736  1
  O  O37  1  0.317500  0.727847  0.007898  1
  O  O38  1  0.359543  0.076564  0.650663  1
  O  O39  1  0.353069  0.923863  0.844503  1
  O  O40  1  0.339524  0.676158  0.729419  1
  O  O41  1  0.346408  0.326664  0.770044  1
  O  O42  1  0.343273  0.474464  0.564527  1
  O  O43  1  0.338546  0.525050  0.931613  1
  O  O44  1  0.431243  0.654218  0.408903  1
  O  O45  1  0.425862  0.344433  0.098391  1
  O  O46  1  0.436872  0.075697  0.353966  1
  O  O47  1  0.437736  0.924390  0.150186  1
  O  O48  1  0.562264  0.924390  0.650186  1
  O  O49  1  0.563128  0.075697  0.853966  1
  O  O50  1  0.574138  0.344433  0.598391  1
  O  O51  1  0.568757  0.654218  0.908903  1
  O  O52  1  0.656727  0.474464  0.064527  1
  O  O53  1  0.661454  0.525050  0.431613  1
  O  O54  1  0.653592  0.326664  0.270044  1
  O  O55  1  0.660476  0.676158  0.229419  1
  O  O56  1  0.640457  0.076564  0.150663  1
  O  O57  1  0.646931  0.923863  0.344503  1
  O  O58  1  0.678169  0.277038  0.984736  1
  O  O59  1  0.682500  0.727847  0.507898  1
  O  O60  1  0.817500  0.227847  0.492102  1
  O  O61  1  0.821831  0.777038  0.015264  1
  O  O62  1  0.853069  0.423863  0.655497  1
  O  O63  1  0.859543  0.576564  0.849337  1
  O  O64  1  0.839524  0.176158  0.770581  1
  O  O65  1  0.846408  0.826664  0.729956  1
  O  O66  1  0.838546  0.025050  0.568387  1
  O  O67  1  0.843273  0.974464  0.935473  1
  O  O68  1  0.925862  0.844433  0.401609  1
  O  O69  1  0.931243  0.154218  0.091097  1
  O  O70  1  0.937736  0.424390  0.349814  1
  O  O71  1  0.936872  0.575697  0.146034  1
