# generated using pymatgen
data_Li3Zn2Fe19O32
_symmetry_space_group_name_H-M   'P 1'
_cell_length_a   6.01247364
_cell_length_b   6.02377620
_cell_length_c   19.93264397
_cell_angle_alpha   98.76395547
_cell_angle_beta   89.95491432
_cell_angle_gamma   120.05354260
_symmetry_Int_Tables_number   1
_chemical_formula_structural   Li3Zn2Fe19O32
_chemical_formula_sum   'Li3 Zn2 Fe19 O32'
_cell_volume   615.15367107
_cell_formula_units_Z   1
loop_
 _symmetry_equiv_pos_site_id
 _symmetry_equiv_pos_as_xyz
  1  'x, y, z'
loop_
 _atom_site_type_symbol
 _atom_site_label
 _atom_site_symmetry_multiplicity
 _atom_site_fract_x
 _atom_site_fract_y
 _atom_site_fract_z
 _atom_site_occupancy
  Li  Li0  1  0.440653  0.878864  0.312246  1
  Li  Li1  1  0.185356  0.371124  0.561808  1
  Li  Li2  1  0.939167  0.880360  0.813874  1
  Zn  Zn3  1  0.223788  0.938358  0.157750  1
  Zn  Zn4  1  0.345382  0.689718  0.031517  1
  Fe  Fe5  1  0.998531  0.999695  0.998141  1
  Fe  Fe6  1  0.224660  0.445814  0.157188  1
  Fe  Fe7  1  0.715686  0.936398  0.157172  1
  Fe  Fe8  1  0.694891  0.374615  0.064681  1
  Fe  Fe9  1  0.095655  0.194028  0.285806  1
  Fe  Fe10  1  0.745128  0.506644  0.252576  1
  Fe  Fe11  1  0.975421  0.949790  0.406254  1
  Fe  Fe12  1  0.460702  0.434268  0.406402  1
  Fe  Fe13  1  0.208532  0.932769  0.655231  1
  Fe  Fe14  1  0.840175  0.683140  0.533711  1
  Fe  Fe15  1  0.974873  0.433194  0.406386  1
  Fe  Fe16  1  0.722558  0.930844  0.654991  1
  Fe  Fe17  1  0.498866  0.994897  0.499354  1
  Fe  Fe18  1  0.251800  0.502546  0.747986  1
  Fe  Fe19  1  0.724192  0.446500  0.655376  1
  Fe  Fe20  1  0.470035  0.940952  0.903767  1
  Fe  Fe21  1  0.469621  0.434878  0.904223  1
  Fe  Fe22  1  0.598257  0.194443  0.783377  1
  Fe  Fe23  1  0.964912  0.436904  0.904729  1
  O  O24  1  0.048179  0.562699  0.095369  1
  O  O25  1  0.531114  0.570686  0.097344  1
  O  O26  1  0.411368  0.801733  0.209093  1
  O  O27  1  0.031705  0.068572  0.097139  1
  O  O28  1  0.386020  0.312039  0.219513  1
  O  O29  1  0.135156  0.800506  0.468041  1
  O  O30  1  0.909578  0.835021  0.220214  1
  O  O31  1  0.276258  0.538580  0.349884  1
  O  O32  1  0.538513  0.051628  0.094847  1
  O  O33  1  0.018661  0.577625  0.596616  1
  O  O34  1  0.160960  0.310589  0.460359  1
  O  O35  1  0.271265  0.088892  0.348611  1
  O  O36  1  0.914720  0.307374  0.217926  1
  O  O37  1  0.777484  0.566186  0.351761  1
  O  O38  1  0.660893  0.793072  0.466865  1
  O  O39  1  0.656803  0.326688  0.466209  1
  O  O40  1  0.417652  0.834037  0.717231  1
  O  O41  1  0.016038  0.033074  0.596155  1
  O  O42  1  0.558289  0.574829  0.596996  1
  O  O43  1  0.810295  0.081986  0.348235  1
  O  O44  1  0.903205  0.808429  0.711091  1
  O  O45  1  0.281833  0.565129  0.846843  1
  O  O46  1  0.414510  0.302836  0.717039  1
  O  O47  1  0.163064  0.803792  0.963361  1
  O  O48  1  0.534442  0.065049  0.599381  1
  O  O49  1  0.163019  0.324599  0.963384  1
  O  O50  1  0.889943  0.306703  0.716906  1
  O  O51  1  0.639165  0.802441  0.962628  1
  O  O52  1  0.767978  0.537141  0.847079  1
  O  O53  1  0.315036  0.081860  0.846475  1
  O  O54  1  0.768136  0.084047  0.846733  1
  O  O55  1  0.656479  0.312421  0.964448  1
