# generated using pymatgen
data_Li2MgCo13O28
_symmetry_space_group_name_H-M   'P 1'
_cell_length_a   8.17537043
_cell_length_b   8.65398789
_cell_length_c   7.54469339
_cell_angle_alpha   104.66572236
_cell_angle_beta   105.64676189
_cell_angle_gamma   100.90736612
_symmetry_Int_Tables_number   1
_chemical_formula_structural   Li2MgCo13O28
_chemical_formula_sum   'Li2 Mg1 Co13 O28'
_cell_volume   477.88180958
_cell_formula_units_Z   1
loop_
 _symmetry_equiv_pos_site_id
 _symmetry_equiv_pos_as_xyz
  1  'x, y, z'
loop_
 _atom_site_type_symbol
 _atom_site_label
 _atom_site_symmetry_multiplicity
 _atom_site_fract_x
 _atom_site_fract_y
 _atom_site_fract_z
 _atom_site_occupancy
  Li  Li0  1  0.215788  0.291930  0.579279  1
  Li  Li1  1  0.784212  0.708070  0.420721  1
  Mg  Mg2  1  0.500000  0.500000  0.500000  1
  Co  Co3  1  0.787851  0.215570  0.928219  1
  Co  Co4  1  0.928826  0.071080  0.642853  1
  Co  Co5  1  0.578209  0.434488  0.862358  1
  Co  Co6  1  0.361611  0.647370  0.788400  1
  Co  Co7  1  0.716443  0.287009  0.572278  1
  Co  Co8  1  0.848526  0.135870  0.280841  1
  Co  Co9  1  0.151474  0.864130  0.719159  1
  Co  Co10  1  0.638389  0.352630  0.211600  1
  Co  Co11  1  0.283557  0.712991  0.427722  1
  Co  Co12  1  0.000000  0.000000  0.000000  1
  Co  Co13  1  0.421791  0.565512  0.137642  1
  Co  Co14  1  0.071174  0.928920  0.357147  1
  Co  Co15  1  0.212149  0.784430  0.071781  1
  O  O16  1  0.008653  0.186108  0.912343  1
  O  O17  1  0.569968  0.242350  0.942392  1
  O  O18  1  0.349106  0.452363  0.864209  1
  O  O19  1  0.710979  0.099811  0.658251  1
  O  O20  1  0.799222  0.403426  0.844683  1
  O  O21  1  0.152483  0.052827  0.626541  1
  O  O22  1  0.582520  0.625502  0.795141  1
  O  O23  1  0.221320  0.975313  0.987989  1
  O  O24  1  0.137993  0.676366  0.800714  1
  O  O25  1  0.938238  0.256169  0.552464  1
  O  O26  1  0.499792  0.305435  0.602462  1
  O  O27  1  0.077087  0.117611  0.273595  1
  O  O28  1  0.266788  0.531322  0.523606  1
  O  O29  1  0.366049  0.835532  0.699858  1
  O  O30  1  0.733212  0.468678  0.476394  1
  O  O31  1  0.922913  0.882389  0.726405  1
  O  O32  1  0.633951  0.164468  0.300142  1
  O  O33  1  0.500208  0.694565  0.397538  1
  O  O34  1  0.778680  0.024687  0.012011  1
  O  O35  1  0.061762  0.743831  0.447536  1
  O  O36  1  0.862007  0.323634  0.199286  1
  O  O37  1  0.417480  0.374498  0.204859  1
  O  O38  1  0.289021  0.900188  0.341749  1
  O  O39  1  0.847517  0.947172  0.373459  1
  O  O40  1  0.650894  0.547637  0.135791  1
  O  O41  1  0.200778  0.596574  0.155317  1
  O  O42  1  0.430032  0.757650  0.057608  1
  O  O43  1  0.991347  0.813892  0.087657  1
