# generated using pymatgen
data_LiVPO5
_symmetry_space_group_name_H-M   'P 1'
_cell_length_a   8.59316937
_cell_length_b   9.30783417
_cell_length_c   10.44463031
_cell_angle_alpha   90.00000000
_cell_angle_beta   90.00000000
_cell_angle_gamma   89.92455399
_symmetry_Int_Tables_number   1
_chemical_formula_structural   LiVPO5
_chemical_formula_sum   'Li8 V8 P8 O40'
_cell_volume   835.40045015
_cell_formula_units_Z   8
loop_
 _symmetry_equiv_pos_site_id
 _symmetry_equiv_pos_as_xyz
  1  'x, y, z'
loop_
 _atom_site_type_symbol
 _atom_site_label
 _atom_site_symmetry_multiplicity
 _atom_site_fract_x
 _atom_site_fract_y
 _atom_site_fract_z
 _atom_site_occupancy
  Li  Li0  1  0.001349  0.810754  0.998867  1
  Li  Li1  1  0.212582  0.139937  0.107177  1
  Li  Li2  1  0.287418  0.860063  0.607177  1
  Li  Li3  1  0.498651  0.189246  0.498867  1
  Li  Li4  1  0.564754  0.538172  0.048296  1
  Li  Li5  1  0.708771  0.865217  0.397673  1
  Li  Li6  1  0.791229  0.134783  0.897673  1
  Li  Li7  1  0.935246  0.461828  0.548296  1
  V  V8  1  0.135270  0.155041  0.622697  1
  V  V9  1  0.154904  0.358821  0.900953  1
  V  V10  1  0.345096  0.641179  0.400953  1
  V  V11  1  0.364730  0.844959  0.122697  1
  V  V12  1  0.639394  0.837873  0.892705  1
  V  V13  1  0.643066  0.646251  0.610439  1
  V  V14  1  0.856934  0.353749  0.110439  1
  V  V15  1  0.860606  0.162127  0.392705  1
  P  P16  1  0.152214  0.557644  0.142561  1
  P  P17  1  0.170619  0.958205  0.374621  1
  P  P18  1  0.329381  0.041795  0.874621  1
  P  P19  1  0.347786  0.442356  0.642561  1
  P  P20  1  0.648480  0.445256  0.352371  1
  P  P21  1  0.675003  0.044920  0.128447  1
  P  P22  1  0.824997  0.955080  0.628447  1
  P  P23  1  0.851520  0.554744  0.852371  1
  O  O24  1  0.002357  0.269140  0.987481  1
  O  O25  1  0.983560  0.251098  0.500733  1
  O  O26  1  0.001375  0.986927  0.630432  1
  O  O27  1  0.026563  0.529190  0.867586  1
  O  O28  1  0.070842  0.257091  0.748069  1
  O  O29  1  0.176983  0.713367  0.093009  1
  O  O30  1  0.196626  0.804372  0.427994  1
  O  O31  1  0.200761  0.547457  0.284483  1
  O  O32  1  0.252865  0.552573  0.560762  1
  O  O33  1  0.268830  0.021386  0.736038  1
  O  O34  1  0.242015  0.941693  0.971919  1
  O  O35  1  0.257985  0.058307  0.471919  1
  O  O36  1  0.231170  0.978614  0.236038  1
  O  O37  1  0.247135  0.447427  0.060762  1
  O  O38  1  0.299239  0.452543  0.784483  1
  O  O39  1  0.303374  0.195628  0.927994  1
  O  O40  1  0.323017  0.286633  0.593009  1
  O  O41  1  0.429158  0.742909  0.248069  1
  O  O42  1  0.473437  0.470810  0.367586  1
  O  O43  1  0.498625  0.013073  0.130432  1
  O  O44  1  0.497643  0.730860  0.487481  1
  O  O45  1  0.516440  0.748902  0.000733  1
  O  O46  1  0.503763  0.007934  0.872804  1
  O  O47  1  0.523894  0.471447  0.633622  1
  O  O48  1  0.570262  0.741482  0.740001  1
  O  O49  1  0.673805  0.285425  0.395940  1
  O  O50  1  0.699366  0.198516  0.074331  1
  O  O51  1  0.688198  0.462005  0.207795  1
  O  O52  1  0.752528  0.456780  0.941751  1
  O  O53  1  0.766179  0.976691  0.766256  1
  O  O54  1  0.735897  0.055281  0.531088  1
  O  O55  1  0.764103  0.944719  0.031088  1
  O  O56  1  0.733821  0.023309  0.266256  1
  O  O57  1  0.747472  0.543220  0.441751  1
  O  O58  1  0.811802  0.537995  0.707795  1
  O  O59  1  0.800634  0.801484  0.574331  1
  O  O60  1  0.826195  0.714575  0.895940  1
  O  O61  1  0.929738  0.258518  0.240001  1
  O  O62  1  0.976106  0.528553  0.133622  1
  O  O63  1  0.996237  0.992066  0.372804  1
