# generated using pymatgen
data_K2SnBr6
_symmetry_space_group_name_H-M   'P 1'
_cell_length_a   7.47954653
_cell_length_b   7.48020597
_cell_length_c   11.32189068
_cell_angle_alpha   89.99190168
_cell_angle_beta   89.99010874
_cell_angle_gamma   90.15753352
_symmetry_Int_Tables_number   1
_chemical_formula_structural   K2SnBr6
_chemical_formula_sum   'K4 Sn2 Br12'
_cell_volume   633.44094059
_cell_formula_units_Z   2
loop_
 _symmetry_equiv_pos_site_id
 _symmetry_equiv_pos_as_xyz
  1  'x, y, z'
loop_
 _atom_site_type_symbol
 _atom_site_label
 _atom_site_symmetry_multiplicity
 _atom_site_fract_x
 _atom_site_fract_y
 _atom_site_fract_z
 _atom_site_occupancy
  K  K0  1  0.500038  0.499880  0.999416  1
  K  K1  1  0.999925  0.000021  0.000501  1
  K  K2  1  0.499962  0.499891  0.500581  1
  K  K3  1  0.000108  0.999992  0.499724  1
  Sn  Sn4  1  0.499908  0.999859  0.251417  1
  Sn  Sn5  1  0.000024  0.500180  0.748445  1
  Br  Br6  1  0.499912  0.999940  0.487258  1
  Br  Br7  1  0.999975  0.500029  0.512782  1
  Br  Br8  1  0.500019  0.999940  0.015370  1
  Br  Br9  1  0.000034  0.500071  0.984281  1
  Br  Br10  1  0.689115  0.700367  0.250923  1
  Br  Br11  1  0.299574  0.310492  0.749101  1
  Br  Br12  1  0.310665  0.299402  0.250853  1
  Br  Br13  1  0.700619  0.689888  0.749144  1
  Br  Br14  1  0.809822  0.200018  0.749235  1
  Br  Br15  1  0.190387  0.800290  0.749053  1
  Br  Br16  1  0.799725  0.190528  0.250945  1
  Br  Br17  1  0.200187  0.809211  0.250973  1
