# generated using pymatgen
data_ZrH11C4NOF5
_symmetry_space_group_name_H-M   'P 1'
_cell_length_a   9.86683449
_cell_length_b   19.31917092
_cell_length_c   10.16048489
_cell_angle_alpha   90.00000000
_cell_angle_beta   90.00000000
_cell_angle_gamma   90.00000000
_symmetry_Int_Tables_number   1
_chemical_formula_structural   ZrH11C4NOF5
_chemical_formula_sum   'Zr8 H88 C32 N8 O8 F40'
_cell_volume   1936.78209871
_cell_formula_units_Z   8
loop_
 _symmetry_equiv_pos_site_id
 _symmetry_equiv_pos_as_xyz
  1  'x, y, z'
loop_
 _atom_site_type_symbol
 _atom_site_label
 _atom_site_symmetry_multiplicity
 _atom_site_fract_x
 _atom_site_fract_y
 _atom_site_fract_z
 _atom_site_occupancy
  Zr  Zr0  1  0.091203  0.419573  0.531516  1
  Zr  Zr1  1  0.591203  0.080427  0.468484  1
  Zr  Zr2  1  0.908797  0.919573  0.968484  1
  Zr  Zr3  1  0.408797  0.580427  0.031516  1
  Zr  Zr4  1  0.908797  0.580427  0.468484  1
  Zr  Zr5  1  0.408797  0.919573  0.531516  1
  Zr  Zr6  1  0.091203  0.080427  0.031516  1
  Zr  Zr7  1  0.591203  0.419573  0.968484  1
  H  H8  1  0.143829  0.444452  0.011480  1
  H  H9  1  0.643829  0.055548  0.988520  1
  H  H10  1  0.856171  0.944452  0.488520  1
  H  H11  1  0.356171  0.555548  0.511480  1
  H  H12  1  0.856171  0.555548  0.988520  1
  H  H13  1  0.356171  0.944452  0.011480  1
  H  H14  1  0.143829  0.055548  0.511480  1
  H  H15  1  0.643829  0.444452  0.488520  1
  H  H16  1  0.967986  0.425159  0.971659  1
  H  H17  1  0.467986  0.074841  0.028341  1
  H  H18  1  0.032014  0.925159  0.528341  1
  H  H19  1  0.532014  0.574841  0.471659  1
  H  H20  1  0.032014  0.574841  0.028341  1
  H  H21  1  0.532014  0.925159  0.971659  1
  H  H22  1  0.967986  0.074841  0.471659  1
  H  H23  1  0.467986  0.425159  0.528341  1
  H  H24  1  0.019158  0.435005  0.140530  1
  H  H25  1  0.519158  0.064995  0.859470  1
  H  H26  1  0.980842  0.935005  0.359470  1
  H  H27  1  0.480842  0.564995  0.640530  1
  H  H28  1  0.980842  0.564995  0.859470  1
  H  H29  1  0.480842  0.935005  0.140530  1
  H  H30  1  0.019158  0.064995  0.640530  1
  H  H31  1  0.519158  0.435005  0.359470  1
  H  H32  1  0.223155  0.273752  0.140727  1
  H  H33  1  0.723155  0.226248  0.859273  1
  H  H34  1  0.776845  0.773752  0.359273  1
  H  H35  1  0.276845  0.726248  0.640727  1
  H  H36  1  0.776845  0.726248  0.859273  1
  H  H37  1  0.276845  0.773752  0.140727  1
  H  H38  1  0.223155  0.226248  0.640727  1
  H  H39  1  0.723155  0.273752  0.359273  1
  H  H40  1  0.292644  0.356375  0.093627  1
  H  H41  1  0.792644  0.143625  0.906373  1
  H  H42  1  0.707356  0.856375  0.406373  1
  H  H43  1  0.207356  0.643625  0.593627  1
  H  H44  1  0.707356  0.643625  0.906373  1
  H  H45  1  0.207356  0.856375  0.093627  1
  H  H46  1  0.292644  0.143625  0.593627  1
  H  H47  1  0.792644  0.356375  0.406373  1
  H  H48  1  0.180955  0.350538  0.233387  1
  H  H49  1  0.680955  0.149462  0.766613  1
  H  H50  1  0.819045  0.850538  0.266613  1
  H  H51  1  0.319045  0.649462  0.733387  1
  H  H52  1  0.819045  0.649462  0.766613  1
  H  H53  1  0.319045  0.850538  0.233387  1
  H  H54  1  0.180955  0.149462  0.733387  1
  H  H55  1  0.680955  0.350538  0.266613  1
  H  H56  1  0.137342  0.260087  0.917515  1
  H  H57  1  0.637342  0.239913  0.082485  1
  H  H58  1  0.862658  0.760087  0.582485  1
  H  H59  1  0.362658  0.739913  0.417515  1
  H  H60  1  0.862658  0.739913  0.082485  1
  H  H61  1  0.362658  0.760087  0.917515  1
  H  H62  1  0.137342  0.239913  0.417515  1
  H  H63  1  0.637342  0.260087  0.582485  1
  H  H64  1  0.026557  0.325215  0.848546  1
  H  H65  1  0.526557  0.174785  0.151454  1
  H  H66  1  0.973443  0.825215  0.651454  1
  H  H67  1  0.473443  0.674785  0.348546  1
  H  H68  1  0.973443  0.674785  0.151454  1
  H  H69  1  0.473443  0.825215  0.848546  1
  H  H70  1  0.026557  0.174785  0.348546  1
  H  H71  1  0.526557  0.325215  0.651454  1
  H  H72  1  0.201876  0.344906  0.873254  1
  H  H73  1  0.701876  0.155094  0.126746  1
  H  H74  1  0.798124  0.844906  0.626746  1
  H  H75  1  0.298124  0.655094  0.373254  1
  H  H76  1  0.798124  0.655094  0.126746  1
  H  H77  1  0.298124  0.844906  0.873254  1
  H  H78  1  0.201876  0.155094  0.373254  1
  H  H79  1  0.701876  0.344906  0.626746  1
  H  H80  1  0.964319  0.303478  0.209092  1
  H  H81  1  0.464319  0.196522  0.790908  1
  H  H82  1  0.035681  0.803478  0.290908  1
  H  H83  1  0.535681  0.696522  0.709092  1
  H  H84  1  0.035681  0.696522  0.790908  1
  H  H85  1  0.535681  0.803478  0.209092  1
  H  H86  1  0.964319  0.196522  0.709092  1
  H  H87  1  0.464319  0.303478  0.290908  1
  H  H88  1  0.879423  0.301357  0.037128  1
  H  H89  1  0.379423  0.198643  0.962872  1
  H  H90  1  0.120577  0.801357  0.462872  1
  H  H91  1  0.620577  0.698643  0.537128  1
  H  H92  1  0.120577  0.698643  0.962872  1
  H  H93  1  0.620577  0.801357  0.037128  1
  H  H94  1  0.879423  0.198643  0.537128  1
  H  H95  1  0.379423  0.301357  0.462872  1
  C  C96  1  0.050620  0.418022  0.042572  1
  C  C97  1  0.550620  0.081978  0.957428  1
  C  C98  1  0.949380  0.918022  0.457428  1
  C  C99  1  0.449380  0.581978  0.542572  1
  C  C100  1  0.949380  0.581978  0.957428  1
  C  C101  1  0.449380  0.918022  0.042572  1
  C  C102  1  0.050620  0.081978  0.542572  1
  C  C103  1  0.550620  0.418022  0.457428  1
  C  C104  1  0.205110  0.329637  0.135717  1
  C  C105  1  0.705110  0.170363  0.864283  1
  C  C106  1  0.794890  0.829637  0.364283  1
  C  C107  1  0.294890  0.670363  0.635717  1
  C  C108  1  0.794890  0.670363  0.864283  1
  C  C109  1  0.294890  0.829637  0.135717  1
  C  C110  1  0.205110  0.170363  0.635717  1
  C  C111  1  0.705110  0.329637  0.364283  1
  C  C112  1  0.115007  0.315763  0.910787  1
  C  C113  1  0.615007  0.184237  0.089213  1
  C  C114  1  0.884993  0.815763  0.589213  1
  C  C115  1  0.384993  0.684237  0.410787  1
  C  C116  1  0.884993  0.684237  0.089213  1
  C  C117  1  0.384993  0.815763  0.910787  1
  C  C118  1  0.115007  0.184237  0.410787  1
  C  C119  1  0.615007  0.315763  0.589213  1
  C  C120  1  0.966202  0.307547  0.102273  1
  C  C121  1  0.466202  0.192453  0.897727  1
  C  C122  1  0.033798  0.807547  0.397727  1
  C  C123  1  0.533798  0.692453  0.602273  1
  C  C124  1  0.033798  0.692453  0.897727  1
  C  C125  1  0.533798  0.807547  0.102273  1
  C  C126  1  0.966202  0.192453  0.602273  1
  C  C127  1  0.466202  0.307547  0.397727  1
  N  N128  1  0.084377  0.341208  0.048028  1
  N  N129  1  0.584377  0.158792  0.951972  1
  N  N130  1  0.915623  0.841208  0.451972  1
  N  N131  1  0.415623  0.658792  0.548028  1
  N  N132  1  0.915623  0.658792  0.951972  1
  N  N133  1  0.415623  0.841208  0.048028  1
  N  N134  1  0.084377  0.158792  0.548028  1
  N  N135  1  0.584377  0.341208  0.451972  1
  O  O136  1  0.240917  0.450144  0.689408  1
  O  O137  1  0.740917  0.049856  0.310592  1
  O  O138  1  0.759083  0.950144  0.810592  1
  O  O139  1  0.259083  0.549856  0.189408  1
  O  O140  1  0.759083  0.549856  0.310592  1
  O  O141  1  0.259083  0.950144  0.689408  1
  O  O142  1  0.240917  0.049856  0.189408  1
  O  O143  1  0.740917  0.450144  0.810592  1
  F  F144  1  0.937865  0.471328  0.412223  1
  F  F145  1  0.437865  0.028672  0.587777  1
  F  F146  1  0.062135  0.971328  0.087777  1
  F  F147  1  0.562135  0.528672  0.912223  1
  F  F148  1  0.062135  0.528672  0.587777  1
  F  F149  1  0.562135  0.971328  0.412223  1
  F  F150  1  0.937865  0.028672  0.912223  1
  F  F151  1  0.437865  0.471328  0.087777  1
  F  F152  1  0.222062  0.340697  0.594514  1
  F  F153  1  0.722062  0.159303  0.405486  1
  F  F154  1  0.777938  0.840697  0.905486  1
  F  F155  1  0.277938  0.659303  0.094514  1
  F  F156  1  0.777938  0.659303  0.405486  1
  F  F157  1  0.277938  0.840697  0.594514  1
  F  F158  1  0.222062  0.159303  0.094514  1
  F  F159  1  0.722062  0.340697  0.905486  1
  F  F160  1  0.960557  0.391716  0.672359  1
  F  F161  1  0.460557  0.108284  0.327641  1
  F  F162  1  0.039443  0.891716  0.827641  1
  F  F163  1  0.539443  0.608284  0.172359  1
  F  F164  1  0.039443  0.608284  0.327641  1
  F  F165  1  0.539443  0.891716  0.672359  1
  F  F166  1  0.960557  0.108284  0.172359  1
  F  F167  1  0.460557  0.391716  0.827641  1
  F  F168  1  0.247613  0.455357  0.421890  1
  F  F169  1  0.747613  0.044643  0.578110  1
  F  F170  1  0.752387  0.955357  0.078110  1
  F  F171  1  0.252387  0.544643  0.921890  1
  F  F172  1  0.752387  0.544643  0.578110  1
  F  F173  1  0.252387  0.955357  0.421890  1
  F  F174  1  0.247613  0.044643  0.921890  1
  F  F175  1  0.747613  0.455357  0.078110  1
  F  F176  1  0.034515  0.344242  0.402459  1
  F  F177  1  0.534515  0.155758  0.597541  1
  F  F178  1  0.965485  0.844242  0.097541  1
  F  F179  1  0.465485  0.655758  0.902459  1
  F  F180  1  0.965485  0.655758  0.597541  1
  F  F181  1  0.465485  0.844242  0.402459  1
  F  F182  1  0.034515  0.155758  0.902459  1
  F  F183  1  0.534515  0.344242  0.097541  1
