# generated using pymatgen
data_Li2Mn3CuO8
_symmetry_space_group_name_H-M   'P 1'
_cell_length_a   8.38357568
_cell_length_b   8.30052144
_cell_length_c   8.33339325
_cell_angle_alpha   89.89732943
_cell_angle_beta   90.22882288
_cell_angle_gamma   90.08057059
_symmetry_Int_Tables_number   1
_chemical_formula_structural   Li2Mn3CuO8
_chemical_formula_sum   'Li8 Mn12 Cu4 O32'
_cell_volume   579.89846005
_cell_formula_units_Z   4
loop_
 _symmetry_equiv_pos_site_id
 _symmetry_equiv_pos_as_xyz
  1  'x, y, z'
loop_
 _atom_site_type_symbol
 _atom_site_label
 _atom_site_symmetry_multiplicity
 _atom_site_fract_x
 _atom_site_fract_y
 _atom_site_fract_z
 _atom_site_occupancy
  Li  Li0  1  0.005261  0.006030  0.004636  1
  Li  Li1  1  0.246695  0.243270  0.242628  1
  Li  Li2  1  0.255422  0.754359  0.745680  1
  Li  Li3  1  0.495440  0.992520  0.506827  1
  Li  Li4  1  0.503446  0.495869  0.995704  1
  Li  Li5  1  0.744463  0.257335  0.757162  1
  Li  Li6  1  0.754120  0.743641  0.254128  1
  Li  Li7  1  0.994610  0.507407  0.493598  1
  Mn  Mn8  1  0.119164  0.129163  0.627790  1
  Mn  Mn9  1  0.128164  0.383232  0.870593  1
  Mn  Mn10  1  0.133226  0.625951  0.117887  1
  Mn  Mn11  1  0.368938  0.378732  0.620653  1
  Mn  Mn12  1  0.376712  0.621503  0.367374  1
  Mn  Mn13  1  0.381834  0.867122  0.121703  1
  Mn  Mn14  1  0.616359  0.370549  0.371176  1
  Mn  Mn15  1  0.622925  0.120013  0.128657  1
  Mn  Mn16  1  0.631185  0.870755  0.883323  1
  Mn  Mn17  1  0.867808  0.123727  0.379731  1
  Mn  Mn18  1  0.874470  0.879029  0.632196  1
  Mn  Mn19  1  0.880684  0.630002  0.878538  1
  Cu  Cu20  1  0.123184  0.874930  0.372352  1
  Cu  Cu21  1  0.373099  0.123167  0.875421  1
  Cu  Cu22  1  0.622865  0.625520  0.626879  1
  Cu  Cu23  1  0.874853  0.376682  0.126500  1
  O  O24  1  0.099882  0.115107  0.392384  1
  O  O25  1  0.103405  0.900341  0.633523  1
  O  O26  1  0.115142  0.618027  0.882937  1
  O  O27  1  0.125742  0.152846  0.859100  1
  O  O28  1  0.140373  0.395645  0.097499  1
  O  O29  1  0.133737  0.366282  0.631747  1
  O  O30  1  0.143016  0.635400  0.350125  1
  O  O31  1  0.154559  0.858386  0.116326  1
  O  O32  1  0.350574  0.142573  0.635029  1
  O  O33  1  0.355312  0.389915  0.846277  1
  O  O34  1  0.366035  0.633105  0.133320  1
  O  O35  1  0.375128  0.611102  0.596043  1
  O  O36  1  0.381417  0.851020  0.353399  1
  O  O37  1  0.382111  0.382395  0.385052  1
  O  O38  1  0.391089  0.098582  0.114463  1
  O  O39  1  0.406090  0.860152  0.892398  1
  O  O40  1  0.600468  0.385003  0.607175  1
  O  O41  1  0.603607  0.597726  0.361129  1
  O  O42  1  0.617220  0.883914  0.117240  1
  O  O43  1  0.609513  0.345993  0.142875  1
  O  O44  1  0.624288  0.105170  0.898567  1
  O  O45  1  0.633455  0.133287  0.367040  1
  O  O46  1  0.641702  0.864980  0.651418  1
  O  O47  1  0.656250  0.640523  0.889283  1
  O  O48  1  0.848123  0.359333  0.367162  1
  O  O49  1  0.854370  0.128064  0.149164  1
  O  O50  1  0.866202  0.866612  0.867847  1
  O  O51  1  0.868509  0.891953  0.403334  1
  O  O52  1  0.874683  0.648288  0.646255  1
  O  O53  1  0.883551  0.117662  0.615961  1
  O  O54  1  0.894823  0.397860  0.883998  1
  O  O55  1  0.904693  0.622387  0.110933  1
