# generated using pymatgen
data_V3O5F
_symmetry_space_group_name_H-M   'P 1'
_cell_length_a   4.62487553
_cell_length_b   13.81927594
_cell_length_c   3.04317790
_cell_angle_alpha   90.00001385
_cell_angle_beta   90.00001515
_cell_angle_gamma   89.96287691
_symmetry_Int_Tables_number   1
_chemical_formula_structural   V3O5F
_chemical_formula_sum   'V6 O10 F2'
_cell_volume   194.49685719
_cell_formula_units_Z   2
loop_
 _symmetry_equiv_pos_site_id
 _symmetry_equiv_pos_as_xyz
  1  'x, y, z'
loop_
 _atom_site_type_symbol
 _atom_site_label
 _atom_site_symmetry_multiplicity
 _atom_site_fract_x
 _atom_site_fract_y
 _atom_site_fract_z
 _atom_site_occupancy
  V  V0  1  0.968203  0.001251  0.000003  1
  V  V1  1  0.039752  0.343671  1.000000  1
  V  V2  1  0.031822  0.658653  1.000000  1
  V  V3  1  0.468329  0.158619  0.500000  1
  V  V4  1  0.532128  0.501229  0.499995  1
  V  V5  1  0.460195  0.843800  0.500006  1
  O  O6  1  0.201525  0.264841  0.499999  1
  O  O7  1  0.214387  0.600665  0.499999  1
  O  O8  1  0.187008  0.933375  0.500001  1
  O  O9  1  0.285636  0.100738  -0.000000  1
  O  O10  1  0.298337  0.764828  0.000001  1
  O  O11  1  0.313189  0.433426  0.999998  1
  O  O12  1  0.729560  0.570429  0.999997  1
  O  O13  1  0.680872  0.894929  0.000004  1
  O  O14  1  0.770698  0.070378  0.500000  1
  O  O15  1  0.818641  0.394854  0.499999  1
  F  F16  1  0.690508  0.232094  1.000000  1
  F  F17  1  0.809211  0.732219  0.500000  1
