# generated using pymatgen
data_WOF4
_symmetry_space_group_name_H-M   'P 1'
_cell_length_a   11.07890773
_cell_length_b   5.12076547
_cell_length_c   15.05845915
_cell_angle_alpha   90.00000000
_cell_angle_beta   75.14980445
_cell_angle_gamma   90.00000000
_symmetry_Int_Tables_number   1
_chemical_formula_structural   WOF4
_chemical_formula_sum   'W8 O8 F32'
_cell_volume   825.76944620
_cell_formula_units_Z   8
loop_
 _symmetry_equiv_pos_site_id
 _symmetry_equiv_pos_as_xyz
  1  'x, y, z'
loop_
 _atom_site_type_symbol
 _atom_site_label
 _atom_site_symmetry_multiplicity
 _atom_site_fract_x
 _atom_site_fract_y
 _atom_site_fract_z
 _atom_site_occupancy
  W  W0  1  0.160151  0.924993  0.420951  1
  W  W1  1  0.339849  0.424993  0.079049  1
  W  W2  1  0.088286  0.983966  0.829147  1
  W  W3  1  0.411714  0.483966  0.670853  1
  W  W4  1  0.588286  0.516034  0.329147  1
  W  W5  1  0.911714  0.016034  0.170853  1
  W  W6  1  0.660151  0.575007  0.920951  1
  W  W7  1  0.839849  0.075007  0.579049  1
  O  O8  1  0.034361  0.801177  0.145215  1
  O  O9  1  0.216501  0.211949  0.097240  1
  O  O10  1  0.283499  0.711949  0.402760  1
  O  O11  1  0.465639  0.301177  0.354785  1
  O  O12  1  0.534361  0.698823  0.645215  1
  O  O13  1  0.716501  0.288051  0.597240  1
  O  O14  1  0.783499  0.788051  0.902760  1
  O  O15  1  0.965639  0.198823  0.854785  1
  F  F16  1  0.056424  0.756176  0.356992  1
  F  F17  1  0.043830  0.792071  0.531444  1
  F  F18  1  0.295042  0.674212  0.001147  1
  F  F19  1  0.042327  0.736128  0.751017  1
  F  F20  1  0.206047  0.162412  0.323102  1
  F  F21  1  0.293953  0.662412  0.176898  1
  F  F22  1  0.047802  0.734283  0.924072  1
  F  F23  1  0.204958  0.174212  0.498853  1
  F  F24  1  0.195886  0.136662  0.720667  1
  F  F25  1  0.443576  0.256176  0.143008  1
  F  F26  1  0.200240  0.129405  0.891073  1
  F  F27  1  0.299760  0.629405  0.608927  1
  F  F28  1  0.543830  0.707929  0.031444  1
  F  F29  1  0.304114  0.636662  0.779333  1
  F  F30  1  0.542327  0.763872  0.251017  1
  F  F31  1  0.452198  0.234283  0.575928  1
  F  F32  1  0.547802  0.765717  0.424072  1
  F  F33  1  0.457673  0.236128  0.748983  1
  F  F34  1  0.695886  0.363338  0.220667  1
  F  F35  1  0.456170  0.292071  0.968556  1
  F  F36  1  0.700240  0.370595  0.391073  1
  F  F37  1  0.799760  0.870595  0.108927  1
  F  F38  1  0.556424  0.743824  0.856992  1
  F  F39  1  0.804114  0.863338  0.279333  1
  F  F40  1  0.795042  0.825788  0.501147  1
  F  F41  1  0.952198  0.265717  0.075928  1
  F  F42  1  0.706047  0.337588  0.823102  1
  F  F43  1  0.793953  0.837588  0.676898  1
  F  F44  1  0.957673  0.263872  0.248983  1
  F  F45  1  0.704958  0.325788  0.998853  1
  F  F46  1  0.956170  0.207929  0.468556  1
  F  F47  1  0.943576  0.243824  0.643008  1
