# generated using pymatgen
data_Li5Mn3F14
_symmetry_space_group_name_H-M   'P 1'
_cell_length_a   11.27774552
_cell_length_b   7.42361282
_cell_length_c   12.57355613
_cell_angle_alpha   90.00000000
_cell_angle_beta   90.00000000
_cell_angle_gamma   90.00000000
_symmetry_Int_Tables_number   1
_chemical_formula_structural   Li5Mn3F14
_chemical_formula_sum   'Li20 Mn12 F56'
_cell_volume   1052.67844087
_cell_formula_units_Z   4
loop_
 _symmetry_equiv_pos_site_id
 _symmetry_equiv_pos_as_xyz
  1  'x, y, z'
loop_
 _atom_site_type_symbol
 _atom_site_label
 _atom_site_symmetry_multiplicity
 _atom_site_fract_x
 _atom_site_fract_y
 _atom_site_fract_z
 _atom_site_occupancy
  Li  Li0  1  0.010229  0.010462  0.008373  1
  Li  Li1  1  0.089066  0.799777  0.263851  1
  Li  Li2  1  0.087361  0.319603  0.267726  1
  Li  Li3  1  0.239851  0.763507  0.030914  1
  Li  Li4  1  0.226566  0.791395  0.485207  1
  Li  Li5  1  0.273434  0.291395  0.985207  1
  Li  Li6  1  0.260149  0.263507  0.530914  1
  Li  Li7  1  0.412639  0.819603  0.767726  1
  Li  Li8  1  0.410934  0.299777  0.763851  1
  Li  Li9  1  0.489771  0.510462  0.508373  1
  Li  Li10  1  0.510229  0.489538  0.008373  1
  Li  Li11  1  0.589066  0.700223  0.263851  1
  Li  Li12  1  0.587361  0.180397  0.267726  1
  Li  Li13  1  0.739851  0.736493  0.030914  1
  Li  Li14  1  0.726566  0.708605  0.485207  1
  Li  Li15  1  0.773434  0.208605  0.985207  1
  Li  Li16  1  0.760149  0.236493  0.530914  1
  Li  Li17  1  0.912639  0.680397  0.767726  1
  Li  Li18  1  0.910934  0.200223  0.763851  1
  Li  Li19  1  0.989771  0.989538  0.508373  1
  Mn  Mn20  1  0.999939  0.504114  0.495710  1
  Mn  Mn21  1  0.154426  -0.000305  0.750874  1
  Mn  Mn22  1  0.177926  0.499949  0.746914  1
  Mn  Mn23  1  0.322074  -0.000051  0.246914  1
  Mn  Mn24  1  0.345574  0.499695  0.250874  1
  Mn  Mn25  1  0.500061  0.004114  0.995710  1
  Mn  Mn26  1  0.499939  0.995886  0.495710  1
  Mn  Mn27  1  0.654426  0.500305  0.750874  1
  Mn  Mn28  1  0.677926  0.000051  0.746914  1
  Mn  Mn29  1  0.822074  0.500051  0.246914  1
  Mn  Mn30  1  0.845574  0.000305  0.250874  1
  Mn  Mn31  1  0.000061  0.495886  0.995710  1
  F  F32  1  0.996722  0.919468  0.750539  1
  F  F33  1  0.069624  0.720502  0.442396  1
  F  F34  1  0.074767  0.709059  0.043176  1
  F  F35  1  0.057030  0.576050  0.842985  1
  F  F36  1  0.076451  0.581775  0.639317  1
  F  F37  1  0.130453  0.359165  0.455843  1
  F  F38  1  0.126226  0.350186  0.040342  1
  F  F39  1  0.081476  0.256455  0.743873  1
  F  F40  1  0.143090  0.013497  0.906681  1
  F  F41  1  0.145222  0.003863  0.590201  1
  F  F42  1  0.186903  0.581985  0.249648  1
  F  F43  1  0.218806  0.930544  0.356651  1
  F  F44  1  0.206694  0.924816  0.147469  1
  F  F45  1  0.248142  0.757144  0.752586  1
  F  F46  1  0.251858  0.257144  0.252586  1
  F  F47  1  0.293306  0.424816  0.647469  1
  F  F48  1  0.281194  0.430544  0.856651  1
  F  F49  1  0.313097  0.081985  0.749648  1
  F  F50  1  0.354778  0.503862  0.090201  1
  F  F51  1  0.356910  0.513497  0.406681  1
  F  F52  1  0.373774  0.850186  0.540342  1
  F  F53  1  0.418524  0.756455  0.243873  1
  F  F54  1  0.369547  0.859165  0.955843  1
  F  F55  1  0.423549  0.081775  0.139317  1
  F  F56  1  0.442970  0.076050  0.342985  1
  F  F57  1  0.425233  0.209059  0.543176  1
  F  F58  1  0.430376  0.220502  0.942396  1
  F  F59  1  0.503278  0.419468  0.250539  1
  F  F60  1  0.496722  0.580532  0.750539  1
  F  F61  1  0.569624  0.779498  0.442396  1
  F  F62  1  0.574767  0.790941  0.043176  1
  F  F63  1  0.557030  0.923950  0.842985  1
  F  F64  1  0.576451  0.918225  0.639317  1
  F  F65  1  0.630453  0.140835  0.455843  1
  F  F66  1  0.626226  0.149814  0.040342  1
  F  F67  1  0.581476  0.243545  0.743873  1
  F  F68  1  0.643090  0.486503  0.906681  1
  F  F69  1  0.645222  0.496138  0.590201  1
  F  F70  1  0.686903  0.918015  0.249648  1
  F  F71  1  0.718806  0.569456  0.356651  1
  F  F72  1  0.706694  0.575184  0.147469  1
  F  F73  1  0.748142  0.742856  0.752586  1
  F  F74  1  0.751858  0.242856  0.252586  1
  F  F75  1  0.793306  0.075184  0.647469  1
  F  F76  1  0.781194  0.069456  0.856651  1
  F  F77  1  0.813097  0.418015  0.749648  1
  F  F78  1  0.854778  0.996138  0.090201  1
  F  F79  1  0.856910  0.986503  0.406681  1
  F  F80  1  0.873774  0.649814  0.540342  1
  F  F81  1  0.918524  0.743545  0.243873  1
  F  F82  1  0.869547  0.640835  0.955843  1
  F  F83  1  0.923549  0.418225  0.139317  1
  F  F84  1  0.942970  0.423950  0.342985  1
  F  F85  1  0.925233  0.290941  0.543176  1
  F  F86  1  0.930376  0.279498  0.942396  1
  F  F87  1  0.003278  0.080532  0.250539  1
