# generated using pymatgen
data_Li4V5O9F
_symmetry_space_group_name_H-M   'P 1'
_cell_length_a   3.01087409
_cell_length_b   5.22846268
_cell_length_c   13.17999353
_cell_angle_alpha   77.97621565
_cell_angle_beta   96.59486340
_cell_angle_gamma   106.82974777
_symmetry_Int_Tables_number   1
_chemical_formula_structural   Li4V5O9F
_chemical_formula_sum   'Li4 V5 O9 F1'
_cell_volume   193.90923564
_cell_formula_units_Z   1
loop_
 _symmetry_equiv_pos_site_id
 _symmetry_equiv_pos_as_xyz
  1  'x, y, z'
loop_
 _atom_site_type_symbol
 _atom_site_label
 _atom_site_symmetry_multiplicity
 _atom_site_fract_x
 _atom_site_fract_y
 _atom_site_fract_z
 _atom_site_occupancy
  Li  Li0  1  0.803037  0.997790  0.601451  1
  Li  Li1  1  0.610749  0.009521  0.200190  1
  Li  Li2  1  0.207792  0.999312  0.402959  1
  Li  Li3  1  0.392888  0.989361  0.805867  1
  V  V4  1  0.910050  0.503132  0.301357  1
  V  V5  1  0.686707  0.479214  0.894987  1
  V  V6  1  0.322139  0.543471  0.101790  1
  V  V7  1  0.505350  0.498807  0.499260  1
  V  V8  1  0.099806  0.496816  0.696004  1
  O  O9  1  0.864629  0.270886  0.447281  1
  O  O10  1  0.953539  0.740905  0.155876  1
  O  O11  1  0.548502  0.730583  0.351388  1
  O  O12  1  0.736096  0.720223  0.748711  1
  O  O13  1  0.462132  0.269027  0.644407  1
  O  O14  1  0.272547  0.285428  0.244658  1
  O  O15  1  0.312492  0.673324  0.950605  1
  O  O16  1  0.051590  0.264667  0.839891  1
  O  O17  1  0.145589  0.728296  0.548660  1
  F  F18  1  0.667493  0.277952  0.059176  1
