# generated using pymatgen
data_Li2Mn2OF6
_symmetry_space_group_name_H-M   'P 1'
_cell_length_a   7.42170232
_cell_length_b   5.72880310
_cell_length_c   7.03304124
_cell_angle_alpha   78.82883604
_cell_angle_beta   117.21606879
_cell_angle_gamma   108.89283048
_symmetry_Int_Tables_number   1
_chemical_formula_structural   Li2Mn2OF6
_chemical_formula_sum   'Li4 Mn4 O2 F12'
_cell_volume   251.22438655
_cell_formula_units_Z   2
loop_
 _symmetry_equiv_pos_site_id
 _symmetry_equiv_pos_as_xyz
  1  'x, y, z'
loop_
 _atom_site_type_symbol
 _atom_site_label
 _atom_site_symmetry_multiplicity
 _atom_site_fract_x
 _atom_site_fract_y
 _atom_site_fract_z
 _atom_site_occupancy
  Li  Li0  1  0.787631  0.310390  0.394033  1
  Li  Li1  1  0.919385  0.789629  0.130242  1
  Li  Li2  1  0.080615  0.210371  0.869758  1
  Li  Li3  1  0.212369  0.689610  0.605967  1
  Mn  Mn4  1  0.591916  0.222605  0.862246  1
  Mn  Mn5  1  0.277557  0.341386  0.416277  1
  Mn  Mn6  1  0.722443  0.658614  0.583723  1
  Mn  Mn7  1  0.408084  0.777395  0.137754  1
  O  O8  1  0.500357  0.501209  0.319048  1
  O  O9  1  0.499643  0.498791  0.680952  1
  F  F10  1  0.386763  0.026638  0.619096  1
  F  F11  1  0.755596  0.419370  0.101597  1
  F  F12  1  0.093844  0.159119  0.170653  1
  F  F13  1  0.808504  0.315393  0.717794  1
  F  F14  1  0.338374  0.071091  0.975639  1
  F  F15  1  0.079049  0.289375  0.537715  1
  F  F16  1  0.920951  0.710625  0.462285  1
  F  F17  1  0.661626  0.928909  0.024361  1
  F  F18  1  0.191496  0.684607  0.282206  1
  F  F19  1  0.906156  0.840881  0.829347  1
  F  F20  1  0.244404  0.580630  0.898403  1
  F  F21  1  0.613237  0.973363  0.380904  1
