# generated using pymatgen
data_Zr2N2O
_symmetry_space_group_name_H-M   'P 1'
_cell_length_a   5.50995683
_cell_length_b   7.07881631
_cell_length_c   11.31507106
_cell_angle_alpha   78.41692605
_cell_angle_beta   119.11404761
_cell_angle_gamma   89.83295046
_symmetry_Int_Tables_number   1
_chemical_formula_structural   Zr2N2O
_chemical_formula_sum   'Zr12 N12 O6'
_cell_volume   375.10043421
_cell_formula_units_Z   6
loop_
 _symmetry_equiv_pos_site_id
 _symmetry_equiv_pos_as_xyz
  1  'x, y, z'
loop_
 _atom_site_type_symbol
 _atom_site_label
 _atom_site_symmetry_multiplicity
 _atom_site_fract_x
 _atom_site_fract_y
 _atom_site_fract_z
 _atom_site_occupancy
  Zr  Zr0  1  0.377512  0.846972  0.086770  1
  Zr  Zr1  1  0.716296  0.845279  0.419666  1
  Zr  Zr2  1  0.056928  0.846920  0.753021  1
  Zr  Zr3  1  0.908134  0.658588  0.118421  1
  Zr  Zr4  1  0.590161  0.652381  0.785931  1
  Zr  Zr5  1  0.250628  0.653966  0.451150  1
  Zr  Zr6  1  0.559963  0.391908  0.328957  1
  Zr  Zr7  1  0.866993  0.383447  0.662703  1
  Zr  Zr8  1  0.231673  0.397683  0.993601  1
  Zr  Zr9  1  0.899140  0.127531  0.206414  1
  Zr  Zr10  1  0.259684  0.107713  0.543281  1
  Zr  Zr11  1  0.591759  0.110652  0.876324  1
  N  N12  1  0.502574  0.809372  0.925999  1
  N  N13  1  0.827628  0.819692  0.256777  1
  N  N14  1  0.171202  0.807233  0.593747  1
  N  N15  1  0.351082  0.688495  0.278513  1
  N  N16  1  0.023383  0.692069  0.947052  1
  N  N17  1  0.687213  0.688664  0.612003  1
  N  N18  1  0.622359  0.480839  0.149291  1
  N  N19  1  0.456164  0.361839  0.498956  1
  N  N20  1  0.797135  0.362488  0.836116  1
  N  N21  1  0.487505  0.134338  0.033863  1
  N  N22  1  0.833792  0.132953  0.377898  1
  N  N23  1  0.166471  0.137946  0.704650  1
  O  O24  1  0.919355  0.509470  0.474594  1
  O  O25  1  0.257385  0.506737  0.808487  1
  O  O26  1  0.140143  0.357355  0.166641  1
  O  O27  1  0.005199  0.996853  0.065077  1
  O  O28  1  0.681457  0.993969  0.729061  1
  O  O29  1  0.337312  0.996651  0.391265  1
