# generated using pymatgen
data_Li2Ti4Co(AsO5)4
_symmetry_space_group_name_H-M   'P 1'
_cell_length_a   13.42747701
_cell_length_b   10.10734427
_cell_length_c   10.08532328
_cell_angle_alpha   64.23880275
_cell_angle_beta   48.83751972
_cell_angle_gamma   48.37826490
_symmetry_Int_Tables_number   1
_chemical_formula_structural   Li2Ti4Co(AsO5)4
_chemical_formula_sum   'Li4 Ti8 Co2 As8 O40'
_cell_volume   770.30200856
_cell_formula_units_Z   2
loop_
 _symmetry_equiv_pos_site_id
 _symmetry_equiv_pos_as_xyz
  1  'x, y, z'
loop_
 _atom_site_type_symbol
 _atom_site_label
 _atom_site_symmetry_multiplicity
 _atom_site_fract_x
 _atom_site_fract_y
 _atom_site_fract_z
 _atom_site_occupancy
  Li  Li0  1  0.998992  0.499420  0.502328  1
  Li  Li1  1  0.249718  0.501459  0.501083  1
  Li  Li2  1  0.755105  0.997661  0.994357  1
  Li  Li3  1  0.746916  0.497816  0.503050  1
  Ti  Ti4  1  0.076209  0.269621  0.840428  1
  Ti  Ti5  1  0.340609  0.221432  0.343383  1
  Ti  Ti6  1  0.168250  0.769355  0.655777  1
  Ti  Ti7  1  0.420353  0.732008  0.163144  1
  Ti  Ti8  1  0.569730  0.278483  0.835337  1
  Ti  Ti9  1  0.833403  0.231449  0.339514  1
  Ti  Ti10  1  0.656222  0.779508  0.661139  1
  Ti  Ti11  1  0.930904  0.721912  0.161686  1
  Co  Co12  1  0.998537  0.001455  0.998017  1
  Co  Co13  1  0.500685  0.999274  0.002015  1
  As  As14  1  0.122189  0.130492  0.374541  1
  As  As15  1  0.246316  0.630408  0.128526  1
  As  As16  1  0.252156  0.370709  0.870781  1
  As  As17  1  0.620529  0.135347  0.373213  1
  As  As18  1  0.376295  0.866730  0.628663  1
  As  As19  1  0.749418  0.626780  0.127671  1
  As  As20  1  0.749890  0.373976  0.873208  1
  As  As21  1  0.879017  0.869290  0.623960  1
  O  O22  1  0.088793  0.008079  0.564574  1
  O  O23  1  0.100233  0.489848  0.064873  1
  O  O24  1  0.154348  0.266102  0.379905  1
  O  O25  1  0.074166  0.767355  0.130144  1
  O  O26  1  0.209571  0.000610  0.812832  1
  O  O27  1  0.216393  0.500467  0.314943  1
  O  O28  1  0.156434  0.324330  0.617817  1
  O  O29  1  0.477007  0.158502  0.119234  1
  O  O30  1  0.041297  0.736853  0.635879  1
  O  O31  1  0.284490  0.765223  0.118634  1
  O  O32  1  0.215414  0.234531  0.879048  1
  O  O33  1  0.454486  0.264877  0.366923  1
  O  O34  1  0.024402  0.838173  0.881711  1
  O  O35  1  0.330300  0.683317  0.383490  1
  O  O36  1  0.586005  0.011914  0.562672  1
  O  O37  1  0.595730  0.494806  0.063916  1
  O  O38  1  0.272687  0.502085  0.688566  1
  O  O39  1  0.290933  0.999576  0.188351  1
  O  O40  1  0.424034  0.234933  0.869381  1
  O  O41  1  0.651791  0.268252  0.380113  1
  O  O42  1  0.345656  0.732250  0.622143  1
  O  O43  1  0.575850  0.764644  0.134440  1
  O  O44  1  0.715135  0.999338  0.815008  1
  O  O45  1  0.729834  0.498047  0.311443  1
  O  O46  1  0.398820  0.510578  0.935974  1
  O  O47  1  0.413587  0.988719  0.437379  1
  O  O48  1  0.663949  0.322893  0.616189  1
  O  O49  1  0.962428  0.170045  0.117713  1
  O  O50  1  0.541715  0.738156  0.635688  1
  O  O51  1  0.787099  0.764637  0.118632  1
  O  O52  1  0.711650  0.237395  0.881941  1
  O  O53  1  0.959132  0.261656  0.364414  1
  O  O54  1  0.533326  0.836517  0.881349  1
  O  O55  1  0.845901  0.672796  0.383359  1
  O  O56  1  0.779535  0.501455  0.685191  1
  O  O57  1  0.782188  0.002733  0.184102  1
  O  O58  1  0.923768  0.234677  0.866006  1
  O  O59  1  0.845943  0.735052  0.619107  1
  O  O60  1  0.902665  0.506578  0.935434  1
  O  O61  1  0.910284  0.992751  0.435628  1
