# generated using pymatgen
data_Li5FeS4
_symmetry_space_group_name_H-M   'P 1'
_cell_length_a   3.72287566
_cell_length_b   7.72953865
_cell_length_c   6.75025188
_cell_angle_alpha   63.64747879
_cell_angle_beta   89.97186934
_cell_angle_gamma   76.16875301
_symmetry_Int_Tables_number   1
_chemical_formula_structural   Li5FeS4
_chemical_formula_sum   'Li5 Fe1 S4'
_cell_volume   167.76288463
_cell_formula_units_Z   1
loop_
 _symmetry_equiv_pos_site_id
 _symmetry_equiv_pos_as_xyz
  1  'x, y, z'
loop_
 _atom_site_type_symbol
 _atom_site_label
 _atom_site_symmetry_multiplicity
 _atom_site_fract_x
 _atom_site_fract_y
 _atom_site_fract_z
 _atom_site_occupancy
  Li  Li0  1  0.173676  0.644386  0.959230  1
  Li  Li1  1  0.177616  0.645409  0.387238  1
  Li  Li2  1  0.826598  0.356224  0.606386  1
  Li  Li3  1  0.825304  0.348244  0.045624  1
  Li  Li4  1  0.500838  0.005128  0.498593  1
  Fe  Fe5  1  0.495393  0.006606  0.996513  1
  S  S6  1  0.003456  0.997448  0.248214  1
  S  S7  1  0.703489  0.591720  0.202199  1
  S  S8  1  0.300892  0.402509  0.798548  1
  S  S9  1  0.998806  0.002412  0.752780  1
