# generated using pymatgen
data_Na2Mn(H2N)4
_symmetry_space_group_name_H-M   'P 1'
_cell_length_a   6.39862048
_cell_length_b   14.40847247
_cell_length_c   6.95983232
_cell_angle_alpha   90.00000000
_cell_angle_beta   115.77092496
_cell_angle_gamma   90.00000000
_symmetry_Int_Tables_number   1
_chemical_formula_structural   Na2Mn(H2N)4
_chemical_formula_sum   'Na8 Mn4 H32 N16'
_cell_volume   577.83766081
_cell_formula_units_Z   4
loop_
 _symmetry_equiv_pos_site_id
 _symmetry_equiv_pos_as_xyz
  1  'x, y, z'
loop_
 _atom_site_type_symbol
 _atom_site_label
 _atom_site_symmetry_multiplicity
 _atom_site_fract_x
 _atom_site_fract_y
 _atom_site_fract_z
 _atom_site_occupancy
  Na  Na0  1  0.750643  0.441178  0.457784  1
  Na  Na1  1  0.249357  0.941178  0.042216  1
  Na  Na2  1  0.249357  0.558822  0.542216  1
  Na  Na3  1  0.750643  0.058822  0.957784  1
  Na  Na4  1  0.216428  0.353718  0.357350  1
  Na  Na5  1  0.783572  0.853718  0.142650  1
  Na  Na6  1  0.783572  0.646282  0.642650  1
  Na  Na7  1  0.216428  0.146282  0.857350  1
  Mn  Mn8  1  0.248217  0.382617  0.830361  1
  Mn  Mn9  1  0.751783  0.882617  0.669639  1
  Mn  Mn10  1  0.751783  0.617383  0.169639  1
  Mn  Mn11  1  0.248217  0.117383  0.330361  1
  H  H12  1  0.615705  0.333002  0.155433  1
  H  H13  1  0.384295  0.833002  0.344567  1
  H  H14  1  0.384295  0.666998  0.844567  1
  H  H15  1  0.615705  0.166998  0.655433  1
  H  H16  1  0.400646  0.282061  0.172611  1
  H  H17  1  0.599354  0.782061  0.327389  1
  H  H18  1  0.599354  0.717939  0.827389  1
  H  H19  1  0.400646  0.217939  0.672611  1
  H  H20  1  0.611387  0.361938  0.756683  1
  H  H21  1  0.388613  0.861938  0.743317  1
  H  H22  1  0.388613  0.638062  0.243317  1
  H  H23  1  0.611387  0.138062  0.256683  1
  H  H24  1  0.584483  0.472120  0.778355  1
  H  H25  1  0.415517  0.972120  0.721645  1
  H  H26  1  0.415517  0.527880  0.221645  1
  H  H27  1  0.584483  0.027880  0.278355  1
  H  H28  1  0.847991  0.221396  0.152529  1
  H  H29  1  0.152009  0.721396  0.347471  1
  H  H30  1  0.152009  0.778604  0.847471  1
  H  H31  1  0.847991  0.278604  0.652529  1
  H  H32  1  0.998632  0.241302  0.020951  1
  H  H33  1  0.001368  0.741302  0.479049  1
  H  H34  1  0.001368  0.758698  0.979049  1
  H  H35  1  0.998632  0.258698  0.520951  1
  H  H36  1  0.048348  0.504983  0.157955  1
  H  H37  1  0.951652  0.004983  0.342045  1
  H  H38  1  0.951652  0.495017  0.842045  1
  H  H39  1  0.048348  0.995017  0.657955  1
  H  H40  1  0.814322  0.448732  0.107834  1
  H  H41  1  0.185678  0.948732  0.392166  1
  H  H42  1  0.185678  0.551268  0.892166  1
  H  H43  1  0.814322  0.051268  0.607834  1
  N  N44  1  0.446365  0.344994  0.128036  1
  N  N45  1  0.553635  0.844994  0.371964  1
  N  N46  1  0.553635  0.655006  0.871964  1
  N  N47  1  0.446365  0.155006  0.628036  1
  N  N48  1  0.487550  0.413395  0.711479  1
  N  N49  1  0.512450  0.913395  0.788521  1
  N  N50  1  0.512450  0.586605  0.288521  1
  N  N51  1  0.487550  0.086605  0.211479  1
  N  N52  1  0.007083  0.291643  0.655594  1
  N  N53  1  0.992917  0.791643  0.844406  1
  N  N54  1  0.992917  0.708357  0.344406  1
  N  N55  1  0.007083  0.208357  0.155594  1
  N  N56  1  0.927515  0.494537  0.217648  1
  N  N57  1  0.072485  0.994537  0.282352  1
  N  N58  1  0.072485  0.505463  0.782352  1
  N  N59  1  0.927515  0.005463  0.717648  1
