# generated using pymatgen
data_Li2Mn3CuO8
_symmetry_space_group_name_H-M   'P 1'
_cell_length_a   8.19860585
_cell_length_b   8.31091551
_cell_length_c   8.33200203
_cell_angle_alpha   89.95407221
_cell_angle_beta   89.93741462
_cell_angle_gamma   90.04935007
_symmetry_Int_Tables_number   1
_chemical_formula_structural   Li2Mn3CuO8
_chemical_formula_sum   'Li8 Mn12 Cu4 O32'
_cell_volume   567.72456037
_cell_formula_units_Z   4
loop_
 _symmetry_equiv_pos_site_id
 _symmetry_equiv_pos_as_xyz
  1  'x, y, z'
loop_
 _atom_site_type_symbol
 _atom_site_label
 _atom_site_symmetry_multiplicity
 _atom_site_fract_x
 _atom_site_fract_y
 _atom_site_fract_z
 _atom_site_occupancy
  Li  Li0  1  0.121254  0.874768  0.376076  1
  Li  Li1  1  0.252113  0.751529  0.747343  1
  Li  Li2  1  0.248155  0.249024  0.247072  1
  Li  Li3  1  0.377367  0.123529  0.876108  1
  Li  Li4  1  0.621199  0.626944  0.624361  1
  Li  Li5  1  0.753165  0.749298  0.251705  1
  Li  Li6  1  0.747166  0.251793  0.751446  1
  Li  Li7  1  0.878427  0.372977  0.123736  1
  Mn  Mn8  1  0.124510  0.620659  0.121480  1
  Mn  Mn9  1  0.124161  0.379269  0.873137  1
  Mn  Mn10  1  0.122842  0.125824  0.622288  1
  Mn  Mn11  1  0.377056  0.874352  0.123140  1
  Mn  Mn12  1  0.375602  0.620949  0.373395  1
  Mn  Mn13  1  0.375638  0.379180  0.620573  1
  Mn  Mn14  1  0.624395  0.877547  0.879617  1
  Mn  Mn15  1  0.624125  0.120199  0.126600  1
  Mn  Mn16  1  0.622890  0.376084  0.376744  1
  Mn  Mn17  1  0.877822  0.624690  0.877749  1
  Mn  Mn18  1  0.875950  0.879944  0.627140  1
  Mn  Mn19  1  0.875568  0.121911  0.379054  1
  Cu  Cu20  1  0.985834  0.505308  0.495965  1
  Cu  Cu21  1  0.511500  0.492450  0.994552  1
  Cu  Cu22  1  0.487341  0.996209  0.503284  1
  Cu  Cu23  1  0.012231  0.004437  0.003914  1
  O  O24  1  0.103774  0.127410  0.394448  1
  O  O25  1  0.108221  0.900707  0.628603  1
  O  O26  1  0.115022  0.614544  0.886474  1
  O  O27  1  0.130441  0.392623  0.098515  1
  O  O28  1  0.117633  0.150022  0.857028  1
  O  O29  1  0.134323  0.364401  0.634824  1
  O  O30  1  0.137735  0.620077  0.350062  1
  O  O31  1  0.143842  0.856555  0.126410  1
  O  O32  1  0.356508  0.143281  0.626543  1
  O  O33  1  0.361455  0.380671  0.849124  1
  O  O34  1  0.365414  0.635540  0.135612  1
  O  O35  1  0.382549  0.850134  0.357382  1
  O  O36  1  0.369690  0.607211  0.598652  1
  O  O37  1  0.385633  0.385920  0.385808  1
  O  O38  1  0.391873  0.099766  0.128656  1
  O  O39  1  0.396230  0.871920  0.895389  1
  O  O40  1  0.603904  0.374745  0.604805  1
  O  O41  1  0.607985  0.601164  0.370691  1
  O  O42  1  0.614347  0.885193  0.114638  1
  O  O43  1  0.630640  0.105673  0.901415  1
  O  O44  1  0.618366  0.349651  0.142771  1
  O  O45  1  0.634127  0.137017  0.365113  1
  O  O46  1  0.637989  0.880044  0.650975  1
  O  O47  1  0.644890  0.641550  0.875224  1
  O  O48  1  0.856157  0.357567  0.373265  1
  O  O49  1  0.861902  0.119337  0.150297  1
  O  O50  1  0.865988  0.863467  0.865512  1
  O  O51  1  0.883659  0.650936  0.643355  1
  O  O52  1  0.869173  0.893994  0.401762  1
  O  O53  1  0.885503  0.115154  0.614001  1
  O  O54  1  0.892279  0.399442  0.870720  1
  O  O55  1  0.896435  0.625490  0.105528  1
