# generated using pymatgen
data_CoOF
_symmetry_space_group_name_H-M   'P 1'
_cell_length_a   4.64711249
_cell_length_b   18.50953299
_cell_length_c   2.94868363
_cell_angle_alpha   90.00000000
_cell_angle_beta   90.00000000
_cell_angle_gamma   96.62234656
_symmetry_Int_Tables_number   1
_chemical_formula_structural   CoOF
_chemical_formula_sum   'Co8 O8 F8'
_cell_volume   251.94134451
_cell_formula_units_Z   8
loop_
 _symmetry_equiv_pos_site_id
 _symmetry_equiv_pos_as_xyz
  1  'x, y, z'
loop_
 _atom_site_type_symbol
 _atom_site_label
 _atom_site_symmetry_multiplicity
 _atom_site_fract_x
 _atom_site_fract_y
 _atom_site_fract_z
 _atom_site_occupancy
  Co  Co0  1  0.049548  0.998331  0.000000  1
  Co  Co1  1  0.010800  0.249540  0.000000  1
  Co  Co2  1  0.997553  0.500469  0.000000  1
  Co  Co3  1  0.971141  0.751604  0.000000  1
  Co  Co4  1  0.519146  0.122313  0.500000  1
  Co  Co5  1  0.503719  0.375463  0.500000  1
  Co  Co6  1  0.489785  0.626338  0.500000  1
  Co  Co7  1  0.443621  0.876119  0.500000  1
  O  O8  1  0.208388  0.954823  0.500000  1
  O  O9  1  0.338020  0.073219  0.000000  1
  O  O10  1  0.303756  0.577593  0.000000  1
  O  O11  1  0.256203  0.826859  0.000000  1
  O  O12  1  0.315308  0.327781  0.000000  1
  O  O13  1  0.710112  0.170807  0.000000  1
  O  O14  1  0.690857  0.423333  0.000000  1
  O  O15  1  0.677607  0.674234  0.000000  1
  F  F16  1  0.206000  0.200282  0.500000  1
  F  F17  1  0.192734  0.451746  0.500000  1
  F  F18  1  0.169137  0.703574  0.500000  1
  F  F19  1  0.705650  0.924582  0.000000  1
  F  F20  1  0.858668  0.045035  0.500000  1
  F  F21  1  0.815131  0.298454  0.500000  1
  F  F22  1  0.801121  0.548878  0.500000  1
  F  F23  1  0.765997  0.798623  0.500000  1
