# generated using pymatgen
data_Al2Si2O7
_symmetry_space_group_name_H-M   'P 1'
_cell_length_a   5.20294822
_cell_length_b   5.20294755
_cell_length_c   9.49836948
_cell_angle_alpha   75.79560702
_cell_angle_beta   104.20439595
_cell_angle_gamma   83.97562376
_symmetry_Int_Tables_number   1
_chemical_formula_structural   Al2Si2O7
_chemical_formula_sum   'Al4 Si4 O14'
_cell_volume   237.88393662
_cell_formula_units_Z   2
loop_
 _symmetry_equiv_pos_site_id
 _symmetry_equiv_pos_as_xyz
  1  'x, y, z'
loop_
 _atom_site_type_symbol
 _atom_site_label
 _atom_site_symmetry_multiplicity
 _atom_site_fract_x
 _atom_site_fract_y
 _atom_site_fract_z
 _atom_site_occupancy
  Al  Al0  1  0.375959  0.271892  0.978076  1
  Al  Al1  1  0.271892  0.375959  0.521924  1
  Al  Al2  1  0.728108  0.624041  0.478076  1
  Al  Al3  1  0.624041  0.728108  0.021924  1
  Si  Si4  1  0.192527  0.804246  0.704846  1
  Si  Si5  1  0.195754  0.807473  0.204846  1
  Si  Si6  1  0.804246  0.192527  0.795154  1
  Si  Si7  1  0.807473  0.195754  0.295154  1
  O  O8  1  0.028365  0.318763  0.891812  1
  O  O9  1  0.087193  0.596094  0.603758  1
  O  O10  1  0.065571  0.065571  0.250000  1
  O  O11  1  0.318763  0.028365  0.608188  1
  O  O12  1  0.416976  0.620572  0.866284  1
  O  O13  1  0.596094  0.087193  0.896242  1
  O  O14  1  0.379428  0.583024  0.366284  1
  O  O15  1  0.620572  0.416976  0.633716  1
  O  O16  1  0.403906  0.912807  0.103758  1
  O  O17  1  0.583024  0.379428  0.133716  1
  O  O18  1  0.681237  0.971635  0.391812  1
  O  O19  1  0.934429  0.934429  0.750000  1
  O  O20  1  0.912807  0.403906  0.396242  1
  O  O21  1  0.971635  0.681237  0.108188  1
