# generated using pymatgen
data_Bi14SO24
_symmetry_space_group_name_H-M   'P 1'
_cell_length_a   8.80437132
_cell_length_b   8.83476347
_cell_length_c   10.66882867
_cell_angle_alpha   65.52347787
_cell_angle_beta   65.61305936
_cell_angle_gamma   89.96185924
_symmetry_Int_Tables_number   1
_chemical_formula_structural   Bi14SO24
_chemical_formula_sum   'Bi14 S1 O24'
_cell_volume   673.20925718
_cell_formula_units_Z   1
loop_
 _symmetry_equiv_pos_site_id
 _symmetry_equiv_pos_as_xyz
  1  'x, y, z'
loop_
 _atom_site_type_symbol
 _atom_site_label
 _atom_site_symmetry_multiplicity
 _atom_site_fract_x
 _atom_site_fract_y
 _atom_site_fract_z
 _atom_site_occupancy
  Bi  Bi0  1  0.443318  0.216043  1.000000  1
  Bi  Bi1  1  0.941164  0.129004  0.340227  1
  Bi  Bi2  1  0.466856  0.059434  0.661415  1
  Bi  Bi3  1  0.785275  0.444779  1.000000  1
  Bi  Bi4  1  0.337786  0.340675  0.318867  1
  Bi  Bi5  1  0.212528  0.560710  0.000000  1
  Bi  Bi6  1  0.870348  0.277601  0.664286  1
  Bi  Bi7  1  0.723203  0.532896  0.336761  1
  Bi  Bi8  1  0.560050  0.788260  0.000000  1
  Bi  Bi9  1  0.281390  0.469230  0.659773  1
  Bi  Bi10  1  0.128270  0.720850  0.338585  1
  Bi  Bi11  1  0.656653  0.659540  0.681133  1
  Bi  Bi12  1  0.534635  0.941886  0.335714  1
  Bi  Bi13  1  0.059966  0.869657  0.663239  1
  S  S14  1  0.981414  0.975284  1.000000  1
  O  O15  1  0.331566  0.007870  0.490018  1
  O  O16  1  0.543791  0.239568  0.156261  1
  O  O17  1  0.238364  0.298237  0.157702  1
  O  O18  1  0.010211  0.179684  0.492546  1
  O  O19  1  0.880096  0.380287  0.238731  1
  O  O20  1  0.619192  0.118841  0.761048  1
  O  O21  1  0.116736  0.119310  0.858408  1
  O  O22  1  0.502128  0.331997  0.490275  1
  O  O23  1  0.605972  0.544223  0.156479  1
  O  O24  1  0.297911  0.604694  0.157841  1
  O  O25  1  0.821583  0.497888  0.509982  1
  O  O26  1  0.177687  0.500105  0.490721  1
  O  O27  1  0.700052  0.395829  0.843739  1
  O  O28  1  0.019776  0.809918  0.000000  1
  O  O29  1  0.396066  0.455941  0.842298  1
  O  O30  1  0.502759  0.672230  0.507454  1
  O  O31  1  0.811625  0.993369  0.000000  1
  O  O32  1  0.380240  0.879889  0.238952  1
  O  O33  1  0.118827  0.619018  0.761269  1
  O  O34  1  0.975144  0.977719  0.141592  1
  O  O35  1  0.992404  0.822273  0.509725  1
  O  O36  1  0.762451  0.700702  0.843521  1
  O  O37  1  0.455753  0.762535  0.842159  1
  O  O38  1  0.668407  0.990826  0.509279  1
