# generated using pymatgen
data_Fe4O7F
_symmetry_space_group_name_H-M   'P 1'
_cell_length_a   8.94174290
_cell_length_b   5.54287555
_cell_length_c   5.54287555
_cell_angle_alpha   71.08745983
_cell_angle_beta   84.80813257
_cell_angle_gamma   84.80813257
_symmetry_Int_Tables_number   1
_chemical_formula_structural   Fe4O7F
_chemical_formula_sum   'Fe8 O14 F2'
_cell_volume   258.27816097
_cell_formula_units_Z   2
loop_
 _symmetry_equiv_pos_site_id
 _symmetry_equiv_pos_as_xyz
  1  'x, y, z'
loop_
 _atom_site_type_symbol
 _atom_site_label
 _atom_site_symmetry_multiplicity
 _atom_site_fract_x
 _atom_site_fract_y
 _atom_site_fract_z
 _atom_site_occupancy
  Fe  Fe0  1  0.612848  0.862698  0.862698  1
  Fe  Fe1  1  0.877314  0.630419  0.630419  1
  Fe  Fe2  1  0.500000  0.500000  0.500000  1
  Fe  Fe3  1  0.245166  0.733636  0.733636  1
  Fe  Fe4  1  0.754834  0.266364  0.266364  1
  Fe  Fe5  1  0.122686  0.369581  0.369581  1
  Fe  Fe6  1  0.387152  0.137302  0.137302  1
  Fe  Fe7  1  0.000000  0.000000  0.000000  1
  O  O8  1  0.749957  0.559635  0.948205  1
  O  O9  1  0.500000  0.187180  0.812820  1
  O  O10  1  0.749957  0.948205  0.559635  1
  O  O11  1  0.466912  0.711491  0.711491  1
  O  O12  1  0.714879  0.483983  0.483983  1
  O  O13  1  0.969603  0.218588  0.218588  1
  O  O14  1  0.285121  0.516017  0.516017  1
  O  O15  1  0.030397  0.781412  0.781412  1
  O  O16  1  0.533088  0.288509  0.288509  1
  O  O17  1  0.250043  0.051795  0.440365  1
  O  O18  1  0.500000  0.812820  0.187180  1
  O  O19  1  0.000000  0.307461  0.692539  1
  O  O20  1  0.250043  0.440365  0.051795  1
  O  O21  1  0.000000  0.692539  0.307461  1
  F  F22  1  0.226629  0.972608  0.972608  1
  F  F23  1  0.773371  0.027392  0.027392  1
