# generated using pymatgen
data_Li2Cr(PO3)4
_symmetry_space_group_name_H-M   'P 1'
_cell_length_a   8.14405026
_cell_length_b   8.14405026
_cell_length_c   8.21540729
_cell_angle_alpha   83.26034382
_cell_angle_beta   96.73965618
_cell_angle_gamma   76.64351921
_symmetry_Int_Tables_number   1
_chemical_formula_structural   Li2Cr(PO3)4
_chemical_formula_sum   'Li4 Cr2 P8 O24'
_cell_volume   520.57118127
_cell_formula_units_Z   2
loop_
 _symmetry_equiv_pos_site_id
 _symmetry_equiv_pos_as_xyz
  1  'x, y, z'
loop_
 _atom_site_type_symbol
 _atom_site_label
 _atom_site_symmetry_multiplicity
 _atom_site_fract_x
 _atom_site_fract_y
 _atom_site_fract_z
 _atom_site_occupancy
  Li  Li0  1  0.552770  0.818231  0.932606  1
  Li  Li1  1  0.181769  0.447230  0.432606  1
  Li  Li2  1  0.823643  0.547934  0.569038  1
  Li  Li3  1  0.452066  0.176357  0.069038  1
  Cr  Cr4  1  0.181258  0.108201  0.742286  1
  Cr  Cr5  1  0.891799  0.818742  0.242286  1
  P  P6  1  0.073674  0.757827  0.688059  1
  P  P7  1  0.242173  0.926326  0.188059  1
  P  P8  1  0.178775  0.447914  0.927094  1
  P  P9  1  0.552086  0.821225  0.427094  1
  P  P10  1  0.507819  0.144800  0.575885  1
  P  P11  1  0.855200  0.492181  0.075885  1
  P  P12  1  0.824464  0.021681  0.817272  1
  P  P13  1  0.978319  0.175536  0.317272  1
  O  O14  1  0.167186  0.890305  0.643774  1
  O  O15  1  0.029845  0.648484  0.560535  1
  O  O16  1  0.109695  0.832814  0.143774  1
  O  O17  1  0.351516  0.970155  0.060535  1
  O  O18  1  0.186182  0.638513  0.853139  1
  O  O19  1  0.361487  0.813818  0.353139  1
  O  O20  1  0.723427  0.983931  0.953411  1
  O  O21  1  0.218979  0.337000  0.795438  1
  O  O22  1  0.016068  0.276573  0.453411  1
  O  O23  1  0.606011  0.709267  0.590909  1
  O  O24  1  0.663000  0.781021  0.295438  1
  O  O25  1  0.290733  0.393989  0.090909  1
  O  O26  1  0.897491  0.840887  0.753148  1
  O  O27  1  0.678396  0.574395  0.993049  1
  O  O28  1  0.159113  0.102509  0.253148  1
  O  O29  1  0.425605  0.321604  0.493049  1
  O  O30  1  0.432063  0.055651  0.709549  1
  O  O31  1  0.976336  0.468644  0.932155  1
  O  O32  1  0.944349  0.567937  0.209549  1
  O  O33  1  0.531356  0.023664  0.432155  1
  O  O34  1  0.702026  0.135261  0.653725  1
  O  O35  1  0.864739  0.297974  0.153725  1
  O  O36  1  0.962690  0.112775  0.848310  1
  O  O37  1  0.887225  0.037310  0.348310  1
