# generated using pymatgen
data_Nb2O3F2
_symmetry_space_group_name_H-M   'P 1'
_cell_length_a   5.22157739
_cell_length_b   5.78254760
_cell_length_c   7.14397930
_cell_angle_alpha   74.95750136
_cell_angle_beta   113.95156791
_cell_angle_gamma   91.49587918
_symmetry_Int_Tables_number   1
_chemical_formula_structural   Nb2O3F2
_chemical_formula_sum   'Nb4 O6 F4'
_cell_volume   189.60666981
_cell_formula_units_Z   2
loop_
 _symmetry_equiv_pos_site_id
 _symmetry_equiv_pos_as_xyz
  1  'x, y, z'
loop_
 _atom_site_type_symbol
 _atom_site_label
 _atom_site_symmetry_multiplicity
 _atom_site_fract_x
 _atom_site_fract_y
 _atom_site_fract_z
 _atom_site_occupancy
  Nb  Nb0  1  0.122575  0.327020  0.191835  1
  Nb  Nb1  1  0.396241  0.193392  0.821343  1
  Nb  Nb2  1  0.603759  0.806608  0.178657  1
  Nb  Nb3  1  0.877425  0.672980  0.808165  1
  O  O4  1  0.155593  0.354396  0.901881  1
  O  O5  1  0.254430  0.850659  0.906069  1
  O  O6  1  0.581250  0.483136  0.727109  1
  O  O7  1  0.418750  0.516864  0.272891  1
  O  O8  1  0.745570  0.149341  0.093931  1
  O  O9  1  0.844407  0.645604  0.098119  1
  F  F10  1  0.887941  0.754374  0.502168  1
  F  F11  1  0.361555  0.997390  0.283667  1
  F  F12  1  0.638445  0.002610  0.716333  1
  F  F13  1  0.112059  0.245626  0.497832  1
