# generated using pymatgen
data_Li5Cu5(SbO6)2
_symmetry_space_group_name_H-M   'P 1'
_cell_length_a   5.21098933
_cell_length_b   5.21098933
_cell_length_c   9.89194166
_cell_angle_alpha   88.76643600
_cell_angle_beta   91.23356400
_cell_angle_gamma   66.52418934
_symmetry_Int_Tables_number   1
_chemical_formula_structural   Li5Cu5(SbO6)2
_chemical_formula_sum   'Li5 Cu5 Sb2 O12'
_cell_volume   246.18669129
_cell_formula_units_Z   1
loop_
 _symmetry_equiv_pos_site_id
 _symmetry_equiv_pos_as_xyz
  1  'x, y, z'
loop_
 _atom_site_type_symbol
 _atom_site_label
 _atom_site_symmetry_multiplicity
 _atom_site_fract_x
 _atom_site_fract_y
 _atom_site_fract_z
 _atom_site_occupancy
  Li  Li0  1  0.321849  0.847025  0.992935  1
  Li  Li1  1  0.162598  0.678454  0.504381  1
  Li  Li2  1  0.910127  0.910127  0.750000  1
  Li  Li3  1  0.847025  0.321849  0.507065  1
  Li  Li4  1  0.678454  0.162598  0.995619  1
  Cu  Cu5  1  0.997882  0.506959  0.998014  1
  Cu  Cu6  1  0.590003  0.590003  0.750000  1
  Cu  Cu7  1  0.082509  0.082509  0.250000  1
  Cu  Cu8  1  0.409705  0.409705  0.250000  1
  Cu  Cu9  1  0.506959  0.997882  0.501986  1
  Sb  Sb10  1  0.249548  0.249548  0.750000  1
  Sb  Sb11  1  0.744797  0.744797  0.250000  1
  O  O12  1  0.566966  0.928805  0.848807  1
  O  O13  1  0.305511  0.534239  0.869875  1
  O  O14  1  0.067927  0.425744  0.348128  1
  O  O15  1  0.992228  0.204450  0.885910  1
  O  O16  1  0.478081  0.684880  0.376249  1
  O  O17  1  0.806033  0.003681  0.382235  1
  O  O18  1  0.204450  0.992228  0.614090  1
  O  O19  1  0.534239  0.305511  0.630125  1
  O  O20  1  0.003681  0.806033  0.117765  1
  O  O21  1  0.928805  0.566966  0.651193  1
  O  O22  1  0.684880  0.478081  0.123751  1
  O  O23  1  0.425744  0.067927  0.151872  1
