# generated using pymatgen
data_LiFe2F5
_symmetry_space_group_name_H-M   'P 1'
_cell_length_a   8.17437409
_cell_length_b   8.47596102
_cell_length_c   6.60532100
_cell_angle_alpha   90.39097679
_cell_angle_beta   89.66033082
_cell_angle_gamma   89.68840090
_symmetry_Int_Tables_number   1
_chemical_formula_structural   LiFe2F5
_chemical_formula_sum   'Li4 Fe8 F20'
_cell_volume   457.62856492
_cell_formula_units_Z   4
loop_
 _symmetry_equiv_pos_site_id
 _symmetry_equiv_pos_as_xyz
  1  'x, y, z'
loop_
 _atom_site_type_symbol
 _atom_site_label
 _atom_site_symmetry_multiplicity
 _atom_site_fract_x
 _atom_site_fract_y
 _atom_site_fract_z
 _atom_site_occupancy
  Li  Li0  1  0.172042  0.316240  0.753235  1
  Li  Li1  1  0.327136  0.816817  0.751316  1
  Li  Li2  1  0.672948  0.183970  0.249652  1
  Li  Li3  1  0.827937  0.681825  0.247059  1
  Fe  Fe4  1  -0.000426  0.001056  0.000901  1
  Fe  Fe5  1  -0.000338  0.001449  0.499315  1
  Fe  Fe6  1  0.117609  0.344443  0.255016  1
  Fe  Fe7  1  0.393850  0.837923  0.253287  1
  Fe  Fe8  1  0.502428  0.501350  0.998909  1
  Fe  Fe9  1  0.502578  0.500182  0.501553  1
  Fe  Fe10  1  0.607518  0.161953  0.750810  1
  Fe  Fe11  1  0.891826  0.663580  0.745278  1
  F  F12  1  0.041318  0.492402  0.757262  1
  F  F13  1  0.128925  0.207747  0.995596  1
  F  F14  1  0.136971  0.206948  0.505386  1
  F  F15  1  0.108743  0.888053  0.746450  1
  F  F16  1  0.154045  0.919380  0.249964  1
  F  F17  1  0.356412  0.414043  0.251469  1
  F  F18  1  0.391480  0.385988  0.751187  1
  F  F19  1  0.360023  0.701653  0.505422  1
  F  F20  1  0.362150  0.703304  0.994924  1
  F  F21  1  0.462091  -0.011484  0.745085  1
  F  F22  1  0.537055  0.012344  0.245460  1
  F  F23  1  0.639080  0.297637  0.005644  1
  F  F24  1  0.637507  0.295325  0.495622  1
  F  F25  1  0.607702  0.615900  0.250465  1
  F  F26  1  0.652856  0.581856  0.748846  1
  F  F27  1  0.846597  0.080245  0.750502  1
  F  F28  1  0.886501  0.105871  0.253417  1
  F  F29  1  0.866399  0.796036  0.006311  1
  F  F30  1  0.860170  0.796917  0.493461  1
  F  F31  1  0.948867  0.499048  0.241198  1
