# generated using pymatgen
data_Ca2P2H4O9
_symmetry_space_group_name_H-M   'P 1'
_cell_length_a   7.40705042
_cell_length_b   8.34123321
_cell_length_c   6.74747320
_cell_angle_alpha   102.71638588
_cell_angle_beta   73.00554642
_cell_angle_gamma   94.85764013
_symmetry_Int_Tables_number   1
_chemical_formula_structural   Ca2P2H4O9
_chemical_formula_sum   'Ca4 P4 H8 O18'
_cell_volume   388.80985547
_cell_formula_units_Z   2
loop_
 _symmetry_equiv_pos_site_id
 _symmetry_equiv_pos_as_xyz
  1  'x, y, z'
loop_
 _atom_site_type_symbol
 _atom_site_label
 _atom_site_symmetry_multiplicity
 _atom_site_fract_x
 _atom_site_fract_y
 _atom_site_fract_z
 _atom_site_occupancy
  Ca  Ca0  1  0.752042  0.495081  0.689493  1
  Ca  Ca1  1  0.247958  0.504919  0.310507  1
  Ca  Ca2  1  0.133416  0.244615  0.742784  1
  Ca  Ca3  1  0.866584  0.755385  0.257216  1
  P  P4  1  0.009747  0.812716  0.738726  1
  P  P5  1  0.990253  0.187284  0.261274  1
  P  P6  1  0.287686  0.644016  0.833387  1
  P  P7  1  0.712314  0.355984  0.166613  1
  H  H8  1  0.477517  0.262159  0.901614  1
  H  H9  1  0.522483  0.737841  0.098386  1
  H  H10  1  0.537530  0.150754  0.672339  1
  H  H11  1  0.462470  0.849246  0.327661  1
  H  H12  1  0.764787  0.976471  0.657786  1
  H  H13  1  0.235213  0.023529  0.342214  1
  H  H14  1  0.579182  0.866406  0.682592  1
  H  H15  1  0.420818  0.133594  0.317408  1
  O  O16  1  0.981154  0.991782  0.746227  1
  O  O17  1  0.018846  0.008218  0.253773  1
  O  O18  1  0.015242  0.701406  0.519940  1
  O  O19  1  0.984758  0.298594  0.480060  1
  O  O20  1  0.864453  0.736041  0.907193  1
  O  O21  1  0.135547  0.263959  0.092807  1
  O  O22  1  0.217105  0.805457  0.777028  1
  O  O23  1  0.782895  0.194543  0.222972  1
  O  O24  1  0.496554  0.681318  0.821356  1
  O  O25  1  0.503446  0.318682  0.178644  1
  O  O26  1  0.256964  0.499319  0.660635  1
  O  O27  1  0.743036  0.500681  0.339365  1
  O  O28  1  0.171134  0.628227  0.057138  1
  O  O29  1  0.828866  0.371773  0.942862  1
  O  O30  1  0.492333  0.262084  0.750454  1
  O  O31  1  0.507667  0.737916  0.249546  1
  O  O32  1  0.660935  0.937349  0.591677  1
  O  O33  1  0.339065  0.062651  0.408323  1
