# generated using pymatgen
data_Li2Cr3SbO8
_symmetry_space_group_name_H-M   'P 1'
_cell_length_a   8.54062283
_cell_length_b   8.54064753
_cell_length_c   8.54102241
_cell_angle_alpha   90.00002039
_cell_angle_beta   89.99994606
_cell_angle_gamma   90.00004086
_symmetry_Int_Tables_number   1
_chemical_formula_structural   Li2Cr3SbO8
_chemical_formula_sum   'Li8 Cr12 Sb4 O32'
_cell_volume   623.00309392
_cell_formula_units_Z   4
loop_
 _symmetry_equiv_pos_site_id
 _symmetry_equiv_pos_as_xyz
  1  'x, y, z'
loop_
 _atom_site_type_symbol
 _atom_site_label
 _atom_site_symmetry_multiplicity
 _atom_site_fract_x
 _atom_site_fract_y
 _atom_site_fract_z
 _atom_site_occupancy
  Li  Li0  1  0.996860  0.996881  0.996868  1
  Li  Li1  1  0.253124  0.253127  0.253133  1
  Li  Li2  1  0.246868  0.746879  0.753119  1
  Li  Li3  1  0.503129  0.003131  0.496868  1
  Li  Li4  1  0.496863  0.503130  0.003141  1
  Li  Li5  1  0.753130  0.246877  0.746875  1
  Li  Li6  1  0.746861  0.753133  0.246878  1
  Li  Li7  1  0.003133  0.496873  0.503139  1
  Cr  Cr8  1  0.120534  0.129472  0.624970  1
  Cr  Cr9  1  0.124968  0.379462  0.870514  1
  Cr  Cr10  1  0.129490  0.624974  0.120510  1
  Cr  Cr11  1  0.370512  0.375029  0.620530  1
  Cr  Cr12  1  0.375025  0.620526  0.370509  1
  Cr  Cr13  1  0.379474  0.870533  0.124969  1
  Cr  Cr14  1  0.620526  0.370534  0.375044  1
  Cr  Cr15  1  0.624973  0.120545  0.129493  1
  Cr  Cr16  1  0.629492  0.875024  0.879487  1
  Cr  Cr17  1  0.870515  0.124983  0.379481  1
  Cr  Cr18  1  0.875038  0.879468  0.629488  1
  Cr  Cr19  1  0.879478  0.629472  0.875029  1
  Sb  Sb20  1  0.124998  0.874999  0.374958  1
  Sb  Sb21  1  0.375003  0.125002  0.874968  1
  Sb  Sb22  1  0.624995  0.625007  0.625045  1
  Sb  Sb23  1  0.874999  0.375008  0.125042  1
  O  O24  1  0.112576  0.111552  0.386488  1
  O  O25  1  0.113528  0.887429  0.611513  1
  O  O26  1  0.112178  0.612170  0.887826  1
  O  O27  1  0.138456  0.137433  0.863452  1
  O  O28  1  0.111551  0.386480  0.112560  1
  O  O29  1  0.137822  0.362173  0.637809  1
  O  O30  1  0.136547  0.638453  0.362560  1
  O  O31  1  0.137434  0.863453  0.138413  1
  O  O32  1  0.362568  0.136552  0.638424  1
  O  O33  1  0.363446  0.361546  0.862576  1
  O  O34  1  0.362178  0.637828  0.137803  1
  O  O35  1  0.388445  0.613523  0.612565  1
  O  O36  1  0.361544  0.862559  0.363446  1
  O  O37  1  0.387823  0.387821  0.387844  1
  O  O38  1  0.386479  0.112576  0.111521  1
  O  O39  1  0.387427  0.888452  0.886488  1
  O  O40  1  0.612573  0.388454  0.613525  1
  O  O41  1  0.613520  0.612570  0.388494  1
  O  O42  1  0.612173  0.887836  0.112169  1
  O  O43  1  0.638453  0.362572  0.136561  1
  O  O44  1  0.611554  0.113525  0.887443  1
  O  O45  1  0.637823  0.137831  0.362198  1
  O  O46  1  0.636555  0.861549  0.637437  1
  O  O47  1  0.637440  0.636549  0.861591  1
  O  O48  1  0.862563  0.363459  0.361587  1
  O  O49  1  0.863450  0.138465  0.137435  1
  O  O50  1  0.862181  0.862173  0.862197  1
  O  O51  1  0.888447  0.886484  0.387442  1
  O  O52  1  0.861546  0.637440  0.636554  1
  O  O53  1  0.887833  0.112177  0.612167  1
  O  O54  1  0.886475  0.387428  0.888487  1
  O  O55  1  0.887428  0.611557  0.113509  1
