# generated using pymatgen
data_Li2Fe4OF8
_symmetry_space_group_name_H-M   'P 1'
_cell_length_a   6.55756693
_cell_length_b   8.03942857
_cell_length_c   9.26841832
_cell_angle_alpha   100.74921560
_cell_angle_beta   111.87824481
_cell_angle_gamma   105.87394211
_symmetry_Int_Tables_number   1
_chemical_formula_structural   Li2Fe4OF8
_chemical_formula_sum   'Li4 Fe8 O2 F16'
_cell_volume   412.74082361
_cell_formula_units_Z   2
loop_
 _symmetry_equiv_pos_site_id
 _symmetry_equiv_pos_as_xyz
  1  'x, y, z'
loop_
 _atom_site_type_symbol
 _atom_site_label
 _atom_site_symmetry_multiplicity
 _atom_site_fract_x
 _atom_site_fract_y
 _atom_site_fract_z
 _atom_site_occupancy
  Li  Li0  1  0.076407  0.258475  0.339286  1
  Li  Li1  1  0.534873  0.714806  0.936720  1
  Li  Li2  1  0.465128  0.285194  0.063280  1
  Li  Li3  1  0.923593  0.741525  0.660714  1
  Fe  Fe4  1  0.029705  0.327725  0.722382  1
  Fe  Fe5  1  0.450581  0.881176  0.587897  1
  Fe  Fe6  1  0.150949  0.888021  0.082670  1
  Fe  Fe7  1  0.410407  0.646561  0.259843  1
  Fe  Fe8  1  0.589593  0.353439  0.740157  1
  Fe  Fe9  1  0.849051  0.111979  0.917330  1
  Fe  Fe10  1  0.549419  0.118824  0.412103  1
  Fe  Fe11  1  0.970295  0.672275  0.277618  1
  O  O12  1  0.291934  0.858872  0.327518  1
  O  O13  1  0.708066  0.141128  0.672482  1
  F  F14  1  0.014417  0.931497  0.856614  1
  F  F15  1  0.104175  0.764093  0.536609  1
  F  F16  1  0.166910  0.314036  0.961621  1
  F  F17  1  0.367376  0.475220  0.778435  1
  F  F18  1  0.126925  0.476718  0.279886  1
  F  F19  1  0.538791  0.884730  0.826660  1
  F  F20  1  0.373596  0.264955  0.491404  1
  F  F21  1  0.643538  0.272849  0.943283  1
  F  F22  1  0.356462  0.727151  0.056717  1
  F  F23  1  0.626404  0.735045  0.508596  1
  F  F24  1  0.461209  0.115270  0.173340  1
  F  F25  1  0.873075  0.523282  0.720114  1
  F  F26  1  0.632624  0.524780  0.221565  1
  F  F27  1  0.833090  0.685964  0.038379  1
  F  F28  1  0.895825  0.235907  0.463391  1
  F  F29  1  0.985583  0.068503  0.143386  1
