# generated using pymatgen
data_NiB18(H11C2)2
_symmetry_space_group_name_H-M   'P 1'
_cell_length_a   12.34823145
_cell_length_b   10.56051712
_cell_length_c   13.60251616
_cell_angle_alpha   90.00000000
_cell_angle_beta   112.46809704
_cell_angle_gamma   90.00000000
_symmetry_Int_Tables_number   1
_chemical_formula_structural   NiB18(H11C2)2
_chemical_formula_sum   'Ni4 B72 H88 C16'
_cell_volume   1639.17238504
_cell_formula_units_Z   4
loop_
 _symmetry_equiv_pos_site_id
 _symmetry_equiv_pos_as_xyz
  1  'x, y, z'
loop_
 _atom_site_type_symbol
 _atom_site_label
 _atom_site_symmetry_multiplicity
 _atom_site_fract_x
 _atom_site_fract_y
 _atom_site_fract_z
 _atom_site_occupancy
  Ni  Ni0  1  0.256745  0.435072  0.744432  1
  Ni  Ni1  1  0.743255  0.935072  0.755568  1
  Ni  Ni2  1  0.743255  0.564928  0.255568  1
  Ni  Ni3  1  0.256745  0.064928  0.244432  1
  B  B4  1  0.392335  0.295363  0.856430  1
  B  B5  1  0.607665  0.795363  0.643570  1
  B  B6  1  0.607665  0.704637  0.143570  1
  B  B7  1  0.392335  0.204637  0.356430  1
  B  B8  1  0.351795  0.137942  0.808148  1
  B  B9  1  0.648205  0.637942  0.691852  1
  B  B10  1  0.648205  0.862058  0.191852  1
  B  B11  1  0.351795  0.362058  0.308148  1
  B  B12  1  0.196284  0.181112  0.695510  1
  B  B13  1  0.803716  0.681112  0.804490  1
  B  B14  1  0.803716  0.818888  0.304490  1
  B  B15  1  0.196284  0.318888  0.195510  1
  B  B16  1  0.126354  0.370015  0.795748  1
  B  B17  1  0.873646  0.870015  0.704252  1
  B  B18  1  0.873646  0.629985  0.204252  1
  B  B19  1  0.126354  0.129985  0.295748  1
  B  B20  1  0.277117  0.364810  0.893554  1
  B  B21  1  0.722883  0.864810  0.606446  1
  B  B22  1  0.722883  0.635190  0.106446  1
  B  B23  1  0.277117  0.135190  0.393554  1
  B  B24  1  0.324353  0.202104  0.919356  1
  B  B25  1  0.675647  0.702104  0.580644  1
  B  B26  1  0.675647  0.797896  0.080644  1
  B  B27  1  0.324353  0.297896  0.419356  1
  B  B28  1  0.176615  0.241240  0.886947  1
  B  B29  1  0.823385  0.741240  0.613053  1
  B  B30  1  0.823385  0.758760  0.113053  1
  B  B31  1  0.176615  0.258760  0.386947  1
  B  B32  1  0.149063  0.585181  0.652797  1
  B  B33  1  0.850937  0.085181  0.847203  1
  B  B34  1  0.850937  0.414819  0.347203  1
  B  B35  1  0.149063  0.914819  0.152797  1
  B  B36  1  0.201557  0.679378  0.571679  1
  B  B37  1  0.798443  0.179378  0.928321  1
  B  B38  1  0.798443  0.320622  0.428321  1
  B  B39  1  0.201557  0.820622  0.071679  1
  B  B40  1  0.346671  0.635863  0.596590  1
  B  B41  1  0.653329  0.135863  0.903410  1
  B  B42  1  0.653329  0.364137  0.403410  1
  B  B43  1  0.346671  0.864137  0.096590  1
  B  B44  1  0.384996  0.576806  0.815951  1
  B  B45  1  0.615004  0.076806  0.684049  1
  B  B46  1  0.615004  0.423194  0.184049  1
  B  B47  1  0.384996  0.923194  0.315951  1
  B  B48  1  0.236234  0.622990  0.793680  1
  B  B49  1  0.763766  0.122990  0.706320  1
  B  B50  1  0.763766  0.377010  0.206320  1
  B  B51  1  0.236234  0.877010  0.293680  1
  B  B52  1  0.195915  0.741319  0.691438  1
  B  B53  1  0.804085  0.241319  0.808562  1
  B  B54  1  0.804085  0.258681  0.308562  1
  B  B55  1  0.195915  0.758681  0.191438  1
  B  B56  1  0.342284  0.736597  0.790757  1
  B  B57  1  0.657716  0.236597  0.709243  1
  B  B58  1  0.657716  0.263403  0.209243  1
  B  B59  1  0.342284  0.763403  0.290757  1
  B  B60  1  0.212763  0.113471  0.819219  1
  B  B61  1  0.787237  0.613471  0.680781  1
  B  B62  1  0.787237  0.886529  0.180781  1
  B  B63  1  0.212763  0.386529  0.319219  1
  B  B64  1  0.087684  0.209809  0.752149  1
  B  B65  1  0.912316  0.709809  0.747851  1
  B  B66  1  0.912316  0.790191  0.247851  1
  B  B67  1  0.087684  0.290191  0.252149  1
  B  B68  1  0.318455  0.774111  0.657459  1
  B  B69  1  0.681545  0.274111  0.842541  1
  B  B70  1  0.681545  0.225889  0.342541  1
  B  B71  1  0.318455  0.725889  0.157459  1
  B  B72  1  0.435627  0.670456  0.730341  1
  B  B73  1  0.564373  0.170456  0.769659  1
  B  B74  1  0.564373  0.329544  0.269659  1
  B  B75  1  0.435627  0.829544  0.230341  1
  H  H76  1  0.397588  0.279549  0.687051  1
  H  H77  1  0.602412  0.779549  0.812949  1
  H  H78  1  0.602412  0.720451  0.312949  1
  H  H79  1  0.397588  0.220451  0.187051  1
  H  H80  1  0.065798  0.341913  0.605447  1
  H  H81  1  0.934202  0.841913  0.894553  1
  H  H82  1  0.934202  0.658087  0.394553  1
  H  H83  1  0.065798  0.158087  0.105447  1
  H  H84  1  0.488494  0.336831  0.886930  1
  H  H85  1  0.511506  0.836831  0.613070  1
  H  H86  1  0.511506  0.663169  0.113070  1
  H  H87  1  0.488494  0.163169  0.386930  1
  H  H88  1  0.391686  0.033347  0.830157  1
  H  H89  1  0.608314  0.533347  0.669843  1
  H  H90  1  0.608314  0.966653  0.169843  1
  H  H91  1  0.391686  0.466653  0.330157  1
  H  H92  1  0.190386  0.131231  0.615064  1
  H  H93  1  0.809614  0.631231  0.884936  1
  H  H94  1  0.809614  0.868769  0.384936  1
  H  H95  1  0.190386  0.368769  0.115064  1
  H  H96  1  0.053815  0.442399  0.798545  1
  H  H97  1  0.946185  0.942399  0.701455  1
  H  H98  1  0.946185  0.557601  0.201455  1
  H  H99  1  0.053815  0.057601  0.298545  1
  H  H100  1  0.311372  0.439477  0.964823  1
  H  H101  1  0.688628  0.939477  0.535177  1
  H  H102  1  0.688628  0.560523  0.035177  1
  H  H103  1  0.311372  0.060523  0.464823  1
  H  H104  1  0.382296  0.165035  0.007197  1
  H  H105  1  0.617704  0.665035  0.492803  1
  H  H106  1  0.617704  0.834965  0.992803  1
  H  H107  1  0.382296  0.334965  0.507197  1
  H  H108  1  0.194221  0.005300  0.832564  1
  H  H109  1  0.805779  0.505300  0.667436  1
  H  H110  1  0.805779  0.994700  0.167436  1
  H  H111  1  0.194221  0.494700  0.332564  1
  H  H112  1  0.991114  0.167662  0.718940  1
  H  H113  1  0.008886  0.667662  0.781060  1
  H  H114  1  0.008886  0.832338  0.281060  1
  H  H115  1  0.991114  0.332338  0.218940  1
  H  H116  1  0.137034  0.227974  0.953976  1
  H  H117  1  0.862966  0.727974  0.546024  1
  H  H118  1  0.862966  0.772026  0.046024  1
  H  H119  1  0.137034  0.272026  0.453976  1
  H  H120  1  0.225675  0.456729  0.542108  1
  H  H121  1  0.774325  0.956729  0.957892  1
  H  H122  1  0.774325  0.543271  0.457892  1
  H  H123  1  0.225675  0.043271  0.042108  1
  H  H124  1  0.436976  0.452582  0.686984  1
  H  H125  1  0.563024  0.952582  0.813016  1
  H  H126  1  0.563024  0.547418  0.313016  1
  H  H127  1  0.436976  0.047418  0.186984  1
  H  H128  1  0.048817  0.555334  0.615202  1
  H  H129  1  0.951183  0.055334  0.884798  1
  H  H130  1  0.951183  0.444666  0.384798  1
  H  H131  1  0.048817  0.944666  0.115202  1
  H  H132  1  0.137093  0.702162  0.482907  1
  H  H133  1  0.862907  0.202162  0.017093  1
  H  H134  1  0.862907  0.297838  0.517093  1
  H  H135  1  0.137093  0.797838  0.982907  1
  H  H136  1  0.386843  0.620496  0.530996  1
  H  H137  1  0.613157  0.120496  0.969004  1
  H  H138  1  0.613157  0.379504  0.469004  1
  H  H139  1  0.386843  0.879504  0.030996  1
  H  H140  1  0.461174  0.545594  0.896701  1
  H  H141  1  0.538826  0.045594  0.603299  1
  H  H142  1  0.538826  0.454406  0.103299  1
  H  H143  1  0.461174  0.954406  0.396701  1
  H  H144  1  0.197659  0.627569  0.861388  1
  H  H145  1  0.802341  0.127569  0.638612  1
  H  H146  1  0.802341  0.372431  0.138612  1
  H  H147  1  0.197659  0.872431  0.361388  1
  H  H148  1  0.126804  0.820522  0.691306  1
  H  H149  1  0.873196  0.320522  0.808694  1
  H  H150  1  0.873196  0.179479  0.308694  1
  H  H151  1  0.126804  0.679478  0.191306  1
  H  H152  1  0.336530  0.877578  0.632147  1
  H  H153  1  0.663470  0.377578  0.867853  1
  H  H154  1  0.663470  0.122422  0.367853  1
  H  H155  1  0.336530  0.622422  0.132147  1
  H  H156  1  0.617604  0.619092  0.829913  1
  H  H157  1  0.382396  0.119092  0.670087  1
  H  H158  1  0.382396  0.380908  0.170087  1
  H  H159  1  0.617604  0.880908  0.329913  1
  H  H160  1  0.377630  0.812568  0.860794  1
  H  H161  1  0.622370  0.312568  0.639206  1
  H  H162  1  0.622370  0.187432  0.139206  1
  H  H163  1  0.377630  0.687432  0.360794  1
  C  C164  1  0.425697  0.191444  0.731590  1
  C  C165  1  0.574303  0.691444  0.768410  1
  C  C166  1  0.574303  0.808556  0.268410  1
  C  C167  1  0.425697  0.308556  0.231590  1
  C  C168  1  0.127867  0.311324  0.683256  1
  C  C169  1  0.872133  0.811324  0.816744  1
  C  C170  1  0.872133  0.688676  0.316744  1
  C  C171  1  0.127867  0.188676  0.183256  1
  C  C172  1  0.247582  0.528539  0.604731  1
  C  C173  1  0.752418  0.028539  0.895269  1
  C  C174  1  0.752418  0.471461  0.395269  1
  C  C175  1  0.247582  0.971461  0.104731  1
  C  C176  1  0.377955  0.523774  0.695307  1
  C  C177  1  0.622045  0.023774  0.804693  1
  C  C178  1  0.622045  0.476226  0.304693  1
  C  C179  1  0.377955  0.976226  0.195307  1
