# generated using pymatgen
data_Na4Ni2P(CO4)4
_symmetry_space_group_name_H-M   'P 1'
_cell_length_a   9.94947046
_cell_length_b   9.76889876
_cell_length_c   9.94947006
_cell_angle_alpha   60.73564187
_cell_angle_beta   92.29612043
_cell_angle_gamma   60.73564276
_symmetry_Int_Tables_number   1
_chemical_formula_structural   Na4Ni2P(CO4)4
_chemical_formula_sum   'Na8 Ni4 P2 C8 O32'
_cell_volume   684.70307160
_cell_formula_units_Z   2
loop_
 _symmetry_equiv_pos_site_id
 _symmetry_equiv_pos_as_xyz
  1  'x, y, z'
loop_
 _atom_site_type_symbol
 _atom_site_label
 _atom_site_symmetry_multiplicity
 _atom_site_fract_x
 _atom_site_fract_y
 _atom_site_fract_z
 _atom_site_occupancy
  Na  Na0  1  0.088133  0.823734  0.838133  1
  Na  Na1  1  0.087284  0.250000  0.837284  1
  Na  Na2  1  0.337284  0.750000  0.587284  1
  Na  Na3  1  0.338133  0.323734  0.588133  1
  Na  Na4  1  0.661867  0.676266  0.411867  1
  Na  Na5  1  0.662716  0.250000  0.412716  1
  Na  Na6  1  0.912716  0.750000  0.162716  1
  Na  Na7  1  0.911867  0.176266  0.161867  1
  Ni  Ni8  1  0.000000  0.500000  0.000000  1
  Ni  Ni9  1  0.500000  0.000000  0.500000  1
  Ni  Ni10  1  0.500000  0.500000  0.000000  1
  Ni  Ni11  1  0.500000  0.000000  0.000000  1
  P  P12  1  0.125000  0.750000  0.375000  1
  P  P13  1  0.875000  0.250000  0.625000  1
  C  C14  1  0.353938  0.932908  0.778470  1
  C  C15  1  0.278470  0.432908  0.853938  1
  C  C16  1  0.713155  0.932908  0.788622  1
  C  C17  1  0.711378  0.567092  0.786845  1
  C  C18  1  0.288622  0.432908  0.213155  1
  C  C19  1  0.286845  0.067092  0.211378  1
  C  C20  1  0.721530  0.567092  0.146062  1
  C  C21  1  0.646062  0.067092  0.221530  1
  O  O22  1  0.346987  0.796233  0.889975  1
  O  O23  1  0.062602  0.880778  0.435594  1
  O  O24  1  0.361685  0.948722  0.643235  1
  O  O25  1  0.143235  0.448722  0.861685  1
  O  O26  1  0.689593  0.948722  0.908044  1
  O  O27  1  0.299783  0.556465  0.846453  1
  O  O28  1  0.056618  0.880778  0.183628  1
  O  O29  1  0.064406  0.619222  0.437398  1
  O  O30  1  0.402917  0.943535  0.356247  1
  O  O31  1  0.591956  0.551278  0.810407  1
  O  O32  1  0.389975  0.296233  0.846987  1
  O  O33  1  0.316372  0.619222  0.443382  1
  O  O34  1  0.856780  0.796233  0.813792  1
  O  O35  1  0.686208  0.703767  0.643220  1
  O  O36  1  0.346453  0.056465  0.799783  1
  O  O37  1  0.143753  0.556465  0.097083  1
  O  O38  1  0.856247  0.443535  0.902917  1
  O  O39  1  0.653547  0.943535  0.200217  1
  O  O40  1  0.313792  0.296233  0.356780  1
  O  O41  1  0.143220  0.203767  0.186208  1
  O  O42  1  0.683628  0.380778  0.556618  1
  O  O43  1  0.610025  0.703767  0.153013  1
  O  O44  1  0.408044  0.448722  0.189593  1
  O  O45  1  0.597083  0.056465  0.643753  1
  O  O46  1  0.935594  0.380778  0.562602  1
  O  O47  1  0.943382  0.119222  0.816372  1
  O  O48  1  0.700217  0.443535  0.153547  1
  O  O49  1  0.310407  0.051278  0.091956  1
  O  O50  1  0.856765  0.551278  0.138315  1
  O  O51  1  0.638315  0.051278  0.356765  1
  O  O52  1  0.937398  0.119222  0.564406  1
  O  O53  1  0.653013  0.203767  0.110025  1
