# generated using pymatgen
data_Lu2P4O13
_symmetry_space_group_name_H-M   'P 1'
_cell_length_a   6.70821207
_cell_length_b   6.83676624
_cell_length_c   12.85326253
_cell_angle_alpha   75.81959677
_cell_angle_beta   90.00000286
_cell_angle_gamma   60.62008123
_symmetry_Int_Tables_number   1
_chemical_formula_structural   Lu2P4O13
_chemical_formula_sum   'Lu4 P8 O26'
_cell_volume   492.94978517
_cell_formula_units_Z   2
loop_
 _symmetry_equiv_pos_site_id
 _symmetry_equiv_pos_as_xyz
  1  'x, y, z'
loop_
 _atom_site_type_symbol
 _atom_site_label
 _atom_site_symmetry_multiplicity
 _atom_site_fract_x
 _atom_site_fract_y
 _atom_site_fract_z
 _atom_site_occupancy
  Lu  Lu0  1  0.305334  0.394370  0.947837  1
  Lu  Lu1  1  0.300295  0.394370  0.447837  1
  Lu  Lu2  1  0.699705  0.605630  0.552163  1
  Lu  Lu3  1  0.694666  0.605630  0.052163  1
  P  P4  1  0.163004  0.975351  0.867361  1
  P  P5  1  0.239890  0.533529  0.659876  1
  P  P6  1  0.138354  0.024649  0.632639  1
  P  P7  1  0.773419  0.466471  0.840124  1
  P  P8  1  0.226581  0.533529  0.159876  1
  P  P9  1  0.861646  0.975351  0.367361  1
  P  P10  1  0.760110  0.466471  0.340124  1
  P  P11  1  0.836996  0.024649  0.132639  1
  O  O12  1  0.329534  0.987171  0.942673  1
  O  O13  1  0.122755  0.772703  0.897156  1
  O  O14  1  0.100108  0.807197  0.652854  1
  O  O15  1  0.104541  0.772703  0.397156  1
  O  O16  1  0.074892  0.498072  0.594299  1
  O  O17  1  0.092695  0.807197  0.152854  1
  O  O18  1  0.306503  0.398392  0.778140  1
  O  O19  1  0.572964  0.501928  0.905701  1
  O  O20  1  0.683295  0.987171  0.442673  1
  O  O21  1  0.439527  0.487950  0.593037  1
  O  O22  1  0.704896  0.601608  0.721860  1
  O  O23  1  0.072525  0.487950  0.093037  1
  O  O24  1  0.248226  1.000000  0.750000  1
  O  O25  1  0.927475  0.512050  0.906963  1
  O  O26  1  0.295104  0.398392  0.278140  1
  O  O27  1  0.560473  0.512050  0.406963  1
  O  O28  1  0.316705  0.012829  0.557327  1
  O  O29  1  0.427036  0.498072  0.094299  1
  O  O30  1  0.693497  0.601608  0.221860  1
  O  O31  1  0.907305  0.192803  0.847146  1
  O  O32  1  0.925108  0.501928  0.405701  1
  O  O33  1  0.895459  0.227297  0.602844  1
  O  O34  1  0.899892  0.192803  0.347146  1
  O  O35  1  0.751774  0.000000  0.250000  1
  O  O36  1  0.877245  0.227297  0.102844  1
  O  O37  1  0.670466  0.012829  0.057327  1
