# generated using pymatgen
data_Li3CoNi3O8
_symmetry_space_group_name_H-M   'P 1'
_cell_length_a   5.71422442
_cell_length_b   5.69717062
_cell_length_c   9.27006491
_cell_angle_alpha   89.97425618
_cell_angle_beta   90.13395228
_cell_angle_gamma   120.30947301
_symmetry_Int_Tables_number   1
_chemical_formula_structural   Li3CoNi3O8
_chemical_formula_sum   'Li6 Co2 Ni6 O16'
_cell_volume   260.53482977
_cell_formula_units_Z   2
loop_
 _symmetry_equiv_pos_site_id
 _symmetry_equiv_pos_as_xyz
  1  'x, y, z'
loop_
 _atom_site_type_symbol
 _atom_site_label
 _atom_site_symmetry_multiplicity
 _atom_site_fract_x
 _atom_site_fract_y
 _atom_site_fract_z
 _atom_site_occupancy
  Li  Li0  1  0.162098  0.828849  0.051928  1
  Li  Li1  1  0.668849  0.838556  0.051511  1
  Li  Li2  1  0.172007  0.333587  0.052019  1
  Li  Li3  1  0.838629  0.663714  0.551830  1
  Li  Li4  1  0.336103  0.174435  0.551564  1
  Li  Li5  1  0.825498  0.161198  0.551222  1
  Co  Co6  1  0.332440  0.666665  0.513554  1
  Co  Co7  1  0.666792  0.334008  0.013023  1
  Ni  Ni8  1  0.163639  0.825039  0.786070  1
  Ni  Ni9  1  0.660569  0.837473  0.785286  1
  Ni  Ni10  1  0.172982  0.337076  0.786369  1
  Ni  Ni11  1  0.835078  0.660391  0.286525  1
  Ni  Ni12  1  0.339964  0.174481  0.286447  1
  Ni  Ni13  1  0.824992  0.165026  0.286318  1
  O  O14  1  0.152246  0.822340  0.412098  1
  O  O15  1  0.462045  0.963323  0.649165  1
  O  O16  1  0.666566  0.846888  0.412528  1
  O  O17  1  0.330802  0.663506  0.891315  1
  O  O18  1  0.038451  0.499274  0.647618  1
  O  O19  1  0.502060  0.541581  0.649936  1
  O  O20  1  0.845803  0.665564  0.911742  1
  O  O21  1  0.178512  0.334580  0.412059  1
  O  O22  1  0.538180  0.500370  0.149041  1
  O  O23  1  0.666723  0.335462  0.395580  1
  O  O24  1  0.999602  0.998151  0.187420  1
  O  O25  1  0.962942  0.463598  0.148614  1
  O  O26  1  0.000948  0.000790  0.686435  1
  O  O27  1  0.330090  0.177482  0.913978  1
  O  O28  1  0.503709  0.038717  0.147383  1
  O  O29  1  0.821857  0.147872  0.911538  1
