# generated using pymatgen
data_Li5Ti4Co3O16
_symmetry_space_group_name_H-M   'P 1'
_cell_length_a   8.31615334
_cell_length_b   8.42403918
_cell_length_c   8.43526558
_cell_angle_alpha   89.55848412
_cell_angle_beta   89.75185559
_cell_angle_gamma   90.03426587
_symmetry_Int_Tables_number   1
_chemical_formula_structural   Li5Ti4Co3O16
_chemical_formula_sum   'Li10 Ti8 Co6 O32'
_cell_volume   590.91439948
_cell_formula_units_Z   2
loop_
 _symmetry_equiv_pos_site_id
 _symmetry_equiv_pos_as_xyz
  1  'x, y, z'
loop_
 _atom_site_type_symbol
 _atom_site_label
 _atom_site_symmetry_multiplicity
 _atom_site_fract_x
 _atom_site_fract_y
 _atom_site_fract_z
 _atom_site_occupancy
  Li  Li0  1  0.115132  0.878186  0.382130  1
  Li  Li1  1  0.244076  0.750537  0.750722  1
  Li  Li2  1  0.246113  0.250306  0.256900  1
  Li  Li3  1  0.376295  0.125554  0.873711  1
  Li  Li4  1  0.640175  0.622392  0.619389  1
  Li  Li5  1  0.639166  0.379580  0.379751  1
  Li  Li6  1  0.871142  0.621590  0.866658  1
  Li  Li7  1  0.872060  0.376208  0.133840  1
  Li  Li8  1  0.880904  0.862058  0.616738  1
  Li  Li9  1  0.880043  0.128549  0.372824  1
  Ti  Ti10  1  0.110744  0.615715  0.123586  1
  Ti  Ti11  1  0.122657  0.379952  0.881588  1
  Ti  Ti12  1  0.123092  0.103292  0.604190  1
  Ti  Ti13  1  0.367000  0.888608  0.120181  1
  Ti  Ti14  1  0.381196  0.623061  0.387485  1
  Ti  Ti15  1  0.388243  0.375914  0.621015  1
  Ti  Ti16  1  0.620441  0.869014  0.857986  1
  Ti  Ti17  1  0.625147  0.138380  0.134993  1
  Co  Co18  1  0.001835  0.499755  0.500289  1
  Co  Co19  1  0.503534  0.503775  0.997978  1
  Co  Co20  1  0.498277  0.003000  0.495511  1
  Co  Co21  1  0.746916  0.750778  0.249225  1
  Co  Co22  1  0.755281  0.246019  0.754762  1
  Co  Co23  1  0.993613  0.001961  0.996509  1
  O  O24  1  0.116826  0.604780  0.895593  1
  O  O25  1  0.116001  0.118112  0.393926  1
  O  O26  1  0.118975  0.893354  0.623181  1
  O  O27  1  0.120390  0.391086  0.108479  1
  O  O28  1  0.119298  0.134992  0.877187  1
  O  O29  1  0.139843  0.623659  0.360463  1
  O  O30  1  0.134531  0.866990  0.114622  1
  O  O31  1  0.138811  0.368628  0.640297  1
  O  O32  1  0.363777  0.636397  0.134013  1
  O  O33  1  0.366034  0.137469  0.621705  1
  O  O34  1  0.361797  0.378144  0.863772  1
  O  O35  1  0.380287  0.864514  0.359565  1
  O  O36  1  0.380552  0.608305  0.608041  1
  O  O37  1  0.393077  0.107280  0.122343  1
  O  O38  1  0.395555  0.880195  0.896037  1
  O  O39  1  0.384153  0.394939  0.395903  1
  O  O40  1  0.616905  0.883917  0.116648  1
  O  O41  1  0.614274  0.365358  0.636882  1
  O  O42  1  0.612323  0.628705  0.367267  1
  O  O43  1  0.631400  0.113786  0.886443  1
  O  O44  1  0.618351  0.359583  0.119279  1
  O  O45  1  0.619135  0.882061  0.640664  1
  O  O46  1  0.622722  0.642402  0.878338  1
  O  O47  1  0.625452  0.121992  0.355931  1
  O  O48  1  0.864049  0.878936  0.882347  1
  O  O49  1  0.881765  0.381430  0.380238  1
  O  O50  1  0.864260  0.118910  0.121118  1
  O  O51  1  0.882777  0.619866  0.620505  1
  O  O52  1  0.863196  0.868327  0.369984  1
  O  O53  1  0.884711  0.370965  0.869619  1
  O  O54  1  0.885619  0.628976  0.131305  1
  O  O55  1  0.880069  0.131796  0.630382  1
