# generated using pymatgen
data_Li2MnSi3O8
_symmetry_space_group_name_H-M   'P 1'
_cell_length_a   6.32516134
_cell_length_b   6.35862685
_cell_length_c   5.14103682
_cell_angle_alpha   71.69597889
_cell_angle_beta   105.26986608
_cell_angle_gamma   103.24341813
_symmetry_Int_Tables_number   1
_chemical_formula_structural   Li2MnSi3O8
_chemical_formula_sum   'Li2 Mn1 Si3 O8'
_cell_volume   186.94269059
_cell_formula_units_Z   1
loop_
 _symmetry_equiv_pos_site_id
 _symmetry_equiv_pos_as_xyz
  1  'x, y, z'
loop_
 _atom_site_type_symbol
 _atom_site_label
 _atom_site_symmetry_multiplicity
 _atom_site_fract_x
 _atom_site_fract_y
 _atom_site_fract_z
 _atom_site_occupancy
  Li  Li0  1  0.861470  0.638618  0.283497  1
  Li  Li1  1  0.118501  0.300063  0.780531  1
  Mn  Mn2  1  0.624544  0.290117  0.653178  1
  Si  Si3  1  0.820589  0.115646  0.302043  1
  Si  Si4  1  0.400694  0.761750  0.324166  1
  Si  Si5  1  0.190661  0.884163  0.715592  1
  O  O6  1  0.876774  0.189195  0.995845  1
  O  O7  1  0.181420  0.760281  0.052769  1
  O  O8  1  0.880377  0.321451  0.442834  1
  O  O9  1  0.551282  0.582671  0.356309  1
  O  O10  1  0.314789  0.135181  0.689080  1
  O  O11  1  0.548561  0.016336  0.286151  1
  O  O12  1  0.939057  0.890654  0.513209  1
  O  O13  1  0.289879  0.712476  0.604795  1
