# generated using pymatgen
data_Li3Mn4(BO3)4
_symmetry_space_group_name_H-M   'P 1'
_cell_length_a   9.09559691
_cell_length_b   9.10434011
_cell_length_c   11.66253526
_cell_angle_alpha   67.43437185
_cell_angle_beta   68.60268291
_cell_angle_gamma   60.04614219
_symmetry_Int_Tables_number   1
_chemical_formula_structural   Li3Mn4(BO3)4
_chemical_formula_sum   'Li9 Mn12 B12 O36'
_cell_volume   754.37683516
_cell_formula_units_Z   3
loop_
 _symmetry_equiv_pos_site_id
 _symmetry_equiv_pos_as_xyz
  1  'x, y, z'
loop_
 _atom_site_type_symbol
 _atom_site_label
 _atom_site_symmetry_multiplicity
 _atom_site_fract_x
 _atom_site_fract_y
 _atom_site_fract_z
 _atom_site_occupancy
  Li  Li0  1  0.223605  0.058013  0.666362  1
  Li  Li1  1  0.369058  0.252396  0.166698  1
  Li  Li2  1  0.048527  0.884849  0.176548  1
  Li  Li3  1  0.416746  0.593305  0.417956  1
  Li  Li4  1  0.529528  0.389594  0.675679  1
  Li  Li5  1  0.719910  0.576631  0.170361  1
  Li  Li6  1  0.934679  0.083144  0.906493  1
  Li  Li7  1  0.761536  0.910408  0.412209  1
  Li  Li8  1  0.889867  0.700016  0.657441  1
  Mn  Mn9  1  0.053743  0.218478  0.131568  1
  Mn  Mn10  1  0.114823  0.548050  0.380292  1
  Mn  Mn11  1  0.293972  0.084073  0.883649  1
  Mn  Mn12  1  0.401246  0.588727  0.121962  1
  Mn  Mn13  1  0.210508  0.765241  0.626262  1
  Mn  Mn14  1  0.577396  0.058442  0.633476  1
  Mn  Mn15  1  0.411591  0.957423  0.379098  1
  Mn  Mn16  1  0.772997  0.274383  0.386657  1
  Mn  Mn17  1  0.589267  0.430278  0.882466  1
  Mn  Mn18  1  0.722499  0.922626  0.128455  1
  Mn  Mn19  1  0.889710  0.387585  0.627901  1
  Mn  Mn20  1  0.924921  0.739597  0.892508  1
  B  B21  1  0.057875  0.555563  0.141710  1
  B  B22  1  0.094341  0.922028  0.373253  1
  B  B23  1  0.242834  0.402633  0.617527  1
  B  B24  1  0.441576  0.276858  0.373319  1
  B  B25  1  0.400447  0.908466  0.135705  1
  B  B26  1  0.735520  0.245957  0.127392  1
  B  B27  1  0.254490  0.771197  0.866008  1
  B  B28  1  0.618931  0.085464  0.868932  1
  B  B29  1  0.567613  0.733113  0.621401  1
  B  B30  1  0.904390  0.065354  0.622078  1
  B  B31  1  0.749680  0.625190  0.374332  1
  B  B32  1  0.940216  0.403434  0.873578  1
  O  O33  1  0.032805  0.104231  0.320031  1
  O  O34  1  0.011986  0.125074  0.626474  1
  O  O35  1  0.138996  0.386145  0.138907  1
  O  O36  1  0.126850  0.625553  0.191214  1
  O  O37  1  0.449143  0.006475  0.169124  1
  O  O38  1  0.089019  0.483820  0.569597  1
  O  O39  1  0.022592  0.827837  0.363876  1
  O  O40  1  0.346580  0.213843  0.354715  1
  O  O41  1  0.065206  0.287055  0.949020  1
  O  O42  1  0.305303  0.222671  0.670555  1
  O  O43  1  0.371282  0.463306  0.347389  1
  O  O44  1  0.239761  0.988035  0.099550  1
  O  O45  1  0.574184  0.334181  0.094745  1
  O  O46  1  0.323495  0.501640  0.607483  1
  O  O47  1  0.236748  0.841302  0.432537  1
  O  O48  1  0.595110  0.172229  0.416063  1
  O  O49  1  0.188783  0.709701  0.808967  1
  O  O50  1  0.500461  0.737027  0.136663  1
  O  O51  1  0.842273  0.075084  0.119518  1
  O  O52  1  0.791548  0.336293  0.165539  1
  O  O53  1  0.186685  0.947460  0.854589  1
  O  O54  1  0.531367  0.262358  0.851067  1
  O  O55  1  0.402318  0.839647  0.589822  1
  O  O56  1  0.665436  0.542322  0.363563  1
  O  O57  1  0.743083  0.182457  0.589838  1
  O  O58  1  0.380053  0.650056  0.933863  1
  O  O59  1  0.618968  0.554203  0.667730  1
  O  O60  1  0.687952  0.806307  0.338143  1
  O  O61  1  0.905134  0.670036  0.097108  1
  O  O62  1  0.900419  0.522450  0.422743  1
  O  O63  1  0.672694  0.812873  0.601509  1
  O  O64  1  0.867253  0.330717  0.835316  1
  O  O65  1  0.561997  0.993758  0.835117  1
  O  O66  1  0.897496  0.577066  0.833167  1
  O  O67  1  0.768488  0.991447  0.920248  1
  O  O68  1  0.953463  0.884922  0.645914  1
