# generated using pymatgen
data_Li2TiMn2O6
_symmetry_space_group_name_H-M   'P 1'
_cell_length_a   9.08017108
_cell_length_b   9.15924853
_cell_length_c   10.33416146
_cell_angle_alpha   90.00000000
_cell_angle_beta   90.00000000
_cell_angle_gamma   58.20077486
_symmetry_Int_Tables_number   1
_chemical_formula_structural   Li2TiMn2O6
_chemical_formula_sum   'Li12 Ti6 Mn12 O36'
_cell_volume   730.46069818
_cell_formula_units_Z   6
loop_
 _symmetry_equiv_pos_site_id
 _symmetry_equiv_pos_as_xyz
  1  'x, y, z'
loop_
 _atom_site_type_symbol
 _atom_site_label
 _atom_site_symmetry_multiplicity
 _atom_site_fract_x
 _atom_site_fract_y
 _atom_site_fract_z
 _atom_site_occupancy
  Li  Li0  1  0.935561  0.618754  0.278022  1
  Li  Li1  1  0.763228  0.104866  0.232725  1
  Li  Li2  1  0.777509  0.419386  0.229541  1
  Li  Li3  1  0.722491  0.080614  0.729541  1
  Li  Li4  1  0.736772  0.395134  0.732725  1
  Li  Li5  1  0.564439  0.881246  0.778022  1
  Li  Li6  1  0.435568  0.118862  0.221945  1
  Li  Li7  1  0.263123  0.604850  0.267250  1
  Li  Li8  1  0.277549  0.919379  0.270433  1
  Li  Li9  1  0.222451  0.580621  0.770433  1
  Li  Li10  1  0.236877  0.895150  0.767250  1
  Li  Li11  1  0.064432  0.381138  0.721945  1
  Ti  Ti12  1  0.837082  0.824434  0.513441  1
  Ti  Ti13  1  0.662918  0.675566  0.013441  1
  Ti  Ti14  1  0.499960  0.499958  0.500110  1
  Ti  Ti15  1  0.336975  0.324553  0.986500  1
  Ti  Ti16  1  0.163025  0.175447  0.486500  1
  Ti  Ti17  1  0.000040  0.000042  0.000110  1
  Mn  Mn18  1  0.993952  0.669955  0.002068  1
  Mn  Mn19  1  0.831475  0.161878  0.494955  1
  Mn  Mn20  1  0.833644  0.493777  0.502732  1
  Mn  Mn21  1  0.668525  0.338122  0.994955  1
  Mn  Mn22  1  0.666356  0.006223  0.002732  1
  Mn  Mn23  1  0.493959  0.170037  0.498022  1
  Mn  Mn24  1  0.506048  0.830045  0.502068  1
  Mn  Mn25  1  0.333719  0.993786  0.997227  1
  Mn  Mn26  1  0.331387  0.661883  0.004961  1
  Mn  Mn27  1  0.166281  0.506214  0.497227  1
  Mn  Mn28  1  0.168613  0.838117  0.504961  1
  Mn  Mn29  1  0.006041  0.329963  0.998022  1
  O  O30  1  0.965097  0.614421  0.609880  1
  O  O31  1  0.930832  0.953833  0.598929  1
  O  O32  1  0.955303  0.284409  0.605534  1
  O  O33  1  0.876411  0.572498  0.109511  1
  O  O34  1  0.892934  0.221410  0.101776  1
  O  O35  1  0.876333  0.918649  0.102887  1
  O  O36  1  0.791417  0.455068  0.901705  1
  O  O37  1  0.770300  0.786047  0.909938  1
  O  O38  1  0.786825  0.132042  0.893289  1
  O  O39  1  0.713175  0.367958  0.393289  1
  O  O40  1  0.708583  0.044932  0.401705  1
  O  O41  1  0.729700  0.713953  0.409938  1
  O  O42  1  0.607066  0.278590  0.601776  1
  O  O43  1  0.623667  0.581351  0.602887  1
  O  O44  1  0.623589  0.927502  0.609511  1
  O  O45  1  0.544697  0.215591  0.105534  1
  O  O46  1  0.569168  0.546167  0.098929  1
  O  O47  1  0.534903  0.885579  0.109880  1
  O  O48  1  0.465123  0.114399  0.890139  1
  O  O49  1  0.430525  0.453871  0.900910  1
  O  O50  1  0.455455  0.784506  0.894367  1
  O  O51  1  0.376560  0.072574  0.390527  1
  O  O52  1  0.376288  0.418705  0.397097  1
  O  O53  1  0.392673  0.721612  0.398367  1
  O  O54  1  0.270230  0.286120  0.590088  1
  O  O55  1  0.291518  0.955313  0.598399  1
  O  O56  1  0.286747  0.632073  0.606718  1
  O  O57  1  0.213253  0.867927  0.106718  1
  O  O58  1  0.229770  0.213880  0.090088  1
  O  O59  1  0.208482  0.544687  0.098400  1
  O  O60  1  0.123712  0.081295  0.897097  1
  O  O61  1  0.107327  0.778388  0.898367  1
  O  O62  1  0.123440  0.427426  0.890527  1
  O  O63  1  0.044545  0.715494  0.394367  1
  O  O64  1  0.069475  0.046129  0.400910  1
  O  O65  1  0.034877  0.385601  0.390139  1
