# generated using pymatgen
data_Cs2CuH12(SO7)2
_symmetry_space_group_name_H-M   'P 1'
_cell_length_a   10.44080078
_cell_length_b   12.36752048
_cell_length_c   6.82013896
_cell_angle_alpha   90.00000000
_cell_angle_beta   109.24972878
_cell_angle_gamma   90.00000000
_symmetry_Int_Tables_number   1
_chemical_formula_structural   Cs2CuH12(SO7)2
_chemical_formula_sum   'Cs4 Cu2 H24 S4 O28'
_cell_volume   831.42549129
_cell_formula_units_Z   2
loop_
 _symmetry_equiv_pos_site_id
 _symmetry_equiv_pos_as_xyz
  1  'x, y, z'
loop_
 _atom_site_type_symbol
 _atom_site_label
 _atom_site_symmetry_multiplicity
 _atom_site_fract_x
 _atom_site_fract_y
 _atom_site_fract_z
 _atom_site_occupancy
  Cs  Cs0  1  0.608764  0.144824  0.318526  1
  Cs  Cs1  1  0.891236  0.644824  0.681474  1
  Cs  Cs2  1  0.391236  0.855176  0.681474  1
  Cs  Cs3  1  0.108764  0.355176  0.318526  1
  Cu  Cu4  1  0.500000  0.500000  0.000000  1
  Cu  Cu5  1  0.000000  0.000000  0.000000  1
  H  H6  1  0.637158  0.406909  0.305437  1
  H  H7  1  0.862842  0.906909  0.694563  1
  H  H8  1  0.362842  0.593091  0.694563  1
  H  H9  1  0.137158  0.093091  0.305437  1
  H  H10  1  0.717564  0.375169  0.108618  1
  H  H11  1  0.782436  0.875169  0.891382  1
  H  H12  1  0.282436  0.624831  0.891382  1
  H  H13  1  0.217564  0.124831  0.108618  1
  H  H14  1  0.186554  0.571799  0.019865  1
  H  H15  1  0.313446  0.071799  0.980135  1
  H  H16  1  0.813446  0.428201  0.980135  1
  H  H17  1  0.686554  0.928201  0.019865  1
  H  H18  1  0.316158  0.215519  0.932270  1
  H  H19  1  0.183842  0.715519  0.067730  1
  H  H20  1  0.683842  0.784481  0.067730  1
  H  H21  1  0.816158  0.284481  0.932270  1
  H  H22  1  0.400713  0.563704  0.310161  1
  H  H23  1  0.099287  0.063704  0.689839  1
  H  H24  1  0.599287  0.436296  0.689839  1
  H  H25  1  0.900713  0.936296  0.310161  1
  H  H26  1  0.529173  0.631428  0.322622  1
  H  H27  1  0.970827  0.131428  0.677378  1
  H  H28  1  0.470827  0.368572  0.677378  1
  H  H29  1  0.029173  0.868572  0.322622  1
  S  S30  1  0.877736  0.326883  0.674543  1
  S  S31  1  0.622264  0.826883  0.325457  1
  S  S32  1  0.122264  0.673117  0.325457  1
  S  S33  1  0.377736  0.173117  0.674543  1
  O  O34  1  0.902057  0.261910  0.509405  1
  O  O35  1  0.597943  0.761910  0.490595  1
  O  O36  1  0.097943  0.738090  0.490595  1
  O  O37  1  0.402057  0.238090  0.509405  1
  O  O38  1  0.998900  0.383427  0.808031  1
  O  O39  1  0.501100  0.883427  0.191969  1
  O  O40  1  0.001100  0.616573  0.191969  1
  O  O41  1  0.498900  0.116573  0.808031  1
  O  O42  1  0.761655  0.403985  0.597478  1
  O  O43  1  0.738345  0.903985  0.402522  1
  O  O44  1  0.238345  0.596015  0.402522  1
  O  O45  1  0.261655  0.096015  0.597478  1
  O  O46  1  0.810792  0.366651  0.067653  1
  O  O47  1  0.689208  0.866651  0.932347  1
  O  O48  1  0.189208  0.633349  0.932347  1
  O  O49  1  0.310792  0.133349  0.067653  1
  O  O50  1  0.603900  0.387305  0.157656  1
  O  O51  1  0.896100  0.887305  0.842344  1
  O  O52  1  0.396100  0.612695  0.842344  1
  O  O53  1  0.103900  0.112695  0.157656  1
  O  O54  1  0.333232  0.261441  0.806343  1
  O  O55  1  0.166768  0.761441  0.193657  1
  O  O56  1  0.666768  0.738559  0.193657  1
  O  O57  1  0.833232  0.238559  0.806343  1
  O  O58  1  0.487109  0.559545  0.281750  1
  O  O59  1  0.012891  0.059545  0.718250  1
  O  O60  1  0.512891  0.440455  0.718250  1
  O  O61  1  0.987109  0.940455  0.281750  1
