# generated using pymatgen
data_Li2VPO5
_symmetry_space_group_name_H-M   'P 1'
_cell_length_a   4.16650589
_cell_length_b   6.55286440
_cell_length_c   6.71982120
_cell_angle_alpha   89.96304179
_cell_angle_beta   90.00389343
_cell_angle_gamma   90.00025449
_symmetry_Int_Tables_number   1
_chemical_formula_structural   Li2VPO5
_chemical_formula_sum   'Li4 V2 P2 O10'
_cell_volume   183.46820305
_cell_formula_units_Z   2
loop_
 _symmetry_equiv_pos_site_id
 _symmetry_equiv_pos_as_xyz
  1  'x, y, z'
loop_
 _atom_site_type_symbol
 _atom_site_label
 _atom_site_symmetry_multiplicity
 _atom_site_fract_x
 _atom_site_fract_y
 _atom_site_fract_z
 _atom_site_occupancy
  Li  Li0  1  0.032668  0.009710  0.476834  1
  Li  Li1  1  0.968364  0.970330  0.977713  1
  Li  Li2  1  0.967635  0.509507  0.977102  1
  Li  Li3  1  0.031696  0.470537  0.477789  1
  V  V4  1  0.379492  0.739947  0.746179  1
  V  V5  1  0.620514  0.239960  0.246173  1
  P  P6  1  0.500031  0.739986  0.244767  1
  P  P7  1  0.500362  0.239960  0.745274  1
  O  O8  1  0.718436  0.932097  0.246416  1
  O  O9  1  0.287056  0.742206  0.057079  1
  O  O10  1  0.830721  0.739611  0.767426  1
  O  O11  1  0.289810  0.738146  0.435548  1
  O  O12  1  0.718166  0.548037  0.242548  1
  O  O13  1  0.281454  0.431962  0.746527  1
  O  O14  1  0.712729  0.242194  0.557138  1
  O  O15  1  0.169240  0.239618  0.267307  1
  O  O16  1  0.709858  0.238117  0.935401  1
  O  O17  1  0.281718  0.048056  0.742652  1
