# generated using pymatgen
data_Li3MnFeCo(PO4)3
_symmetry_space_group_name_H-M   'P 1'
_cell_length_a   10.46044994
_cell_length_b   6.09230517
_cell_length_c   14.27796603
_cell_angle_alpha   90.00000000
_cell_angle_beta   89.88988537
_cell_angle_gamma   90.00000000
_symmetry_Int_Tables_number   1
_chemical_formula_structural   Li3MnFeCo(PO4)3
_chemical_formula_sum   'Li12 Mn4 Fe4 Co4 P12 O48'
_cell_volume   909.90815492
_cell_formula_units_Z   4
loop_
 _symmetry_equiv_pos_site_id
 _symmetry_equiv_pos_as_xyz
  1  'x, y, z'
loop_
 _atom_site_type_symbol
 _atom_site_label
 _atom_site_symmetry_multiplicity
 _atom_site_fract_x
 _atom_site_fract_y
 _atom_site_fract_z
 _atom_site_occupancy
  Li  Li0  1  0.997557  0.499207  0.667163  1
  Li  Li1  1  0.998677  0.000475  0.999651  1
  Li  Li2  1  0.998677  0.499525  0.999651  1
  Li  Li3  1  0.998107  0.001024  0.333074  1
  Li  Li4  1  0.998107  0.498976  0.333074  1
  Li  Li5  1  0.997557  0.000793  0.667163  1
  Li  Li6  1  0.502405  0.000746  0.500928  1
  Li  Li7  1  0.502405  0.499254  0.500928  1
  Li  Li8  1  0.501519  0.000450  0.166756  1
  Li  Li9  1  0.501519  0.499550  0.166756  1
  Li  Li10  1  0.502577  -0.000156  0.832853  1
  Li  Li11  1  0.502577  0.500156  0.832853  1
  Mn  Mn12  1  0.218043  0.750000  0.160192  1
  Mn  Mn13  1  0.218546  0.750000  0.493810  1
  Mn  Mn14  1  0.218091  0.750000  0.826690  1
  Mn  Mn15  1  0.281834  0.250000  0.660037  1
  Fe  Fe16  1  0.280339  0.250000  0.992894  1
  Fe  Fe17  1  0.281874  0.250000  0.325761  1
  Fe  Fe18  1  0.719934  0.750000  0.007165  1
  Fe  Fe19  1  0.720094  0.750000  0.340992  1
  Co  Co20  1  0.721553  0.750000  0.674054  1
  Co  Co21  1  0.778198  0.250000  0.839141  1
  Co  Co22  1  0.780165  0.250000  0.506937  1
  Co  Co23  1  0.779080  0.250000  0.172966  1
  P  P24  1  0.090465  0.250000  0.806034  1
  P  P25  1  0.092423  0.250000  0.138374  1
  P  P26  1  0.091610  0.250000  0.470585  1
  P  P27  1  0.408689  0.750000  0.306909  1
  P  P28  1  0.410674  0.750000  0.639186  1
  P  P29  1  0.408349  0.750000  0.973582  1
  P  P30  1  0.596462  0.250000  0.360550  1
  P  P31  1  0.595675  0.250000  0.027335  1
  P  P32  1  0.597838  0.250000  0.694148  1
  P  P33  1  0.902105  0.750000  0.860679  1
  P  P34  1  0.902569  0.750000  0.194197  1
  P  P35  1  0.902080  0.750000  0.527783  1
  O  O36  1  0.040304  0.750000  0.236236  1
  O  O37  1  0.039322  0.750000  0.569890  1
  O  O38  1  0.039732  0.750000  0.902864  1
  O  O39  1  0.095486  0.250000  0.577980  1
  O  O40  1  0.096037  0.250000  0.913587  1
  O  O41  1  0.098567  0.250000  0.245891  1
  O  O42  1  0.163005  0.048930  0.092288  1
  O  O43  1  0.163005  0.451070  0.092288  1
  O  O44  1  0.162331  0.048182  0.425323  1
  O  O45  1  0.162331  0.451818  0.425323  1
  O  O46  1  0.160805  0.048100  0.760847  1
  O  O47  1  0.160805  0.451900  0.760847  1
  O  O48  1  0.340001  0.548135  0.594279  1
  O  O49  1  0.340001  0.951865  0.594279  1
  O  O50  1  0.337311  0.546845  0.263175  1
  O  O51  1  0.337311  0.953155  0.263175  1
  O  O52  1  0.337180  0.546854  0.929974  1
  O  O53  1  0.337180  0.953146  0.929974  1
  O  O54  1  0.406768  0.750000  0.414158  1
  O  O55  1  0.406235  0.750000  0.081238  1
  O  O56  1  0.405185  0.750000  0.746737  1
  O  O57  1  0.458210  0.250000  0.401537  1
  O  O58  1  0.457883  0.250000  0.068764  1
  O  O59  1  0.460449  0.250000  0.736709  1
  O  O60  1  0.545695  0.750000  0.264414  1
  O  O61  1  0.545244  0.750000  0.931298  1
  O  O62  1  0.548580  0.750000  0.598927  1
  O  O63  1  0.599365  0.250000  0.252842  1
  O  O64  1  0.598118  0.250000  0.919656  1
  O  O65  1  0.598225  0.250000  0.586493  1
  O  O66  1  0.666303  0.047503  0.071956  1
  O  O67  1  0.666297  0.047650  0.405571  1
  O  O68  1  0.668350  0.046467  0.738699  1
  O  O69  1  0.668350  0.453533  0.738699  1
  O  O70  1  0.666303  0.452497  0.071956  1
  O  O71  1  0.666297  0.452350  0.405571  1
  O  O72  1  0.832351  0.546009  0.905075  1
  O  O73  1  0.832351  0.953991  0.905075  1
  O  O74  1  0.832855  0.545846  0.238424  1
  O  O75  1  0.831245  0.546653  0.571798  1
  O  O76  1  0.832855  0.954154  0.238424  1
  O  O77  1  0.831245  0.953347  0.571798  1
  O  O78  1  0.901888  0.750000  0.753037  1
  O  O79  1  0.901922  0.750000  0.419867  1
  O  O80  1  0.902209  0.750000  0.086605  1
  O  O81  1  0.952694  0.250000  0.765764  1
  O  O82  1  0.954158  0.250000  0.099356  1
  O  O83  1  0.953282  0.250000  0.430484  1
