# generated using pymatgen
data_Li7V(O2F)2
_symmetry_space_group_name_H-M   'P 1'
_cell_length_a   5.43401472
_cell_length_b   5.95056174
_cell_length_c   9.54286100
_cell_angle_alpha   103.11217290
_cell_angle_beta   87.91239047
_cell_angle_gamma   63.11849843
_symmetry_Int_Tables_number   1
_chemical_formula_structural   Li7V(O2F)2
_chemical_formula_sum   'Li14 V2 O8 F4'
_cell_volume   264.59965257
_cell_formula_units_Z   2
loop_
 _symmetry_equiv_pos_site_id
 _symmetry_equiv_pos_as_xyz
  1  'x, y, z'
loop_
 _atom_site_type_symbol
 _atom_site_label
 _atom_site_symmetry_multiplicity
 _atom_site_fract_x
 _atom_site_fract_y
 _atom_site_fract_z
 _atom_site_occupancy
  Li  Li0  1  0.148817  0.364846  0.750001  1
  Li  Li1  1  0.167387  0.376991  0.069161  1
  Li  Li2  1  0.529519  0.039269  0.187202  1
  Li  Li3  1  0.970356  0.949109  0.315222  1
  Li  Li4  1  0.324020  0.601759  0.446150  1
  Li  Li5  1  0.371589  0.632377  0.749268  1
  Li  Li6  1  0.367274  0.643891  0.107594  1
  Li  Li7  1  0.628224  0.354034  0.883935  1
  Li  Li8  1  0.680796  0.375578  0.247033  1
  Li  Li9  1  0.695831  0.341072  0.547063  1
  Li  Li10  1  0.987297  0.039919  0.669992  1
  Li  Li11  1  0.464198  0.997665  0.826610  1
  Li  Li12  1  0.803566  0.645296  0.958525  1
  Li  Li13  1  0.868611  0.624775  0.594364  1
  V  V14  1  0.001662  0.999609  0.999103  1
  V  V15  1  0.457315  0.042498  0.510838  1
  O  O16  1  0.030103  0.243580  0.888577  1
  O  O17  1  0.065955  0.256645  0.562185  1
  O  O18  1  0.567095  0.217997  0.380924  1
  O  O19  1  0.538177  0.242834  0.698244  1
  O  O20  1  0.578017  0.252095  0.056080  1
  O  O21  1  0.423298  0.758762  0.942926  1
  O  O22  1  0.473743  0.756931  0.603306  1
  O  O23  1  0.968398  0.765123  0.110088  1
  F  F24  1  0.071603  0.203897  0.190284  1
  F  F25  1  0.418426  0.754330  0.302976  1
  F  F26  1  0.939645  0.796059  0.475183  1
  F  F27  1  0.958776  0.752702  0.794540  1
