# generated using pymatgen
data_Nb2Ge2O7
_symmetry_space_group_name_H-M   'P 1'
_cell_length_a   8.01266193
_cell_length_b   13.70092454
_cell_length_c   5.76306373
_cell_angle_alpha   90.00000000
_cell_angle_beta   90.00000000
_cell_angle_gamma   95.83175423
_symmetry_Int_Tables_number   1
_chemical_formula_structural   Nb2Ge2O7
_chemical_formula_sum   'Nb8 Ge8 O28'
_cell_volume   629.39981290
_cell_formula_units_Z   4
loop_
 _symmetry_equiv_pos_site_id
 _symmetry_equiv_pos_as_xyz
  1  'x, y, z'
loop_
 _atom_site_type_symbol
 _atom_site_label
 _atom_site_symmetry_multiplicity
 _atom_site_fract_x
 _atom_site_fract_y
 _atom_site_fract_z
 _atom_site_occupancy
  Nb  Nb0  1  0.074488  0.322449  0.270055  1
  Nb  Nb1  1  0.032785  0.117378  0.788105  1
  Nb  Nb2  1  0.413688  0.685814  0.761889  1
  Nb  Nb3  1  0.476109  0.889542  0.290644  1
  Nb  Nb4  1  0.523891  0.110458  0.790644  1
  Nb  Nb5  1  0.586312  0.314186  0.261889  1
  Nb  Nb6  1  0.967215  0.882622  0.288105  1
  Nb  Nb7  1  0.925512  0.677551  0.770055  1
  Ge  Ge8  1  0.144168  0.563223  0.237163  1
  Ge  Ge9  1  0.186462  0.898181  0.874052  1
  Ge  Ge10  1  0.305791  0.140629  0.339816  1
  Ge  Ge11  1  0.422974  0.428327  0.739418  1
  Ge  Ge12  1  0.577026  0.571673  0.239418  1
  Ge  Ge13  1  0.694209  0.859371  0.839816  1
  Ge  Ge14  1  0.813538  0.101819  0.374052  1
  Ge  Ge15  1  0.855832  0.436777  0.737163  1
  O  O16  1  0.018482  0.395728  0.530338  1
  O  O17  1  0.015305  0.184823  0.466493  1
  O  O18  1  0.188529  0.695003  0.711124  1
  O  O19  1  0.228201  0.891290  0.227053  1
  O  O20  1  0.136813  0.435208  0.090196  1
  O  O21  1  0.037617  0.006991  0.988602  1
  O  O22  1  0.058052  0.222710  0.984948  1
  O  O23  1  0.380922  0.607671  0.051461  1
  O  O24  1  0.461133  0.813260  0.948717  1
  O  O25  1  0.273527  0.110856  0.686532  1
  O  O26  1  0.303790  0.290267  0.333207  1
  O  O27  1  0.456880  0.562603  0.585610  1
  O  O28  1  0.506440  0.984871  0.516836  1
  O  O29  1  0.478920  0.774693  0.470232  1
  O  O30  1  0.521080  0.225307  0.970232  1
  O  O31  1  0.493560  0.015129  0.016836  1
  O  O32  1  0.543120  0.437397  0.085610  1
  O  O33  1  0.696210  0.709733  0.833207  1
  O  O34  1  0.726473  0.889144  0.186532  1
  O  O35  1  0.538867  0.186740  0.448717  1
  O  O36  1  0.619078  0.392329  0.551461  1
  O  O37  1  0.941948  0.777290  0.484948  1
  O  O38  1  0.962383  0.993009  0.488602  1
  O  O39  1  0.863187  0.564792  0.590196  1
  O  O40  1  0.771799  0.108710  0.727053  1
  O  O41  1  0.811471  0.304997  0.211124  1
  O  O42  1  0.984695  0.815177  0.966493  1
  O  O43  1  0.981518  0.604272  0.030338  1
