# generated using pymatgen
data_Li3CrSiBO7
_symmetry_space_group_name_H-M   'P 1'
_cell_length_a   8.38876321
_cell_length_b   6.28447469
_cell_length_c   5.07637238
_cell_angle_alpha   90.00000000
_cell_angle_beta   85.16288431
_cell_angle_gamma   90.00000000
_symmetry_Int_Tables_number   1
_chemical_formula_structural   Li3CrSiBO7
_chemical_formula_sum   'Li6 Cr2 Si2 B2 O14'
_cell_volume   266.66797623
_cell_formula_units_Z   2
loop_
 _symmetry_equiv_pos_site_id
 _symmetry_equiv_pos_as_xyz
  1  'x, y, z'
loop_
 _atom_site_type_symbol
 _atom_site_label
 _atom_site_symmetry_multiplicity
 _atom_site_fract_x
 _atom_site_fract_y
 _atom_site_fract_z
 _atom_site_occupancy
  Li  Li0  1  0.099460  0.250000  0.753082  1
  Li  Li1  1  0.244981  0.996929  0.257838  1
  Li  Li2  1  0.244981  0.503071  0.257838  1
  Li  Li3  1  0.755019  0.496929  0.742162  1
  Li  Li4  1  0.755019  0.003071  0.742162  1
  Li  Li5  1  0.900540  0.750000  0.246918  1
  Cr  Cr6  1  0.318822  0.750000  0.800403  1
  Cr  Cr7  1  0.681178  0.250000  0.199597  1
  Si  Si8  1  0.427592  0.250000  0.716360  1
  Si  Si9  1  0.572408  0.750000  0.283640  1
  B  B10  1  0.039294  0.750000  0.720500  1
  B  B11  1  0.960706  0.250000  0.279500  1
  O  O12  1  0.111775  0.250000  0.350647  1
  O  O13  1  0.089394  0.750000  0.975448  1
  O  O14  1  0.172658  0.750000  0.527630  1
  O  O15  1  0.305546  0.052289  0.809600  1
  O  O16  1  0.305546  0.447711  0.809600  1
  O  O17  1  0.469661  0.250000  0.396744  1
  O  O18  1  0.405975  0.750000  0.138015  1
  O  O19  1  0.594024  0.250000  0.861985  1
  O  O20  1  0.530339  0.750000  0.603256  1
  O  O21  1  0.694454  0.552289  0.190400  1
  O  O22  1  0.694454  0.947711  0.190400  1
  O  O23  1  0.827342  0.250000  0.472370  1
  O  O24  1  0.910606  0.250000  0.024552  1
  O  O25  1  0.888225  0.750000  0.649353  1
