# generated using pymatgen
data_Li4Ti2Fe3Cu3O16
_symmetry_space_group_name_H-M   'P 1'
_cell_length_a   5.91861399
_cell_length_b   5.93202298
_cell_length_c   9.56284137
_cell_angle_alpha   90.00644033
_cell_angle_beta   89.54120833
_cell_angle_gamma   120.01127511
_symmetry_Int_Tables_number   1
_chemical_formula_structural   Li4Ti2Fe3Cu3O16
_chemical_formula_sum   'Li4 Ti2 Fe3 Cu3 O16'
_cell_volume   290.71856003
_cell_formula_units_Z   1
loop_
 _symmetry_equiv_pos_site_id
 _symmetry_equiv_pos_as_xyz
  1  'x, y, z'
loop_
 _atom_site_type_symbol
 _atom_site_label
 _atom_site_symmetry_multiplicity
 _atom_site_fract_x
 _atom_site_fract_y
 _atom_site_fract_z
 _atom_site_occupancy
  Li  Li0  1  0.326369  0.662918  0.897643  1
  Li  Li1  1  0.000667  0.000034  0.995836  1
  Li  Li2  1  0.007662  0.004102  0.491070  1
  Li  Li3  1  0.666653  0.333480  0.395243  1
  Ti  Ti4  1  0.340886  0.670475  0.497834  1
  Ti  Ti5  1  0.674143  0.336981  0.996074  1
  Fe  Fe6  1  0.659355  0.829668  0.216684  1
  Fe  Fe7  1  0.831022  0.659447  0.716371  1
  Fe  Fe8  1  0.831069  0.171669  0.716338  1
  Cu  Cu9  1  0.175852  0.833169  0.214382  1
  Cu  Cu10  1  0.175743  0.342662  0.214531  1
  Cu  Cu11  1  0.340661  0.170314  0.712782  1
  O  O12  1  0.162395  0.829095  0.592098  1
  O  O13  1  0.045574  0.522608  0.342387  1
  O  O14  1  0.323891  0.661932  0.110052  1
  O  O15  1  0.012658  0.006356  0.300927  1
  O  O16  1  0.015290  0.007463  0.805111  1
  O  O17  1  0.162554  0.333684  0.592185  1
  O  O18  1  0.483982  0.963636  0.345572  1
  O  O19  1  0.484260  0.520804  0.345604  1
  O  O20  1  0.327798  0.164116  0.093448  1
  O  O21  1  0.662947  0.831618  0.593185  1
  O  O22  1  0.516911  0.480147  0.843315  1
  O  O23  1  0.516944  0.036539  0.843361  1
  O  O24  1  0.655222  0.327778  0.606942  1
  O  O25  1  0.819157  0.659904  0.092327  1
  O  O26  1  0.961323  0.480605  0.844381  1
  O  O27  1  0.819009  0.159097  0.092153  1
