# generated using pymatgen
data_MoO3
_symmetry_space_group_name_H-M   'P 1'
_cell_length_a   5.30810377
_cell_length_b   10.47673240
_cell_length_c   5.28101649
_cell_angle_alpha   90.00000000
_cell_angle_beta   90.00000000
_cell_angle_gamma   82.98077116
_symmetry_Int_Tables_number   1
_chemical_formula_structural   MoO3
_chemical_formula_sum   'Mo4 O12'
_cell_volume   291.48456867
_cell_formula_units_Z   4
loop_
 _symmetry_equiv_pos_site_id
 _symmetry_equiv_pos_as_xyz
  1  'x, y, z'
loop_
 _atom_site_type_symbol
 _atom_site_label
 _atom_site_symmetry_multiplicity
 _atom_site_fract_x
 _atom_site_fract_y
 _atom_site_fract_z
 _atom_site_occupancy
  Mo  Mo0  1  0.913522  0.959885  0.003236  1
  Mo  Mo1  1  0.413523  0.959885  0.496764  1
  Mo  Mo2  1  0.814588  0.458877  0.506159  1
  Mo  Mo3  1  0.314588  0.458877  0.993841  1
  O  O4  1  0.024840  0.489744  0.233386  1
  O  O5  1  0.524840  0.489744  0.266614  1
  O  O6  1  0.669853  0.009072  0.252165  1
  O  O7  1  0.169853  0.009072  0.247835  1
  O  O8  1  0.449343  0.796039  0.483213  1
  O  O9  1  0.949343  0.796039  0.016787  1
  O  O10  1  0.540817  0.513320  0.757303  1
  O  O11  1  0.040817  0.513320  0.742697  1
  O  O12  1  0.856412  0.295909  0.538192  1
  O  O13  1  0.356412  0.295909  0.961808  1
  O  O14  1  0.679424  0.997955  0.742183  1
  O  O15  1  0.179424  0.997955  0.757817  1
