# generated using pymatgen
data_MnPH5CO4
_symmetry_space_group_name_H-M   'P 1'
_cell_length_a   17.70578982
_cell_length_b   4.93428648
_cell_length_c   5.88915109
_cell_angle_alpha   90.00000000
_cell_angle_beta   90.00000000
_cell_angle_gamma   90.00000000
_symmetry_Int_Tables_number   1
_chemical_formula_structural   MnPH5CO4
_chemical_formula_sum   'Mn4 P4 H20 C4 O16'
_cell_volume   514.50827224
_cell_formula_units_Z   4
loop_
 _symmetry_equiv_pos_site_id
 _symmetry_equiv_pos_as_xyz
  1  'x, y, z'
loop_
 _atom_site_type_symbol
 _atom_site_label
 _atom_site_symmetry_multiplicity
 _atom_site_fract_x
 _atom_site_fract_y
 _atom_site_fract_z
 _atom_site_occupancy
  Mn  Mn0  1  0.736699  0.667305  0.282274  1
  Mn  Mn1  1  0.263301  0.332695  0.782274  1
  Mn  Mn2  1  0.763301  0.167305  0.782274  1
  Mn  Mn3  1  0.236699  0.832695  0.282274  1
  P  P4  1  0.652429  0.725693  0.782773  1
  P  P5  1  0.347571  0.274307  0.282773  1
  P  P6  1  0.847571  0.225693  0.282773  1
  P  P7  1  0.152429  0.774307  0.782773  1
  H  H8  1  0.531092  0.717764  0.606456  1
  H  H9  1  0.468908  0.282236  0.106456  1
  H  H10  1  0.968908  0.217764  0.106456  1
  H  H11  1  0.031092  0.782236  0.606456  1
  H  H12  1  0.521815  0.687591  0.907189  1
  H  H13  1  0.478185  0.312409  0.407189  1
  H  H14  1  0.978185  0.187591  0.407189  1
  H  H15  1  0.021815  0.812409  0.907189  1
  H  H16  1  0.542542  0.010746  0.782141  1
  H  H17  1  0.457458  0.989254  0.282141  1
  H  H18  1  0.957458  0.510746  0.282141  1
  H  H19  1  0.042542  0.489254  0.782141  1
  H  H20  1  0.644973  0.240495  0.420155  1
  H  H21  1  0.355027  0.759505  0.920155  1
  H  H22  1  0.855027  0.740495  0.920155  1
  H  H23  1  0.144973  0.259505  0.420155  1
  H  H24  1  0.646917  0.230893  0.153396  1
  H  H25  1  0.353083  0.769107  0.653396  1
  H  H26  1  0.853083  0.730893  0.653396  1
  H  H27  1  0.146917  0.269107  0.153396  1
  C  C28  1  0.552420  0.791434  0.770410  1
  C  C29  1  0.447580  0.208566  0.270410  1
  C  C30  1  0.947580  0.291434  0.270410  1
  C  C31  1  0.052420  0.708566  0.770410  1
  O  O32  1  0.664995  0.419027  0.784111  1
  O  O33  1  0.335005  0.580973  0.284111  1
  O  O34  1  0.835005  0.919027  0.284111  1
  O  O35  1  0.164995  0.080973  0.784111  1
  O  O36  1  0.643086  0.355049  0.283382  1
  O  O37  1  0.356914  0.644951  0.783382  1
  O  O38  1  0.856914  0.855049  0.783382  1
  O  O39  1  0.143086  0.144951  0.283382  1
  O  O40  1  0.689059  0.868739  0.572546  1
  O  O41  1  0.310941  0.131261  0.072546  1
  O  O42  1  0.810941  0.368739  0.072546  1
  O  O43  1  0.189059  0.631261  0.572546  1
  O  O44  1  0.687044  0.869843  0.995368  1
  O  O45  1  0.312956  0.130157  0.495368  1
  O  O46  1  0.812956  0.369843  0.495368  1
  O  O47  1  0.187044  0.630157  0.995368  1
