# generated using pymatgen
data_Na3ZnPCO7
_symmetry_space_group_name_H-M   'P 1'
_cell_length_a   8.97027897
_cell_length_b   6.71962292
_cell_length_c   5.18203130
_cell_angle_alpha   90.00000000
_cell_angle_beta   89.97185031
_cell_angle_gamma   90.00000000
_symmetry_Int_Tables_number   1
_chemical_formula_structural   Na3ZnPCO7
_chemical_formula_sum   'Na6 Zn2 P2 C2 O14'
_cell_volume   312.35670401
_cell_formula_units_Z   2
loop_
 _symmetry_equiv_pos_site_id
 _symmetry_equiv_pos_as_xyz
  1  'x, y, z'
loop_
 _atom_site_type_symbol
 _atom_site_label
 _atom_site_symmetry_multiplicity
 _atom_site_fract_x
 _atom_site_fract_y
 _atom_site_fract_z
 _atom_site_occupancy
  Na  Na0  1  0.082764  0.250000  0.760423  1
  Na  Na1  1  0.260369  0.001335  0.248501  1
  Na  Na2  1  0.260369  0.498665  0.248501  1
  Na  Na3  1  0.739631  0.501335  0.751499  1
  Na  Na4  1  0.739631  0.998665  0.751499  1
  Na  Na5  1  0.917236  0.750000  0.239577  1
  Zn  Zn6  1  0.362446  0.750000  0.782290  1
  Zn  Zn7  1  0.637554  0.250000  0.217710  1
  P  P8  1  0.414618  0.250000  0.704307  1
  P  P9  1  0.585382  0.750000  0.295693  1
  C  C10  1  0.063280  0.750000  0.735841  1
  C  C11  1  0.936720  0.250000  0.264159  1
  O  O12  1  0.081145  0.250000  0.285719  1
  O  O13  1  0.125504  0.750000  0.962442  1
  O  O14  1  0.147515  0.750000  0.531409  1
  O  O15  1  0.320164  0.064609  0.781294  1
  O  O16  1  0.320164  0.435391  0.781294  1
  O  O17  1  0.437846  0.250000  0.404180  1
  O  O18  1  0.429725  0.750000  0.165596  1
  O  O19  1  0.570275  0.250000  0.834404  1
  O  O20  1  0.562154  0.750000  0.595820  1
  O  O21  1  0.679836  0.564609  0.218706  1
  O  O22  1  0.679836  0.935391  0.218706  1
  O  O23  1  0.852485  0.250000  0.468591  1
  O  O24  1  0.874496  0.250000  0.037558  1
  O  O25  1  0.918855  0.750000  0.714281  1
