# generated using pymatgen
data_Zr2N2O
_symmetry_space_group_name_H-M   'P 1'
_cell_length_a   13.84090738
_cell_length_b   3.12381843
_cell_length_c   5.57555659
_cell_angle_alpha   89.99976577
_cell_angle_beta   89.99998620
_cell_angle_gamma   89.99993564
_symmetry_Int_Tables_number   1
_chemical_formula_structural   Zr2N2O
_chemical_formula_sum   'Zr8 N8 O4'
_cell_volume   241.06744970
_cell_formula_units_Z   4
loop_
 _symmetry_equiv_pos_site_id
 _symmetry_equiv_pos_as_xyz
  1  'x, y, z'
loop_
 _atom_site_type_symbol
 _atom_site_label
 _atom_site_symmetry_multiplicity
 _atom_site_fract_x
 _atom_site_fract_y
 _atom_site_fract_z
 _atom_site_occupancy
  Zr  Zr0  1  0.080479  0.249997  0.697045  1
  Zr  Zr1  1  0.196411  0.249999  0.211949  1
  Zr  Zr2  1  0.303589  0.750000  0.711948  1
  Zr  Zr3  1  0.419521  0.749999  0.197045  1
  Zr  Zr4  1  0.580478  0.250001  0.802956  1
  Zr  Zr5  1  0.696411  0.250000  0.288054  1
  Zr  Zr6  1  0.803589  0.750001  0.788051  1
  Zr  Zr7  1  0.919522  0.750002  0.302954  1
  N  N8  1  0.152652  0.750001  0.942229  1
  N  N9  1  0.170989  0.750000  0.487970  1
  N  N10  1  0.329011  0.249998  0.987971  1
  N  N11  1  0.347348  0.249999  0.442231  1
  N  N12  1  0.652653  0.750001  0.557771  1
  N  N13  1  0.670989  0.750002  0.012028  1
  N  N14  1  0.829011  0.250001  0.512029  1
  N  N15  1  0.847348  0.249998  0.057770  1
  O  O16  1  0.026925  0.249999  0.305086  1
  O  O17  1  0.473075  0.750001  0.805085  1
  O  O18  1  0.526925  0.250001  0.194915  1
  O  O19  1  0.973075  0.750001  0.694913  1
