# generated using pymatgen
data_Na4H2RuN6O13
_symmetry_space_group_name_H-M   'P 1'
_cell_length_a   7.63068325
_cell_length_b   7.63068325
_cell_length_c   12.26668993
_cell_angle_alpha   87.46173884
_cell_angle_beta   92.53826116
_cell_angle_gamma   63.00505054
_symmetry_Int_Tables_number   1
_chemical_formula_structural   Na4H2RuN6O13
_chemical_formula_sum   'Na8 H4 Ru2 N12 O26'
_cell_volume   634.14593622
_cell_formula_units_Z   2
loop_
 _symmetry_equiv_pos_site_id
 _symmetry_equiv_pos_as_xyz
  1  'x, y, z'
loop_
 _atom_site_type_symbol
 _atom_site_label
 _atom_site_symmetry_multiplicity
 _atom_site_fract_x
 _atom_site_fract_y
 _atom_site_fract_z
 _atom_site_occupancy
  Na  Na0  1  0.277530  0.971854  0.880783  1
  Na  Na1  1  0.028146  0.722470  0.380783  1
  Na  Na2  1  0.170634  0.655535  0.693750  1
  Na  Na3  1  0.344465  0.829366  0.193750  1
  Na  Na4  1  0.655535  0.170634  0.806250  1
  Na  Na5  1  0.829366  0.344465  0.306250  1
  Na  Na6  1  0.971854  0.277530  0.619217  1
  Na  Na7  1  0.722470  0.028146  0.119217  1
  H  H8  1  0.531724  0.563427  0.812292  1
  H  H9  1  0.563427  0.531724  0.687708  1
  H  H10  1  0.436573  0.468276  0.312292  1
  H  H11  1  0.468276  0.436573  0.187708  1
  Ru  Ru12  1  0.000000  0.500000  0.000000  1
  Ru  Ru13  1  0.500000  0.000000  0.500000  1
  N  N14  1  0.423618  0.957345  0.656169  1
  N  N15  1  0.042655  0.576382  0.156169  1
  N  N16  1  0.758960  0.987863  0.567762  1
  N  N17  1  0.302431  0.347398  0.984459  1
  N  N18  1  0.012137  0.241040  0.067762  1
  N  N19  1  0.652602  0.697569  0.484459  1
  N  N20  1  0.347398  0.302431  0.515541  1
  N  N21  1  0.987863  0.758960  0.932238  1
  N  N22  1  0.697569  0.652602  0.015541  1
  N  N23  1  0.241040  0.012137  0.432238  1
  N  N24  1  0.957345  0.423618  0.843831  1
  N  N25  1  0.576382  0.042655  0.343831  1
  O  O26  1  0.122359  0.757610  0.875159  1
  O  O27  1  0.262465  0.950263  0.670669  1
  O  O28  1  0.242390  0.877641  0.375159  1
  O  O29  1  0.049737  0.737535  0.170670  1
  O  O30  1  0.530052  0.942824  0.740943  1
  O  O31  1  0.057176  0.469948  0.240943  1
  O  O32  1  0.569909  0.656156  0.945121  1
  O  O33  1  0.842594  0.924165  0.943988  1
  O  O34  1  0.245581  0.365977  0.597019  1
  O  O35  1  0.343844  0.430091  0.445121  1
  O  O36  1  0.501951  0.501951  0.750000  1
  O  O37  1  0.075835  0.157406  0.443988  1
  O  O38  1  0.634023  0.754419  0.097019  1
  O  O39  1  0.365977  0.245581  0.902981  1
  O  O40  1  0.924165  0.842594  0.556012  1
  O  O41  1  0.498049  0.498049  0.250000  1
  O  O42  1  0.656156  0.569909  0.554879  1
  O  O43  1  0.754419  0.634023  0.402981  1
  O  O44  1  0.157406  0.075835  0.056012  1
  O  O45  1  0.430091  0.343844  0.054879  1
  O  O46  1  0.942824  0.530052  0.759057  1
  O  O47  1  0.469948  0.057176  0.259057  1
  O  O48  1  0.950263  0.262465  0.829331  1
  O  O49  1  0.757610  0.122359  0.624841  1
  O  O50  1  0.737535  0.049737  0.329330  1
  O  O51  1  0.877641  0.242390  0.124841  1
