# generated using pymatgen
data_Na7Li3V10O30
_symmetry_space_group_name_H-M   'P 1'
_cell_length_a   16.57240768
_cell_length_b   11.10118725
_cell_length_c   8.02983298
_cell_angle_alpha   102.48741414
_cell_angle_beta   76.51860350
_cell_angle_gamma   85.98661289
_symmetry_Int_Tables_number   1
_chemical_formula_structural   Na7Li3V10O30
_chemical_formula_sum   'Na14 Li6 V20 O60'
_cell_volume   1391.26321481
_cell_formula_units_Z   2
loop_
 _symmetry_equiv_pos_site_id
 _symmetry_equiv_pos_as_xyz
  1  'x, y, z'
loop_
 _atom_site_type_symbol
 _atom_site_label
 _atom_site_symmetry_multiplicity
 _atom_site_fract_x
 _atom_site_fract_y
 _atom_site_fract_z
 _atom_site_occupancy
  Na  Na0  1  0.967253  0.150169  0.099647  1
  Na  Na1  1  0.907718  0.473217  0.276745  1
  Na  Na2  1  0.692405  0.326813  0.923421  1
  Na  Na3  1  0.892358  0.926957  0.323013  1
  Na  Na4  1  0.765961  0.549730  0.700454  1
  Na  Na5  1  0.707746  0.873258  0.876747  1
  Na  Na6  1  0.506525  0.273535  0.478220  1
  Na  Na7  1  0.492126  0.726573  0.522628  1
  Na  Na8  1  0.566367  0.950541  0.299464  1
  Na  Na9  1  0.292859  0.128775  0.121996  1
  Na  Na10  1  0.308349  0.671374  0.076300  1
  Na  Na11  1  0.107964  0.073539  0.676920  1
  Na  Na12  1  0.092220  0.526854  0.723092  1
  Na  Na13  1  0.167054  0.749324  0.500633  1
  Li  Li14  1  0.831857  0.245573  0.504385  1
  Li  Li15  1  0.631656  0.645672  0.104677  1
  Li  Li16  1  0.431328  0.047804  0.705743  1
  Li  Li17  1  0.367587  0.352826  0.897053  1
  Li  Li18  1  0.232985  0.444626  0.301455  1
  Li  Li19  1  0.031947  0.845570  0.904376  1
  V  V20  1  0.894749  0.011436  0.732538  1
  V  V21  1  0.905249  0.388066  0.861506  1
  V  V22  1  0.958705  0.703602  0.546603  1
  V  V23  1  0.758737  0.103809  0.146733  1
  V  V24  1  0.642044  0.099756  0.656232  1
  V  V25  1  0.842246  0.699638  0.056377  1
  V  V26  1  0.694033  0.411409  0.333845  1
  V  V27  1  0.705153  0.788137  0.461631  1
  V  V28  1  0.555724  0.501929  0.748585  1
  V  V29  1  0.494722  0.811566  0.932554  1
  V  V30  1  0.503832  0.190588  0.060056  1
  V  V31  1  0.441607  0.498281  0.253244  1
  V  V32  1  0.295309  0.212630  0.535815  1
  V  V33  1  0.306454  0.584612  0.664319  1
  V  V34  1  0.161184  0.304512  0.945230  1
  V  V35  1  0.358844  0.904002  0.346793  1
  V  V36  1  0.242575  0.898373  0.856385  1
  V  V37  1  0.042429  0.299680  0.456059  1
  V  V38  1  0.094908  0.611367  0.132733  1
  V  V39  1  0.105286  0.987959  0.261479  1
  O  O40  1  0.979242  0.015551  0.815969  1
  O  O41  1  0.904320  0.546618  0.986659  1
  O  O42  1  0.898954  0.101124  0.588695  1
  O  O43  1  0.959645  0.301079  0.367687  1
  O  O44  1  0.797873  0.060007  0.906916  1
  O  O45  1  0.997877  0.659756  0.306857  1
  O  O46  1  0.901175  0.592221  0.592000  1
  O  O47  1  0.823886  0.371640  0.768791  1
  O  O48  1  0.892922  0.853824  0.608031  1
  O  O49  1  0.759501  0.700763  0.967674  1
  O  O50  1  0.835771  0.107537  0.252304  1
  O  O51  1  0.897677  0.303981  0.011685  1
  O  O52  1  0.778794  0.415415  0.416205  1
  O  O53  1  0.903459  0.806447  0.003645  1
  O  O54  1  0.703330  0.206616  0.604027  1
  O  O55  1  0.604707  0.142455  0.895917  1
  O  O56  1  0.805607  0.741782  0.296354  1
  O  O57  1  0.633328  0.504632  0.852874  1
  O  O58  1  0.697700  0.704111  0.611700  1
  O  O59  1  0.704203  0.946692  0.586809  1
  O  O60  1  0.692990  0.253969  0.208225  1
  O  O61  1  0.698348  0.501229  0.190029  1
  O  O62  1  0.559531  0.101123  0.567035  1
  O  O63  1  0.596864  0.457886  0.509121  1
  O  O64  1  0.701179  0.992337  0.191968  1
  O  O65  1  0.494374  0.394538  0.796998  1
  O  O66  1  0.623903  0.771460  0.368589  1
  O  O67  1  0.422228  0.181328  0.967040  1
  O  O68  1  0.492859  0.654052  0.807384  1
  O  O69  1  0.498754  0.901742  0.789445  1
  O  O70  1  0.495325  0.104599  0.208174  1
  O  O71  1  0.505356  0.347107  0.188119  1
  O  O72  1  0.377419  0.221007  0.627098  1
  O  O73  1  0.579178  0.815149  0.016015  1
  O  O74  1  0.502511  0.605943  0.202444  1
  O  O75  1  0.303843  0.005014  0.803389  1
  O  O76  1  0.404874  0.541573  0.493710  1
  O  O77  1  0.435864  0.907475  0.452206  1
  O  O78  1  0.303191  0.497251  0.810562  1
  O  O79  1  0.303980  0.744206  0.788552  1
  O  O80  1  0.293985  0.054722  0.410150  1
  O  O81  1  0.299691  0.301429  0.390723  1
  O  O82  1  0.360971  0.494377  0.157568  1
  O  O83  1  0.196857  0.259770  0.705274  1
  O  O84  1  0.397963  0.859978  0.106914  1
  O  O85  1  0.301190  0.792210  0.391532  1
  O  O86  1  0.103803  0.193604  0.994563  1
  O  O87  1  0.224463  0.569363  0.573372  1
  O  O88  1  0.099091  0.700874  0.988590  1
  O  O89  1  0.159824  0.900622  0.767900  1
  O  O90  1  0.241376  0.309419  0.042492  1
  O  O91  1  0.104237  0.146594  0.386555  1
  O  O92  1  0.179322  0.615479  0.216377  1
  O  O93  1  0.103936  0.406120  0.402662  1
  O  O94  1  0.205672  0.941602  0.096278  1
  O  O95  1  0.005595  0.341825  0.696180  1
  O  O96  1  0.035776  0.707433  0.652228  1
  O  O97  1  0.097669  0.904006  0.411714  1
  O  O98  1  0.093960  0.453795  0.007877  1
  O  O99  1  0.024024  0.971459  0.168471  1
