# generated using pymatgen
data_LiCu(PO3)3
_symmetry_space_group_name_H-M   'P 1'
_cell_length_a   7.12124446
_cell_length_b   12.11078570
_cell_length_c   9.05129770
_cell_angle_alpha   90.00000000
_cell_angle_beta   90.00000000
_cell_angle_gamma   90.00000000
_symmetry_Int_Tables_number   1
_chemical_formula_structural   LiCu(PO3)3
_chemical_formula_sum   'Li4 Cu4 P12 O36'
_cell_volume   780.61890209
_cell_formula_units_Z   4
loop_
 _symmetry_equiv_pos_site_id
 _symmetry_equiv_pos_as_xyz
  1  'x, y, z'
loop_
 _atom_site_type_symbol
 _atom_site_label
 _atom_site_symmetry_multiplicity
 _atom_site_fract_x
 _atom_site_fract_y
 _atom_site_fract_z
 _atom_site_occupancy
  Li  Li0  1  0.250000  0.462275  0.529910  1
  Li  Li1  1  0.250000  0.037725  0.029910  1
  Li  Li2  1  0.750000  0.537725  0.470090  1
  Li  Li3  1  0.750000  0.962275  0.970090  1
  Cu  Cu4  1  0.250000  0.709856  0.487911  1
  Cu  Cu5  1  0.250000  0.790144  0.987911  1
  Cu  Cu6  1  0.750000  0.209856  0.012089  1
  Cu  Cu7  1  0.750000  0.290144  0.512089  1
  P  P8  1  0.040246  0.339165  0.243722  1
  P  P9  1  0.040246  0.160835  0.743722  1
  P  P10  1  0.250000  0.967813  0.689593  1
  P  P11  1  0.250000  0.532187  0.189593  1
  P  P12  1  0.459754  0.160835  0.743722  1
  P  P13  1  0.459754  0.339165  0.243722  1
  P  P14  1  0.540246  0.660835  0.756278  1
  P  P15  1  0.540246  0.839165  0.256278  1
  P  P16  1  0.750000  0.467813  0.810407  1
  P  P17  1  0.750000  0.032187  0.310407  1
  P  P18  1  0.959754  0.660835  0.756278  1
  P  P19  1  0.959754  0.839165  0.256278  1
  O  O20  1  0.036451  0.750148  0.352993  1
  O  O21  1  0.036451  0.749852  0.852993  1
  O  O22  1  0.059075  0.872903  0.114899  1
  O  O23  1  0.059075  0.627097  0.614899  1
  O  O24  1  0.075240  0.050486  0.648344  1
  O  O25  1  0.075240  0.449514  0.148344  1
  O  O26  1  0.250000  0.301003  0.293578  1
  O  O27  1  0.250000  0.872222  0.588799  1
  O  O28  1  0.250000  0.627778  0.088799  1
  O  O29  1  0.250000  0.954959  0.855139  1
  O  O30  1  0.250000  0.198997  0.793578  1
  O  O31  1  0.250000  0.545041  0.355139  1
  O  O32  1  0.424760  0.050486  0.648344  1
  O  O33  1  0.424760  0.449514  0.148344  1
  O  O34  1  0.440925  0.872903  0.114899  1
  O  O35  1  0.440925  0.627097  0.614899  1
  O  O36  1  0.463549  0.750148  0.352993  1
  O  O37  1  0.463549  0.749852  0.852993  1
  O  O38  1  0.536451  0.250148  0.147007  1
  O  O39  1  0.536451  0.249852  0.647007  1
  O  O40  1  0.559075  0.127097  0.885101  1
  O  O41  1  0.559075  0.372903  0.385101  1
  O  O42  1  0.575240  0.550486  0.851656  1
  O  O43  1  0.575240  0.949514  0.351656  1
  O  O44  1  0.750000  0.045041  0.144861  1
  O  O45  1  0.750000  0.127778  0.411201  1
  O  O46  1  0.750000  0.454959  0.644861  1
  O  O47  1  0.750000  0.372222  0.911201  1
  O  O48  1  0.750000  0.698997  0.706422  1
  O  O49  1  0.750000  0.801003  0.206422  1
  O  O50  1  0.924760  0.550486  0.851656  1
  O  O51  1  0.924760  0.949514  0.351656  1
  O  O52  1  0.940925  0.372903  0.385101  1
  O  O53  1  0.940925  0.127097  0.885101  1
  O  O54  1  0.963549  0.249852  0.647007  1
  O  O55  1  0.963549  0.250148  0.147007  1
