# generated using pymatgen
data_Li3Si2(NiO4)2
_symmetry_space_group_name_H-M   'P 1'
_cell_length_a   10.75600127
_cell_length_b   5.02106732
_cell_length_c   6.40405973
_cell_angle_alpha   90.00000000
_cell_angle_beta   91.39224166
_cell_angle_gamma   90.00000000
_symmetry_Int_Tables_number   1
_chemical_formula_structural   Li3Si2(NiO4)2
_chemical_formula_sum   'Li6 Si4 Ni4 O16'
_cell_volume   345.75943168
_cell_formula_units_Z   2
loop_
 _symmetry_equiv_pos_site_id
 _symmetry_equiv_pos_as_xyz
  1  'x, y, z'
loop_
 _atom_site_type_symbol
 _atom_site_label
 _atom_site_symmetry_multiplicity
 _atom_site_fract_x
 _atom_site_fract_y
 _atom_site_fract_z
 _atom_site_occupancy
  Li  Li0  1  0.093587  0.700564  0.869360  1
  Li  Li1  1  0.326425  0.703176  0.616419  1
  Li  Li2  1  0.408530  0.194271  0.371826  1
  Li  Li3  1  0.593587  0.799436  0.869360  1
  Li  Li4  1  0.826425  0.796824  0.616419  1
  Li  Li5  1  0.908530  0.305729  0.371826  1
  Si  Si6  1  0.157935  0.186663  0.617548  1
  Si  Si7  1  0.338482  0.692404  0.118843  1
  Si  Si8  1  0.657935  0.313337  0.617548  1
  Si  Si9  1  0.838482  0.807596  0.118843  1
  Ni  Ni10  1  0.089282  0.696368  0.349950  1
  Ni  Ni11  1  0.414591  0.199280  0.868789  1
  Ni  Ni12  1  0.589282  0.803632  0.349950  1
  Ni  Ni13  1  0.914591  0.300720  0.868789  1
  O  O14  1  0.082341  0.299752  0.822117  1
  O  O15  1  0.090665  0.309953  0.411095  1
  O  O16  1  0.157175  0.859554  0.614902  1
  O  O17  1  0.192162  0.760420  0.112382  1
  O  O18  1  0.307172  0.290383  0.639596  1
  O  O19  1  0.364796  0.365866  0.104489  1
  O  O20  1  0.405729  0.818853  0.907787  1
  O  O21  1  0.403164  0.792758  0.341384  1
  O  O22  1  0.582341  0.200248  0.822117  1
  O  O23  1  0.590665  0.190047  0.411095  1
  O  O24  1  0.657175  0.640446  0.614902  1
  O  O25  1  0.692162  0.739580  0.112382  1
  O  O26  1  0.807172  0.209617  0.639596  1
  O  O27  1  0.864796  0.134134  0.104489  1
  O  O28  1  0.905729  0.681147  0.907787  1
  O  O29  1  0.903164  0.707242  0.341384  1
