# generated using pymatgen
data_LiNbCrO4
_symmetry_space_group_name_H-M   'P 1'
_cell_length_a   6.30829159
_cell_length_b   6.30819600
_cell_length_c   8.46472208
_cell_angle_alpha   89.99784254
_cell_angle_beta   90.00281267
_cell_angle_gamma   89.99858358
_symmetry_Int_Tables_number   1
_chemical_formula_structural   LiNbCrO4
_chemical_formula_sum   'Li4 Nb4 Cr4 O16'
_cell_volume   336.84464029
_cell_formula_units_Z   4
loop_
 _symmetry_equiv_pos_site_id
 _symmetry_equiv_pos_as_xyz
  1  'x, y, z'
loop_
 _atom_site_type_symbol
 _atom_site_label
 _atom_site_symmetry_multiplicity
 _atom_site_fract_x
 _atom_site_fract_y
 _atom_site_fract_z
 _atom_site_occupancy
  Li  Li0  1  -0.000000  0.231679  0.999946  1
  Li  Li1  1  0.999995  0.768288  0.500049  1
  Li  Li2  1  0.231726  0.999980  0.249983  1
  Li  Li3  1  0.768273  0.999976  0.750004  1
  Nb  Nb4  1  0.249497  0.249444  0.624991  1
  Nb  Nb5  1  0.249485  0.750569  0.874988  1
  Nb  Nb6  1  0.750527  0.249512  0.374982  1
  Nb  Nb7  1  0.750545  0.750514  0.125025  1
  Cr  Cr8  1  0.242384  0.499969  0.250020  1
  Cr  Cr9  1  0.499952  0.242544  0.000019  1
  Cr  Cr10  1  0.499999  0.757584  0.499962  1
  Cr  Cr11  1  0.757613  0.499918  0.749986  1
  O  O12  1  0.997327  0.251778  0.253463  1
  O  O13  1  0.997372  0.748152  0.246549  1
  O  O14  1  0.251697  0.997304  0.996576  1
  O  O15  1  0.251702  0.002719  0.503416  1
  O  O16  1  0.254147  0.503624  0.006902  1
  O  O17  1  0.254191  0.496409  0.493108  1
  O  O18  1  0.503551  0.254298  0.243115  1
  O  O19  1  0.503594  0.745766  0.256890  1
  O  O20  1  0.496382  0.254136  0.756973  1
  O  O21  1  0.496375  0.745887  0.743027  1
  O  O22  1  0.745864  0.496363  0.506960  1
  O  O23  1  0.745871  0.503626  0.993076  1
  O  O24  1  0.748253  0.997355  0.003543  1
  O  O25  1  0.748264  0.002675  0.496455  1
  O  O26  1  0.002728  0.251650  0.746566  1
  O  O27  1  0.002687  0.748280  0.753426  1
