# generated using pymatgen
data_Na4VP2O9
_symmetry_space_group_name_H-M   'P 1'
_cell_length_a   7.08910422
_cell_length_b   14.67030656
_cell_length_c   16.20830144
_cell_angle_alpha   90.00000000
_cell_angle_beta   90.00000000
_cell_angle_gamma   90.00000000
_symmetry_Int_Tables_number   1
_chemical_formula_structural   Na4VP2O9
_chemical_formula_sum   'Na32 V8 P16 O72'
_cell_volume   1685.65252494
_cell_formula_units_Z   8
loop_
 _symmetry_equiv_pos_site_id
 _symmetry_equiv_pos_as_xyz
  1  'x, y, z'
loop_
 _atom_site_type_symbol
 _atom_site_label
 _atom_site_symmetry_multiplicity
 _atom_site_fract_x
 _atom_site_fract_y
 _atom_site_fract_z
 _atom_site_occupancy
  Na  Na0  1  0.003362  0.138712  0.381581  1
  Na  Na1  1  0.269165  0.494327  0.004476  1
  Na  Na2  1  0.255896  0.245333  0.525460  1
  Na  Na3  1  0.769165  0.005673  0.004476  1
  Na  Na4  1  0.996638  0.861288  0.618419  1
  Na  Na5  1  0.503362  0.361288  0.381581  1
  Na  Na6  1  0.755896  0.254667  0.525460  1
  Na  Na7  1  0.230835  0.994327  0.995524  1
  Na  Na8  1  0.269165  0.994327  0.495524  1
  Na  Na9  1  0.314606  0.524260  0.775120  1
  Na  Na10  1  0.685394  0.475740  0.224880  1
  Na  Na11  1  0.744104  0.254667  0.025460  1
  Na  Na12  1  0.730835  0.505673  0.995524  1
  Na  Na13  1  0.185394  0.524260  0.275120  1
  Na  Na14  1  0.755896  0.754667  0.974540  1
  Na  Na15  1  0.996638  0.361288  0.881581  1
  Na  Na16  1  0.255896  0.745333  0.974540  1
  Na  Na17  1  0.185394  0.024260  0.224880  1
  Na  Na18  1  0.314606  0.024260  0.724880  1
  Na  Na19  1  0.230835  0.494327  0.504476  1
  Na  Na20  1  0.814606  0.475740  0.724880  1
  Na  Na21  1  0.496638  0.138712  0.881581  1
  Na  Na22  1  0.244104  0.745333  0.474540  1
  Na  Na23  1  0.496638  0.638712  0.618419  1
  Na  Na24  1  0.814606  0.975740  0.775120  1
  Na  Na25  1  0.744104  0.754667  0.474540  1
  Na  Na26  1  0.244104  0.245333  0.025460  1
  Na  Na27  1  0.769165  0.505673  0.495524  1
  Na  Na28  1  0.685394  0.975740  0.275120  1
  Na  Na29  1  0.730835  0.005673  0.504476  1
  Na  Na30  1  0.003362  0.638712  0.118419  1
  Na  Na31  1  0.503362  0.861288  0.118419  1
  V  V32  1  0.275550  0.758655  0.266087  1
  V  V33  1  0.724450  0.241345  0.733913  1
  V  V34  1  0.775550  0.741345  0.266087  1
  V  V35  1  0.275550  0.258655  0.233913  1
  V  V36  1  0.224450  0.258655  0.733913  1
  V  V37  1  0.775550  0.241345  0.233913  1
  V  V38  1  0.224450  0.758655  0.766087  1
  V  V39  1  0.724450  0.741345  0.766087  1
  P  P40  1  0.998948  0.638883  0.627272  1
  P  P41  1  0.498948  0.861117  0.627272  1
  P  P42  1  0.498239  0.608046  0.380648  1
  P  P43  1  0.501052  0.638883  0.127272  1
  P  P44  1  0.998948  0.138883  0.872728  1
  P  P45  1  0.998239  0.891954  0.380648  1
  P  P46  1  0.501761  0.391954  0.619352  1
  P  P47  1  0.001761  0.108046  0.619352  1
  P  P48  1  0.001052  0.861117  0.127272  1
  P  P49  1  0.501052  0.138883  0.372728  1
  P  P50  1  0.498948  0.361117  0.872728  1
  P  P51  1  0.001052  0.361117  0.372728  1
  P  P52  1  0.498239  0.108046  0.119352  1
  P  P53  1  0.501761  0.891954  0.880648  1
  P  P54  1  0.998239  0.391954  0.119352  1
  P  P55  1  0.001761  0.608046  0.880648  1
  O  O56  1  0.679749  0.663678  0.358070  1
  O  O57  1  0.819160  0.836543  0.353141  1
  O  O58  1  0.820251  0.163678  0.641930  1
  O  O59  1  0.681023  0.342216  0.819676  1
  O  O60  1  0.181023  0.657784  0.680324  1
  O  O61  1  0.681015  0.150665  0.316692  1
  O  O62  1  0.319160  0.663457  0.353141  1
  O  O63  1  0.003925  0.201560  0.238748  1
  O  O64  1  0.180840  0.663457  0.853141  1
  O  O65  1  0.991231  0.207332  0.944782  1
  O  O66  1  0.496075  0.201560  0.738748  1
  O  O67  1  0.504089  0.986058  0.839796  1
  O  O68  1  0.996075  0.798440  0.761252  1
  O  O69  1  0.008282  0.102181  0.524067  1
  O  O70  1  0.680840  0.336543  0.646859  1
  O  O71  1  0.318977  0.157784  0.319676  1
  O  O72  1  0.818977  0.842216  0.180324  1
  O  O73  1  0.508282  0.897819  0.975933  1
  O  O74  1  0.996075  0.298440  0.738748  1
  O  O75  1  0.504089  0.486058  0.660204  1
  O  O76  1  0.320251  0.836322  0.858070  1
  O  O77  1  0.495911  0.013942  0.160204  1
  O  O78  1  0.503925  0.798440  0.261252  1
  O  O79  1  0.819160  0.336543  0.146859  1
  O  O80  1  0.495911  0.513942  0.339796  1
  O  O81  1  0.500292  0.539144  0.098408  1
  O  O82  1  0.181015  0.349335  0.316692  1
  O  O83  1  0.491718  0.102181  0.024067  1
  O  O84  1  0.318985  0.349335  0.816692  1
  O  O85  1  0.179749  0.836322  0.358070  1
  O  O86  1  0.318977  0.657784  0.180324  1
  O  O87  1  0.180840  0.163457  0.646859  1
  O  O88  1  0.818985  0.650665  0.683308  1
  O  O89  1  0.179749  0.336322  0.141930  1
  O  O90  1  0.181015  0.849335  0.183308  1
  O  O91  1  0.320251  0.336322  0.641930  1
  O  O92  1  0.820251  0.663678  0.858070  1
  O  O93  1  0.818985  0.150665  0.816692  1
  O  O94  1  0.008769  0.292668  0.444782  1
  O  O95  1  0.491231  0.792668  0.555218  1
  O  O96  1  0.991718  0.397819  0.024067  1
  O  O97  1  0.319160  0.163457  0.146859  1
  O  O98  1  0.008282  0.602181  0.975933  1
  O  O99  1  0.995911  0.986058  0.339796  1
  O  O100  1  0.503925  0.298440  0.238748  1
  O  O101  1  0.500292  0.039144  0.401592  1
  O  O102  1  0.991231  0.707332  0.555218  1
  O  O103  1  0.679749  0.163678  0.141930  1
  O  O104  1  0.508282  0.397819  0.524067  1
  O  O105  1  0.680840  0.836543  0.853141  1
  O  O106  1  0.681023  0.842216  0.680324  1
  O  O107  1  0.818977  0.342216  0.319676  1
  O  O108  1  0.999708  0.539144  0.598408  1
  O  O109  1  0.008769  0.792668  0.055218  1
  O  O110  1  0.000292  0.960856  0.098408  1
  O  O111  1  0.004089  0.513942  0.839796  1
  O  O112  1  0.181023  0.157784  0.819676  1
  O  O113  1  0.499708  0.960856  0.598408  1
  O  O114  1  0.496075  0.701560  0.761252  1
  O  O115  1  0.004089  0.013942  0.660204  1
  O  O116  1  0.003925  0.701560  0.261252  1
  O  O117  1  0.318985  0.849335  0.683308  1
  O  O118  1  0.999708  0.039144  0.901592  1
  O  O119  1  0.499708  0.460856  0.901592  1
  O  O120  1  0.681015  0.650665  0.183308  1
  O  O121  1  0.508769  0.707332  0.055218  1
  O  O122  1  0.991718  0.897819  0.475933  1
  O  O123  1  0.508769  0.207332  0.444782  1
  O  O124  1  0.491718  0.602181  0.475933  1
  O  O125  1  0.491231  0.292668  0.944782  1
  O  O126  1  0.000292  0.460856  0.401592  1
  O  O127  1  0.995911  0.486058  0.160204  1
