# generated using pymatgen
data_Ti3Mn2Cr(PO4)6
_symmetry_space_group_name_H-M   'P 1'
_cell_length_a   8.64513688
_cell_length_b   8.64513688
_cell_length_c   8.64513685
_cell_angle_alpha   60.07915668
_cell_angle_beta   60.07915672
_cell_angle_gamma   60.07915727
_symmetry_Int_Tables_number   1
_chemical_formula_structural   Ti3Mn2Cr(PO4)6
_chemical_formula_sum   'Ti3 Mn2 Cr1 P6 O24'
_cell_volume   457.69793819
_cell_formula_units_Z   1
loop_
 _symmetry_equiv_pos_site_id
 _symmetry_equiv_pos_as_xyz
  1  'x, y, z'
loop_
 _atom_site_type_symbol
 _atom_site_label
 _atom_site_symmetry_multiplicity
 _atom_site_fract_x
 _atom_site_fract_y
 _atom_site_fract_z
 _atom_site_occupancy
  Ti  Ti0  1  0.645146  0.645146  0.645146  1
  Ti  Ti1  1  0.354803  0.354803  0.354803  1
  Ti  Ti2  1  0.144371  0.144371  0.144371  1
  Mn  Mn3  1  0.498838  0.498838  0.498838  1
  Mn  Mn4  1  0.000323  0.000323  0.000323  1
  Cr  Cr5  1  0.857383  0.857383  0.857383  1
  P  P6  1  0.041421  0.750722  0.461011  1
  P  P7  1  0.543602  0.956707  0.248442  1
  P  P8  1  0.248442  0.543602  0.956707  1
  P  P9  1  0.750722  0.461011  0.041421  1
  P  P10  1  0.461011  0.041421  0.750722  1
  P  P11  1  0.956707  0.248442  0.543602  1
  O  O12  1  0.056418  0.913350  0.265930  1
  O  O13  1  0.006963  0.806105  0.618558  1
  O  O14  1  0.086204  0.735979  0.942237  1
  O  O15  1  0.381408  0.996956  0.190818  1
  O  O16  1  0.500721  0.879017  0.691007  1
  O  O17  1  0.234653  0.585806  0.439847  1
  O  O18  1  0.557957  0.764296  0.414451  1
  O  O19  1  0.735979  0.942237  0.086204  1
  O  O20  1  0.308905  0.502068  0.117578  1
  O  O21  1  0.117578  0.308905  0.502068  1
  O  O22  1  0.190818  0.381408  0.996956  1
  O  O23  1  0.414451  0.557957  0.764296  1
  O  O24  1  0.585806  0.439847  0.234653  1
  O  O25  1  0.879017  0.691007  0.500721  1
  O  O26  1  0.806105  0.618558  0.006963  1
  O  O27  1  0.691007  0.500721  0.879017  1
  O  O28  1  0.265930  0.056418  0.913350  1
  O  O29  1  0.439847  0.234653  0.585806  1
  O  O30  1  0.764296  0.414451  0.557957  1
  O  O31  1  0.502068  0.117578  0.308905  1
  O  O32  1  0.618558  0.006963  0.806105  1
  O  O33  1  0.913350  0.265930  0.056418  1
  O  O34  1  0.996956  0.190818  0.381408  1
  O  O35  1  0.942237  0.086204  0.735979  1
