# generated using pymatgen
data_Li32Mn13Cr3O48
_symmetry_space_group_name_H-M   'P 1'
_cell_length_a   5.00637976
_cell_length_b   8.66910987
_cell_length_c   19.45740545
_cell_angle_alpha   98.23337960
_cell_angle_beta   94.77973459
_cell_angle_gamma   89.94457185
_symmetry_Int_Tables_number   1
_chemical_formula_structural   Li32Mn13Cr3O48
_chemical_formula_sum   'Li32 Mn13 Cr3 O48'
_cell_volume   832.80616186
_cell_formula_units_Z   1
loop_
 _symmetry_equiv_pos_site_id
 _symmetry_equiv_pos_as_xyz
  1  'x, y, z'
loop_
 _atom_site_type_symbol
 _atom_site_label
 _atom_site_symmetry_multiplicity
 _atom_site_fract_x
 _atom_site_fract_y
 _atom_site_fract_z
 _atom_site_occupancy
  Li  Li0  1  0.992694  0.168138  0.249739  1
  Li  Li1  1  0.875718  0.375662  0.375242  1
  Li  Li2  1  0.749782  0.250087  0.000266  1
  Li  Li3  1  0.745705  0.920563  0.000663  1
  Li  Li4  1  0.992507  0.168209  0.749655  1
  Li  Li5  1  0.755865  0.580502  0.499077  1
  Li  Li6  1  0.874340  0.374515  0.874769  1
  Li  Li7  1  0.746466  0.249353  0.499599  1
  Li  Li8  1  0.742712  0.919914  0.500727  1
  Li  Li9  1  0.624805  0.125067  0.125054  1
  Li  Li10  1  0.756588  0.579824  0.000428  1
  Li  Li11  1  0.507758  0.332698  0.250574  1
  Li  Li12  1  0.624417  0.125661  0.625040  1
  Li  Li13  1  0.501712  0.999063  0.250442  1
  Li  Li14  1  0.493646  0.668207  0.249908  1
  Li  Li15  1  0.511054  0.331622  0.750789  1
  Li  Li16  1  0.379276  0.875735  0.374669  1
  Li  Li17  1  0.499226  0.001009  0.749658  1
  Li  Li18  1  0.250057  0.750567  0.000208  1
  Li  Li19  1  0.491726  0.667201  0.749852  1
  Li  Li20  1  0.244730  0.419955  0.000332  1
  Li  Li21  1  0.371948  0.875579  0.875282  1
  Li  Li22  1  0.256289  0.081306  0.499806  1
  Li  Li23  1  0.252092  0.748105  0.499738  1
  Li  Li24  1  0.124924  0.625100  0.125055  1
  Li  Li25  1  0.245457  0.419738  0.499326  1
  Li  Li26  1  0.005232  0.832742  0.249960  1
  Li  Li27  1  0.254369  0.079519  0.999626  1
  Li  Li28  1  0.124579  0.627134  0.624804  1
  Li  Li29  1  0.998523  0.498930  0.249595  1
  Li  Li30  1  0.009260  0.831353  0.749948  1
  Li  Li31  1  0.997216  0.499973  0.750416  1
  Mn  Mn32  1  0.873783  0.041579  0.374365  1
  Mn  Mn33  1  0.877429  0.042781  0.875882  1
  Mn  Mn34  1  0.625783  0.791511  0.125171  1
  Mn  Mn35  1  0.624467  0.458543  0.125207  1
  Mn  Mn36  1  0.625972  0.791283  0.624871  1
  Mn  Mn37  1  0.624166  0.459075  0.624707  1
  Mn  Mn38  1  0.377065  0.541289  0.375370  1
  Mn  Mn39  1  0.373328  0.208577  0.374920  1
  Mn  Mn40  1  0.372886  0.539909  0.874253  1
  Mn  Mn41  1  0.375015  0.208399  0.875039  1
  Mn  Mn42  1  0.124765  0.958568  0.125088  1
  Mn  Mn43  1  0.125870  0.291506  0.125142  1
  Mn  Mn44  1  0.125254  0.957606  0.624996  1
  Cr  Cr45  1  0.881647  0.710295  0.374843  1
  Cr  Cr46  1  0.867557  0.709284  0.875352  1
  Cr  Cr47  1  0.125768  0.295450  0.624849  1
  O  O48  1  0.963661  0.106777  0.069039  1
  O  O49  1  0.927872  0.784993  0.068933  1
  O  O50  1  0.927411  0.427555  0.068001  1
  O  O51  1  0.967708  0.106029  0.569193  1
  O  O52  1  0.822456  0.964965  0.180748  1
  O  O53  1  0.822706  0.322437  0.181811  1
  O  O54  1  0.927779  0.784810  0.569184  1
  O  O55  1  0.927517  0.425418  0.568440  1
  O  O56  1  0.786247  0.643364  0.180921  1
  O  O57  1  0.710946  0.861156  0.317851  1
  O  O58  1  0.822382  0.964845  0.680939  1
  O  O59  1  0.817383  0.323833  0.682596  1
  O  O60  1  0.675126  0.535329  0.318919  1
  O  O61  1  0.676600  0.178798  0.318081  1
  O  O62  1  0.787046  0.643261  0.680946  1
  O  O63  1  0.720658  0.855859  0.819182  1
  O  O64  1  0.463838  0.606519  0.068970  1
  O  O65  1  0.569284  0.713889  0.431260  1
  O  O66  1  0.571667  0.072310  0.432039  1
  O  O67  1  0.673424  0.532598  0.818419  1
  O  O68  1  0.677142  0.177389  0.818081  1
  O  O69  1  0.427889  0.927443  0.068089  1
  O  O70  1  0.428114  0.285192  0.069032  1
  O  O71  1  0.538546  0.392228  0.431188  1
  O  O72  1  0.462938  0.606635  0.569331  1
  O  O73  1  0.572516  0.712932  0.930730  1
  O  O74  1  0.572593  0.072308  0.931733  1
  O  O75  1  0.322510  0.822562  0.181749  1
  O  O76  1  0.322092  0.464731  0.180845  1
  O  O77  1  0.427709  0.927372  0.568331  1
  O  O78  1  0.433666  0.286095  0.568354  1
  O  O79  1  0.535950  0.393060  0.930740  1
  O  O80  1  0.286116  0.143308  0.180878  1
  O  O81  1  0.213239  0.355619  0.319116  1
  O  O82  1  0.322937  0.821649  0.681975  1
  O  O83  1  0.321032  0.461676  0.680670  1
  O  O84  1  0.175685  0.675232  0.317997  1
  O  O85  1  0.177584  0.035045  0.319085  1
  O  O86  1  0.284189  0.142233  0.680920  1
  O  O87  1  0.211627  0.355617  0.818715  1
  O  O88  1  0.077590  0.569632  0.433245  1
  O  O89  1  0.072160  0.215087  0.431193  1
  O  O90  1  0.179129  0.676757  0.817722  1
  O  O91  1  0.178651  0.034908  0.819134  1
  O  O92  1  0.031704  0.893749  0.430982  1
  O  O93  1  0.073362  0.574688  0.931662  1
  O  O94  1  0.072278  0.216093  0.930858  1
  O  O95  1  0.037912  0.897324  0.931867  1
