# generated using pymatgen
data_NaCu(PO3)4
_symmetry_space_group_name_H-M   'P 1'
_cell_length_a   8.08155730
_cell_length_b   8.08155662
_cell_length_c   8.01392400
_cell_angle_alpha   86.89771711
_cell_angle_beta   93.10228518
_cell_angle_gamma   71.66336543
_symmetry_Int_Tables_number   1
_chemical_formula_structural   NaCu(PO3)4
_chemical_formula_sum   'Na2 Cu2 P8 O24'
_cell_volume   494.69834681
_cell_formula_units_Z   2
loop_
 _symmetry_equiv_pos_site_id
 _symmetry_equiv_pos_as_xyz
  1  'x, y, z'
loop_
 _atom_site_type_symbol
 _atom_site_label
 _atom_site_symmetry_multiplicity
 _atom_site_fract_x
 _atom_site_fract_y
 _atom_site_fract_z
 _atom_site_occupancy
  Na  Na0  1  0.522054  0.189821  0.196183  1
  Na  Na1  1  0.810179  0.477946  0.696183  1
  Cu  Cu2  1  0.143413  0.131481  0.756390  1
  Cu  Cu3  1  0.868519  0.856587  0.256390  1
  P  P4  1  0.060102  0.788212  0.677905  1
  P  P5  1  0.246912  0.446391  0.874958  1
  P  P6  1  0.445296  0.243873  0.621149  1
  P  P7  1  0.211788  0.939898  0.177905  1
  P  P8  1  0.786828  0.060783  0.825041  1
  P  P9  1  0.553609  0.753088  0.374958  1
  P  P10  1  0.756127  0.554704  0.121149  1
  P  P11  1  0.939217  0.213172  0.325041  1
  O  O12  1  0.126475  0.125797  0.255669  1
  O  O13  1  0.106472  0.364529  0.812872  1
  O  O14  1  0.037170  0.701721  0.523949  1
  O  O15  1  0.159786  0.653575  0.834336  1
  O  O16  1  0.072134  0.849466  0.153354  1
  O  O17  1  0.365113  0.104251  0.684365  1
  O  O18  1  0.150534  0.927866  0.653354  1
  O  O19  1  0.317103  0.408063  0.050554  1
  O  O20  1  0.397899  0.400894  0.744771  1
  O  O21  1  0.419754  0.305235  0.442534  1
  O  O22  1  0.346425  0.840214  0.334336  1
  O  O23  1  0.298279  0.962830  0.023949  1
  O  O24  1  0.699218  0.049188  0.980954  1
  O  O25  1  0.654015  0.161546  0.668887  1
  O  O26  1  0.591937  0.682897  0.550554  1
  O  O27  1  0.599106  0.602101  0.244771  1
  O  O28  1  0.694765  0.580246  0.942535  1
  O  O29  1  0.844337  0.074773  0.340052  1
  O  O30  1  0.635471  0.893528  0.312872  1
  O  O31  1  0.925227  0.155663  0.840052  1
  O  O32  1  0.838454  0.345985  0.168887  1
  O  O33  1  0.950812  0.300782  0.480954  1
  O  O34  1  0.895749  0.634887  0.184365  1
  O  O35  1  0.874203  0.873525  0.755669  1
