# generated using pymatgen
data_LiVP2HO7
_symmetry_space_group_name_H-M   'P 1'
_cell_length_a   6.58302562
_cell_length_b   6.61395793
_cell_length_c   6.60074968
_cell_angle_alpha   68.69406531
_cell_angle_beta   92.63298310
_cell_angle_gamma   97.04811787
_symmetry_Int_Tables_number   1
_chemical_formula_structural   LiVP2HO7
_chemical_formula_sum   'Li2 V2 P4 H2 O14'
_cell_volume   265.72964544
_cell_formula_units_Z   2
loop_
 _symmetry_equiv_pos_site_id
 _symmetry_equiv_pos_as_xyz
  1  'x, y, z'
loop_
 _atom_site_type_symbol
 _atom_site_label
 _atom_site_symmetry_multiplicity
 _atom_site_fract_x
 _atom_site_fract_y
 _atom_site_fract_z
 _atom_site_occupancy
  Li  Li0  1  0.140177  0.251722  0.775104  1
  Li  Li1  1  0.859822  0.748277  0.224894  1
  V  V2  1  0.347136  0.102460  0.278713  1
  V  V3  1  0.652872  0.897541  0.721294  1
  P  P4  1  0.156013  0.782437  0.753188  1
  P  P5  1  0.387423  0.637690  0.177949  1
  P  P6  1  0.612575  0.362309  0.822051  1
  P  P7  1  0.843985  0.217564  0.246811  1
  H  H8  1  0.183461  0.673976  0.475831  1
  H  H9  1  0.816539  0.326025  0.524167  1
  O  O10  1  0.095459  0.619895  0.628420  1
  O  O11  1  0.019590  0.106835  0.207562  1
  O  O12  1  0.231791  0.621532  0.981128  1
  O  O13  1  0.279771  0.772489  0.281115  1
  O  O14  1  0.333792  0.950450  0.637024  1
  O  O15  1  0.389408  0.404177  0.329521  1
  O  O16  1  0.407884  0.242878  0.927467  1
  O  O17  1  0.592115  0.757123  0.072533  1
  O  O18  1  0.610591  0.595823  0.670479  1
  O  O19  1  0.666207  0.049549  0.362977  1
  O  O20  1  0.720227  0.227509  0.718884  1
  O  O21  1  0.768210  0.378467  0.018872  1
  O  O22  1  0.980411  0.893165  0.792437  1
  O  O23  1  0.904540  0.380106  0.371578  1
