# generated using pymatgen
data_Na4Fe2C4SO16
_symmetry_space_group_name_H-M   'P 1'
_cell_length_a   9.95221295
_cell_length_b   9.78402012
_cell_length_c   9.95124325
_cell_angle_alpha   59.93881553
_cell_angle_beta   59.42560763
_cell_angle_gamma   60.34489234
_symmetry_Int_Tables_number   1
_chemical_formula_structural   Na4Fe2C4SO16
_chemical_formula_sum   'Na8 Fe4 C8 S2 O32'
_cell_volume   683.57688573
_cell_formula_units_Z   2
loop_
 _symmetry_equiv_pos_site_id
 _symmetry_equiv_pos_as_xyz
  1  'x, y, z'
loop_
 _atom_site_type_symbol
 _atom_site_label
 _atom_site_symmetry_multiplicity
 _atom_site_fract_x
 _atom_site_fract_y
 _atom_site_fract_z
 _atom_site_occupancy
  Na  Na0  1  0.914370  0.335197  0.335284  1
  Na  Na1  1  0.087972  0.075787  0.659031  1
  Na  Na2  1  0.657503  0.680778  0.087532  1
  Na  Na3  1  0.350679  0.321041  0.919475  1
  Na  Na4  1  0.908510  0.919134  0.324963  1
  Na  Na5  1  0.909405  0.326014  0.918760  1
  Na  Na6  1  0.086365  0.676890  0.659041  1
  Na  Na7  1  0.337391  0.913740  0.912104  1
  Fe  Fe8  1  0.497306  0.496144  0.003449  1
  Fe  Fe9  1  0.502203  0.999809  0.495530  1
  Fe  Fe10  1  0.500929  0.500625  0.501362  1
  Fe  Fe11  1  0.000153  0.502419  0.494082  1
  C  C12  1  0.642043  0.288597  0.284423  1
  C  C13  1  0.285383  0.282642  0.291690  1
  C  C14  1  0.289182  0.641059  0.287011  1
  C  C15  1  0.282991  0.285483  0.643488  1
  C  C16  1  0.713387  0.360187  0.713160  1
  C  C17  1  0.713735  0.713904  0.360762  1
  C  C18  1  0.359510  0.710980  0.717603  1
  C  C19  1  0.714244  0.715881  0.711750  1
  S  S20  1  0.125145  0.123946  0.123747  1
  S  S21  1  0.873461  0.877936  0.873518  1
  O  O22  1  0.307552  0.063051  0.058774  1
  O  O23  1  0.063783  0.062360  0.060861  1
  O  O24  1  0.064906  0.310962  0.060111  1
  O  O25  1  0.056753  0.065377  0.306844  1
  O  O26  1  0.643512  0.144126  0.312467  1
  O  O27  1  0.397673  0.312887  0.146351  1
  O  O28  1  0.646534  0.403721  0.138409  1
  O  O29  1  0.314085  0.143819  0.408662  1
  O  O30  1  0.138218  0.393286  0.319094  1
  O  O31  1  0.644462  0.318793  0.395690  1
  O  O32  1  0.318272  0.646173  0.142319  1
  O  O33  1  0.395383  0.142722  0.643143  1
  O  O34  1  0.691293  0.597184  0.352310  1
  O  O35  1  0.860285  0.350949  0.599649  1
  O  O36  1  0.402930  0.635403  0.318214  1
  O  O37  1  0.138321  0.313732  0.647044  1
  O  O38  1  0.597945  0.365484  0.684656  1
  O  O39  1  0.854799  0.685302  0.363286  1
  O  O40  1  0.308540  0.401777  0.647769  1
  O  O41  1  0.142626  0.646450  0.399902  1
  O  O42  1  0.687205  0.362380  0.853381  1
  O  O43  1  0.598828  0.853296  0.363958  1
  O  O44  1  0.354710  0.684025  0.605207  1
  O  O45  1  0.859777  0.600899  0.687327  1
  O  O46  1  0.686739  0.853575  0.593421  1
  O  O47  1  0.364459  0.593177  0.857659  1
  O  O48  1  0.355035  0.857663  0.691003  1
  O  O49  1  0.600355  0.689272  0.857926  1
  O  O50  1  0.930979  0.690220  0.932141  1
  O  O51  1  0.940825  0.936330  0.687288  1
  O  O52  1  0.939980  0.939677  0.928328  1
  O  O53  1  0.691369  0.937732  0.935497  1
