# generated using pymatgen
data_RbH3(SeO3)2
_symmetry_space_group_name_H-M   'P 1'
_cell_length_a   6.16054454
_cell_length_b   20.11637172
_cell_length_c   12.39267423
_cell_angle_alpha   90.00000000
_cell_angle_beta   90.00000000
_cell_angle_gamma   90.00000000
_symmetry_Int_Tables_number   1
_chemical_formula_structural   RbH3(SeO3)2
_chemical_formula_sum   'Rb8 H24 Se16 O48'
_cell_volume   1535.79690257
_cell_formula_units_Z   8
loop_
 _symmetry_equiv_pos_site_id
 _symmetry_equiv_pos_as_xyz
  1  'x, y, z'
loop_
 _atom_site_type_symbol
 _atom_site_label
 _atom_site_symmetry_multiplicity
 _atom_site_fract_x
 _atom_site_fract_y
 _atom_site_fract_z
 _atom_site_occupancy
  Rb  Rb0  1  0.726139  0.608584  0.374931  1
  Rb  Rb1  1  0.773861  0.391416  0.874931  1
  Rb  Rb2  1  0.226139  0.891416  0.625069  1
  Rb  Rb3  1  0.273861  0.108584  0.125069  1
  Rb  Rb4  1  0.227324  0.891582  0.124016  1
  Rb  Rb5  1  0.272676  0.108418  0.624016  1
  Rb  Rb6  1  0.727324  0.608418  0.875984  1
  Rb  Rb7  1  0.772676  0.391582  0.375984  1
  H  H8  1  0.685493  0.951118  0.496460  1
  H  H9  1  0.814507  0.048882  0.996460  1
  H  H10  1  0.185493  0.548882  0.503540  1
  H  H11  1  0.314507  0.451118  0.003540  1
  H  H12  1  0.186638  0.543666  0.007990  1
  H  H13  1  0.313362  0.456334  0.507990  1
  H  H14  1  0.686638  0.956334  0.992010  1
  H  H15  1  0.813362  0.043666  0.492010  1
  H  H16  1  0.031817  0.735799  0.259729  1
  H  H17  1  0.468183  0.264201  0.759729  1
  H  H18  1  0.531817  0.764201  0.740271  1
  H  H19  1  0.968183  0.235799  0.240271  1
  H  H20  1  0.531631  0.764204  0.240642  1
  H  H21  1  0.968369  0.235796  0.740642  1
  H  H22  1  0.031631  0.735796  0.759358  1
  H  H23  1  0.468369  0.264204  0.259358  1
  H  H24  1  0.397909  0.877379  0.362931  1
  H  H25  1  0.102091  0.122621  0.862931  1
  H  H26  1  0.897909  0.622621  0.637069  1
  H  H27  1  0.602091  0.377379  0.137069  1
  H  H28  1  0.895460  0.622614  0.137811  1
  H  H29  1  0.604540  0.377386  0.637811  1
  H  H30  1  0.395460  0.877386  0.862189  1
  H  H31  1  0.104540  0.122614  0.362189  1
  Se  Se32  1  0.777370  0.884515  0.351407  1
  Se  Se33  1  0.722630  0.115485  0.851407  1
  Se  Se34  1  0.277370  0.615485  0.648593  1
  Se  Se35  1  0.222630  0.384515  0.148593  1
  Se  Se36  1  0.274306  0.615120  0.147536  1
  Se  Se37  1  0.225694  0.384880  0.647536  1
  Se  Se38  1  0.774306  0.884880  0.852464  1
  Se  Se39  1  0.725694  0.115120  0.352464  1
  Se  Se40  1  0.262206  0.744261  0.416649  1
  Se  Se41  1  0.237794  0.255739  0.916649  1
  Se  Se42  1  0.762206  0.755739  0.583351  1
  Se  Se43  1  0.737794  0.244261  0.083351  1
  Se  Se44  1  0.761143  0.755987  0.083424  1
  Se  Se45  1  0.738857  0.244013  0.583424  1
  Se  Se46  1  0.261143  0.744013  0.916576  1
  Se  Se47  1  0.238857  0.255987  0.416576  1
  O  O48  1  0.814296  0.922194  0.490071  1
  O  O49  1  0.685704  0.077806  0.990070  1
  O  O50  1  0.314296  0.577806  0.509930  1
  O  O51  1  0.185704  0.422194  0.009930  1
  O  O52  1  0.305339  0.576515  0.009631  1
  O  O53  1  0.194661  0.423485  0.509631  1
  O  O54  1  0.805339  0.923485  0.990369  1
  O  O55  1  0.694661  0.076515  0.490369  1
  O  O56  1  0.496474  0.730668  0.346802  1
  O  O57  1  0.003526  0.269332  0.846802  1
  O  O58  1  0.996474  0.769332  0.653198  1
  O  O59  1  0.503526  0.230668  0.153198  1
  O  O60  1  0.995262  0.769376  0.153513  1
  O  O61  1  0.504738  0.230624  0.653513  1
  O  O62  1  0.495262  0.730624  0.846487  1
  O  O63  1  0.004738  0.269376  0.346487  1
  O  O64  1  0.502327  0.914779  0.339499  1
  O  O65  1  0.997673  0.085221  0.839499  1
  O  O66  1  0.002327  0.585221  0.660501  1
  O  O67  1  0.497673  0.414779  0.160501  1
  O  O68  1  0.999121  0.585505  0.162956  1
  O  O69  1  0.500879  0.414495  0.662956  1
  O  O70  1  0.499121  0.914495  0.837044  1
  O  O71  1  0.000879  0.085505  0.337044  1
  O  O72  1  0.215476  0.827744  0.403497  1
  O  O73  1  0.284524  0.172256  0.903497  1
  O  O74  1  0.715476  0.672256  0.596503  1
  O  O75  1  0.784524  0.327744  0.096503  1
  O  O76  1  0.714236  0.672473  0.095720  1
  O  O77  1  0.785764  0.327527  0.595720  1
  O  O78  1  0.214236  0.827527  0.904280  1
  O  O79  1  0.285764  0.172473  0.404280  1
  O  O80  1  0.909889  0.935001  0.271723  1
  O  O81  1  0.590111  0.064999  0.771723  1
  O  O82  1  0.409889  0.564999  0.728277  1
  O  O83  1  0.090111  0.435001  0.228277  1
  O  O84  1  0.407901  0.565193  0.227967  1
  O  O85  1  0.092099  0.434807  0.727967  1
  O  O86  1  0.907901  0.934807  0.772033  1
  O  O87  1  0.592099  0.065193  0.272033  1
  O  O88  1  0.056395  0.708627  0.331050  1
  O  O89  1  0.443605  0.291373  0.831050  1
  O  O90  1  0.556395  0.791373  0.668950  1
  O  O91  1  0.943605  0.208627  0.168950  1
  O  O92  1  0.555386  0.791426  0.169312  1
  O  O93  1  0.944614  0.208574  0.669312  1
  O  O94  1  0.055386  0.708574  0.830688  1
  O  O95  1  0.444614  0.291426  0.330688  1
