# generated using pymatgen
data_Sr2WO5
_symmetry_space_group_name_H-M   'P 1'
_cell_length_a   7.37434268
_cell_length_b   5.61383795
_cell_length_c   11.09347872
_cell_angle_alpha   90.00000000
_cell_angle_beta   90.00000000
_cell_angle_gamma   90.00000000
_symmetry_Int_Tables_number   1
_chemical_formula_structural   Sr2WO5
_chemical_formula_sum   'Sr8 W4 O20'
_cell_volume   459.25187888
_cell_formula_units_Z   4
loop_
 _symmetry_equiv_pos_site_id
 _symmetry_equiv_pos_as_xyz
  1  'x, y, z'
loop_
 _atom_site_type_symbol
 _atom_site_label
 _atom_site_symmetry_multiplicity
 _atom_site_fract_x
 _atom_site_fract_y
 _atom_site_fract_z
 _atom_site_occupancy
  Sr  Sr0  1  0.012931  0.250000  0.220963  1
  Sr  Sr1  1  0.174810  0.750000  0.417685  1
  Sr  Sr2  1  0.325190  0.250000  0.917685  1
  Sr  Sr3  1  0.487069  0.750000  0.720963  1
  Sr  Sr4  1  0.512931  0.250000  0.279037  1
  Sr  Sr5  1  0.674810  0.750000  0.082315  1
  Sr  Sr6  1  0.825190  0.250000  0.582315  1
  Sr  Sr7  1  0.987069  0.750000  0.779037  1
  W  W8  1  0.183951  0.750000  0.063972  1
  W  W9  1  0.316049  0.250000  0.563972  1
  W  W10  1  0.683951  0.750000  0.436028  1
  W  W11  1  0.816049  0.250000  0.936028  1
  O  O12  1  0.000000  0.000000  0.000000  1
  O  O13  1  0.000000  0.500000  0.000000  1
  O  O14  1  0.043649  0.750000  0.207438  1
  O  O15  1  0.161929  0.001139  0.609842  1
  O  O16  1  0.161929  0.498861  0.609842  1
  O  O17  1  0.225608  0.250000  0.394831  1
  O  O18  1  0.274392  0.750000  0.894831  1
  O  O19  1  0.338071  0.501139  0.109842  1
  O  O20  1  0.338071  0.998861  0.109842  1
  O  O21  1  0.456351  0.250000  0.707438  1
  O  O22  1  0.500000  0.000000  0.500000  1
  O  O23  1  0.500000  0.500000  0.500000  1
  O  O24  1  0.543649  0.750000  0.292562  1
  O  O25  1  0.661929  0.001139  0.890158  1
  O  O26  1  0.661929  0.498861  0.890158  1
  O  O27  1  0.725608  0.250000  0.105169  1
  O  O28  1  0.774392  0.750000  0.605169  1
  O  O29  1  0.838071  0.501139  0.390158  1
  O  O30  1  0.838071  0.998861  0.390158  1
  O  O31  1  0.956351  0.250000  0.792562  1
