# generated using pymatgen
data_Li2CuF5
_symmetry_space_group_name_H-M   'P 1'
_cell_length_a   8.62508274
_cell_length_b   7.31676549
_cell_length_c   11.67400179
_cell_angle_alpha   51.21818566
_cell_angle_beta   137.60688137
_cell_angle_gamma   90.00227401
_symmetry_Int_Tables_number   1
_chemical_formula_structural   Li2CuF5
_chemical_formula_sum   'Li4 Cu2 F10'
_cell_volume   183.85315488
_cell_formula_units_Z   2
loop_
 _symmetry_equiv_pos_site_id
 _symmetry_equiv_pos_as_xyz
  1  'x, y, z'
loop_
 _atom_site_type_symbol
 _atom_site_label
 _atom_site_symmetry_multiplicity
 _atom_site_fract_x
 _atom_site_fract_y
 _atom_site_fract_z
 _atom_site_occupancy
  Li  Li0  1  0.643891  0.063324  0.501937  1
  Li  Li1  1  0.858831  0.561020  0.502095  1
  Li  Li2  1  0.143873  0.436114  0.501905  1
  Li  Li3  1  0.358789  0.938103  0.502070  1
  Cu  Cu4  1  0.006011  0.994628  0.006288  1
  Cu  Cu5  1  0.506214  0.494073  0.006311  1
  F  F6  1  0.000406  0.500641  0.000671  1
  F  F7  1  0.562833  0.332299  0.504779  1
  F  F8  1  0.209470  0.089581  0.005467  1
  F  F9  1  0.300063  0.588071  0.004989  1
  F  F10  1  0.948134  0.830679  0.506627  1
  F  F11  1  0.500093  0.999247  0.000679  1
  F  F12  1  0.063879  0.158696  0.505674  1
  F  F13  1  0.709195  0.400039  0.005315  1
  F  F14  1  0.800041  0.902506  0.004822  1
  F  F15  1  0.448865  0.656629  0.507488  1
