# generated using pymatgen
data_Mn3Ni2P6WO24
_symmetry_space_group_name_H-M   'P 1'
_cell_length_a   8.59701028
_cell_length_b   8.71334516
_cell_length_c   8.71334557
_cell_angle_alpha   60.00000491
_cell_angle_beta   59.55134499
_cell_angle_gamma   59.55134303
_symmetry_Int_Tables_number   1
_chemical_formula_structural   Mn3Ni2P6WO24
_chemical_formula_sum   'Mn3 Ni2 P6 W1 O24'
_cell_volume   458.37787914
_cell_formula_units_Z   1
loop_
 _symmetry_equiv_pos_site_id
 _symmetry_equiv_pos_as_xyz
  1  'x, y, z'
loop_
 _atom_site_type_symbol
 _atom_site_label
 _atom_site_symmetry_multiplicity
 _atom_site_fract_x
 _atom_site_fract_y
 _atom_site_fract_z
 _atom_site_occupancy
  Mn  Mn0  1  0.071558  0.642814  0.642814  1
  Mn  Mn1  1  0.436826  0.854392  0.854392  1
  Mn  Mn2  1  0.930038  0.356654  0.356654  1
  Ni  Ni3  1  0.022970  0.992344  0.992344  1
  Ni  Ni4  1  0.503371  0.498877  0.498877  1
  P  P5  1  0.244941  0.252563  0.550202  1
  P  P6  1  0.244941  0.952295  0.252563  1
  P  P7  1  0.244941  0.550202  0.952295  1
  P  P8  1  0.748226  0.459824  0.049218  1
  P  P9  1  0.748226  0.049218  0.742733  1
  P  P10  1  0.748226  0.742733  0.459824  1
  W  W11  1  0.572816  0.142394  0.142394  1
  O  O12  1  0.067523  0.106408  0.318734  1
  O  O13  1  0.067523  0.507336  0.106408  1
  O  O14  1  0.067523  0.318734  0.507336  1
  O  O15  1  0.227983  0.089353  0.741225  1
  O  O16  1  0.425712  0.174360  0.383161  1
  O  O17  1  0.294095  0.401105  0.545137  1
  O  O18  1  0.227983  0.941439  0.089353  1
  O  O19  1  0.294095  0.759663  0.401105  1
  O  O20  1  0.564932  0.609873  0.011671  1
  O  O21  1  0.294095  0.545137  0.759663  1
  O  O22  1  0.758034  0.255481  0.074491  1
  O  O23  1  0.564932  0.011671  0.813525  1
  O  O24  1  0.425712  0.016767  0.174360  1
  O  O25  1  0.227983  0.741225  0.941439  1
  O  O26  1  0.722682  0.437463  0.247538  1
  O  O27  1  0.425712  0.383161  0.016767  1
  O  O28  1  0.722682  0.247538  0.592318  1
  O  O29  1  0.758034  0.074491  0.911994  1
  O  O30  1  0.722682  0.592318  0.437463  1
  O  O31  1  0.564932  0.813525  0.609873  1
  O  O32  1  0.758034  0.911994  0.255481  1
  O  O33  1  0.933346  0.692488  0.479121  1
  O  O34  1  0.933346  0.479121  0.895046  1
  O  O35  1  0.933346  0.895046  0.692488  1
