# generated using pymatgen
data_Li4MnV3(P2O7)4
_symmetry_space_group_name_H-M   'P 1'
_cell_length_a   4.85730641
_cell_length_b   8.29021044
_cell_length_c   26.66624780
_cell_angle_alpha   89.99973707
_cell_angle_beta   88.53806283
_cell_angle_gamma   89.99997843
_symmetry_Int_Tables_number   1
_chemical_formula_structural   Li4MnV3(P2O7)4
_chemical_formula_sum   'Li8 Mn2 V6 P16 O56'
_cell_volume   1073.44940029
_cell_formula_units_Z   2
loop_
 _symmetry_equiv_pos_site_id
 _symmetry_equiv_pos_as_xyz
  1  'x, y, z'
loop_
 _atom_site_type_symbol
 _atom_site_label
 _atom_site_symmetry_multiplicity
 _atom_site_fract_x
 _atom_site_fract_y
 _atom_site_fract_z
 _atom_site_occupancy
  Li  Li0  1  0.159858  0.361231  0.331466  1
  Li  Li1  1  0.163624  0.359830  0.831666  1
  Li  Li2  1  0.340143  0.861235  0.418531  1
  Li  Li3  1  0.336376  0.859828  0.918337  1
  Li  Li4  1  0.660099  0.361573  0.081212  1
  Li  Li5  1  0.660050  0.361197  0.581640  1
  Li  Li6  1  0.839952  0.861198  0.168359  1
  Li  Li7  1  0.839900  0.861571  0.668789  1
  Mn  Mn8  1  0.150574  0.997243  0.817725  1
  Mn  Mn9  1  0.349406  0.497237  0.932283  1
  V  V10  1  0.148404  0.999575  0.317863  1
  V  V11  1  0.351610  0.499570  0.432131  1
  V  V12  1  0.649307  0.000731  0.067561  1
  V  V13  1  0.648329  -0.000220  0.568001  1
  V  V14  1  0.851676  0.499780  0.181996  1
  V  V15  1  0.850694  0.500732  0.682441  1
  P  P16  1  0.139186  0.180165  0.130508  1
  P  P17  1  0.168522  0.786759  0.021558  1
  P  P18  1  0.138491  0.181048  0.630871  1
  P  P19  1  0.170069  0.784273  0.521531  1
  P  P20  1  0.329932  0.284269  0.228468  1
  P  P21  1  0.361506  0.681043  0.119130  1
  P  P22  1  0.331477  0.286768  0.728442  1
  P  P23  1  0.360810  0.680155  0.619493  1
  P  P24  1  0.638551  0.180284  0.380601  1
  P  P25  1  0.669990  0.784120  0.271458  1
  P  P26  1  0.641330  0.176493  0.878884  1
  P  P27  1  0.669013  0.785251  0.772378  1
  P  P28  1  0.830007  0.284098  0.478539  1
  P  P29  1  0.861449  0.680301  0.369391  1
  P  P30  1  0.830990  0.285260  0.977624  1
  P  P31  1  0.858671  0.676491  0.871120  1
  O  O32  1  0.006261  0.843401  0.373549  1
  O  O33  1  0.054911  0.538081  0.379440  1
  O  O34  1  0.093542  0.677394  0.151288  1
  O  O35  1  0.997803  0.839580  0.876800  1
  O  O36  1  0.051978  0.532554  0.879517  1
  O  O37  1  0.143318  0.434073  0.228965  1
  O  O38  1  0.092786  0.677738  0.651146  1
  O  O39  1  0.125502  0.324145  0.462609  1
  O  O40  1  0.218316  0.153412  0.188351  1
  O  O41  1  0.143899  0.436242  0.728070  1
  O  O42  1  0.190316  0.696974  0.471317  1
  O  O43  1  0.130866  0.326407  0.963553  1
  O  O44  1  0.280849  0.654343  0.061589  1
  O  O45  1  0.219153  0.154345  0.688410  1
  O  O46  1  0.183361  0.703053  0.971314  1
  O  O47  1  0.309681  0.196971  0.278685  1
  O  O48  1  0.356100  0.936245  0.021926  1
  O  O49  1  0.281683  0.653414  0.561651  1
  O  O50  1  0.374506  0.824143  0.287392  1
  O  O51  1  0.316642  0.203055  0.778685  1
  O  O52  1  0.407216  0.177744  0.098855  1
  O  O53  1  0.356683  0.934074  0.521037  1
  O  O54  1  0.369135  0.826407  0.786445  1
  O  O55  1  0.406461  0.177392  0.598712  1
  O  O56  1  0.445107  0.038087  0.370563  1
  O  O57  1  0.505975  0.843971  0.123415  1
  O  O58  1  0.493734  0.343405  0.376453  1
  O  O59  1  0.448017  0.032553  0.870480  1
  O  O60  1  0.554819  0.538524  0.129407  1
  O  O61  1  0.506087  0.843790  0.623456  1
  O  O62  1  0.502199  0.339578  0.873197  1
  O  O63  1  0.554828  0.538783  0.629439  1
  O  O64  1  0.593341  0.677473  0.401235  1
  O  O65  1  0.625537  0.324532  0.212669  1
  O  O66  1  0.643578  0.434116  0.478927  1
  O  O67  1  0.587782  0.670500  0.902657  1
  O  O68  1  0.690512  0.696824  0.221346  1
  O  O69  1  0.626023  0.326330  0.711347  1
  O  O70  1  0.718052  0.153247  0.438322  1
  O  O71  1  0.644026  0.434727  0.978678  1
  O  O72  1  0.687630  0.696589  0.722127  1
  O  O73  1  0.812374  0.196593  0.027871  1
  O  O74  1  0.781954  0.653246  0.311682  1
  O  O75  1  0.722235  0.154820  0.937253  1
  O  O76  1  0.873974  0.826321  0.038652  1
  O  O77  1  0.809484  0.196820  0.528657  1
  O  O78  1  0.856403  0.934107  0.271073  1
  O  O79  1  0.777763  0.654821  0.812744  1
  O  O80  1  0.874460  0.824536  0.537333  1
  O  O81  1  0.906646  0.177473  0.348768  1
  O  O82  1  0.855976  0.934728  0.771320  1
  O  O83  1  0.945173  0.038779  0.120563  1
  O  O84  1  0.993917  0.343784  0.126543  1
  O  O85  1  0.912220  0.170498  0.847341  1
  O  O86  1  0.945180  0.038524  0.620593  1
  O  O87  1  0.994026  0.343971  0.626587  1
