# generated using pymatgen
data_LiFeB2O5
_symmetry_space_group_name_H-M   'P 1'
_cell_length_a   6.95362328
_cell_length_b   9.59086187
_cell_length_c   5.71753560
_cell_angle_alpha   90.00000000
_cell_angle_beta   74.05682271
_cell_angle_gamma   90.00000000
_symmetry_Int_Tables_number   1
_chemical_formula_structural   LiFeB2O5
_chemical_formula_sum   'Li4 Fe4 B8 O20'
_cell_volume   366.64231151
_cell_formula_units_Z   4
loop_
 _symmetry_equiv_pos_site_id
 _symmetry_equiv_pos_as_xyz
  1  'x, y, z'
loop_
 _atom_site_type_symbol
 _atom_site_label
 _atom_site_symmetry_multiplicity
 _atom_site_fract_x
 _atom_site_fract_y
 _atom_site_fract_z
 _atom_site_occupancy
  Li  Li0  1  0.217948  0.425447  0.313352  1
  Li  Li1  1  0.217948  0.074553  0.813352  1
  Li  Li2  1  0.782052  0.925447  0.186648  1
  Li  Li3  1  0.782052  0.574553  0.686648  1
  Fe  Fe4  1  0.246097  0.828971  0.216642  1
  Fe  Fe5  1  0.246097  0.671029  0.716642  1
  Fe  Fe6  1  0.753903  0.328971  0.283358  1
  Fe  Fe7  1  0.753903  0.171029  0.783358  1
  B  B8  1  0.085170  0.118183  0.329264  1
  B  B9  1  0.085170  0.381817  0.829264  1
  B  B10  1  0.451796  0.093106  0.255731  1
  B  B11  1  0.548204  0.593106  0.244269  1
  B  B12  1  0.451796  0.406894  0.755731  1
  B  B13  1  0.548204  0.906894  0.744269  1
  B  B14  1  0.914830  0.618183  0.170736  1
  B  B15  1  0.914830  0.881817  0.670736  1
  O  O16  1  0.073509  0.704839  0.070151  1
  O  O17  1  0.068053  0.996511  0.213644  1
  O  O18  1  0.073509  0.795161  0.570151  1
  O  O19  1  0.068053  0.503489  0.713644  1
  O  O20  1  0.271631  0.168592  0.346577  1
  O  O21  1  0.376584  0.667884  0.341845  1
  O  O22  1  0.271631  0.331408  0.846577  1
  O  O23  1  0.461442  0.951789  0.261813  1
  O  O24  1  0.376584  0.832116  0.841845  1
  O  O25  1  0.538558  0.451789  0.238187  1
  O  O26  1  0.461442  0.548211  0.761813  1
  O  O27  1  0.623416  0.167884  0.158155  1
  O  O28  1  0.538558  0.048211  0.738187  1
  O  O29  1  0.728369  0.668592  0.153423  1
  O  O30  1  0.623416  0.332116  0.658155  1
  O  O31  1  0.728369  0.831408  0.653423  1
  O  O32  1  0.931947  0.496511  0.286356  1
  O  O33  1  0.926491  0.204839  0.429849  1
  O  O34  1  0.931947  0.003489  0.786356  1
  O  O35  1  0.926491  0.295161  0.929849  1
