# generated using pymatgen
data_LiVF4
_symmetry_space_group_name_H-M   'P 1'
_cell_length_a   3.96627677
_cell_length_b   8.03885753
_cell_length_c   12.62622459
_cell_angle_alpha   59.75373397
_cell_angle_beta   89.73082072
_cell_angle_gamma   75.73898530
_symmetry_Int_Tables_number   1
_chemical_formula_structural   LiVF4
_chemical_formula_sum   'Li4 V4 F16'
_cell_volume   333.61348470
_cell_formula_units_Z   4
loop_
 _symmetry_equiv_pos_site_id
 _symmetry_equiv_pos_as_xyz
  1  'x, y, z'
loop_
 _atom_site_type_symbol
 _atom_site_label
 _atom_site_symmetry_multiplicity
 _atom_site_fract_x
 _atom_site_fract_y
 _atom_site_fract_z
 _atom_site_occupancy
  Li  Li0  1  0.796961  0.399158  0.835362  1
  Li  Li1  1  0.653337  0.682050  0.322252  1
  Li  Li2  1  0.341772  0.318962  0.675492  1
  Li  Li3  1  0.196123  0.602087  0.165621  1
  V  V4  1  0.029376  0.930775  0.868286  1
  V  V5  1  0.138524  0.723806  0.641778  1
  V  V6  1  0.859156  0.274339  0.358215  1
  V  V7  1  0.964414  0.066743  0.133707  1
  F  F8  1  0.515367  0.962903  0.850672  1
  F  F9  1  0.072268  0.849706  0.743173  1
  F  F10  1  0.170560  0.664198  0.000648  1
  F  F11  1  0.649249  0.701521  0.659414  1
  F  F12  1  0.274749  0.447115  0.785942  1
  F  F13  1  0.200829  0.599772  0.545901  1
  F  F14  1  0.109423  0.771284  0.257128  1
  F  F15  1  0.890362  0.224093  0.743271  1
  F  F16  1  0.793066  0.397941  0.453955  1
  F  F17  1  0.721803  0.551430  0.213628  1
  F  F18  1  0.348086  0.296338  0.340405  1
  F  F19  1  0.830274  0.333935  -0.000607  1
  F  F20  1  0.001867  0.998290  0.499509  1
  F  F21  1  0.922165  0.149234  0.255753  1
  F  F22  1  0.481735  0.030579  0.152848  1
  F  F23  1  0.998239  0.997221  0.001989  1
