# generated using pymatgen
data_H4N2O3
_symmetry_space_group_name_H-M   'P 1'
_cell_length_a   8.04126124
_cell_length_b   8.04126124
_cell_length_c   9.95019887
_cell_angle_alpha   90.00000000
_cell_angle_beta   90.00000000
_cell_angle_gamma   90.00000000
_symmetry_Int_Tables_number   1
_chemical_formula_structural   H4N2O3
_chemical_formula_sum   'H32 N16 O24'
_cell_volume   643.39858849
_cell_formula_units_Z   8
loop_
 _symmetry_equiv_pos_site_id
 _symmetry_equiv_pos_as_xyz
  1  'x, y, z'
loop_
 _atom_site_type_symbol
 _atom_site_label
 _atom_site_symmetry_multiplicity
 _atom_site_fract_x
 _atom_site_fract_y
 _atom_site_fract_z
 _atom_site_occupancy
  H  H0  1  0.077651  0.926453  0.691113  1
  H  H1  1  0.922349  0.073547  0.691113  1
  H  H2  1  0.926453  0.922349  0.191113  1
  H  H3  1  0.073547  0.077651  0.191113  1
  H  H4  1  0.929573  0.923815  0.811300  1
  H  H5  1  0.070427  0.076185  0.811300  1
  H  H6  1  0.923815  0.070427  0.311300  1
  H  H7  1  0.076185  0.929573  0.311300  1
  H  H8  1  0.074121  0.422380  0.691422  1
  H  H9  1  0.925879  0.577620  0.691422  1
  H  H10  1  0.422380  0.925879  0.191422  1
  H  H11  1  0.577620  0.074121  0.191422  1
  H  H12  1  0.075883  0.570665  0.811405  1
  H  H13  1  0.924117  0.429335  0.811405  1
  H  H14  1  0.570665  0.924117  0.311405  1
  H  H15  1  0.429335  0.075883  0.311405  1
  H  H16  1  0.423421  0.569731  0.810906  1
  H  H17  1  0.576579  0.430269  0.810906  1
  H  H18  1  0.569731  0.576579  0.310906  1
  H  H19  1  0.430269  0.423421  0.310906  1
  H  H20  1  0.573854  0.578130  0.691846  1
  H  H21  1  0.426146  0.421870  0.691846  1
  H  H22  1  0.578130  0.426146  0.191846  1
  H  H23  1  0.421870  0.573854  0.191846  1
  H  H24  1  0.430300  0.076586  0.810926  1
  H  H25  1  0.569700  0.923414  0.810926  1
  H  H26  1  0.076586  0.569700  0.310926  1
  H  H27  1  0.923414  0.430300  0.310926  1
  H  H28  1  0.578001  0.073842  0.691649  1
  H  H29  1  0.421999  0.926158  0.691649  1
  H  H30  1  0.073842  0.421999  0.191649  1
  H  H31  1  0.926158  0.578001  0.191649  1
  N  N32  1  0.000000  0.000000  0.749136  1
  N  N33  1  0.000000  0.000000  0.249136  1
  N  N34  1  0.000000  0.500000  0.749460  1
  N  N35  1  0.500000  0.000000  0.249460  1
  N  N36  1  0.500000  0.500000  0.749768  1
  N  N37  1  0.500000  0.500000  0.249768  1
  N  N38  1  0.500000  0.000000  0.749482  1
  N  N39  1  0.000000  0.500000  0.249482  1
  N  N40  1  0.253014  0.751180  0.015246  1
  N  N41  1  0.746986  0.248820  0.015246  1
  N  N42  1  0.751180  0.746986  0.515246  1
  N  N43  1  0.248820  0.253014  0.515246  1
  N  N44  1  0.247786  0.751017  0.515356  1
  N  N45  1  0.752214  0.248983  0.515356  1
  N  N46  1  0.751017  0.752214  0.015356  1
  N  N47  1  0.248983  0.247786  0.015356  1
  O  O48  1  0.265411  0.886156  0.954515  1
  O  O49  1  0.734589  0.113844  0.954515  1
  O  O50  1  0.886156  0.734589  0.454515  1
  O  O51  1  0.113844  0.265411  0.454515  1
  O  O52  1  0.232440  0.614350  0.953170  1
  O  O53  1  0.767560  0.385650  0.953170  1
  O  O54  1  0.614350  0.767560  0.453170  1
  O  O55  1  0.385650  0.232440  0.453170  1
  O  O56  1  0.263021  0.747760  0.144262  1
  O  O57  1  0.736979  0.252240  0.144262  1
  O  O58  1  0.747760  0.736979  0.644262  1
  O  O59  1  0.252240  0.263021  0.644262  1
  O  O60  1  0.227375  0.885824  0.452134  1
  O  O61  1  0.772625  0.114176  0.452134  1
  O  O62  1  0.885824  0.772625  0.952134  1
  O  O63  1  0.114176  0.227375  0.952134  1
  O  O64  1  0.260813  0.614078  0.455505  1
  O  O65  1  0.739187  0.385922  0.455505  1
  O  O66  1  0.614078  0.739187  0.955505  1
  O  O67  1  0.385922  0.260813  0.955505  1
  O  O68  1  0.254768  0.756040  0.644320  1
  O  O69  1  0.745232  0.243960  0.644320  1
  O  O70  1  0.756040  0.745232  0.144320  1
  O  O71  1  0.243960  0.254768  0.144320  1
