# generated using pymatgen
data_Li5Fe3(CuO5)2
_symmetry_space_group_name_H-M   'P 1'
_cell_length_a   5.11735521
_cell_length_b   5.13252729
_cell_length_c   7.90227916
_cell_angle_alpha   108.75993619
_cell_angle_beta   102.21008561
_cell_angle_gamma   100.00627973
_symmetry_Int_Tables_number   1
_chemical_formula_structural   Li5Fe3(CuO5)2
_chemical_formula_sum   'Li5 Fe3 Cu2 O10'
_cell_volume   185.41030302
_cell_formula_units_Z   1
loop_
 _symmetry_equiv_pos_site_id
 _symmetry_equiv_pos_as_xyz
  1  'x, y, z'
loop_
 _atom_site_type_symbol
 _atom_site_label
 _atom_site_symmetry_multiplicity
 _atom_site_fract_x
 _atom_site_fract_y
 _atom_site_fract_z
 _atom_site_occupancy
  Li  Li0  1  0.212784  0.902678  0.414480  1
  Li  Li1  1  0.383189  0.285076  0.776377  1
  Li  Li2  1  0.500000  0.500000  0.500000  1
  Li  Li3  1  0.616811  0.714924  0.223623  1
  Li  Li4  1  0.787216  0.097322  0.585520  1
  Fe  Fe5  1  0.000000  0.500000  0.000000  1
  Fe  Fe6  1  0.687481  0.890707  0.885665  1
  Fe  Fe7  1  0.312519  0.109293  0.114335  1
  Cu  Cu8  1  0.096728  0.695913  0.689524  1
  Cu  Cu9  1  0.903272  0.304087  0.310476  1
  O  O10  1  0.048432  0.106668  0.861776  1
  O  O11  1  0.335321  0.712103  0.945461  1
  O  O12  1  0.135760  0.312935  0.544574  1
  O  O13  1  0.232510  0.481810  0.232708  1
  O  O14  1  0.448353  0.896964  0.661918  1
  O  O15  1  0.551647  0.103036  0.338082  1
  O  O16  1  0.767490  0.518190  0.767292  1
  O  O17  1  0.864240  0.687065  0.455426  1
  O  O18  1  0.664679  0.287897  0.054539  1
  O  O19  1  0.951568  0.893332  0.138224  1
