# generated using pymatgen
data_Li4Mn5Sn3O16
_symmetry_space_group_name_H-M   'P 1'
_cell_length_a   6.09003347
_cell_length_b   6.13056837
_cell_length_c   9.86586315
_cell_angle_alpha   89.98172672
_cell_angle_beta   90.56344837
_cell_angle_gamma   120.10776486
_symmetry_Int_Tables_number   1
_chemical_formula_structural   Li4Mn5Sn3O16
_chemical_formula_sum   'Li4 Mn5 Sn3 O16'
_cell_volume   318.62975543
_cell_formula_units_Z   1
loop_
 _symmetry_equiv_pos_site_id
 _symmetry_equiv_pos_as_xyz
  1  'x, y, z'
loop_
 _atom_site_type_symbol
 _atom_site_label
 _atom_site_symmetry_multiplicity
 _atom_site_fract_x
 _atom_site_fract_y
 _atom_site_fract_z
 _atom_site_occupancy
  Li  Li0  1  0.353564  0.676717  0.883849  1
  Li  Li1  1  0.961959  0.981893  0.993234  1
  Li  Li2  1  0.969099  0.984456  0.500906  1
  Li  Li3  1  0.677783  0.338885  0.394388  1
  Mn  Mn4  1  0.337835  0.667987  0.496598  1
  Mn  Mn5  1  0.663939  0.831977  0.217537  1
  Mn  Mn6  1  0.680389  0.340752  0.990090  1
  Mn  Mn7  1  0.835552  0.662692  0.715196  1
  Mn  Mn8  1  0.835580  0.171986  0.715163  1
  Sn  Sn9  1  0.171752  0.834252  0.214639  1
  Sn  Sn10  1  0.170931  0.338141  0.214601  1
  Sn  Sn11  1  0.339730  0.169569  0.714213  1
  O  O12  1  0.143707  0.833539  0.601784  1
  O  O13  1  0.036672  0.519562  0.339502  1
  O  O14  1  0.347975  0.673795  0.100500  1
  O  O15  1  0.986277  0.994138  0.318489  1
  O  O16  1  0.983697  0.991119  0.810651  1
  O  O17  1  0.142999  0.308783  0.602104  1
  O  O18  1  0.499612  0.970220  0.334421  1
  O  O19  1  0.497132  0.526522  0.335758  1
  O  O20  1  0.305873  0.152976  0.093152  1
  O  O21  1  0.670374  0.834637  0.611182  1
  O  O22  1  0.537134  0.495745  0.832637  1
  O  O23  1  0.537042  0.039786  0.831900  1
  O  O24  1  0.686312  0.343133  0.606437  1
  O  O25  1  0.825564  0.681224  0.105677  1
  O  O26  1  0.976425  0.487849  0.828088  1
  O  O27  1  0.825094  0.147967  0.105143  1
