# generated using pymatgen
data_Bi16O25
_symmetry_space_group_name_H-M   'P 1'
_cell_length_a   9.67173319
_cell_length_b   9.67173319
_cell_length_c   9.67173319
_cell_angle_alpha   70.26933356
_cell_angle_beta   109.73066644
_cell_angle_gamma   71.04643412
_symmetry_Int_Tables_number   1
_chemical_formula_structural   Bi16O25
_chemical_formula_sum   'Bi16 O25'
_cell_volume   696.40915531
_cell_formula_units_Z   1
loop_
 _symmetry_equiv_pos_site_id
 _symmetry_equiv_pos_as_xyz
  1  'x, y, z'
loop_
 _atom_site_type_symbol
 _atom_site_label
 _atom_site_symmetry_multiplicity
 _atom_site_fract_x
 _atom_site_fract_y
 _atom_site_fract_z
 _atom_site_occupancy
  Bi  Bi0  1  0.496611  0.003389  0.751664  1
  Bi  Bi1  1  0.994185  0.505815  0.761079  1
  Bi  Bi2  1  0.752953  0.246897  0.739910  1
  Bi  Bi3  1  0.253103  0.747047  0.739910  1
  Bi  Bi4  1  0.505815  0.733106  0.500000  1
  Bi  Bi5  1  0.766894  0.994185  0.500000  1
  Bi  Bi6  1  0.255053  0.496611  0.500000  1
  Bi  Bi7  1  0.003389  0.244947  0.500000  1
  Bi  Bi8  1  0.513044  0.486807  0.260090  1
  Bi  Bi9  1  0.013193  0.986956  0.260090  1
  Bi  Bi10  1  0.244947  0.255053  0.248336  1
  Bi  Bi11  1  0.733106  0.766894  0.238921  1
  Bi  Bi12  1  0.486807  0.253103  0.999851  1
  Bi  Bi13  1  0.986956  0.752953  0.000149  1
  Bi  Bi14  1  0.246897  0.013193  0.999851  1
  Bi  Bi15  1  0.747047  0.513044  0.000149  1
  O  O16  1  0.250000  0.952042  0.797958  1
  O  O17  1  0.547958  0.250000  0.797958  1
  O  O18  1  0.750000  0.457997  0.792003  1
  O  O19  1  0.042003  0.750000  0.792003  1
  O  O20  1  0.704184  0.001829  0.700417  1
  O  O21  1  0.001829  0.297753  0.706013  1
  O  O22  1  0.498171  0.795816  0.700417  1
  O  O23  1  0.202247  0.498171  0.706013  1
  O  O24  1  0.283780  0.705056  0.500000  1
  O  O25  1  0.794944  0.216220  0.500000  1
  O  O26  1  0.046230  0.958939  0.500000  1
  O  O27  1  0.541061  0.453770  0.500000  1
  O  O28  1  0.750000  0.750000  0.500000  1
  O  O29  1  0.996234  0.704184  0.293987  1
  O  O30  1  0.503766  0.202247  0.299583  1
  O  O31  1  0.795816  0.503766  0.293987  1
  O  O32  1  0.297753  0.996234  0.299583  1
  O  O33  1  0.952042  0.250000  0.202042  1
  O  O34  1  0.750000  0.042003  0.207997  1
  O  O35  1  0.457997  0.750000  0.207997  1
  O  O36  1  0.250000  0.547958  0.202042  1
  O  O37  1  0.453770  0.046230  0.994832  1
  O  O38  1  0.958939  0.541061  0.005168  1
  O  O39  1  0.705056  0.794944  0.988836  1
  O  O40  1  0.216220  0.283780  0.011164  1
