# generated using pymatgen
data_Li3Fe4(BO3)4
_symmetry_space_group_name_H-M   'P 1'
_cell_length_a   5.23778167
_cell_length_b   9.03743471
_cell_length_c   11.48973960
_cell_angle_alpha   113.35305983
_cell_angle_beta   78.52483725
_cell_angle_gamma   89.38977812
_symmetry_Int_Tables_number   1
_chemical_formula_structural   Li3Fe4(BO3)4
_chemical_formula_sum   'Li6 Fe8 B8 O24'
_cell_volume   486.91614932
_cell_formula_units_Z   2
loop_
 _symmetry_equiv_pos_site_id
 _symmetry_equiv_pos_as_xyz
  1  'x, y, z'
loop_
 _atom_site_type_symbol
 _atom_site_label
 _atom_site_symmetry_multiplicity
 _atom_site_fract_x
 _atom_site_fract_y
 _atom_site_fract_z
 _atom_site_occupancy
  Li  Li0  1  0.170208  0.160000  0.333683  1
  Li  Li1  1  0.358460  0.292055  0.598861  1
  Li  Li2  1  0.609842  0.049861  0.087633  1
  Li  Li3  1  0.917991  0.425700  0.836948  1
  Li  Li4  1  0.681772  0.653791  0.331334  1
  Li  Li5  1  0.421595  0.934765  0.834302  1
  Fe  Fe6  1  0.399765  0.273793  0.874615  1
  Fe  Fe7  1  0.090605  0.238776  0.118205  1
  Fe  Fe8  1  0.839706  0.136037  0.622082  1
  Fe  Fe9  1  0.659808  0.345085  0.371855  1
  Fe  Fe10  1  0.349148  0.646453  0.621775  1
  Fe  Fe11  1  0.155406  0.845769  0.363187  1
  Fe  Fe12  1  0.908588  0.777585  0.870437  1
  Fe  Fe13  1  0.606738  0.713497  0.110440  1
  B  B14  1  0.640032  0.015123  0.373652  1
  B  B15  1  0.894471  0.106446  0.872983  1
  B  B16  1  0.151872  0.524179  0.377924  1
  B  B17  1  0.407989  0.600275  0.860814  1
  B  B18  1  0.857435  0.476377  0.623633  1
  B  B19  1  0.595005  0.388260  0.125790  1
  B  B20  1  0.342522  0.978525  0.618211  1
  B  B21  1  0.098434  0.902311  0.130292  1
  O  O22  1  0.138421  0.116115  0.902190  1
  O  O23  1  0.444754  0.127618  0.659107  1
  O  O24  1  0.230170  0.035858  0.138620  1
  O  O25  1  0.492976  0.151600  0.388854  1
  O  O26  1  0.891020  0.029695  0.399382  1
  O  O27  1  0.799587  0.216649  0.830424  1
  O  O28  1  0.266042  0.472589  0.853542  1
  O  O29  1  0.055100  0.374529  0.344356  1
  O  O30  1  0.694938  0.273101  0.165268  1
  O  O31  1  0.613800  0.467218  0.588077  1
  O  O32  1  0.977894  0.345461  0.630503  1
  O  O33  1  0.384221  0.351655  0.067894  1
  O  O34  1  0.643087  0.617347  0.901994  1
  O  O35  1  0.389458  0.547029  0.421542  1
  O  O36  1  0.317733  0.720148  0.823096  1
  O  O37  1  0.976226  0.619394  0.655105  1
  O  O38  1  0.705495  0.529118  0.148134  1
  O  O39  1  0.200349  0.791928  0.172035  1
  O  O40  1  0.137708  0.955631  0.555088  1
  O  O41  1  0.444356  0.856724  0.644100  1
  O  O42  1  0.025545  0.648906  0.365904  1
  O  O43  1  0.740999  0.989353  0.890671  1
  O  O44  1  0.543188  0.864350  0.337578  1
  O  O45  1  0.868541  0.876602  0.084450  1
