# generated using pymatgen
data_Na5Bi2As(CO4)4
_symmetry_space_group_name_H-M   'P 1'
_cell_length_a   10.53529296
_cell_length_b   10.34294388
_cell_length_c   10.53529296
_cell_angle_alpha   60.45453067
_cell_angle_beta   89.03029221
_cell_angle_gamma   119.54546933
_symmetry_Int_Tables_number   1
_chemical_formula_structural   Na5Bi2As(CO4)4
_chemical_formula_sum   'Na10 Bi4 As2 C8 O32'
_cell_volume   815.92816543
_cell_formula_units_Z   2
loop_
 _symmetry_equiv_pos_site_id
 _symmetry_equiv_pos_as_xyz
  1  'x, y, z'
loop_
 _atom_site_type_symbol
 _atom_site_label
 _atom_site_symmetry_multiplicity
 _atom_site_fract_x
 _atom_site_fract_y
 _atom_site_fract_z
 _atom_site_occupancy
  Na  Na0  1  0.924889  0.240708  0.325902  1
  Na  Na1  1  0.673794  0.357847  0.075060  1
  Na  Na2  1  0.674098  0.740708  0.075111  1
  Na  Na3  1  0.931871  0.250000  0.931871  1
  Na  Na4  1  0.924940  0.857847  0.326206  1
  Na  Na5  1  0.068129  0.750000  0.068129  1
  Na  Na6  1  0.075060  0.142153  0.673794  1
  Na  Na7  1  0.325902  0.259292  0.924889  1
  Na  Na8  1  0.326206  0.642153  0.924940  1
  Na  Na9  1  0.075111  0.759292  0.674098  1
  Bi  Bi10  1  0.500000  0.000000  0.000000  1
  Bi  Bi11  1  0.500000  0.000000  0.500000  1
  Bi  Bi12  1  0.500000  0.500000  0.500000  1
  Bi  Bi13  1  0.000000  0.500000  0.500000  1
  As  As14  1  0.126102  0.250000  0.126102  1
  As  As15  1  0.873898  0.750000  0.873898  1
  C  C16  1  0.719049  0.058894  0.722056  1
  C  C17  1  0.727569  0.446489  0.336057  1
  C  C18  1  0.336057  0.053511  0.727569  1
  C  C19  1  0.722056  0.441106  0.719049  1
  C  C20  1  0.663943  0.946489  0.272431  1
  C  C21  1  0.277944  0.558894  0.280951  1
  C  C22  1  0.280951  0.941106  0.277944  1
  C  C23  1  0.272431  0.553511  0.663943  1
  O  O24  1  0.667756  0.065462  0.140015  1
  O  O25  1  0.850628  0.184789  0.605219  1
  O  O26  1  0.713650  0.313707  0.336531  1
  O  O27  1  0.403046  0.049852  0.289967  1
  O  O28  1  0.859985  0.565462  0.332244  1
  O  O29  1  0.324899  0.389467  0.045214  1
  O  O30  1  0.057268  0.112846  0.058429  1
  O  O31  1  0.614269  0.463344  0.335890  1
  O  O32  1  0.712163  0.044596  0.853195  1
  O  O33  1  0.335890  0.036656  0.614269  1
  O  O34  1  0.853195  0.455404  0.712163  1
  O  O35  1  0.058429  0.387154  0.057268  1
  O  O36  1  0.045214  0.110533  0.324899  1
  O  O37  1  0.663469  0.813707  0.286350  1
  O  O38  1  0.394781  0.684789  0.149372  1
  O  O39  1  0.710033  0.549852  0.596954  1
  O  O40  1  0.289967  0.450148  0.403046  1
  O  O41  1  0.605219  0.315211  0.850628  1
  O  O42  1  0.336531  0.186293  0.713650  1
  O  O43  1  0.941571  0.612846  0.942731  1
  O  O44  1  0.954786  0.889467  0.675101  1
  O  O45  1  0.146805  0.544596  0.287837  1
  O  O46  1  0.664110  0.963344  0.385731  1
  O  O47  1  0.287837  0.955404  0.146805  1
  O  O48  1  0.385731  0.536656  0.664110  1
  O  O49  1  0.942731  0.887154  0.941571  1
  O  O50  1  0.675101  0.610533  0.954786  1
  O  O51  1  0.140015  0.434538  0.667756  1
  O  O52  1  0.596954  0.950148  0.710033  1
  O  O53  1  0.286350  0.686293  0.663469  1
  O  O54  1  0.149372  0.815211  0.394781  1
  O  O55  1  0.332244  0.934538  0.859985  1
