# generated using pymatgen
data_Li3Fe8(BO3)8
_symmetry_space_group_name_H-M   'P 1'
_cell_length_a   5.29696228
_cell_length_b   9.04792795
_cell_length_c   11.37743259
_cell_angle_alpha   113.75087296
_cell_angle_beta   77.20513359
_cell_angle_gamma   90.31478233
_symmetry_Int_Tables_number   1
_chemical_formula_structural   Li3Fe8(BO3)8
_chemical_formula_sum   'Li3 Fe8 B8 O24'
_cell_volume   484.56077535
_cell_formula_units_Z   1
loop_
 _symmetry_equiv_pos_site_id
 _symmetry_equiv_pos_as_xyz
  1  'x, y, z'
loop_
 _atom_site_type_symbol
 _atom_site_label
 _atom_site_symmetry_multiplicity
 _atom_site_fract_x
 _atom_site_fract_y
 _atom_site_fract_z
 _atom_site_occupancy
  Li  Li0  1  0.174556  0.157388  0.339955  1
  Li  Li1  1  0.600448  0.055278  0.091684  1
  Li  Li2  1  0.934204  0.431662  0.836781  1
  Fe  Fe3  1  0.406389  0.264118  0.870799  1
  Fe  Fe4  1  0.089770  0.228426  0.119667  1
  Fe  Fe5  1  0.845002  0.137884  0.613037  1
  Fe  Fe6  1  0.655884  0.361850  0.374940  1
  Fe  Fe7  1  0.349821  0.647400  0.628961  1
  Fe  Fe8  1  0.147390  0.832997  0.367460  1
  Fe  Fe9  1  0.904702  0.785096  0.869451  1
  Fe  Fe10  1  0.601782  0.725122  0.125024  1
  B  B11  1  0.649055  0.023169  0.365779  1
  B  B12  1  0.885487  0.114995  0.875227  1
  B  B13  1  0.142070  0.509004  0.376541  1
  B  B14  1  0.407532  0.595879  0.871369  1
  B  B15  1  0.854364  0.482613  0.623946  1
  B  B16  1  0.599003  0.394385  0.122826  1
  B  B17  1  0.346411  0.980596  0.623857  1
  B  B18  1  0.107867  0.892272  0.123788  1
  O  O19  1  0.118399  0.147617  0.912102  1
  O  O20  1  0.471521  0.123945  0.667119  1
  O  O21  1  0.220575  0.034464  0.138962  1
  O  O22  1  0.530445  0.156124  0.361782  1
  O  O23  1  0.877177  0.039950  0.413008  1
  O  O24  1  0.794186  0.217143  0.823350  1
  O  O25  1  0.285263  0.459327  0.866762  1
  O  O26  1  0.038927  0.355190  0.337764  1
  O  O27  1  0.690389  0.293871  0.176196  1
  O  O28  1  0.638453  0.476729  0.571388  1
  O  O29  1  0.938206  0.351233  0.640722  1
  O  O30  1  0.395919  0.341570  0.062764  1
  O  O31  1  0.637985  0.627576  0.916648  1
  O  O32  1  0.362909  0.519726  0.427992  1
  O  O33  1  0.302713  0.697985  0.826389  1
  O  O34  1  0.975023  0.624369  0.663658  1
  O  O35  1  0.714762  0.528807  0.125129  1
  O  O36  1  0.226395  0.776829  0.150578  1
  O  O37  1  0.129063  0.983417  0.575381  1
  O  O38  1  0.441635  0.845698  0.629032  1
  O  O39  1  0.032725  0.630343  0.363274  1
  O  O40  1  0.746461  0.998955  0.898702  1
  O  O41  1  0.545824  0.875442  0.321839  1
  O  O42  1  0.868602  0.868483  0.086968  1
