# generated using pymatgen
data_Na2Ti7O15
_symmetry_space_group_name_H-M   'P 1'
_cell_length_a   7.88110854
_cell_length_b   7.54106823
_cell_length_c   21.37322930
_cell_angle_alpha   89.99745789
_cell_angle_beta   95.69746077
_cell_angle_gamma   76.16211319
_symmetry_Int_Tables_number   1
_chemical_formula_structural   Na2Ti7O15
_chemical_formula_sum   'Na8 Ti28 O60'
_cell_volume   1226.92085696
_cell_formula_units_Z   4
loop_
 _symmetry_equiv_pos_site_id
 _symmetry_equiv_pos_as_xyz
  1  'x, y, z'
loop_
 _atom_site_type_symbol
 _atom_site_label
 _atom_site_symmetry_multiplicity
 _atom_site_fract_x
 _atom_site_fract_y
 _atom_site_fract_z
 _atom_site_occupancy
  Na  Na0  1  0.067836  0.483249  0.602823  1
  Na  Na1  1  0.068503  0.982692  0.602017  1
  Na  Na2  1  0.997771  0.000433  0.996737  1
  Na  Na3  1  0.002229  0.499567  0.003263  1
  Na  Na4  1  0.129594  0.967653  0.184255  1
  Na  Na5  1  0.870406  0.532347  0.815745  1
  Na  Na6  1  0.932164  0.016751  0.397177  1
  Na  Na7  1  0.931497  0.517308  0.397983  1
  Ti  Ti8  1  0.194885  0.200659  0.757262  1
  Ti  Ti9  1  0.196397  0.701714  0.757251  1
  Ti  Ti10  1  0.281860  0.679001  0.900821  1
  Ti  Ti11  1  0.281625  0.180159  0.901323  1
  Ti  Ti12  1  0.246586  0.687948  0.327748  1
  Ti  Ti13  1  0.247550  0.188561  0.327740  1
  Ti  Ti14  1  0.333671  0.166598  0.473307  1
  Ti  Ti15  1  0.333795  0.666418  0.473426  1
  Ti  Ti16  1  0.506275  0.372534  0.812372  1
  Ti  Ti17  1  0.507996  0.873970  0.812845  1
  Ti  Ti18  1  0.445191  0.638917  0.616851  1
  Ti  Ti19  1  0.444109  0.138873  0.616665  1
  Ti  Ti20  1  0.609263  0.847139  0.955907  1
  Ti  Ti21  1  0.609210  0.348547  0.955164  1
  Ti  Ti22  1  0.390790  0.151453  0.044836  1
  Ti  Ti23  1  0.390737  0.652861  0.044093  1
  Ti  Ti24  1  0.555891  0.361127  0.383335  1
  Ti  Ti25  1  0.554809  0.861083  0.383149  1
  Ti  Ti26  1  0.493725  0.127466  0.187628  1
  Ti  Ti27  1  0.492004  0.626030  0.187155  1
  Ti  Ti28  1  0.666329  0.333402  0.526694  1
  Ti  Ti29  1  0.666205  0.833582  0.526574  1
  Ti  Ti30  1  0.752450  0.311439  0.672260  1
  Ti  Ti31  1  0.753414  0.812052  0.672252  1
  Ti  Ti32  1  0.718375  0.319841  0.098677  1
  Ti  Ti33  1  0.718140  0.820999  0.099179  1
  Ti  Ti34  1  0.805115  0.299341  0.242738  1
  Ti  Ti35  1  0.803603  0.798286  0.242749  1
  O  O36  1  0.099614  0.238443  0.842939  1
  O  O37  1  0.099334  0.711767  0.842859  1
  O  O38  1  0.194968  0.700989  0.982116  1
  O  O39  1  0.195081  0.201595  0.982119  1
  O  O40  1  0.024425  0.751798  0.285553  1
  O  O41  1  0.024794  0.235629  0.285556  1
  O  O42  1  0.253497  0.937029  0.767987  1
  O  O43  1  0.256335  0.435567  0.767143  1
  O  O44  1  0.147811  0.213904  0.412774  1
  O  O45  1  0.147763  0.712249  0.412868  1
  O  O46  1  0.359362  0.409994  0.902648  1
  O  O47  1  0.355515  0.911361  0.901870  1
  O  O48  1  0.249163  0.187591  0.551685  1
  O  O49  1  0.249790  0.687583  0.551762  1
  O  O50  1  0.311995  0.672371  0.680229  1
  O  O51  1  0.312101  0.171620  0.680291  1
  O  O52  1  0.301970  0.424533  0.336952  1
  O  O53  1  0.301335  0.924564  0.338214  1
  O  O54  1  0.440773  0.139629  0.823037  1
  O  O55  1  0.437649  0.640868  0.822764  1
  O  O56  1  0.407931  0.397957  0.470350  1
  O  O57  1  0.407571  0.898099  0.470353  1
  O  O58  1  0.303753  0.687759  0.119876  1
  O  O59  1  0.303216  0.160438  0.120036  1
  O  O60  1  0.542619  0.614221  0.962954  1
  O  O61  1  0.545578  0.113729  0.961238  1
  O  O62  1  0.366614  0.150143  0.251513  1
  O  O63  1  0.366203  0.666606  0.251373  1
  O  O64  1  0.510323  0.372259  0.608701  1
  O  O65  1  0.510164  0.872709  0.608650  1
  O  O66  1  0.489836  0.627291  0.391350  1
  O  O67  1  0.489677  0.127741  0.391299  1
  O  O68  1  0.633797  0.833394  0.748627  1
  O  O69  1  0.633386  0.349857  0.748487  1
  O  O70  1  0.454422  0.386271  0.038762  1
  O  O71  1  0.457381  0.885779  0.037046  1
  O  O72  1  0.696247  0.812241  0.880124  1
  O  O73  1  0.696784  0.339562  0.879964  1
  O  O74  1  0.592069  0.102043  0.529650  1
  O  O75  1  0.592429  0.601901  0.529647  1
  O  O76  1  0.562351  0.859132  0.177236  1
  O  O77  1  0.559227  0.360371  0.176963  1
  O  O78  1  0.698030  0.075467  0.663048  1
  O  O79  1  0.698665  0.575436  0.661786  1
  O  O80  1  0.687899  0.328380  0.319709  1
  O  O81  1  0.688005  0.827629  0.319771  1
  O  O82  1  0.750837  0.312409  0.448315  1
  O  O83  1  0.750210  0.812417  0.448238  1
  O  O84  1  0.644485  0.588639  0.098130  1
  O  O85  1  0.640638  0.090006  0.097352  1
  O  O86  1  0.852237  0.787751  0.587132  1
  O  O87  1  0.852189  0.286096  0.587226  1
  O  O88  1  0.746503  0.562971  0.232013  1
  O  O89  1  0.743665  0.064433  0.232857  1
  O  O90  1  0.975206  0.264371  0.714444  1
  O  O91  1  0.975575  0.748202  0.714447  1
  O  O92  1  0.804919  0.298405  0.017881  1
  O  O93  1  0.805032  0.799011  0.017884  1
  O  O94  1  0.900666  0.788233  0.157141  1
  O  O95  1  0.900386  0.261557  0.157061  1
