# generated using pymatgen
data_LiMn(PO3)3
_symmetry_space_group_name_H-M   'P 1'
_cell_length_a   10.30487347
_cell_length_b   11.74210802
_cell_length_c   5.39371599
_cell_angle_alpha   90.00000000
_cell_angle_beta   90.00000000
_cell_angle_gamma   90.00000000
_symmetry_Int_Tables_number   1
_chemical_formula_structural   LiMn(PO3)3
_chemical_formula_sum   'Li4 Mn4 P12 O36'
_cell_volume   652.64469095
_cell_formula_units_Z   4
loop_
 _symmetry_equiv_pos_site_id
 _symmetry_equiv_pos_as_xyz
  1  'x, y, z'
loop_
 _atom_site_type_symbol
 _atom_site_label
 _atom_site_symmetry_multiplicity
 _atom_site_fract_x
 _atom_site_fract_y
 _atom_site_fract_z
 _atom_site_occupancy
  Li  Li0  1  0.037887  0.863684  0.573596  1
  Li  Li1  1  0.462112  0.136316  0.073596  1
  Li  Li2  1  0.537887  0.636316  0.426404  1
  Li  Li3  1  0.962113  0.363684  0.926404  1
  Mn  Mn4  1  0.109478  0.089135  0.109581  1
  Mn  Mn5  1  0.390522  0.910865  0.609581  1
  Mn  Mn6  1  0.609478  0.410865  0.890419  1
  Mn  Mn7  1  0.890522  0.589135  0.390419  1
  P  P8  1  0.076904  0.622538  0.882421  1
  P  P9  1  0.139813  0.366016  0.379479  1
  P  P10  1  0.214762  0.817001  0.092166  1
  P  P11  1  0.285238  0.182999  0.592166  1
  P  P12  1  0.360187  0.633984  0.879479  1
  P  P13  1  0.423096  0.377462  0.382421  1
  P  P14  1  0.576904  0.877462  0.117579  1
  P  P15  1  0.639813  0.133984  0.620521  1
  P  P16  1  0.714762  0.682999  0.907834  1
  P  P17  1  0.785238  0.317001  0.407834  1
  P  P18  1  0.860187  0.866016  0.120521  1
  P  P19  1  0.923096  0.122538  0.617579  1
  O  O20  1  0.987401  0.541772  0.015471  1
  O  O21  1  0.036351  0.669015  0.633479  1
  O  O22  1  0.040212  0.444607  0.487687  1
  O  O23  1  0.095423  0.728565  0.073015  1
  O  O24  1  0.117220  0.305527  0.138367  1
  O  O25  1  0.165989  0.270769  0.593699  1
  O  O26  1  0.209376  0.874655  0.340904  1
  O  O27  1  0.218423  0.890372  0.861234  1
  O  O28  1  0.220606  0.568495  0.874852  1
  O  O29  1  0.279394  0.431505  0.374852  1
  O  O30  1  0.281577  0.109628  0.361234  1
  O  O31  1  0.290624  0.125345  0.840904  1
  O  O32  1  0.334011  0.729231  0.093699  1
  O  O33  1  0.382780  0.694473  0.638367  1
  O  O34  1  0.404577  0.271435  0.573015  1
  O  O35  1  0.459788  0.555393  0.987687  1
  O  O36  1  0.463649  0.330985  0.133479  1
  O  O37  1  0.512599  0.458228  0.515471  1
  O  O38  1  0.487401  0.958228  0.984529  1
  O  O39  1  0.536351  0.830985  0.366521  1
  O  O40  1  0.540212  0.055393  0.512313  1
  O  O41  1  0.595423  0.771435  0.926985  1
  O  O42  1  0.617220  0.194473  0.861633  1
  O  O43  1  0.665989  0.229231  0.406301  1
  O  O44  1  0.709376  0.625345  0.659096  1
  O  O45  1  0.718423  0.609628  0.138766  1
  O  O46  1  0.720606  0.931505  0.125148  1
  O  O47  1  0.779394  0.068495  0.625148  1
  O  O48  1  0.781577  0.390372  0.638766  1
  O  O49  1  0.790624  0.374655  0.159096  1
  O  O50  1  0.834011  0.770769  0.906301  1
  O  O51  1  0.882780  0.805527  0.361633  1
  O  O52  1  0.904577  0.228565  0.426985  1
  O  O53  1  0.959788  0.944607  0.012313  1
  O  O54  1  0.963649  0.169015  0.866521  1
  O  O55  1  0.012599  0.041772  0.484529  1
