# generated using pymatgen
data_FeH4(SO5)2
_symmetry_space_group_name_H-M   'P 1'
_cell_length_a   7.47145652
_cell_length_b   10.50681316
_cell_length_c   6.54559772
_cell_angle_alpha   71.59584025
_cell_angle_beta   113.15279054
_cell_angle_gamma   109.34809145
_symmetry_Int_Tables_number   1
_chemical_formula_structural   FeH4(SO5)2
_chemical_formula_sum   'Fe2 H8 S4 O20'
_cell_volume   435.46545829
_cell_formula_units_Z   2
loop_
 _symmetry_equiv_pos_site_id
 _symmetry_equiv_pos_as_xyz
  1  'x, y, z'
loop_
 _atom_site_type_symbol
 _atom_site_label
 _atom_site_symmetry_multiplicity
 _atom_site_fract_x
 _atom_site_fract_y
 _atom_site_fract_z
 _atom_site_occupancy
  Fe  Fe0  1  0.480264  0.750999  0.751364  1
  Fe  Fe1  1  0.519736  0.249001  0.248636  1
  H  H2  1  0.198772  0.791194  0.869347  1
  H  H3  1  0.082863  0.711868  0.659863  1
  H  H4  1  0.178465  0.299500  0.139993  1
  H  H5  1  0.159429  0.136598  0.267202  1
  H  H6  1  0.840571  0.863402  0.732798  1
  H  H7  1  0.821535  0.700500  0.860007  1
  H  H8  1  0.917137  0.288132  0.340137  1
  H  H9  1  0.801228  0.208805  0.130653  1
  S  S10  1  0.275722  0.926294  0.247837  1
  S  S11  1  0.269697  0.418482  0.769139  1
  S  S12  1  0.730303  0.581518  0.230861  1
  S  S13  1  0.724278  0.073706  0.752163  1
  O  O14  1  0.147933  0.954752  0.340594  1
  O  O15  1  0.210616  0.734869  0.781019  1
  O  O16  1  0.158508  0.428603  0.902289  1
  O  O17  1  0.165369  0.876184  0.036626  1
  O  O18  1  0.140696  0.366155  0.563646  1
  O  O19  1  0.566368  0.944313  0.799784  1
  O  O20  1  0.383852  0.817803  0.414560  1
  O  O21  1  0.395763  0.558826  0.695707  1
  O  O22  1  0.410412  0.324199  0.911151  1
  O  O23  1  0.244278  0.231837  0.271337  1
  O  O24  1  0.755722  0.768163  0.728663  1
  O  O25  1  0.589588  0.675801  0.088849  1
  O  O26  1  0.604237  0.441174  0.304293  1
  O  O27  1  0.616148  0.182197  0.585440  1
  O  O28  1  0.433632  0.055687  0.200216  1
  O  O29  1  0.859304  0.633845  0.436354  1
  O  O30  1  0.834631  0.123816  0.963374  1
  O  O31  1  0.841492  0.571397  0.097711  1
  O  O32  1  0.789384  0.265131  0.218981  1
  O  O33  1  0.852067  0.045248  0.659406  1
