# generated using pymatgen
data_Mn12O17F7
_symmetry_space_group_name_H-M   'P 1'
_cell_length_a   4.56980837
_cell_length_b   5.57819119
_cell_length_c   15.10623642
_cell_angle_alpha   90.01769791
_cell_angle_beta   88.81868998
_cell_angle_gamma   89.21421200
_symmetry_Int_Tables_number   1
_chemical_formula_structural   Mn12O17F7
_chemical_formula_sum   'Mn12 O17 F7'
_cell_volume   384.95895533
_cell_formula_units_Z   1
loop_
 _symmetry_equiv_pos_site_id
 _symmetry_equiv_pos_as_xyz
  1  'x, y, z'
loop_
 _atom_site_type_symbol
 _atom_site_label
 _atom_site_symmetry_multiplicity
 _atom_site_fract_x
 _atom_site_fract_y
 _atom_site_fract_z
 _atom_site_occupancy
  Mn  Mn0  1  0.021480  0.164864  0.410575  1
  Mn  Mn1  1  0.016151  0.832293  0.245732  1
  Mn  Mn2  1  0.014027  0.165104  0.082211  1
  Mn  Mn3  1  0.025524  0.165152  0.743458  1
  Mn  Mn4  1  0.016437  0.837133  0.576678  1
  Mn  Mn5  1  0.041772  0.844568  0.915499  1
  Mn  Mn6  1  0.494121  0.361038  0.586569  1
  Mn  Mn7  1  0.486559  0.353639  0.924329  1
  Mn  Mn8  1  0.491289  0.363831  0.255058  1
  Mn  Mn9  1  0.494645  0.634484  0.088748  1
  Mn  Mn10  1  0.493945  0.634060  0.420712  1
  Mn  Mn11  1  0.482680  0.636591  0.748788  1
  O  O12  1  0.228107  0.109376  0.300522  1
  O  O13  1  0.228974  0.109715  0.631589  1
  O  O14  1  0.222502  0.109948  0.972253  1
  O  O15  1  0.226975  0.886147  0.136328  1
  O  O16  1  0.229894  0.888388  0.466789  1
  O  O17  1  0.238039  0.893606  0.798621  1
  O  O18  1  0.275487  0.400216  0.148525  1
  O  O19  1  0.273770  0.598360  0.315541  1
  O  O20  1  0.276089  0.400174  0.480537  1
  O  O21  1  0.269384  0.599603  0.645191  1
  O  O22  1  0.275574  0.405926  0.814437  1
  O  O23  1  0.277659  0.604918  0.981719  1
  O  O24  1  0.727495  0.386898  0.027956  1
  O  O25  1  0.725666  0.610990  0.194878  1
  O  O26  1  0.726668  0.384059  0.360565  1
  O  O27  1  0.725707  0.613220  0.526826  1
  O  O28  1  0.720882  0.383551  0.693329  1
  F  F29  1  0.739433  0.629007  0.857292  1
  F  F30  1  0.750741  0.125454  0.192444  1
  F  F31  1  0.755350  0.127315  0.523105  1
  F  F32  1  0.755500  0.870263  0.357974  1
  F  F33  1  0.748693  0.872670  0.026709  1
  F  F34  1  0.764862  0.126312  0.859183  1
  F  F35  1  0.757921  0.871127  0.689330  1
