# generated using pymatgen
data_K2FeH4(SO5)2
_symmetry_space_group_name_H-M   'P 1'
_cell_length_a   7.74467127
_cell_length_b   11.16349621
_cell_length_c   6.72906372
_cell_angle_alpha   110.21233690
_cell_angle_beta   110.04045881
_cell_angle_gamma   95.41515614
_symmetry_Int_Tables_number   1
_chemical_formula_structural   K2FeH4(SO5)2
_chemical_formula_sum   'K4 Fe2 H8 S4 O20'
_cell_volume   497.73367378
_cell_formula_units_Z   2
loop_
 _symmetry_equiv_pos_site_id
 _symmetry_equiv_pos_as_xyz
  1  'x, y, z'
loop_
 _atom_site_type_symbol
 _atom_site_label
 _atom_site_symmetry_multiplicity
 _atom_site_fract_x
 _atom_site_fract_y
 _atom_site_fract_z
 _atom_site_occupancy
  K  K0  1  0.254082  0.081734  0.790760  1
  K  K1  1  0.752486  0.420539  0.181497  1
  K  K2  1  0.750496  0.913616  0.173858  1
  K  K3  1  0.208398  0.577057  0.790345  1
  Fe  Fe4  1  0.569342  0.260338  0.490714  1
  Fe  Fe5  1  0.452026  0.756655  0.487714  1
  H  H6  1  0.224541  0.130733  0.394764  1
  H  H7  1  0.207135  0.278228  0.422616  1
  H  H8  1  0.773823  0.197939  0.288391  1
  H  H9  1  0.355643  0.319246  0.166800  1
  H  H10  1  0.801560  0.855403  0.586019  1
  H  H11  1  0.787963  0.706860  0.573510  1
  H  H12  1  0.161650  0.790160  0.652830  1
  H  H13  1  0.067851  0.723220  0.370768  1
  S  S14  1  0.709528  0.069007  0.784310  1
  S  S15  1  0.194200  0.440486  0.160592  1
  S  S16  1  0.267283  0.916333  0.141344  1
  S  S17  1  0.711717  0.587189  0.808235  1
  O  O18  1  0.549101  0.954645  0.720616  1
  O  O19  1  0.823985  0.120502  0.035766  1
  O  O20  1  0.825321  0.024467  0.649729  1
  O  O21  1  0.617553  0.173948  0.731187  1
  O  O22  1  0.470856  0.285065  0.205535  1
  O  O23  1  0.141201  0.432437  0.349114  1
  O  O24  1  0.033176  0.411322  0.941114  1
  O  O25  1  0.341951  0.562361  0.232083  1
  O  O26  1  0.286608  0.227576  0.491735  1
  O  O27  1  0.789806  0.245247  0.449328  1
  O  O28  1  0.430069  0.021668  0.194488  1
  O  O29  1  0.136601  0.866717  0.891272  1
  O  O30  1  0.161890  0.969462  0.288808  1
  O  O31  1  0.339422  0.803607  0.184581  1
  O  O32  1  0.562071  0.662789  0.759514  1
  O  O33  1  0.821018  0.585452  0.663380  1
  O  O34  1  0.833482  0.646661  0.058759  1
  O  O35  1  0.612614  0.446383  0.744942  1
  O  O36  1  0.730707  0.762074  0.490050  1
  O  O37  1  0.179203  0.736079  0.509023  1
