# generated using pymatgen
data_LiFe2(PO4)2
_symmetry_space_group_name_H-M   'P 1'
_cell_length_a   10.40377449
_cell_length_b   6.88829825
_cell_length_c   5.19353645
_cell_angle_alpha   90.00000000
_cell_angle_beta   89.05783142
_cell_angle_gamma   90.00000000
_symmetry_Int_Tables_number   1
_chemical_formula_structural   LiFe2(PO4)2
_chemical_formula_sum   'Li2 Fe4 P4 O16'
_cell_volume   372.14084324
_cell_formula_units_Z   2
loop_
 _symmetry_equiv_pos_site_id
 _symmetry_equiv_pos_as_xyz
  1  'x, y, z'
loop_
 _atom_site_type_symbol
 _atom_site_label
 _atom_site_symmetry_multiplicity
 _atom_site_fract_x
 _atom_site_fract_y
 _atom_site_fract_z
 _atom_site_occupancy
  Li  Li0  1  0.359826  0.498997  0.738041  1
  Li  Li1  1  0.859826  0.001003  0.738041  1
  Fe  Fe2  1  0.164206  0.477244  0.241887  1
  Fe  Fe3  1  0.326140  0.003277  0.753641  1
  Fe  Fe4  1  0.664206  0.022756  0.241887  1
  Fe  Fe5  1  0.826140  0.496723  0.753641  1
  P  P6  1  0.090487  0.736502  0.747760  1
  P  P7  1  0.403724  0.230362  0.254343  1
  P  P8  1  0.590487  0.763498  0.747760  1
  P  P9  1  0.903724  0.269638  0.254343  1
  O  O10  1  0.052063  0.260588  0.203172  1
  O  O11  1  0.120639  0.687751  0.034706  1
  O  O12  1  0.163167  0.568527  0.591964  1
  O  O13  1  0.147393  0.933099  0.677058  1
  O  O14  1  0.339089  0.413789  0.121469  1
  O  O15  1  0.350351  0.044956  0.137392  1
  O  O16  1  0.373465  0.246553  0.548376  1
  O  O17  1  0.444791  0.763753  0.695724  1
  O  O18  1  0.552063  0.239412  0.203172  1
  O  O19  1  0.620639  0.812249  0.034706  1
  O  O20  1  0.663167  0.931473  0.591964  1
  O  O21  1  0.647393  0.566901  0.677058  1
  O  O22  1  0.839089  0.086211  0.121469  1
  O  O23  1  0.850351  0.455044  0.137392  1
  O  O24  1  0.873465  0.253447  0.548376  1
  O  O25  1  0.944791  0.736247  0.695724  1
