# generated using pymatgen
data_Li6CoNiP2(CO7)2
_symmetry_space_group_name_H-M   'P 1'
_cell_length_a   8.38648292
_cell_length_b   4.98143683
_cell_length_c   6.43172288
_cell_angle_alpha   90.00000000
_cell_angle_beta   90.00000000
_cell_angle_gamma   85.30351174
_symmetry_Int_Tables_number   1
_chemical_formula_structural   Li6CoNiP2(CO7)2
_chemical_formula_sum   'Li6 Co1 Ni1 P2 C2 O14'
_cell_volume   267.79420870
_cell_formula_units_Z   1
loop_
 _symmetry_equiv_pos_site_id
 _symmetry_equiv_pos_as_xyz
  1  'x, y, z'
loop_
 _atom_site_type_symbol
 _atom_site_label
 _atom_site_symmetry_multiplicity
 _atom_site_fract_x
 _atom_site_fract_y
 _atom_site_fract_z
 _atom_site_occupancy
  Li  Li0  1  0.095909  0.762424  0.250000  1
  Li  Li1  1  0.276218  0.246146  0.022019  1
  Li  Li2  1  0.276218  0.246146  0.477981  1
  Li  Li3  1  0.724111  0.752329  0.521119  1
  Li  Li4  1  0.724111  0.752329  0.978881  1
  Li  Li5  1  0.903995  0.237596  0.750000  1
  Co  Co6  1  0.666694  0.208929  0.250000  1
  Ni  Ni7  1  0.331880  0.793279  0.750000  1
  P  P8  1  0.412843  0.719360  0.250000  1
  P  P9  1  0.585352  0.279771  0.750000  1
  C  C10  1  0.038510  0.704558  0.750000  1
  C  C11  1  0.963503  0.296311  0.250000  1
  O  O12  1  0.075089  0.952067  0.750000  1
  O  O13  1  0.110782  0.357537  0.250000  1
  O  O14  1  0.155001  0.514818  0.750000  1
  O  O15  1  0.308169  0.824838  0.062359  1
  O  O16  1  0.308169  0.824838  0.437641  1
  O  O17  1  0.418528  0.170646  0.750000  1
  O  O18  1  0.432871  0.404983  0.250000  1
  O  O19  1  0.562591  0.594029  0.750000  1
  O  O20  1  0.581069  0.824388  0.250000  1
  O  O21  1  0.691304  0.176290  0.937077  1
  O  O22  1  0.691304  0.176290  0.562923  1
  O  O23  1  0.847908  0.488386  0.250000  1
  O  O24  1  0.891181  0.642441  0.750000  1
  O  O25  1  0.926691  0.049271  0.250000  1
