# generated using pymatgen
data_Li24Ti5Cr7O36
_symmetry_space_group_name_H-M   'P 1'
_cell_length_a   5.05217313
_cell_length_b   13.41488003
_cell_length_c   9.78099574
_cell_angle_alpha   97.28461062
_cell_angle_beta   94.65969414
_cell_angle_gamma   100.89067878
_symmetry_Int_Tables_number   1
_chemical_formula_structural   Li24Ti5Cr7O36
_chemical_formula_sum   'Li24 Ti5 Cr7 O36'
_cell_volume   641.93024624
_cell_formula_units_Z   1
loop_
 _symmetry_equiv_pos_site_id
 _symmetry_equiv_pos_as_xyz
  1  'x, y, z'
loop_
 _atom_site_type_symbol
 _atom_site_label
 _atom_site_symmetry_multiplicity
 _atom_site_fract_x
 _atom_site_fract_y
 _atom_site_fract_z
 _atom_site_occupancy
  Li  Li0  1  0.832038  0.167234  0.999065  1
  Li  Li1  1  0.952036  0.385836  0.998095  1
  Li  Li2  1  0.998031  0.750794  0.250809  1
  Li  Li3  1  0.667993  0.082913  0.249479  1
  Li  Li4  1  0.953409  0.888063  0.501187  1
  Li  Li5  1  0.627771  0.221219  0.499489  1
  Li  Li6  1  0.833529  0.667497  0.499484  1
  Li  Li7  1  0.500789  0.000329  0.498806  1
  Li  Li8  1  0.711651  0.444216  0.497228  1
  Li  Li9  1  0.667371  0.583540  0.749744  1
  Li  Li10  1  0.490831  0.500015  0.003033  1
  Li  Li11  1  0.720433  0.948871  0.001642  1
  Li  Li12  1  0.386294  0.281889  0.003233  1
  Li  Li13  1  0.617290  0.719242  0.001995  1
  Li  Li14  1  0.277015  0.050913  0.998058  1
  Li  Li15  1  0.335567  0.417502  0.250001  1
  Li  Li16  1  0.293825  0.555817  0.501451  1
  Li  Li17  1  0.157874  0.334295  0.501181  1
  Li  Li18  1  0.376017  0.777222  0.498709  1
  Li  Li19  1  0.043557  0.112298  0.501388  1
  Li  Li20  1  0.331839  0.915464  0.749604  1
  Li  Li21  1  0.175147  0.832771  0.998177  1
  Li  Li22  1  0.998012  0.250099  0.750038  1
  Li  Li23  1  0.047189  0.612613  0.998218  1
  Ti  Ti24  1  0.882252  0.526171  0.242415  1
  Ti  Ti25  1  0.781733  0.806760  0.752730  1
  Ti  Ti26  1  0.558926  0.361683  0.753138  1
  Ti  Ti27  1  0.438896  0.138822  0.745211  1
  Ti  Ti28  1  0.227391  0.191682  0.255131  1
  Cr  Cr29  1  0.883617  0.026836  0.750944  1
  Cr  Cr30  1  0.784580  0.305823  0.249215  1
  Cr  Cr31  1  0.560726  0.864815  0.252879  1
  Cr  Cr32  1  0.438109  0.641942  0.251705  1
  Cr  Cr33  1  0.219080  0.692638  0.746942  1
  Cr  Cr34  1  0.117649  0.474660  0.750993  1
  Cr  Cr35  1  0.108558  0.967971  0.248149  1
  O  O36  1  0.001190  0.068741  0.138304  1
  O  O37  1  0.931546  0.213280  0.366801  1
  O  O38  1  0.000290  0.575970  0.637969  1
  O  O39  1  0.860273  0.359417  0.638089  1
  O  O40  1  0.734321  0.119228  0.633467  1
  O  O41  1  0.661133  0.405288  0.134451  1
  O  O42  1  0.938454  0.713639  0.865566  1
  O  O43  1  0.813911  0.478636  0.861277  1
  O  O44  1  0.603248  0.046708  0.864578  1
  O  O45  1  0.866544  0.858375  0.137609  1
  O  O46  1  0.735834  0.620798  0.135839  1
  O  O47  1  0.527843  0.190521  0.138068  1
  O  O48  1  0.665319  0.261964  0.863745  1
  O  O49  1  0.800007  0.974515  0.362159  1
  O  O50  1  0.595710  0.550957  0.364478  1
  O  O51  1  0.481522  0.310563  0.361658  1
  O  O52  1  0.667809  0.766227  0.362992  1
  O  O53  1  0.333269  0.092511  0.363019  1
  O  O54  1  0.668643  0.907809  0.638722  1
  O  O55  1  0.332469  0.237867  0.634847  1
  O  O56  1  0.520072  0.689262  0.638858  1
  O  O57  1  0.395531  0.453399  0.634635  1
  O  O58  1  0.184642  0.021529  0.637945  1
  O  O59  1  0.336368  0.736832  0.140405  1
  O  O60  1  0.473359  0.807776  0.862473  1
  O  O61  1  0.264252  0.380929  0.866258  1
  O  O62  1  0.137852  0.141560  0.861571  1
  O  O63  1  0.409663  0.947444  0.134893  1
  O  O64  1  0.187458  0.522895  0.135973  1
  O  O65  1  0.062804  0.285100  0.135387  1
  O  O66  1  0.334397  0.591944  0.861014  1
  O  O67  1  0.254807  0.883951  0.364193  1
  O  O68  1  0.152178  0.644666  0.363361  1
  O  O69  1  0.996672  0.425600  0.361504  1
  O  O70  1  0.068207  0.786114  0.632875  1
  O  O71  1  0.005381  0.927532  0.865453  1
