# generated using pymatgen
data_Li8TiMn3(PO4)6
_symmetry_space_group_name_H-M   'P 1'
_cell_length_a   9.03550797
_cell_length_b   9.03544330
_cell_length_c   8.92071042
_cell_angle_alpha   59.57395819
_cell_angle_beta   59.57344844
_cell_angle_gamma   59.99976321
_symmetry_Int_Tables_number   1
_chemical_formula_structural   Li8TiMn3(PO4)6
_chemical_formula_sum   'Li8 Ti1 Mn3 P6 O24'
_cell_volume   511.63128200
_cell_formula_units_Z   1
loop_
 _symmetry_equiv_pos_site_id
 _symmetry_equiv_pos_as_xyz
  1  'x, y, z'
loop_
 _atom_site_type_symbol
 _atom_site_label
 _atom_site_symmetry_multiplicity
 _atom_site_fract_x
 _atom_site_fract_y
 _atom_site_fract_z
 _atom_site_occupancy
  Li  Li0  1  0.034587  0.034576  0.896260  1
  Li  Li1  1  0.198030  0.763473  0.681065  1
  Li  Li2  1  0.357440  0.198017  0.681057  1
  Li  Li3  1  0.763415  0.357453  0.681090  1
  Li  Li4  1  0.526307  0.526338  0.421044  1
  Li  Li5  1  0.276315  0.680636  0.177361  1
  Li  Li6  1  0.680633  0.865707  0.177364  1
  Li  Li7  1  0.865714  0.276269  0.177353  1
  Ti  Ti8  1  0.850947  0.850940  0.447178  1
  Mn  Mn9  1  0.161393  0.161432  0.515758  1
  Mn  Mn10  1  0.657251  0.657214  0.028312  1
  Mn  Mn11  1  0.351801  0.351808  0.944579  1
  P  P12  1  0.046357  0.450973  0.749822  1
  P  P13  1  0.450980  0.752851  0.749813  1
  P  P14  1  0.752856  0.046331  0.749840  1
  P  P15  1  0.245145  0.940698  0.257979  1
  P  P16  1  0.556185  0.245143  0.257962  1
  P  P17  1  0.940664  0.556191  0.257994  1
  O  O18  1  0.077878  0.268580  0.743058  1
  O  O19  1  0.976166  0.616993  0.591721  1
  O  O20  1  0.230889  0.450173  0.721959  1
  O  O21  1  0.465079  0.695306  0.937448  1
  O  O22  1  0.268597  0.910499  0.743065  1
  O  O23  1  0.450167  0.596994  0.721957  1
  O  O24  1  0.695338  0.902155  0.937441  1
  O  O25  1  0.596978  0.230879  0.721983  1
  O  O26  1  0.203045  0.956746  0.440985  1
  O  O27  1  0.085303  0.904483  0.267732  1
  O  O28  1  0.902172  0.465052  0.937449  1
  O  O29  1  0.399222  0.203042  0.440974  1
  O  O30  1  0.617006  0.815117  0.591721  1
  O  O31  1  0.113119  0.524295  0.092689  1
  O  O32  1  0.910498  0.077854  0.743068  1
  O  O33  1  0.815125  0.976160  0.591720  1
  O  O34  1  0.406898  0.762272  0.244707  1
  O  O35  1  0.269869  0.113143  0.092667  1
  O  O36  1  0.586112  0.406906  0.244722  1
  O  O37  1  0.742488  0.085308  0.267737  1
  O  O38  1  0.524348  0.269873  0.092655  1
  O  O39  1  0.956702  0.399238  0.441018  1
  O  O40  1  0.762248  0.586135  0.244729  1
  O  O41  1  0.904485  0.742487  0.267726  1
