# generated using pymatgen
data_NaCaMgAl(SiO3)4
_symmetry_space_group_name_H-M   'P 1'
_cell_length_a   7.98546845
_cell_length_b   7.92317942
_cell_length_c   7.58794079
_cell_angle_alpha   90.00000000
_cell_angle_beta   104.46726526
_cell_angle_gamma   90.00000000
_symmetry_Int_Tables_number   1
_chemical_formula_structural   NaCaMgAl(SiO3)4
_chemical_formula_sum   'Na2 Ca2 Mg2 Al2 Si8 O24'
_cell_volume   464.86784540
_cell_formula_units_Z   2
loop_
 _symmetry_equiv_pos_site_id
 _symmetry_equiv_pos_as_xyz
  1  'x, y, z'
loop_
 _atom_site_type_symbol
 _atom_site_label
 _atom_site_symmetry_multiplicity
 _atom_site_fract_x
 _atom_site_fract_y
 _atom_site_fract_z
 _atom_site_occupancy
  Na  Na0  1  0.043788  0.793680  0.364224  1
  Na  Na1  1  0.043788  0.206320  0.864224  1
  Ca  Ca2  1  0.217483  0.840786  0.980035  1
  Ca  Ca3  1  0.217483  0.159214  0.480035  1
  Mg  Mg4  1  0.808661  0.901023  0.616090  1
  Mg  Mg5  1  0.808661  0.098977  0.116090  1
  Al  Al6  1  0.427144  0.870522  0.475903  1
  Al  Al7  1  0.427144  0.129478  -0.024097  1
  Si  Si8  1  0.834759  0.748713  0.964876  1
  Si  Si9  1  0.493117  0.626674  0.779939  1
  Si  Si10  1  0.834759  0.251287  0.464876  1
  Si  Si11  1  0.493117  0.373326  0.279939  1
  Si  Si12  1  0.068432  0.545243  0.636649  1
  Si  Si13  1  0.068432  0.454757  0.136649  1
  Si  Si14  1  0.580278  0.243298  0.690554  1
  Si  Si15  1  0.580278  0.756702  0.190554  1
  O  O16  1  0.505061  0.051292  0.610809  1
  O  O17  1  0.505061  -0.051292  0.110809  1
  O  O18  1  0.677688  0.262980  0.282995  1
  O  O19  1  0.954366  0.576901  -0.024936  1
  O  O20  1  0.250005  0.937826  0.307837  1
  O  O21  1  0.677688  0.737020  0.782995  1
  O  O22  1  0.783209  0.241790  0.659020  1
  O  O23  1  0.954366  0.423099  0.475064  1
  O  O24  1  0.250005  0.062174  0.807837  1
  O  O25  1  -0.001502  0.269007  0.139290  1
  O  O26  1  0.783209  0.758210  0.159020  1
  O  O27  1  -0.001502  0.730993  0.639290  1
  O  O28  1  0.354755  0.292148  0.108495  1
  O  O29  1  0.623237  0.828826  0.411034  1
  O  O30  1  -0.072898  0.072787  0.443222  1
  O  O31  1  0.354755  0.707852  0.608495  1
  O  O32  1  0.623237  0.171174  0.911034  1
  O  O33  1  0.190470  0.442955  0.790014  1
  O  O34  1  0.553451  0.564542  0.273928  1
  O  O35  1  -0.072898  0.927213  0.943222  1
  O  O36  1  0.190470  0.557045  0.290014  1
  O  O37  1  0.553451  0.435458  0.773928  1
  O  O38  1  0.455598  0.673719  -0.025077  1
  O  O39  1  0.455598  0.326281  0.474923  1
