# generated using pymatgen
data_BaLi4NiO4
_symmetry_space_group_name_H-M   'P 1'
_cell_length_a   5.73719042
_cell_length_b   15.30625250
_cell_length_c   10.92814676
_cell_angle_alpha   90.00000000
_cell_angle_beta   78.29914091
_cell_angle_gamma   90.00000000
_symmetry_Int_Tables_number   1
_chemical_formula_structural   BaLi4NiO4
_chemical_formula_sum   'Ba8 Li32 Ni8 O32'
_cell_volume   939.71212250
_cell_formula_units_Z   8
loop_
 _symmetry_equiv_pos_site_id
 _symmetry_equiv_pos_as_xyz
  1  'x, y, z'
loop_
 _atom_site_type_symbol
 _atom_site_label
 _atom_site_symmetry_multiplicity
 _atom_site_fract_x
 _atom_site_fract_y
 _atom_site_fract_z
 _atom_site_occupancy
  Ba  Ba0  1  0.117204  0.705143  0.260898  1
  Ba  Ba1  1  0.098418  0.939424  0.830628  1
  Ba  Ba2  1  0.382796  0.205143  0.239102  1
  Ba  Ba3  1  0.401582  0.439424  0.669372  1
  Ba  Ba4  1  0.598418  0.560576  0.330628  1
  Ba  Ba5  1  0.617204  0.794857  0.760898  1
  Ba  Ba6  1  0.901582  0.060576  0.169372  1
  Ba  Ba7  1  0.882796  0.294857  0.739102  1
  Li  Li8  1  0.031825  0.571007  0.044470  1
  Li  Li9  1  0.072020  0.341215  0.118045  1
  Li  Li10  1  0.045630  0.841524  0.509284  1
  Li  Li11  1  0.198213  0.886998  0.127189  1
  Li  Li12  1  0.090766  0.573819  0.527154  1
  Li  Li13  1  0.086087  0.028769  0.574635  1
  Li  Li14  1  0.184351  0.128329  0.724696  1
  Li  Li15  1  0.301787  0.386998  0.372811  1
  Li  Li16  1  0.123046  0.762861  0.981866  1
  Li  Li17  1  0.545630  0.658476  0.009284  1
  Li  Li18  1  0.427980  0.841215  0.381955  1
  Li  Li19  1  0.376954  0.262861  0.518134  1
  Li  Li20  1  0.315649  0.628329  0.775304  1
  Li  Li21  1  0.590766  0.926181  0.027154  1
  Li  Li22  1  0.468175  0.071007  0.455530  1
  Li  Li23  1  0.586087  0.471231  0.074635  1
  Li  Li24  1  0.413913  0.528769  0.925365  1
  Li  Li25  1  0.531825  0.928993  0.544470  1
  Li  Li26  1  0.409234  0.073819  0.972846  1
  Li  Li27  1  0.684351  0.371671  0.224696  1
  Li  Li28  1  0.623046  0.737139  0.481866  1
  Li  Li29  1  0.572020  0.158785  0.618045  1
  Li  Li30  1  0.454370  0.341524  0.990716  1
  Li  Li31  1  0.876954  0.237139  0.018134  1
  Li  Li32  1  0.698213  0.613002  0.627189  1
  Li  Li33  1  0.815649  0.871671  0.275304  1
  Li  Li34  1  0.913913  0.971231  0.425365  1
  Li  Li35  1  0.909234  0.426181  0.472846  1
  Li  Li36  1  0.801787  0.113002  0.872811  1
  Li  Li37  1  0.954370  0.158476  0.490716  1
  Li  Li38  1  0.927980  0.658785  0.881955  1
  Li  Li39  1  0.968175  0.428993  0.955530  1
  Ni  Ni40  1  0.161381  0.479345  0.207130  1
  Ni  Ni41  1  0.178776  0.720348  0.623557  1
  Ni  Ni42  1  0.338619  0.979345  0.292870  1
  Ni  Ni43  1  0.321224  0.220348  0.876443  1
  Ni  Ni44  1  0.678776  0.779652  0.123557  1
  Ni  Ni45  1  0.661381  0.020655  0.707130  1
  Ni  Ni46  1  0.821224  0.279652  0.376443  1
  Ni  Ni47  1  0.838619  0.520655  0.792870  1
  O  O48  1  0.084219  0.298429  0.467910  1
  O  O49  1  0.126858  0.873285  0.323535  1
  O  O50  1  0.161633  0.507674  0.378355  1
  O  O51  1  0.145357  0.069995  0.397068  1
  O  O52  1  0.354643  0.569995  0.102932  1
  O  O53  1  0.120730  0.536883  0.866407  1
  O  O54  1  0.144589  0.749038  0.804808  1
  O  O55  1  0.338367  0.007674  0.121645  1
  O  O56  1  0.115033  0.113026  0.915197  1
  O  O57  1  0.373142  0.373285  0.176465  1
  O  O58  1  0.415781  0.798429  0.032090  1
  O  O59  1  0.122302  0.321002  0.939739  1
  O  O60  1  0.377698  0.821002  0.560261  1
  O  O61  1  0.384967  0.613026  0.584803  1
  O  O62  1  0.355411  0.249038  0.695192  1
  O  O63  1  0.379270  0.036883  0.633593  1
  O  O64  1  0.620730  0.963117  0.366407  1
  O  O65  1  0.644589  0.750962  0.304808  1
  O  O66  1  0.615033  0.386974  0.415197  1
  O  O67  1  0.622302  0.178998  0.439739  1
  O  O68  1  0.877698  0.678998  0.060261  1
  O  O69  1  0.584219  0.201571  0.967910  1
  O  O70  1  0.626858  0.626715  0.823535  1
  O  O71  1  0.884967  0.886974  0.084803  1
  O  O72  1  0.661633  0.992326  0.878355  1
  O  O73  1  0.855411  0.250962  0.195192  1
  O  O74  1  0.879270  0.463117  0.133593  1
  O  O75  1  0.645357  0.430005  0.897068  1
  O  O76  1  0.854643  0.930005  0.602932  1
  O  O77  1  0.838367  0.492326  0.621645  1
  O  O78  1  0.873142  0.126715  0.676465  1
  O  O79  1  0.915781  0.701571  0.532090  1
