# generated using pymatgen
data_Li17Fe6(Si2O7)6
_symmetry_space_group_name_H-M   'P 1'
_cell_length_a   8.61155291
_cell_length_b   8.63221158
_cell_length_c   13.13406740
_cell_angle_alpha   90.40920714
_cell_angle_beta   90.14666710
_cell_angle_gamma   119.87651171
_symmetry_Int_Tables_number   1
_chemical_formula_structural   Li17Fe6(Si2O7)6
_chemical_formula_sum   'Li17 Fe6 Si12 O42'
_cell_volume   846.54609030
_cell_formula_units_Z   1
loop_
 _symmetry_equiv_pos_site_id
 _symmetry_equiv_pos_as_xyz
  1  'x, y, z'
loop_
 _atom_site_type_symbol
 _atom_site_label
 _atom_site_symmetry_multiplicity
 _atom_site_fract_x
 _atom_site_fract_y
 _atom_site_fract_z
 _atom_site_occupancy
  Li  Li0  1  0.969369  0.305924  0.400627  1
  Li  Li1  1  0.971320  0.295637  0.067154  1
  Li  Li2  1  0.322985  0.027267  0.068143  1
  Li  Li3  1  0.660523  0.329479  0.712837  1
  Li  Li4  1  0.661575  0.324907  0.242615  1
  Li  Li5  1  0.003074  0.003092  0.943703  1
  Li  Li6  1  0.027197  0.997991  0.436649  1
  Li  Li7  1  0.312971  0.335121  0.900180  1
  Li  Li8  1  0.308042  0.333165  0.566718  1
  Li  Li9  1  0.691627  0.663509  0.400633  1
  Li  Li10  1  0.703161  0.675122  0.067271  1
  Li  Li11  1  0.328316  0.647792  0.729839  1
  Li  Li12  1  0.333714  0.669955  0.275228  1
  Li  Li13  1  0.666136  0.976370  0.901491  1
  Li  Li14  1  0.674209  0.978896  0.564004  1
  Li  Li15  1  0.024219  0.692317  0.565291  1
  Li  Li16  1  0.021333  0.687643  0.901469  1
  Fe  Fe17  1  0.001404  0.000559  0.727917  1
  Fe  Fe18  1  -0.000619  -0.000160  0.224035  1
  Fe  Fe19  1  0.658402  0.327097  0.458314  1
  Fe  Fe20  1  0.665869  0.332804  0.011398  1
  Fe  Fe21  1  0.333161  0.667203  0.955888  1
  Fe  Fe22  1  0.331703  0.667798  0.511709  1
  Si  Si23  1  0.351566  0.024186  0.847707  1
  Si  Si24  1  0.355203  0.028085  0.620608  1
  Si  Si25  1  0.977350  0.329467  0.623802  1
  Si  Si26  1  0.971284  0.324853  0.846606  1
  Si  Si27  1  0.324856  0.350297  0.343200  1
  Si  Si28  1  0.330348  0.364670  0.121908  1
  Si  Si29  1  0.673662  0.646711  0.846206  1
  Si  Si30  1  0.672755  0.649341  0.622370  1
  Si  Si31  1  0.021287  0.666553  0.345178  1
  Si  Si32  1  0.645158  0.971094  0.345288  1
  Si  Si33  1  0.031873  0.669358  0.123112  1
  Si  Si34  1  0.636701  0.967425  0.122907  1
  O  O35  1  0.862927  0.063319  0.339033  1
  O  O36  1  0.855799  0.060290  0.128282  1
  O  O37  1  0.589108  0.123941  0.361955  1
  O  O38  1  0.574298  0.116254  0.106207  1
  O  O39  1  0.813088  0.242395  0.933271  1
  O  O40  1  0.818254  0.250168  0.537507  1
  O  O41  1  0.435430  0.121593  0.736817  1
  O  O42  1  0.868276  0.304424  0.734596  1
  O  O43  1  0.428295  0.186023  0.933764  1
  O  O44  1  0.449087  0.207717  0.551129  1
  O  O45  1  0.870888  0.456575  0.357248  1
  O  O46  1  0.883373  0.458650  0.105310  1
  O  O47  1  0.199339  0.146193  0.122259  1
  O  O48  1  0.196712  0.136174  0.328667  1
  O  O49  1  0.535090  0.414994  0.360599  1
  O  O50  1  0.541529  0.425540  0.106318  1
  O  O51  1  0.068962  0.202266  0.842515  1
  O  O52  1  0.075006  0.209962  0.631704  1
  O  O53  1  0.754669  0.568202  0.933082  1
  O  O54  1  0.753965  0.571187  0.536686  1
  O  O55  1  0.694444  0.564521  0.733911  1
  O  O56  1  0.309383  0.444778  0.234179  1
  O  O57  1  0.242143  0.426192  0.429927  1
  O  O58  1  0.242743  0.434859  0.034225  1
  O  O59  1  0.940372  0.796340  0.128846  1
  O  O60  1  0.931232  0.793082  0.338650  1
  O  O61  1  0.460894  0.578191  0.858572  1
  O  O62  1  0.460960  0.582980  0.606173  1
  O  O63  1  0.798073  0.865599  0.844123  1
  O  O64  1  0.791400  0.865560  0.632519  1
  O  O65  1  0.115818  0.536880  0.860342  1
  O  O66  1  0.122408  0.540535  0.610889  1
  O  O67  1  0.563307  0.807151  0.426726  1
  O  O68  1  0.567235  0.808343  0.035661  1
  O  O69  1  0.557341  0.867950  0.233805  1
  O  O70  1  0.130556  0.687449  0.235681  1
  O  O71  1  0.174730  0.730505  0.433245  1
  O  O72  1  0.188439  0.757126  0.036514  1
  O  O73  1  0.420454  0.880791  0.863675  1
  O  O74  1  0.424169  0.886089  0.600528  1
  O  O75  1  0.138019  0.931889  0.625886  1
  O  O76  1  0.132128  0.928949  0.841728  1
