# generated using pymatgen
data_Li3Sb2(PO4)3
_symmetry_space_group_name_H-M   'P 1'
_cell_length_a   8.54176251
_cell_length_b   8.50729813
_cell_length_c   8.50729862
_cell_angle_alpha   66.95996483
_cell_angle_beta   67.21017223
_cell_angle_gamma   67.21017099
_symmetry_Int_Tables_number   1
_chemical_formula_structural   Li3Sb2(PO4)3
_chemical_formula_sum   'Li6 Sb4 P6 O24'
_cell_volume   503.82106068
_cell_formula_units_Z   2
loop_
 _symmetry_equiv_pos_site_id
 _symmetry_equiv_pos_as_xyz
  1  'x, y, z'
loop_
 _atom_site_type_symbol
 _atom_site_label
 _atom_site_symmetry_multiplicity
 _atom_site_fract_x
 _atom_site_fract_y
 _atom_site_fract_z
 _atom_site_occupancy
  Li  Li0  1  0.014518  0.991752  0.998264  1
  Li  Li1  1  0.750000  0.141173  0.358827  1
  Li  Li2  1  0.485482  0.501736  0.508248  1
  Li  Li3  1  0.250000  0.867004  0.632996  1
  Li  Li4  1  0.639707  0.247038  0.865443  1
  Li  Li5  1  0.860293  0.634557  0.252962  1
  Sb  Sb6  1  0.154843  0.158861  0.145606  1
  Sb  Sb7  1  0.345157  0.354394  0.341139  1
  Sb  Sb8  1  0.655390  0.660493  0.658589  1
  Sb  Sb9  1  0.844610  0.841411  0.839507  1
  P  P10  1  0.091653  0.749271  0.407726  1
  P  P11  1  0.408347  0.092274  0.750729  1
  P  P12  1  0.750000  0.417421  0.082579  1
  P  P13  1  0.250000  0.583768  0.916232  1
  P  P14  1  0.593702  0.923153  0.252918  1
  P  P15  1  0.906298  0.247082  0.576847  1
  O  O16  1  0.073847  0.298849  0.525415  1
  O  O17  1  0.307626  0.567247  0.071067  1
  O  O18  1  0.099071  0.905738  0.230103  1
  O  O19  1  0.604590  0.059905  0.318457  1
  O  O20  1  0.270586  0.594578  0.396523  1
  O  O21  1  0.073607  0.814954  0.560844  1
  O  O22  1  0.229414  0.103477  0.905422  1
  O  O23  1  0.400929  0.269897  0.594262  1
  O  O24  1  0.601986  0.400262  0.266102  1
  O  O25  1  0.192374  0.428933  0.932753  1
  O  O26  1  0.097073  0.768394  0.888965  1
  O  O27  1  0.426153  0.974585  0.201151  1
  O  O28  1  0.560385  0.068238  0.820497  1
  O  O29  1  0.898014  0.233898  0.099738  1
  O  O30  1  0.820323  0.568045  0.060946  1
  O  O31  1  0.402927  0.611035  0.731606  1
  O  O32  1  0.608973  0.734674  0.401056  1
  O  O33  1  0.769566  0.890400  0.093697  1
  O  O34  1  0.895410  0.181543  0.440095  1
  O  O35  1  0.730434  0.406303  0.609600  1
  O  O36  1  0.426393  0.939156  0.685046  1
  O  O37  1  0.891027  0.098944  0.765326  1
  O  O38  1  0.679677  0.439054  0.931955  1
  O  O39  1  0.939615  0.679503  0.431762  1
