# generated using pymatgen
data_Mn3O5F
_symmetry_space_group_name_H-M   'P 1'
_cell_length_a   4.54696351
_cell_length_b   7.53652172
_cell_length_c   5.45334599
_cell_angle_alpha   93.57734686
_cell_angle_beta   90.10983761
_cell_angle_gamma   89.95481832
_symmetry_Int_Tables_number   1
_chemical_formula_structural   Mn3O5F
_chemical_formula_sum   'Mn6 O10 F2'
_cell_volume   186.51231931
_cell_formula_units_Z   2
loop_
 _symmetry_equiv_pos_site_id
 _symmetry_equiv_pos_as_xyz
  1  'x, y, z'
loop_
 _atom_site_type_symbol
 _atom_site_label
 _atom_site_symmetry_multiplicity
 _atom_site_fract_x
 _atom_site_fract_y
 _atom_site_fract_z
 _atom_site_occupancy
  Mn  Mn0  1  0.502042  0.000539  0.510787  1
  Mn  Mn1  1  0.525855  0.662150  0.157998  1
  Mn  Mn2  1  0.495314  0.337026  0.833210  1
  Mn  Mn3  1  0.992242  0.669059  0.676241  1
  Mn  Mn4  1  0.989996  0.321301  0.336332  1
  Mn  Mn5  1  0.988232  0.010040  0.986952  1
  O  O6  1  0.806201  0.433773  0.629428  1
  O  O7  1  0.810154  0.774693  0.963112  1
  O  O8  1  0.805824  0.097749  0.294976  1
  O  O9  1  0.690116  0.106958  0.799030  1
  O  O10  1  0.695157  0.766948  0.461164  1
  O  O11  1  0.699243  0.431802  0.128462  1
  O  O12  1  0.308388  0.566955  0.871445  1
  O  O13  1  0.307133  0.231495  0.538444  1
  O  O14  1  0.197134  0.230557  0.042188  1
  O  O15  1  0.190883  0.899233  0.705067  1
  F  F16  1  0.300584  0.895648  0.198424  1
  F  F17  1  0.195500  0.564073  0.366736  1
