# generated using pymatgen
data_LiAlCoO3
_symmetry_space_group_name_H-M   'P 1'
_cell_length_a   5.44916858
_cell_length_b   5.86040709
_cell_length_c   5.87859444
_cell_angle_alpha   60.05635023
_cell_angle_beta   124.53433442
_cell_angle_gamma   91.38699340
_symmetry_Int_Tables_number   1
_chemical_formula_structural   LiAlCoO3
_chemical_formula_sum   'Li2 Al2 Co2 O6'
_cell_volume   124.89110375
_cell_formula_units_Z   2
loop_
 _symmetry_equiv_pos_site_id
 _symmetry_equiv_pos_as_xyz
  1  'x, y, z'
loop_
 _atom_site_type_symbol
 _atom_site_label
 _atom_site_symmetry_multiplicity
 _atom_site_fract_x
 _atom_site_fract_y
 _atom_site_fract_z
 _atom_site_occupancy
  Li  Li0  1  0.743031  0.578100  0.492553  1
  Li  Li1  1  0.256969  0.421900  0.507447  1
  Al  Al2  1  0.753282  0.915351  0.840035  1
  Al  Al3  1  0.246718  0.084649  0.159965  1
  Co  Co4  1  0.755654  0.254289  0.172030  1
  Co  Co5  1  0.244346  0.745711  0.827970  1
  O  O6  1  0.745226  0.609438  0.137342  1
  O  O7  1  0.720056  0.924322  0.504726  1
  O  O8  1  0.782491  0.214100  0.864521  1
  O  O9  1  0.217509  0.785900  0.135479  1
  O  O10  1  0.279944  0.075678  0.495274  1
  O  O11  1  0.254774  0.390562  0.862658  1
