# generated using pymatgen
data_LiFe4(BO3)4
_symmetry_space_group_name_H-M   'P 1'
_cell_length_a   5.33777482
_cell_length_b   9.03990491
_cell_length_c   10.13065122
_cell_angle_alpha   89.76678293
_cell_angle_beta   90.55569012
_cell_angle_gamma   90.41353395
_symmetry_Int_Tables_number   1
_chemical_formula_structural   LiFe4(BO3)4
_chemical_formula_sum   'Li2 Fe8 B8 O24'
_cell_volume   488.79444411
_cell_formula_units_Z   2
loop_
 _symmetry_equiv_pos_site_id
 _symmetry_equiv_pos_as_xyz
  1  'x, y, z'
loop_
 _atom_site_type_symbol
 _atom_site_label
 _atom_site_symmetry_multiplicity
 _atom_site_fract_x
 _atom_site_fract_y
 _atom_site_fract_z
 _atom_site_occupancy
  Li  Li0  1  0.650280  0.997441  0.104491  1
  Li  Li1  1  0.850356  0.488228  0.346023  1
  Fe  Fe2  1  0.158460  0.174398  0.123314  1
  Fe  Fe3  1  0.839900  0.151866  0.374461  1
  Fe  Fe4  1  0.338409  0.333264  0.866676  1
  Fe  Fe5  1  0.658023  0.333657  0.619175  1
  Fe  Fe6  1  0.340759  0.674865  0.372740  1
  Fe  Fe7  1  0.161041  0.834361  0.624960  1
  Fe  Fe8  1  0.650472  0.656698  0.119713  1
  Fe  Fe9  1  0.843360  0.832517  0.872970  1
  B  B10  1  0.159422  0.170855  0.624041  1
  B  B11  1  0.337588  0.341225  0.368562  1
  B  B12  1  0.827703  0.169542  0.875192  1
  B  B13  1  0.666136  0.320349  0.123857  1
  B  B14  1  0.337291  0.669270  0.869462  1
  B  B15  1  0.668319  0.671288  0.622222  1
  B  B16  1  0.160724  0.841604  0.125152  1
  B  B17  1  0.831030  0.819055  0.370911  1
  O  O18  1  0.254688  0.032549  0.629450  1
  O  O19  1  0.069910  0.199920  0.921650  1
  O  O20  1  0.729671  0.030467  0.888637  1
  O  O21  1  0.207407  0.221027  0.315374  1
  O  O22  1  0.302597  0.293558  0.666304  1
  O  O23  1  0.795145  0.189316  0.154192  1
  O  O24  1  0.919082  0.195725  0.576032  1
  O  O25  1  0.430268  0.303708  0.062182  1
  O  O26  1  0.218971  0.476185  0.372757  1
  O  O27  1  0.582395  0.325166  0.417483  1
  O  O28  1  0.690232  0.285874  0.820532  1
  O  O29  1  0.241706  0.530606  0.864388  1
  O  O30  1  0.760107  0.453302  0.157123  1
  O  O31  1  0.286511  0.721817  0.179837  1
  O  O32  1  0.428691  0.701530  0.572193  1
  O  O33  1  0.761297  0.532826  0.618279  1
  O  O34  1  0.578167  0.695396  0.918431  1
  O  O35  1  0.069728  0.803436  0.430693  1
  O  O36  1  0.197185  0.791716  0.826540  1
  O  O37  1  0.704631  0.685740  0.338803  1
  O  O38  1  0.807564  0.791135  0.673334  1
  O  O39  1  0.279768  0.977005  0.118737  1
  O  O40  1  0.915189  0.824141  0.075310  1
  O  O41  1  0.729702  0.949845  0.343889  1
