# generated using pymatgen
data_Li4MnFe3(BO3)4
_symmetry_space_group_name_H-M   'P 1'
_cell_length_a   6.01034266
_cell_length_b   5.24124043
_cell_length_c   8.99625307
_cell_angle_alpha   90.84473010
_cell_angle_beta   102.49577288
_cell_angle_gamma   113.84009058
_symmetry_Int_Tables_number   1
_chemical_formula_structural   Li4MnFe3(BO3)4
_chemical_formula_sum   'Li4 Mn1 Fe3 B4 O12'
_cell_volume   251.41360167
_cell_formula_units_Z   1
loop_
 _symmetry_equiv_pos_site_id
 _symmetry_equiv_pos_as_xyz
  1  'x, y, z'
loop_
 _atom_site_type_symbol
 _atom_site_label
 _atom_site_symmetry_multiplicity
 _atom_site_fract_x
 _atom_site_fract_y
 _atom_site_fract_z
 _atom_site_occupancy
  Li  Li0  1  0.676193  0.407355  0.032830  1
  Li  Li1  1  0.674386  0.907770  0.533757  1
  Li  Li2  1  0.327346  0.093270  0.466850  1
  Li  Li3  1  0.321230  0.587988  0.965079  1
  Mn  Mn4  1  0.771930  0.959600  0.207718  1
  Fe  Fe5  1  0.770921  0.463695  0.709799  1
  Fe  Fe6  1  0.238574  0.049821  0.791781  1
  Fe  Fe7  1  0.239172  0.553005  0.294099  1
  B  B8  1  0.738700  0.446213  0.369898  1
  B  B9  1  0.260038  0.053251  0.131612  1
  B  B10  1  0.738893  0.943603  0.865900  1
  B  B11  1  0.256114  0.551582  0.632882  1
  O  O12  1  0.825377  0.380214  0.247790  1
  O  O13  1  0.704018  0.277946  0.487331  1
  O  O14  1  0.684942  0.178253  0.861283  1
  O  O15  1  0.679644  0.677524  0.367203  1
  O  O16  1  0.824513  0.871039  0.745170  1
  O  O17  1  0.295903  0.216400  0.012549  1
  O  O18  1  0.700702  0.776637  0.983627  1
  O  O19  1  0.182289  0.130937  0.254277  1
  O  O20  1  0.308570  0.315147  0.634594  1
  O  O21  1  0.309249  0.814558  0.133798  1
  O  O22  1  0.294590  0.716684  0.514773  1
  O  O23  1  0.176705  0.627508  0.755397  1
