# generated using pymatgen
data_LiMn(SO4)2
_symmetry_space_group_name_H-M   'P 1'
_cell_length_a   9.04087230
_cell_length_b   8.95994113
_cell_length_c   8.97004733
_cell_angle_alpha   56.76733979
_cell_angle_beta   55.13561631
_cell_angle_gamma   55.66476094
_symmetry_Int_Tables_number   1
_chemical_formula_structural   LiMn(SO4)2
_chemical_formula_sum   'Li3 Mn3 S6 O24'
_cell_volume   464.21631633
_cell_formula_units_Z   3
loop_
 _symmetry_equiv_pos_site_id
 _symmetry_equiv_pos_as_xyz
  1  'x, y, z'
loop_
 _atom_site_type_symbol
 _atom_site_label
 _atom_site_symmetry_multiplicity
 _atom_site_fract_x
 _atom_site_fract_y
 _atom_site_fract_z
 _atom_site_occupancy
  Li  Li0  1  0.356741  0.356740  0.349434  1
  Li  Li1  1  0.178272  0.436186  0.761634  1
  Li  Li2  1  0.758317  0.179112  0.432083  1
  Mn  Mn3  1  0.165854  0.146638  0.153415  1
  Mn  Mn4  1  0.640146  0.644844  0.649915  1
  Mn  Mn5  1  0.844360  0.847184  0.857061  1
  S  S6  1  0.031441  0.747409  0.466813  1
  S  S7  1  0.451002  0.047826  0.752549  1
  S  S8  1  0.758481  0.457145  0.046010  1
  S  S9  1  0.260937  0.542007  0.956205  1
  S  S10  1  0.543186  0.956133  0.250631  1
  S  S11  1  0.959415  0.245436  0.545604  1
  O  O12  1  0.107962  0.292672  0.507534  1
  O  O13  1  0.311822  0.503839  0.102157  1
  O  O14  1  0.991303  0.953828  0.352185  1
  O  O15  1  0.515260  0.105261  0.294496  1
  O  O16  1  0.014462  0.710108  0.664773  1
  O  O17  1  0.225332  0.624210  0.382178  1
  O  O18  1  0.357636  0.242153  0.639504  1
  O  O19  1  0.331359  0.008453  0.964195  1
  O  O20  1  0.643680  0.365389  0.242865  1
  O  O21  1  0.060145  0.676808  0.977697  1
  O  O22  1  0.289348  0.363055  0.948230  1
  O  O23  1  0.353711  0.968340  0.280372  1
  O  O24  1  0.645496  0.032582  0.707637  1
  O  O25  1  0.720410  0.649246  0.033649  1
  O  O26  1  0.972959  0.333139  0.004498  1
  O  O27  1  0.389117  0.632101  0.754117  1
  O  O28  1  0.675270  0.985869  0.039943  1
  O  O29  1  0.626006  0.760535  0.370494  1
  O  O30  1  0.758533  0.377354  0.624022  1
  O  O31  1  0.968056  0.267046  0.357009  1
  O  O32  1  0.474193  0.901829  0.703067  1
  O  O33  1  0.978829  0.044315  0.675631  1
  O  O34  1  0.712596  0.478929  0.901035  1
  O  O35  1  0.882865  0.696277  0.497658  1
