# generated using pymatgen
data_LiMn3(BO3)3
_symmetry_space_group_name_H-M   'P 1'
_cell_length_a   9.27090202
_cell_length_b   7.98365982
_cell_length_c   5.92584551
_cell_angle_alpha   80.67521776
_cell_angle_beta   78.18385073
_cell_angle_gamma   115.63867595
_symmetry_Int_Tables_number   1
_chemical_formula_structural   LiMn3(BO3)3
_chemical_formula_sum   'Li2 Mn6 B6 O18'
_cell_volume   371.10222499
_cell_formula_units_Z   2
loop_
 _symmetry_equiv_pos_site_id
 _symmetry_equiv_pos_as_xyz
  1  'x, y, z'
loop_
 _atom_site_type_symbol
 _atom_site_label
 _atom_site_symmetry_multiplicity
 _atom_site_fract_x
 _atom_site_fract_y
 _atom_site_fract_z
 _atom_site_occupancy
  Li  Li0  1  0.056641  0.170951  0.509007  1
  Li  Li1  1  0.389037  0.834465  0.841639  1
  Mn  Mn2  1  0.265865  0.148435  0.089842  1
  Mn  Mn3  1  0.419186  0.206903  0.525065  1
  Mn  Mn4  1  0.060578  0.521965  0.220982  1
  Mn  Mn5  1  0.926194  0.485412  0.767365  1
  Mn  Mn6  1  0.600421  0.804428  0.446950  1
  Mn  Mn7  1  0.743168  0.838874  0.905559  1
  B  B8  1  0.932649  0.139486  0.121113  1
  B  B9  1  0.725055  0.184386  0.571665  1
  B  B10  1  0.386682  0.529512  0.221084  1
  B  B11  1  0.609824  0.469456  0.777732  1
  B  B12  1  0.272462  0.812635  0.449901  1
  B  B13  1  0.073193  0.867693  0.859978  1
  O  O14  1  0.021376  0.078861  0.231723  1
  O  O15  1  0.774409  0.008473  0.113348  1
  O  O16  1  0.653394  0.989066  0.683712  1
  O  O17  1  0.307250  0.334092  0.348891  1
  O  O18  1  0.648685  0.264241  0.455913  1
  O  O19  1  0.305121  0.608102  0.110270  1
  O  O20  1  0.898021  0.307143  0.553557  1
  O  O21  1  0.556020  0.642893  0.195263  1
  O  O22  1  0.993045  0.666785  0.962364  1
  O  O23  1  0.984722  0.336495  0.030395  1
  O  O24  1  0.448624  0.357050  0.762575  1
  O  O25  1  0.106459  0.684244  0.450735  1
  O  O26  1  0.687770  0.382652  0.878498  1
  O  O27  1  0.355718  0.742448  0.560150  1
  O  O28  1  0.678131  0.669372  0.697145  1
  O  O29  1  0.333380  0.010692  0.348424  1
  O  O30  1  0.240563  0.971914  0.849450  1
  O  O31  1  0.989725  0.955081  0.772531  1
