# generated using pymatgen
data_Li6Ti15Co3O32
_symmetry_space_group_name_H-M   'P 1'
_cell_length_a   8.47032492
_cell_length_b   8.46934696
_cell_length_c   8.46895168
_cell_angle_alpha   90.12966446
_cell_angle_beta   90.12310467
_cell_angle_gamma   89.86966510
_symmetry_Int_Tables_number   1
_chemical_formula_structural   Li6Ti15Co3O32
_chemical_formula_sum   'Li6 Ti15 Co3 O32'
_cell_volume   607.54215380
_cell_formula_units_Z   1
loop_
 _symmetry_equiv_pos_site_id
 _symmetry_equiv_pos_as_xyz
  1  'x, y, z'
loop_
 _atom_site_type_symbol
 _atom_site_label
 _atom_site_symmetry_multiplicity
 _atom_site_fract_x
 _atom_site_fract_y
 _atom_site_fract_z
 _atom_site_occupancy
  Li  Li0  1  0.248717  0.748665  0.750996  1
  Li  Li1  1  0.251526  0.252097  0.249899  1
  Li  Li2  1  0.501192  0.001323  0.498944  1
  Li  Li3  1  0.750295  0.751648  0.247992  1
  Li  Li4  1  0.752117  0.250317  0.748267  1
  Li  Li5  1  0.875407  0.375094  0.124377  1
  Ti  Ti6  1  0.116740  0.618212  0.125481  1
  Ti  Ti7  1  0.118547  0.374621  0.883440  1
  Ti  Ti8  1  0.125706  0.877669  0.376999  1
  Ti  Ti9  1  0.126164  0.122077  0.621792  1
  Ti  Ti10  1  0.377605  0.878104  0.126131  1
  Ti  Ti11  1  0.377516  0.123077  0.874509  1
  Ti  Ti12  1  0.378138  0.626253  0.377868  1
  Ti  Ti13  1  0.377964  0.374086  0.622283  1
  Ti  Ti14  1  0.621967  0.878420  0.873753  1
  Ti  Ti15  1  0.627340  0.128640  0.124872  1
  Ti  Ti16  1  0.623086  0.625606  0.622232  1
  Ti  Ti17  1  0.628686  0.375434  0.372675  1
  Ti  Ti18  1  0.874799  0.616381  0.881920  1
  Ti  Ti19  1  0.874023  0.877379  0.621794  1
  Ti  Ti20  1  0.875037  0.127299  0.371606  1
  Co  Co21  1  0.999554  0.498017  0.500146  1
  Co  Co22  1  0.499713  0.499765  0.001816  1
  Co  Co23  1  0.998021  0.999282  0.000434  1
  O  O24  1  0.113515  0.113557  0.386221  1
  O  O25  1  0.112453  0.612530  0.887500  1
  O  O26  1  0.113375  0.886486  0.613135  1
  O  O27  1  0.133707  0.134935  0.865833  1
  O  O28  1  0.126072  0.391185  0.109265  1
  O  O29  1  0.134236  0.633783  0.365182  1
  O  O30  1  0.138054  0.364286  0.637236  1
  O  O31  1  0.137215  0.863197  0.134958  1
  O  O32  1  0.362327  0.137357  0.638072  1
  O  O33  1  0.362778  0.638130  0.135682  1
  O  O34  1  0.363344  0.365227  0.862891  1
  O  O35  1  0.387120  0.613441  0.613655  1
  O  O36  1  0.361986  0.862522  0.362900  1
  O  O37  1  0.387772  0.111375  0.112889  1
  O  O38  1  0.388570  0.387694  0.389453  1
  O  O39  1  0.386441  0.886915  0.886645  1
  O  O40  1  0.611404  0.387212  0.612037  1
  O  O41  1  0.610435  0.888610  0.112397  1
  O  O42  1  0.613751  0.613782  0.386294  1
  O  O43  1  0.624076  0.361216  0.139470  1
  O  O44  1  0.613569  0.113870  0.886478  1
  O  O45  1  0.637381  0.862024  0.637530  1
  O  O46  1  0.637713  0.137867  0.362407  1
  O  O47  1  0.635163  0.634365  0.866130  1
  O  O48  1  0.861356  0.360430  0.375292  1
  O  O49  1  0.864057  0.862725  0.861733  1
  O  O50  1  0.860247  0.123854  0.138844  1
  O  O51  1  0.887266  0.887676  0.388633  1
  O  O52  1  0.865197  0.637060  0.636698  1
  O  O53  1  0.891254  0.390787  0.874218  1
  O  O54  1  0.887547  0.110471  0.611343  1
  O  O55  1  0.890751  0.625984  0.108776  1
