# generated using pymatgen
data_Li32Ti3Cr13O48
_symmetry_space_group_name_H-M   'P 1'
_cell_length_a   5.05447254
_cell_length_b   8.74335815
_cell_length_c   19.54708119
_cell_angle_alpha   97.99953165
_cell_angle_beta   94.93879633
_cell_angle_gamma   89.58071068
_symmetry_Int_Tables_number   1
_chemical_formula_structural   Li32Ti3Cr13O48
_chemical_formula_sum   'Li32 Ti3 Cr13 O48'
_cell_volume   852.25393244
_cell_formula_units_Z   1
loop_
 _symmetry_equiv_pos_site_id
 _symmetry_equiv_pos_as_xyz
  1  'x, y, z'
loop_
 _atom_site_type_symbol
 _atom_site_label
 _atom_site_symmetry_multiplicity
 _atom_site_fract_x
 _atom_site_fract_y
 _atom_site_fract_z
 _atom_site_occupancy
  Li  Li0  1  0.990839  0.168975  0.249273  1
  Li  Li1  1  0.874485  0.374975  0.375294  1
  Li  Li2  1  0.749548  0.251315  0.000254  1
  Li  Li3  1  0.740983  0.920547  0.000725  1
  Li  Li4  1  0.991690  0.169041  0.749933  1
  Li  Li5  1  0.754214  0.578279  0.500523  1
  Li  Li6  1  0.873698  0.374973  0.875804  1
  Li  Li7  1  0.742350  0.251564  0.500437  1
  Li  Li8  1  0.744403  0.922077  0.500209  1
  Li  Li9  1  0.625249  0.124885  0.125069  1
  Li  Li10  1  0.757367  0.578145  0.000502  1
  Li  Li11  1  0.509078  0.329249  0.250402  1
  Li  Li12  1  0.626007  0.125910  0.625245  1
  Li  Li13  1  0.492645  0.000834  0.250344  1
  Li  Li14  1  0.493855  0.671347  0.250107  1
  Li  Li15  1  0.514921  0.330501  0.750422  1
  Li  Li16  1  0.374915  0.875914  0.374783  1
  Li  Li17  1  0.490312  0.002896  0.750010  1
  Li  Li18  1  0.246755  0.752779  0.999953  1
  Li  Li19  1  0.491737  0.668857  0.749594  1
  Li  Li20  1  0.242175  0.418245  0.999441  1
  Li  Li21  1  0.374518  0.875498  0.875054  1
  Li  Li22  1  0.262375  0.081086  0.499488  1
  Li  Li23  1  0.249008  0.749825  0.499464  1
  Li  Li24  1  0.125023  0.624873  0.125032  1
  Li  Li25  1  0.244456  0.418985  0.499550  1
  Li  Li26  1  0.009948  0.830503  0.249661  1
  Li  Li27  1  0.261437  0.081072  0.000054  1
  Li  Li28  1  0.127512  0.624366  0.624008  1
  Li  Li29  1  0.000676  0.498745  0.249478  1
  Li  Li30  1  0.008715  0.830241  0.750305  1
  Li  Li31  1  0.000778  0.498804  0.749985  1
  Ti  Ti32  1  0.876648  0.038407  0.374122  1
  Ti  Ti33  1  0.874291  0.037449  0.873482  1
  Ti  Ti34  1  0.130153  0.288804  0.626641  1
  Cr  Cr35  1  0.875079  0.703041  0.374569  1
  Cr  Cr36  1  0.876976  0.702879  0.875297  1
  Cr  Cr37  1  0.631545  0.789440  0.124757  1
  Cr  Cr38  1  0.618386  0.460287  0.125373  1
  Cr  Cr39  1  0.620675  0.796745  0.623888  1
  Cr  Cr40  1  0.629638  0.461988  0.625267  1
  Cr  Cr41  1  0.378624  0.548586  0.375714  1
  Cr  Cr42  1  0.370846  0.212798  0.374544  1
  Cr  Cr43  1  0.381158  0.547414  0.876461  1
  Cr  Cr44  1  0.368966  0.211743  0.875058  1
  Cr  Cr45  1  0.117919  0.960244  0.125330  1
  Cr  Cr46  1  0.131374  0.289720  0.124906  1
  Cr  Cr47  1  0.120041  0.952288  0.624195  1
  O  O48  1  0.966173  0.101287  0.068287  1
  O  O49  1  0.918937  0.783198  0.068732  1
  O  O50  1  0.926266  0.427223  0.068686  1
  O  O51  1  0.965366  0.104172  0.568565  1
  O  O52  1  0.830384  0.966838  0.181217  1
  O  O53  1  0.824672  0.322859  0.181764  1
  O  O54  1  0.935579  0.788057  0.568540  1
  O  O55  1  0.919368  0.428990  0.567376  1
  O  O56  1  0.784502  0.648614  0.181645  1
  O  O57  1  0.714050  0.853636  0.318543  1
  O  O58  1  0.813250  0.958513  0.681030  1
  O  O59  1  0.827247  0.320752  0.683984  1
  O  O60  1  0.687643  0.538529  0.318860  1
  O  O61  1  0.672369  0.178723  0.317410  1
  O  O62  1  0.783404  0.640254  0.679700  1
  O  O63  1  0.713279  0.853248  0.818559  1
  O  O64  1  0.465792  0.601298  0.068856  1
  O  O65  1  0.565154  0.711391  0.431275  1
  O  O66  1  0.571173  0.073559  0.432604  1
  O  O67  1  0.687424  0.539046  0.819207  1
  O  O68  1  0.674310  0.179761  0.817944  1
  O  O69  1  0.426773  0.926498  0.068536  1
  O  O70  1  0.418754  0.283558  0.069028  1
  O  O71  1  0.535393  0.396497  0.430437  1
  O  O72  1  0.462585  0.612167  0.568656  1
  O  O73  1  0.564544  0.712162  0.931524  1
  O  O74  1  0.570075  0.074549  0.932522  1
  O  O75  1  0.322923  0.823609  0.181560  1
  O  O76  1  0.332058  0.466330  0.181766  1
  O  O77  1  0.433127  0.925050  0.566942  1
  O  O78  1  0.432868  0.287699  0.569157  1
  O  O79  1  0.536095  0.397435  0.931427  1
  O  O80  1  0.284538  0.148656  0.181471  1
  O  O81  1  0.216542  0.358078  0.319755  1
  O  O82  1  0.313621  0.825121  0.682046  1
  O  O83  1  0.325763  0.466318  0.681172  1
  O  O84  1  0.183684  0.673074  0.317068  1
  O  O85  1  0.177054  0.034339  0.317660  1
  O  O86  1  0.286982  0.138926  0.681306  1
  O  O87  1  0.216996  0.355810  0.819863  1
  O  O88  1  0.065331  0.575097  0.432206  1
  O  O89  1  0.079017  0.215833  0.431255  1
  O  O90  1  0.183871  0.672139  0.817446  1
  O  O91  1  0.175506  0.033192  0.817686  1
  O  O92  1  0.036196  0.889515  0.431243  1
  O  O93  1  0.066049  0.574964  0.932644  1
  O  O94  1  0.078600  0.216677  0.931314  1
  O  O95  1  0.034720  0.889619  0.931514  1
