# generated using pymatgen
data_LiNi(PO3)4
_symmetry_space_group_name_H-M   'P 1'
_cell_length_a   7.40780930
_cell_length_b   9.16796770
_cell_length_c   8.85412082
_cell_angle_alpha   114.71739055
_cell_angle_beta   114.72891885
_cell_angle_gamma   66.17120720
_symmetry_Int_Tables_number   1
_chemical_formula_structural   LiNi(PO3)4
_chemical_formula_sum   'Li2 Ni2 P8 O24'
_cell_volume   476.63284832
_cell_formula_units_Z   2
loop_
 _symmetry_equiv_pos_site_id
 _symmetry_equiv_pos_as_xyz
  1  'x, y, z'
loop_
 _atom_site_type_symbol
 _atom_site_label
 _atom_site_symmetry_multiplicity
 _atom_site_fract_x
 _atom_site_fract_y
 _atom_site_fract_z
 _atom_site_occupancy
  Li  Li0  1  0.830853  0.750000  0.750000  1
  Li  Li1  1  0.169147  0.250000  0.250000  1
  Ni  Ni2  1  0.290481  0.750000  0.750000  1
  Ni  Ni3  1  0.709519  0.250000  0.250000  1
  P  P4  1  0.970565  0.893705  0.176438  1
  P  P5  1  0.570525  0.838076  0.127650  1
  P  P6  1  0.280951  0.661924  0.372350  1
  P  P7  1  0.687832  0.606295  0.323562  1
  P  P8  1  0.312167  0.393705  0.676438  1
  P  P9  1  0.719049  0.338076  0.627650  1
  P  P10  1  0.429475  0.161924  0.872350  1
  P  P11  1  0.029435  0.106295  0.823562  1
  O  O12  1  0.403818  0.957836  0.203234  1
  O  O13  1  0.773467  0.901922  0.217812  1
  O  O14  1  0.991207  0.780287  0.004354  1
  O  O15  1  0.154896  0.841244  0.338163  1
  O  O16  1  0.050092  0.919894  0.778788  1
  O  O17  1  0.657978  0.658756  0.161837  1
  O  O18  1  0.767140  0.719713  0.495646  1
  O  O19  1  0.389241  0.709889  0.570575  1
  O  O20  1  0.528557  0.790111  0.929425  1
  O  O21  1  0.457577  0.598078  0.282188  1
  O  O22  1  0.158419  0.542164  0.296766  1
  O  O23  1  0.191198  0.580106  0.721212  1
  O  O24  1  0.808802  0.419894  0.278788  1
  O  O25  1  0.841581  0.457836  0.703234  1
  O  O26  1  0.542423  0.401922  0.717812  1
  O  O27  1  0.471443  0.209889  0.070575  1
  O  O28  1  0.610759  0.290111  0.429425  1
  O  O29  1  0.232860  0.280287  0.504354  1
  O  O30  1  0.342022  0.341244  0.838163  1
  O  O31  1  0.949908  0.080106  0.221212  1
  O  O32  1  0.845104  0.158756  0.661837  1
  O  O33  1  0.008793  0.219713  0.995646  1
  O  O34  1  0.226533  0.098078  0.782188  1
  O  O35  1  0.596182  0.042164  0.796766  1
