# generated using pymatgen
data_H12C4IN
_symmetry_space_group_name_H-M   'P 1'
_cell_length_a   8.10779724
_cell_length_b   8.10779724
_cell_length_c   5.82955120
_cell_angle_alpha   90.00000000
_cell_angle_beta   90.00000000
_cell_angle_gamma   90.00000000
_symmetry_Int_Tables_number   1
_chemical_formula_structural   H12C4IN
_chemical_formula_sum   'H24 C8 I2 N2'
_cell_volume   383.21357009
_cell_formula_units_Z   2
loop_
 _symmetry_equiv_pos_site_id
 _symmetry_equiv_pos_as_xyz
  1  'x, y, z'
loop_
 _atom_site_type_symbol
 _atom_site_label
 _atom_site_symmetry_multiplicity
 _atom_site_fract_x
 _atom_site_fract_y
 _atom_site_fract_z
 _atom_site_occupancy
  H  H0  1  0.750000  0.990925  0.459681  1
  H  H1  1  0.750000  0.509075  0.459681  1
  H  H2  1  0.990925  0.750000  0.459681  1
  H  H3  1  0.509075  0.750000  0.459681  1
  H  H4  1  0.250000  0.009075  0.540319  1
  H  H5  1  0.250000  0.490925  0.540319  1
  H  H6  1  0.009075  0.250000  0.540319  1
  H  H7  1  0.490925  0.250000  0.540319  1
  H  H8  1  0.861509  0.104156  0.242432  1
  H  H9  1  0.638491  0.104156  0.242432  1
  H  H10  1  0.861509  0.395844  0.242432  1
  H  H11  1  0.638491  0.395844  0.242432  1
  H  H12  1  0.104156  0.861509  0.242432  1
  H  H13  1  0.395844  0.861509  0.242432  1
  H  H14  1  0.104156  0.638491  0.242432  1
  H  H15  1  0.395844  0.638491  0.242432  1
  H  H16  1  0.138491  0.895844  0.757568  1
  H  H17  1  0.361509  0.895844  0.757568  1
  H  H18  1  0.138491  0.604156  0.757568  1
  H  H19  1  0.361509  0.604156  0.757568  1
  H  H20  1  0.895844  0.138491  0.757568  1
  H  H21  1  0.604156  0.138491  0.757568  1
  H  H22  1  0.895844  0.361509  0.757568  1
  H  H23  1  0.604156  0.361509  0.757568  1
  C  C24  1  0.750000  0.100552  0.348877  1
  C  C25  1  0.750000  0.399448  0.348877  1
  C  C26  1  0.100552  0.750000  0.348877  1
  C  C27  1  0.399448  0.750000  0.348877  1
  C  C28  1  0.250000  0.899448  0.651123  1
  C  C29  1  0.250000  0.600552  0.651123  1
  C  C30  1  0.899448  0.250000  0.651123  1
  C  C31  1  0.600552  0.250000  0.651123  1
  I  I32  1  0.750000  0.750000  0.887911  1
  I  I33  1  0.250000  0.250000  0.112089  1
  N  N34  1  0.250000  0.750000  0.500000  1
  N  N35  1  0.750000  0.250000  0.500000  1
