# generated using pymatgen
data_LiMn2(PO4)2
_symmetry_space_group_name_H-M   'P 1'
_cell_length_a   5.11706224
_cell_length_b   8.86379608
_cell_length_c   8.78362078
_cell_angle_alpha   110.20849933
_cell_angle_beta   89.99999945
_cell_angle_gamma   90.00000235
_symmetry_Int_Tables_number   1
_chemical_formula_structural   LiMn2(PO4)2
_chemical_formula_sum   'Li2 Mn4 P4 O16'
_cell_volume   373.87064964
_cell_formula_units_Z   2
loop_
 _symmetry_equiv_pos_site_id
 _symmetry_equiv_pos_as_xyz
  1  'x, y, z'
loop_
 _atom_site_type_symbol
 _atom_site_label
 _atom_site_symmetry_multiplicity
 _atom_site_fract_x
 _atom_site_fract_y
 _atom_site_fract_z
 _atom_site_occupancy
  Li  Li0  1  0.561033  0.004971  0.502059  1
  Li  Li1  1  0.438967  0.504971  0.002059  1
  Mn  Mn2  1  0.057999  0.242204  0.741069  1
  Mn  Mn3  1  0.453249  0.758225  0.759804  1
  Mn  Mn4  1  0.546751  0.258225  0.259804  1
  Mn  Mn5  1  0.942002  0.742204  0.241069  1
  P  P6  1  0.543097  0.129522  0.875520  1
  P  P7  1  0.955861  0.621598  0.871390  1
  P  P8  1  0.044139  0.121598  0.371390  1
  P  P9  1  0.456903  0.629522  0.375520  1
  O  O10  1  0.837215  0.175505  0.884556  1
  O  O11  1  0.657026  0.643669  0.903236  1
  O  O12  1  0.389103  0.278011  0.857187  1
  O  O13  1  0.913233  0.113073  0.533357  1
  O  O14  1  0.069893  0.759766  0.827318  1
  O  O15  1  0.483220  0.981953  0.721947  1
  O  O16  1  0.930107  0.259766  0.327318  1
  O  O17  1  0.023773  0.459139  0.737944  1
  O  O18  1  0.535168  0.600507  0.530272  1
  O  O19  1  0.342974  0.143669  0.403236  1
  O  O20  1  0.610897  0.778011  0.357187  1
  O  O21  1  0.976227  0.959139  0.237944  1
  O  O22  1  0.162785  0.675505  0.384556  1
  O  O23  1  0.516780  0.481953  0.221947  1
  O  O24  1  0.464832  0.100507  0.030272  1
  O  O25  1  0.086767  0.613073  0.033357  1
