# generated using pymatgen
data_SnSb3(PO4)4
_symmetry_space_group_name_H-M   'P 1'
_cell_length_a   4.83231876
_cell_length_b   10.08210881
_cell_length_c   7.03994922
_cell_angle_alpha   90.00000000
_cell_angle_beta   90.00000000
_cell_angle_gamma   91.05120993
_symmetry_Int_Tables_number   1
_chemical_formula_structural   SnSb3(PO4)4
_chemical_formula_sum   'Sn1 Sb3 P4 O16'
_cell_volume   342.92834337
_cell_formula_units_Z   1
loop_
 _symmetry_equiv_pos_site_id
 _symmetry_equiv_pos_as_xyz
  1  'x, y, z'
loop_
 _atom_site_type_symbol
 _atom_site_label
 _atom_site_symmetry_multiplicity
 _atom_site_fract_x
 _atom_site_fract_y
 _atom_site_fract_z
 _atom_site_occupancy
  Sn  Sn0  1  0.895245  0.292756  0.250000  1
  Sb  Sb1  1  0.100641  0.706334  0.750000  1
  Sb  Sb2  1  0.392459  0.202214  0.750000  1
  Sb  Sb3  1  0.599142  0.798266  0.250000  1
  P  P4  1  0.157314  0.600675  0.250000  1
  P  P5  1  0.329791  0.099085  0.250000  1
  P  P6  1  0.674423  0.903070  0.750000  1
  P  P7  1  0.837091  0.399953  0.750000  1
  O  O8  1  0.221992  0.451720  0.250000  1
  O  O9  1  0.303712  0.677313  0.079741  1
  O  O10  1  0.303712  0.677313  0.420259  1
  O  O11  1  0.154542  0.385297  0.750000  1
  O  O12  1  0.355851  0.888648  0.750000  1
  O  O13  1  0.199102  0.176250  0.077629  1
  O  O14  1  0.199102  0.176250  0.422371  1
  O  O15  1  0.255178  0.951113  0.250000  1
  O  O16  1  0.752983  0.050159  0.750000  1
  O  O17  1  0.809621  0.823161  0.579687  1
  O  O18  1  0.809621  0.823161  0.920313  1
  O  O19  1  0.650580  0.112456  0.250000  1
  O  O20  1  0.841686  0.616309  0.250000  1
  O  O21  1  0.696895  0.321140  0.578380  1
  O  O22  1  0.696895  0.321140  0.921620  1
  O  O23  1  0.762424  0.546219  0.750000  1
