# generated using pymatgen
data_In15SnO24
_symmetry_space_group_name_H-M   'P 1'
_cell_length_a   8.94769204
_cell_length_b   8.93057285
_cell_length_c   8.94769204
_cell_angle_alpha   109.46727232
_cell_angle_beta   109.56862039
_cell_angle_gamma   109.45527519
_symmetry_Int_Tables_number   1
_chemical_formula_structural   In15SnO24
_chemical_formula_sum   'In15 Sn1 O24'
_cell_volume   549.87374903
_cell_formula_units_Z   1
loop_
 _symmetry_equiv_pos_site_id
 _symmetry_equiv_pos_as_xyz
  1  'x, y, z'
loop_
 _atom_site_type_symbol
 _atom_site_label
 _atom_site_symmetry_multiplicity
 _atom_site_fract_x
 _atom_site_fract_y
 _atom_site_fract_z
 _atom_site_occupancy
  In  In0  1  0.498754  0.999305  0.999243  1
  In  In1  1  0.782650  0.032882  0.748113  1
  In  In2  1  0.715230  0.467118  0.249768  1
  In  In3  1  0.751145  0.284405  0.534764  1
  In  In4  1  0.748417  0.782450  0.033196  1
  In  In5  1  0.466235  0.250000  0.716235  1
  In  In6  1  0.999938  0.500695  0.999449  1
  In  In7  1  0.999826  0.001485  0.500926  1
  In  In8  1  0.499441  0.498515  0.498340  1
  In  In9  1  0.533563  0.750000  0.283563  1
  In  In10  1  0.250744  0.717550  0.465967  1
  In  In11  1  0.250359  0.215595  0.966741  1
  In  In12  1  0.216752  0.966648  0.249622  1
  In  In13  1  0.282975  0.533352  0.750104  1
  In  In14  1  0.033596  0.750000  0.783596  1
  Sn  Sn15  1  0.964646  0.250000  0.214646  1
  O  O16  1  0.763590  0.036093  0.491628  1
  O  O17  1  0.747885  0.229021  0.273832  1
  O  O18  1  0.961074  0.497506  0.232600  1
  O  O19  1  0.272974  0.007190  0.044004  1
  O  O20  1  0.464573  0.227738  0.455861  1
  O  O21  1  0.774921  0.729442  0.264611  1
  O  O22  1  0.455535  0.463907  0.227497  1
  O  O23  1  0.044810  0.270979  0.018863  1
  O  O24  1  0.729381  0.264425  0.773301  1
  O  O25  1  0.006609  0.052777  0.270686  1
  O  O26  1  0.772016  0.542088  0.534211  1
  O  O27  1  0.494044  0.766137  0.036832  1
  O  O28  1  0.217910  0.447223  0.453832  1
  O  O29  1  0.508876  0.235575  0.964956  1
  O  O30  1  0.270695  0.733863  0.227906  1
  O  O31  1  0.992123  0.957912  0.729927  1
  O  O32  1  0.955978  0.730221  0.994822  1
  O  O33  1  0.540845  0.536745  0.768838  1
  O  O34  1  0.228123  0.272262  0.736836  1
  O  O35  1  0.535168  0.770558  0.545477  1
  O  O36  1  0.735093  0.002494  0.963566  1
  O  O37  1  0.036814  0.492810  0.765784  1
  O  O38  1  0.232093  0.963255  0.504100  1
  O  O39  1  0.264601  0.769779  0.725757  1
