# generated using pymatgen
data_Li3MnV(PO4)3
_symmetry_space_group_name_H-M   'P 1'
_cell_length_a   8.63479844
_cell_length_b   8.67505812
_cell_length_c   12.64478449
_cell_angle_alpha   74.41634132
_cell_angle_beta   105.90136253
_cell_angle_gamma   84.61200500
_symmetry_Int_Tables_number   1
_chemical_formula_structural   Li3MnV(PO4)3
_chemical_formula_sum   'Li12 Mn4 V4 P12 O48'
_cell_volume   862.99331700
_cell_formula_units_Z   4
loop_
 _symmetry_equiv_pos_site_id
 _symmetry_equiv_pos_as_xyz
  1  'x, y, z'
loop_
 _atom_site_type_symbol
 _atom_site_label
 _atom_site_symmetry_multiplicity
 _atom_site_fract_x
 _atom_site_fract_y
 _atom_site_fract_z
 _atom_site_occupancy
  Li  Li0  1  0.003730  0.003139  0.874849  1
  Li  Li1  1  0.004337  0.002865  0.374519  1
  Li  Li2  1  0.288915  0.288514  0.626850  1
  Li  Li3  1  0.500332  0.498521  0.750926  1
  Li  Li4  1  0.284938  0.291382  0.122134  1
  Li  Li5  1  0.500840  0.499853  0.500702  1
  Li  Li6  1  0.712498  0.710870  0.875863  1
  Li  Li7  1  0.499458  0.501498  0.249071  1
  Li  Li8  1  0.498879  0.500366  0.998914  1
  Li  Li9  1  0.711754  0.710411  0.375841  1
  Li  Li10  1  0.995045  0.996983  0.627866  1
  Li  Li11  1  0.994936  0.998214  0.123958  1
  Mn  Mn12  1  0.059451  0.629470  0.816295  1
  Mn  Mn13  1  0.625177  0.056289  0.934855  1
  Mn  Mn14  1  0.942140  0.371016  0.685029  1
  Mn  Mn15  1  0.942840  0.375451  0.183492  1
  V  V16  1  0.057895  0.623557  0.319882  1
  V  V17  1  0.378953  0.942948  0.570493  1
  V  V18  1  0.376432  0.942874  0.068273  1
  V  V19  1  0.619854  0.054928  0.430902  1
  P  P20  1  0.285620  0.287277  0.875205  1
  P  P21  1  0.140301  0.665758  0.569223  1
  P  P22  1  0.334473  0.865467  0.817118  1
  P  P23  1  0.285656  0.287399  0.375030  1
  P  P24  1  0.140667  0.664311  0.067369  1
  P  P25  1  0.337715  0.862484  0.318119  1
  P  P26  1  0.660622  0.133592  0.683706  1
  P  P27  1  0.864112  0.335322  0.932787  1
  P  P28  1  0.716804  0.710363  0.625763  1
  P  P29  1  0.661774  0.133134  0.181803  1
  P  P30  1  0.860869  0.339185  0.431930  1
  P  P31  1  0.713632  0.713591  0.124736  1
  O  O32  1  0.015486  0.662201  0.951996  1
  O  O33  1  0.053932  0.613593  0.664495  1
  O  O34  1  0.256964  0.174173  0.983441  1
  O  O35  1  0.013227  0.661000  0.456145  1
  O  O36  1  0.172666  0.264016  0.762543  1
  O  O37  1  0.149152  0.855260  0.796934  1
  O  O38  1  0.262915  0.461909  0.885513  1
  O  O39  1  0.159664  0.849046  0.550006  1
  O  O40  1  0.053663  0.614382  0.161829  1
  O  O41  1  0.258485  0.173737  0.483263  1
  O  O42  1  0.172048  0.264451  0.262682  1
  O  O43  1  0.154755  0.843659  0.304400  1
  O  O44  1  0.298986  0.546495  0.602601  1
  O  O45  1  0.390026  0.948388  0.913480  1
  O  O46  1  0.342596  0.989680  0.704491  1
  O  O47  1  0.461579  0.259303  0.865200  1
  O  O48  1  0.264141  0.462323  0.384768  1
  O  O49  1  0.450798  0.704903  0.850719  1
  O  O50  1  0.159510  0.847538  0.049305  1
  O  O51  1  0.299457  0.544629  0.102480  1
  O  O52  1  0.398285  0.950974  0.412459  1
  O  O53  1  0.546177  0.295452  0.648059  1
  O  O54  1  0.337064  0.987068  0.203742  1
  O  O55  1  0.461733  0.260934  0.365719  1
  O  O56  1  0.539695  0.735754  0.632985  1
  O  O57  1  0.659585  0.012571  0.799690  1
  O  O58  1  0.455949  0.703511  0.352440  1
  O  O59  1  0.597001  0.046546  0.588520  1
  O  O60  1  0.702554  0.451106  0.898346  1
  O  O61  1  0.853292  0.151392  0.951097  1
  O  O62  1  0.547876  0.294778  0.147680  1
  O  O63  1  0.741544  0.536285  0.614270  1
  O  O64  1  0.537628  0.735653  0.134240  1
  O  O65  1  0.656534  0.010310  0.295367  1
  O  O66  1  0.595506  0.046958  0.085651  1
  O  O67  1  0.700915  0.456709  0.396515  1
  O  O68  1  0.844190  0.143723  0.696652  1
  O  O69  1  0.826643  0.735217  0.738070  1
  O  O70  1  0.742878  0.826677  0.517489  1
  O  O71  1  0.948911  0.391634  0.836485  1
  O  O72  1  0.842320  0.157520  0.443933  1
  O  O73  1  0.740509  0.538577  0.114291  1
  O  O74  1  0.845575  0.142688  0.196291  1
  O  O75  1  0.826072  0.742211  0.233717  1
  O  O76  1  0.985044  0.338207  0.548124  1
  O  O77  1  0.736398  0.827240  0.013148  1
  O  O78  1  0.951246  0.400806  0.337754  1
  O  O79  1  0.988180  0.341784  0.047465  1
