# generated using pymatgen
data_V4OF11
_symmetry_space_group_name_H-M   'P 1'
_cell_length_a   5.23444423
_cell_length_b   5.49120554
_cell_length_c   17.51903395
_cell_angle_alpha   91.41406480
_cell_angle_beta   99.02428315
_cell_angle_gamma   60.92074393
_symmetry_Int_Tables_number   1
_chemical_formula_structural   V4OF11
_chemical_formula_sum   'V8 O2 F22'
_cell_volume   433.85913615
_cell_formula_units_Z   2
loop_
 _symmetry_equiv_pos_site_id
 _symmetry_equiv_pos_as_xyz
  1  'x, y, z'
loop_
 _atom_site_type_symbol
 _atom_site_label
 _atom_site_symmetry_multiplicity
 _atom_site_fract_x
 _atom_site_fract_y
 _atom_site_fract_z
 _atom_site_occupancy
  V  V0  1  0.750000  0.625000  0.125000  1
  V  V1  1  0.750000  0.125000  0.625000  1
  V  V2  1  0.461996  0.268816  0.247023  1
  V  V3  1  0.502502  0.748742  0.750426  1
  V  V4  1  0.240189  0.879865  0.373081  1
  V  V5  1  0.259811  0.370135  0.876919  1
  V  V6  1  0.038004  0.981184  0.002977  1
  V  V7  1  0.997498  0.501258  0.499574  1
  O  O8  1  0.397906  0.799817  0.040796  1
  O  O9  1  0.102094  0.450183  0.209204  1
  F  F10  1  0.914422  0.842242  0.086090  1
  F  F11  1  0.965593  0.317490  0.059964  1
  F  F12  1  0.977500  0.813467  0.563201  1
  F  F13  1  0.534407  0.932510  0.190036  1
  F  F14  1  0.906457  0.048998  0.286715  1
  F  F15  1  0.927470  0.337440  0.588257  1
  F  F16  1  0.930615  0.534249  0.787759  1
  F  F17  1  0.585578  0.407758  0.163910  1
  F  F18  1  0.572530  0.912560  0.661743  1
  F  F19  1  0.569385  0.715751  0.462241  1
  F  F20  1  0.474000  0.561636  0.312553  1
  F  F21  1  0.522500  0.436533  0.686799  1
  F  F22  1  0.422929  0.091735  0.337177  1
  F  F23  1  0.424640  0.287659  0.535467  1
  F  F24  1  0.430325  0.586887  0.838775  1
  F  F25  1  0.593543  0.201002  0.963285  1
  F  F26  1  0.069675  0.663113  0.411225  1
  F  F27  1  0.075360  0.962341  0.714533  1
  F  F28  1  0.480932  0.061425  0.813059  1
  F  F29  1  0.026000  0.688364  0.937447  1
  F  F30  1  0.019068  0.188575  0.436941  1
  F  F31  1  0.077071  0.158265  0.912823  1
