# generated using pymatgen
data_V(PO3)4
_symmetry_space_group_name_H-M   'P 1'
_cell_length_a   7.17110157
_cell_length_b   7.18298332
_cell_length_c   9.86383857
_cell_angle_alpha   71.44997674
_cell_angle_beta   80.16187239
_cell_angle_gamma   109.13594673
_symmetry_Int_Tables_number   1
_chemical_formula_structural   V(PO3)4
_chemical_formula_sum   'V2 P8 O24'
_cell_volume   433.06606174
_cell_formula_units_Z   2
loop_
 _symmetry_equiv_pos_site_id
 _symmetry_equiv_pos_as_xyz
  1  'x, y, z'
loop_
 _atom_site_type_symbol
 _atom_site_label
 _atom_site_symmetry_multiplicity
 _atom_site_fract_x
 _atom_site_fract_y
 _atom_site_fract_z
 _atom_site_occupancy
  V  V0  1  0.052815  0.805701  0.748487  1
  V  V1  1  0.947883  0.198390  0.248330  1
  P  P2  1  0.264380  0.730573  0.016968  1
  P  P3  1  0.247564  0.284569  0.480611  1
  P  P4  1  0.281549  0.492262  0.694085  1
  P  P5  1  0.314430  0.025218  0.192810  1
  P  P6  1  0.684251  0.976777  0.804801  1
  P  P7  1  0.718219  0.508469  0.307196  1
  P  P8  1  0.751683  0.716958  0.518564  1
  P  P9  1  0.734511  0.273933  0.978884  1
  O  O10  1  0.147269  0.492334  0.098395  1
  O  O11  1  0.281866  0.831474  0.138288  1
  O  O12  1  0.090518  0.248054  0.399318  1
  O  O13  1  0.195613  0.854614  0.896559  1
  O  O14  1  0.355886  0.970949  0.337549  1
  O  O15  1  0.127144  0.083623  0.183736  1
  O  O16  1  0.232766  0.688888  0.685068  1
  O  O17  1  0.217871  0.447308  0.553729  1
  O  O18  1  0.190059  0.304675  0.838498  1
  O  O19  1  0.249850  0.095228  0.602746  1
  O  O20  1  0.469712  0.423817  0.358689  1
  O  O21  1  0.501126  0.771959  0.946403  1
  O  O22  1  0.499495  0.232263  0.054290  1
  O  O23  1  0.530385  0.576635  0.642958  1
  O  O24  1  0.749391  0.906286  0.396486  1
  O  O25  1  0.808825  0.696146  0.163200  1
  O  O26  1  0.780934  0.551013  0.448427  1
  O  O27  1  0.767831  0.313278  0.313653  1
  O  O28  1  0.873010  0.921282  0.813165  1
  O  O29  1  0.641746  0.028396  0.660886  1
  O  O30  1  0.806657  0.152265  0.098283  1
  O  O31  1  0.913569  0.753947  0.596808  1
  O  O32  1  0.713595  0.172999  0.857142  1
  O  O33  1  0.848820  0.512124  0.897010  1
