# generated using pymatgen
data_Na2VPO6
_symmetry_space_group_name_H-M   'P 1'
_cell_length_a   11.46692321
_cell_length_b   4.93044942
_cell_length_c   9.02752074
_cell_angle_alpha   90.00000000
_cell_angle_beta   90.00000000
_cell_angle_gamma   90.00000000
_symmetry_Int_Tables_number   1
_chemical_formula_structural   Na2VPO6
_chemical_formula_sum   'Na8 V4 P4 O24'
_cell_volume   510.38970642
_cell_formula_units_Z   4
loop_
 _symmetry_equiv_pos_site_id
 _symmetry_equiv_pos_as_xyz
  1  'x, y, z'
loop_
 _atom_site_type_symbol
 _atom_site_label
 _atom_site_symmetry_multiplicity
 _atom_site_fract_x
 _atom_site_fract_y
 _atom_site_fract_z
 _atom_site_occupancy
  Na  Na0  1  0.081441  0.014060  0.323065  1
  Na  Na1  1  0.127489  0.539468  0.621962  1
  Na  Na2  1  0.372511  0.039468  0.121962  1
  Na  Na3  1  0.418559  0.514060  0.823065  1
  Na  Na4  1  0.581441  0.485940  0.323065  1
  Na  Na5  1  0.627489  0.960532  0.621962  1
  Na  Na6  1  0.872511  0.460532  0.121962  1
  Na  Na7  1  0.918559  0.985940  0.823065  1
  V  V8  1  0.124638  0.473122  0.000996  1
  V  V9  1  0.375362  0.973122  0.500996  1
  V  V10  1  0.624638  0.026878  0.000996  1
  V  V11  1  0.875362  0.526878  0.500996  1
  P  P12  1  0.220871  0.086413  0.806883  1
  P  P13  1  0.279129  0.586413  0.306883  1
  P  P14  1  0.720871  0.413587  0.806883  1
  P  P15  1  0.779129  0.913587  0.306883  1
  O  O16  1  0.987089  0.318042  0.470750  1
  O  O17  1  0.064129  0.250597  0.114870  1
  O  O18  1  0.098288  0.233830  0.813356  1
  O  O19  1  0.217429  0.746760  0.434085  1
  O  O20  1  0.219178  0.780010  0.827227  1
  O  O21  1  0.222914  0.661841  0.152646  1
  O  O22  1  0.277086  0.161841  0.652646  1
  O  O23  1  0.280822  0.280010  0.327227  1
  O  O24  1  0.282571  0.246760  0.934085  1
  O  O25  1  0.401712  0.733830  0.313356  1
  O  O26  1  0.435871  0.750597  0.614870  1
  O  O27  1  0.512911  0.818042  0.970750  1
  O  O28  1  0.487089  0.181958  0.470750  1
  O  O29  1  0.564129  0.249403  0.114870  1
  O  O30  1  0.598288  0.266170  0.813356  1
  O  O31  1  0.717429  0.753240  0.434085  1
  O  O32  1  0.719178  0.719990  0.827227  1
  O  O33  1  0.722914  0.838159  0.152646  1
  O  O34  1  0.777086  0.338159  0.652646  1
  O  O35  1  0.780822  0.219990  0.327227  1
  O  O36  1  0.782571  0.253240  0.934085  1
  O  O37  1  0.901712  0.766170  0.313356  1
  O  O38  1  0.935871  0.749403  0.614870  1
  O  O39  1  0.012911  0.681958  0.970750  1
