# generated using pymatgen
data_Li5Cu(PO4)2
_symmetry_space_group_name_H-M   'P 1'
_cell_length_a   6.15457625
_cell_length_b   5.38363093
_cell_length_c   9.98142735
_cell_angle_alpha   89.89632408
_cell_angle_beta   90.00000000
_cell_angle_gamma   90.00000000
_symmetry_Int_Tables_number   1
_chemical_formula_structural   Li5Cu(PO4)2
_chemical_formula_sum   'Li10 Cu2 P4 O16'
_cell_volume   330.72374393
_cell_formula_units_Z   2
loop_
 _symmetry_equiv_pos_site_id
 _symmetry_equiv_pos_as_xyz
  1  'x, y, z'
loop_
 _atom_site_type_symbol
 _atom_site_label
 _atom_site_symmetry_multiplicity
 _atom_site_fract_x
 _atom_site_fract_y
 _atom_site_fract_z
 _atom_site_occupancy
  Li  Li0  1  0.000000  0.152739  0.742641  1
  Li  Li1  1  0.000000  0.153269  0.247234  1
  Li  Li2  1  0.245287  0.326053  0.495188  1
  Li  Li3  1  0.251593  0.675643  0.247902  1
  Li  Li4  1  0.254300  0.671585  0.742795  1
  Li  Li5  1  0.500000  0.848844  0.997463  1
  Li  Li6  1  0.500000  0.842346  0.495711  1
  Li  Li7  1  0.745700  0.671585  0.742795  1
  Li  Li8  1  0.748407  0.675643  0.247902  1
  Li  Li9  1  0.754713  0.326053  0.495188  1
  Cu  Cu10  1  0.245924  0.340573  0.005195  1
  Cu  Cu11  1  0.754076  0.340573  0.005195  1
  P  P12  1  0.000000  0.825493  0.996693  1
  P  P13  1  0.000000  0.823749  0.499148  1
  P  P14  1  0.500000  0.171948  0.257680  1
  P  P15  1  0.500000  0.169611  0.741804  1
  O  O16  1  0.000000  0.817234  0.655121  1
  O  O17  1  0.000000  0.098674  0.449116  1
  O  O18  1  0.000000  0.825192  0.152339  1
  O  O19  1  0.000000  0.094857  0.938773  1
  O  O20  1  0.207060  0.687114  0.446306  1
  O  O21  1  0.210190  0.697473  0.941899  1
  O  O22  1  0.291183  0.314160  0.210905  1
  O  O23  1  0.292891  0.310056  0.692263  1
  O  O24  1  0.500000  0.160867  0.898269  1
  O  O25  1  0.500000  0.896120  0.690325  1
  O  O26  1  0.500000  0.171680  0.413179  1
  O  O27  1  0.500000  0.902061  0.202187  1
  O  O28  1  0.707109  0.310056  0.692263  1
  O  O29  1  0.708817  0.314160  0.210905  1
  O  O30  1  0.792940  0.687114  0.446306  1
  O  O31  1  0.789810  0.697473  0.941899  1
