# generated using pymatgen
data_Ti5V(PO4)6
_symmetry_space_group_name_H-M   'P 1'
_cell_length_a   8.44972190
_cell_length_b   8.75578750
_cell_length_c   8.75578745
_cell_angle_alpha   60.00000422
_cell_angle_beta   58.79437531
_cell_angle_gamma   58.79437748
_symmetry_Int_Tables_number   1
_chemical_formula_structural   Ti5V(PO4)6
_chemical_formula_sum   'Ti5 V1 P6 O24'
_cell_volume   449.52983459
_cell_formula_units_Z   1
loop_
 _symmetry_equiv_pos_site_id
 _symmetry_equiv_pos_as_xyz
  1  'x, y, z'
loop_
 _atom_site_type_symbol
 _atom_site_label
 _atom_site_symmetry_multiplicity
 _atom_site_fract_x
 _atom_site_fract_y
 _atom_site_fract_z
 _atom_site_occupancy
  Ti  Ti0  1  0.000913  0.999696  0.999696  1
  Ti  Ti1  1  0.081499  0.639501  0.639501  1
  Ti  Ti2  1  0.496151  0.501283  0.501283  1
  Ti  Ti3  1  0.425493  0.858169  0.858169  1
  Ti  Ti4  1  0.918977  0.360341  0.360341  1
  V  V5  1  0.580830  0.139723  0.139723  1
  P  P6  1  0.249974  0.248932  0.541255  1
  P  P7  1  0.249974  0.959839  0.248932  1
  P  P8  1  0.249974  0.541255  0.959839  1
  P  P9  1  0.751190  0.457114  0.040726  1
  P  P10  1  0.751190  0.040726  0.750970  1
  P  P11  1  0.751190  0.750970  0.457114  1
  O  O12  1  0.062575  0.115806  0.321253  1
  O  O13  1  0.062575  0.500367  0.115806  1
  O  O14  1  0.062575  0.321253  0.500367  1
  O  O15  1  0.218128  0.095012  0.742260  1
  O  O16  1  0.435815  0.179576  0.390887  1
  O  O17  1  0.276170  0.404322  0.560760  1
  O  O18  1  0.218128  0.944601  0.095012  1
  O  O19  1  0.276170  0.758750  0.404322  1
  O  O20  1  0.564865  0.613381  0.998553  1
  O  O21  1  0.276170  0.560760  0.758750  1
  O  O22  1  0.787378  0.258472  0.053925  1
  O  O23  1  0.564865  0.998553  0.823201  1
  O  O24  1  0.435815  0.993723  0.179576  1
  O  O25  1  0.218128  0.742260  0.944601  1
  O  O26  1  0.717257  0.445597  0.240494  1
  O  O27  1  0.435815  0.390887  0.993723  1
  O  O28  1  0.717257  0.240494  0.596652  1
  O  O29  1  0.787378  0.053925  0.900225  1
  O  O30  1  0.717257  0.596652  0.445597  1
  O  O31  1  0.564865  0.823201  0.613381  1
  O  O32  1  0.787378  0.900225  0.258472  1
  O  O33  1  0.935361  0.675742  0.503348  1
  O  O34  1  0.935361  0.503348  0.885549  1
  O  O35  1  0.935361  0.885549  0.675742  1
