# generated using pymatgen
data_LiNd14(Cu3O14)2
_symmetry_space_group_name_H-M   'P 1'
_cell_length_a   8.89589140
_cell_length_b   8.79451245
_cell_length_c   8.79451245
_cell_angle_alpha   88.75552822
_cell_angle_beta   95.78136329
_cell_angle_gamma   95.78136329
_symmetry_Int_Tables_number   1
_chemical_formula_structural   LiNd14(Cu3O14)2
_chemical_formula_sum   'Li1 Nd14 Cu6 O28'
_cell_volume   681.01080647
_cell_formula_units_Z   1
loop_
 _symmetry_equiv_pos_site_id
 _symmetry_equiv_pos_as_xyz
  1  'x, y, z'
loop_
 _atom_site_type_symbol
 _atom_site_label
 _atom_site_symmetry_multiplicity
 _atom_site_fract_x
 _atom_site_fract_y
 _atom_site_fract_z
 _atom_site_occupancy
  Li  Li0  1  0.000000  0.000000  0.000000  1
  Nd  Nd1  1  0.000000  0.649491  0.350509  1
  Nd  Nd2  1  0.000000  0.350509  0.649491  1
  Nd  Nd3  1  0.142537  0.362544  0.064749  1
  Nd  Nd4  1  0.142537  0.064749  0.362544  1
  Nd  Nd5  1  0.284896  0.077365  0.779698  1
  Nd  Nd6  1  0.284896  0.779698  0.077365  1
  Nd  Nd7  1  0.429019  0.792995  0.492786  1
  Nd  Nd8  1  0.429019  0.492786  0.792995  1
  Nd  Nd9  1  0.570981  0.207005  0.507214  1
  Nd  Nd10  1  0.570981  0.507214  0.207005  1
  Nd  Nd11  1  0.715104  0.220302  0.922635  1
  Nd  Nd12  1  0.715104  0.922635  0.220302  1
  Nd  Nd13  1  0.857463  0.637456  0.935251  1
  Nd  Nd14  1  0.857463  0.935251  0.637456  1
  Cu  Cu15  1  0.428932  0.142797  0.142797  1
  Cu  Cu16  1  0.285464  0.429369  0.429369  1
  Cu  Cu17  1  0.142638  0.713596  0.713596  1
  Cu  Cu18  1  0.714536  0.570631  0.570631  1
  Cu  Cu19  1  0.857362  0.286404  0.286404  1
  Cu  Cu20  1  0.571068  0.857203  0.857203  1
  O  O21  1  0.071591  0.357372  0.357372  1
  O  O22  1  0.223086  0.074526  0.074526  1
  O  O23  1  0.071104  0.107569  0.607189  1
  O  O24  1  0.071104  0.607189  0.107569  1
  O  O25  1  0.356579  0.035564  0.535466  1
  O  O26  1  0.500000  0.000000  0.000000  1
  O  O27  1  0.213694  0.321036  0.821141  1
  O  O28  1  0.356579  0.535466  0.035564  1
  O  O29  1  0.213694  0.821141  0.321036  1
  O  O30  1  0.356588  0.288240  0.288240  1
  O  O31  1  0.075166  0.850394  0.850394  1
  O  O32  1  0.213958  0.573293  0.573293  1
  O  O33  1  0.361241  0.786334  0.786334  1
  O  O34  1  0.638759  0.213666  0.213666  1
  O  O35  1  0.500000  0.249217  0.750783  1
  O  O36  1  0.500000  0.500000  0.500000  1
  O  O37  1  0.500000  0.750783  0.249217  1
  O  O38  1  0.643412  0.711760  0.711760  1
  O  O39  1  0.643421  0.964436  0.464534  1
  O  O40  1  0.924834  0.149606  0.149606  1
  O  O41  1  0.786306  0.178859  0.678964  1
  O  O42  1  0.786306  0.678964  0.178859  1
  O  O43  1  0.786042  0.426707  0.426707  1
  O  O44  1  0.643421  0.464534  0.964436  1
  O  O45  1  0.776914  0.925474  0.925474  1
  O  O46  1  0.928409  0.642628  0.642628  1
  O  O47  1  0.928896  0.392811  0.892431  1
  O  O48  1  0.928896  0.892431  0.392811  1
