# generated using pymatgen
data_Gd(BiO2)4
_symmetry_space_group_name_H-M   'P 1'
_cell_length_a   3.76044300
_cell_length_b   6.99513792
_cell_length_c   8.87337231
_cell_angle_alpha   82.59665434
_cell_angle_beta   102.32753331
_cell_angle_gamma   74.55068042
_symmetry_Int_Tables_number   1
_chemical_formula_structural   Gd(BiO2)4
_chemical_formula_sum   'Gd1 Bi4 O8'
_cell_volume   215.47349679
_cell_formula_units_Z   1
loop_
 _symmetry_equiv_pos_site_id
 _symmetry_equiv_pos_as_xyz
  1  'x, y, z'
loop_
 _atom_site_type_symbol
 _atom_site_label
 _atom_site_symmetry_multiplicity
 _atom_site_fract_x
 _atom_site_fract_y
 _atom_site_fract_z
 _atom_site_occupancy
  Gd  Gd0  1  0.986676  0.034117  0.012889  1
  Bi  Bi1  1  0.402621  0.396957  0.200869  1
  Bi  Bi2  1  0.807610  0.771013  0.381161  1
  Bi  Bi3  1  0.226654  0.179457  0.639232  1
  Bi  Bi4  1  0.574957  0.618328  0.768176  1
  O  O5  1  0.558273  0.067960  0.185731  1
  O  O6  1  0.824450  0.391175  0.041495  1
  O  O7  1  0.983258  0.390557  0.360073  1
  O  O8  1  0.231335  0.728877  0.197280  1
  O  O9  1  0.750389  0.250019  0.756264  1
  O  O10  1  0.052181  0.546965  0.652192  1
  O  O11  1  0.331281  0.865162  0.527079  1
  O  O12  1  0.465004  0.940002  0.876874  1
