# generated using pymatgen
data_Li4NbIn3(PO4)6
_symmetry_space_group_name_H-M   'P 1'
_cell_length_a   8.75089737
_cell_length_b   9.01364836
_cell_length_c   12.49416207
_cell_angle_alpha   90.00000000
_cell_angle_beta   90.35669337
_cell_angle_gamma   90.00000000
_symmetry_Int_Tables_number   1
_chemical_formula_structural   Li4NbIn3(PO4)6
_chemical_formula_sum   'Li8 Nb2 In6 P12 O48'
_cell_volume   985.48931782
_cell_formula_units_Z   2
loop_
 _symmetry_equiv_pos_site_id
 _symmetry_equiv_pos_as_xyz
  1  'x, y, z'
loop_
 _atom_site_type_symbol
 _atom_site_label
 _atom_site_symmetry_multiplicity
 _atom_site_fract_x
 _atom_site_fract_y
 _atom_site_fract_z
 _atom_site_occupancy
  Li  Li0  1  0.207358  0.796074  0.175502  1
  Li  Li1  1  0.232341  0.720150  0.825713  1
  Li  Li2  1  0.270026  0.217690  0.672627  1
  Li  Li3  1  0.292246  0.286635  0.327992  1
  Li  Li4  1  0.707357  0.703926  0.675502  1
  Li  Li5  1  0.732341  0.779850  0.325713  1
  Li  Li6  1  0.770026  0.282310  0.172627  1
  Li  Li7  1  0.792246  0.213365  0.827992  1
  Nb  Nb8  1  0.251679  0.460053  0.109801  1
  Nb  Nb9  1  0.751679  0.039947  0.609801  1
  In  In10  1  0.253075  0.040432  0.887292  1
  In  In11  1  0.247592  0.543137  0.611654  1
  In  In12  1  0.251671  0.959024  0.390503  1
  In  In13  1  0.753075  0.459568  0.387292  1
  In  In14  1  0.747592  0.956863  0.111654  1
  In  In15  1  0.751671  0.540976  0.890503  1
  P  P16  1  0.044915  0.252930  0.499266  1
  P  P17  1  0.106057  0.391127  0.849750  1
  P  P18  1  0.102716  0.110223  0.148976  1
  P  P19  1  0.393082  0.609675  0.346610  1
  P  P20  1  0.397030  0.890726  0.649399  1
  P  P21  1  0.457541  0.745570  0.001870  1
  P  P22  1  0.544915  0.247070  0.999266  1
  P  P23  1  0.606057  0.108873  0.349750  1
  P  P24  1  0.602716  0.389777  0.648976  1
  P  P25  1  0.893082  0.890325  0.846610  1
  P  P26  1  0.897030  0.609274  0.149399  1
  P  P27  1  0.957541  0.754430  0.501870  1
  O  O28  1  0.043942  0.669764  0.588113  1
  O  O29  1  0.045205  0.875240  0.444597  1
  O  O30  1  0.068383  0.878538  0.857760  1
  O  O31  1  0.075017  0.584568  0.169274  1
  O  O32  1  0.107145  0.346657  0.592725  1
  O  O33  1  0.144545  0.413743  0.973982  1
  O  O34  1  0.140748  0.995623  0.236501  1
  O  O35  1  0.158063  0.235399  0.815213  1
  O  O36  1  0.171283  0.268718  0.181381  1
  O  O37  1  0.182645  0.175631  0.446817  1
  O  O38  1  0.180276  0.057505  0.047212  1
  O  O39  1  0.191467  0.513182  0.788564  1
  O  O40  1  0.310784  0.010268  0.713276  1
  O  O41  1  0.313820  0.548827  0.446104  1
  O  O42  1  0.320075  0.662979  0.063959  1
  O  O43  1  0.327028  0.759370  0.307670  1
  O  O44  1  0.356909  0.732455  0.689096  1
  O  O45  1  0.355909  0.489882  0.255570  1
  O  O46  1  0.372856  0.901870  0.529122  1
  O  O47  1  0.375761  0.840307  0.916958  1
  O  O48  1  0.431851  0.102429  0.334003  1
  O  O49  1  0.427485  0.371158  0.636099  1
  O  O50  1  0.454995  0.166684  0.913086  1
  O  O51  1  0.436478  0.365924  0.055964  1
  O  O52  1  0.545205  0.624760  0.944597  1
  O  O53  1  0.543942  0.830236  0.088113  1
  O  O54  1  0.568383  0.621462  0.357760  1
  O  O55  1  0.575017  0.915432  0.669274  1
  O  O56  1  0.607145  0.153343  0.092725  1
  O  O57  1  0.644545  0.086257  0.473982  1
  O  O58  1  0.640748  0.504377  0.736501  1
  O  O59  1  0.658063  0.264601  0.315213  1
  O  O60  1  0.671283  0.231282  0.681381  1
  O  O61  1  0.682645  0.324369  0.946817  1
  O  O62  1  0.680276  0.442495  0.547212  1
  O  O63  1  0.691467  0.986818  0.288564  1
  O  O64  1  0.810784  0.489732  0.213276  1
  O  O65  1  0.813820  0.951173  0.946104  1
  O  O66  1  0.820075  0.837021  0.563959  1
  O  O67  1  0.827028  0.740630  0.807670  1
  O  O68  1  0.856909  0.767545  0.189096  1
  O  O69  1  0.855909  0.010118  0.755570  1
  O  O70  1  0.872856  0.598130  0.029122  1
  O  O71  1  0.875761  0.659693  0.416958  1
  O  O72  1  0.931851  0.397571  0.834003  1
  O  O73  1  0.927485  0.128842  0.136099  1
  O  O74  1  0.936478  0.134076  0.555964  1
  O  O75  1  0.954994  0.333316  0.413086  1
