# generated using pymatgen
data_LiSb(PO3)4
_symmetry_space_group_name_H-M   'P 1'
_cell_length_a   10.08406720
_cell_length_b   9.28542375
_cell_length_c   10.70068637
_cell_angle_alpha   90.00000000
_cell_angle_beta   73.37514962
_cell_angle_gamma   90.00000000
_symmetry_Int_Tables_number   1
_chemical_formula_structural   LiSb(PO3)4
_chemical_formula_sum   'Li4 Sb4 P16 O48'
_cell_volume   960.07379393
_cell_formula_units_Z   4
loop_
 _symmetry_equiv_pos_site_id
 _symmetry_equiv_pos_as_xyz
  1  'x, y, z'
loop_
 _atom_site_type_symbol
 _atom_site_label
 _atom_site_symmetry_multiplicity
 _atom_site_fract_x
 _atom_site_fract_y
 _atom_site_fract_z
 _atom_site_occupancy
  Li  Li0  1  0.223276  0.180568  0.018013  1
  Li  Li1  1  0.276724  0.680568  0.481987  1
  Li  Li2  1  0.723276  0.319432  0.518013  1
  Li  Li3  1  0.776724  0.819432  0.981987  1
  Sb  Sb4  1  0.047393  0.407125  0.753757  1
  Sb  Sb5  1  0.547393  0.092875  0.253757  1
  Sb  Sb6  1  0.452607  0.907125  0.746243  1
  Sb  Sb7  1  0.952607  0.592875  0.246243  1
  P  P8  1  0.179461  0.817161  0.049671  1
  P  P9  1  0.008126  0.876164  0.700893  1
  P  P10  1  0.267582  0.994174  0.238729  1
  P  P11  1  0.232418  0.494174  0.261271  1
  P  P12  1  0.229974  0.116816  0.660700  1
  P  P13  1  0.270026  0.616816  0.839300  1
  P  P14  1  0.320539  0.317161  0.450329  1
  P  P15  1  0.508126  0.623836  0.200893  1
  P  P16  1  0.491874  0.376164  0.799107  1
  P  P17  1  0.679461  0.682839  0.549671  1
  P  P18  1  0.729974  0.383184  0.160700  1
  P  P19  1  0.770026  0.883184  0.339300  1
  P  P20  1  0.767582  0.505826  0.738729  1
  P  P21  1  0.732418  0.005826  0.761271  1
  P  P22  1  0.991874  0.123836  0.299107  1
  P  P23  1  0.820539  0.182839  0.950329  1
  O  O24  1  0.039131  0.739679  0.100681  1
  O  O25  1  0.044084  0.177362  0.163555  1
  O  O26  1  0.121253  0.036875  0.334023  1
  O  O27  1  0.238649  0.841506  0.173175  1
  O  O28  1  0.140825  0.462636  0.171516  1
  O  O29  1  0.082691  0.788176  0.586194  1
  O  O30  1  0.096837  0.025068  0.705651  1
  O  O31  1  0.166155  0.599630  0.366144  1
  O  O32  1  0.333845  0.099630  0.133856  1
  O  O33  1  0.217585  0.190108  0.527193  1
  O  O34  1  0.359175  0.962636  0.328484  1
  O  O35  1  0.139049  0.522143  0.872593  1
  O  O36  1  0.261351  0.341506  0.326825  1
  O  O37  1  0.187826  0.947464  0.967916  1
  O  O38  1  0.378747  0.536875  0.165977  1
  O  O39  1  0.277428  0.735616  0.741723  1
  O  O40  1  0.222572  0.235616  0.758277  1
  O  O41  1  0.312174  0.447464  0.532084  1
  O  O42  1  0.360951  0.022143  0.627407  1
  O  O43  1  0.282415  0.690108  0.972807  1
  O  O44  1  0.455916  0.677362  0.336445  1
  O  O45  1  0.460869  0.239679  0.399319  1
  O  O46  1  0.582691  0.711824  0.086194  1
  O  O47  1  0.403163  0.525068  0.794349  1
  O  O48  1  0.596837  0.474932  0.205651  1
  O  O49  1  0.417309  0.288176  0.913806  1
  O  O50  1  0.539131  0.760321  0.600681  1
  O  O51  1  0.544084  0.322638  0.663555  1
  O  O52  1  0.717585  0.309892  0.027193  1
  O  O53  1  0.639049  0.977857  0.372593  1
  O  O54  1  0.687826  0.552536  0.467916  1
  O  O55  1  0.777428  0.764384  0.241723  1
  O  O56  1  0.722572  0.264384  0.258277  1
  O  O57  1  0.621253  0.463125  0.834023  1
  O  O58  1  0.812174  0.052536  0.032084  1
  O  O59  1  0.738649  0.658494  0.673175  1
  O  O60  1  0.860951  0.477857  0.127407  1
  O  O61  1  0.640825  0.037364  0.671516  1
  O  O62  1  0.782415  0.809892  0.472807  1
  O  O63  1  0.666155  0.900370  0.866144  1
  O  O64  1  0.833845  0.400370  0.633856  1
  O  O65  1  0.903163  0.974932  0.294349  1
  O  O66  1  0.917309  0.211824  0.413806  1
  O  O67  1  0.859175  0.537364  0.828484  1
  O  O68  1  0.761351  0.158494  0.826825  1
  O  O69  1  0.878747  0.963125  0.665977  1
  O  O70  1  0.955916  0.822638  0.836445  1
  O  O71  1  0.960869  0.260321  0.899319  1
