# generated using pymatgen
data_Li2CoOF3
_symmetry_space_group_name_H-M   'P 1'
_cell_length_a   5.36570365
_cell_length_b   5.36570365
_cell_length_c   6.01757513
_cell_angle_alpha   87.13578379
_cell_angle_beta   92.86421621
_cell_angle_gamma   119.24035680
_symmetry_Int_Tables_number   1
_chemical_formula_structural   Li2CoOF3
_chemical_formula_sum   'Li4 Co2 O2 F6'
_cell_volume   150.92094151
_cell_formula_units_Z   2
loop_
 _symmetry_equiv_pos_site_id
 _symmetry_equiv_pos_as_xyz
  1  'x, y, z'
loop_
 _atom_site_type_symbol
 _atom_site_label
 _atom_site_symmetry_multiplicity
 _atom_site_fract_x
 _atom_site_fract_y
 _atom_site_fract_z
 _atom_site_occupancy
  Li  Li0  1  0.275574  0.685986  0.677539  1
  Li  Li1  1  0.314014  0.724426  0.177539  1
  Li  Li2  1  0.673927  0.353674  0.837313  1
  Li  Li3  1  0.646326  0.326073  0.337313  1
  Co  Co4  1  0.050230  0.086638  0.529289  1
  Co  Co5  1  0.913362  0.949770  0.029289  1
  O  O6  1  0.971883  0.194951  0.801725  1
  O  O7  1  0.805049  0.028117  0.301725  1
  F  F8  1  0.500921  0.703690  0.931929  1
  F  F9  1  0.296310  0.499079  0.431929  1
  F  F10  1  0.417194  0.102049  0.599751  1
  F  F11  1  0.904125  0.666866  0.622453  1
  F  F12  1  0.333134  0.095875  0.122453  1
  F  F13  1  0.897951  0.582806  0.099751  1
