# generated using pymatgen
data_CoPO4
_symmetry_space_group_name_H-M   'P 1'
_cell_length_a   8.94918577
_cell_length_b   8.27856300
_cell_length_c   15.44884529
_cell_angle_alpha   90.00000000
_cell_angle_beta   89.45225285
_cell_angle_gamma   90.00000000
_symmetry_Int_Tables_number   1
_chemical_formula_structural   CoPO4
_chemical_formula_sum   'Co12 P12 O48'
_cell_volume   1144.49700242
_cell_formula_units_Z   12
loop_
 _symmetry_equiv_pos_site_id
 _symmetry_equiv_pos_as_xyz
  1  'x, y, z'
loop_
 _atom_site_type_symbol
 _atom_site_label
 _atom_site_symmetry_multiplicity
 _atom_site_fract_x
 _atom_site_fract_y
 _atom_site_fract_z
 _atom_site_occupancy
  Co  Co0  1  0.892950  0.335187  0.927261  1
  Co  Co1  1  0.439712  0.162176  0.093439  1
  Co  Co2  1  0.082593  0.839374  0.764991  1
  Co  Co3  1  0.607050  0.835187  0.572739  1
  Co  Co4  1  0.582593  0.660626  0.264991  1
  Co  Co5  1  0.107050  0.664813  0.072739  1
  Co  Co6  1  0.939712  0.337825  0.593440  1
  Co  Co7  1  0.560288  0.837824  0.906560  1
  Co  Co8  1  0.060288  0.662176  0.406560  1
  Co  Co9  1  0.417407  0.339374  0.735009  1
  Co  Co10  1  0.917407  0.160626  0.235009  1
  Co  Co11  1  0.392950  0.164813  0.427261  1
  P  P12  1  0.611145  0.222319  0.576587  1
  P  P13  1  0.442884  0.775022  0.092699  1
  P  P14  1  0.888855  0.722319  0.923413  1
  P  P15  1  0.424720  0.720818  0.729914  1
  P  P16  1  0.057116  0.275022  0.407301  1
  P  P17  1  0.924720  0.779182  0.229914  1
  P  P18  1  0.557116  0.224978  0.907301  1
  P  P19  1  0.388855  0.777681  0.423413  1
  P  P20  1  0.075280  0.220818  0.770086  1
  P  P21  1  0.111145  0.277681  0.076587  1
  P  P22  1  0.575280  0.279182  0.270086  1
  P  P23  1  0.942884  0.724978  0.592699  1
  O  O24  1  0.433731  0.769353  0.326471  1
  O  O25  1  0.259329  0.658564  0.441941  1
  O  O26  1  0.036846  0.844040  0.647056  1
  O  O27  1  0.338108  0.950274  0.448189  1
  O  O28  1  0.776137  0.739953  0.619011  1
  O  O29  1  0.536846  0.655960  0.147056  1
  O  O30  1  0.430992  0.548674  0.691756  1
  O  O31  1  0.025271  0.772761  0.979136  1
  O  O32  1  0.771275  0.748627  0.273838  1
  O  O33  1  0.048636  0.342273  0.844856  1
  O  O34  1  0.474729  0.272761  0.520864  1
  O  O35  1  0.566269  0.230647  0.673529  1
  O  O36  1  0.223863  0.260047  0.380989  1
  O  O37  1  0.040445  0.230789  0.504760  1
  O  O38  1  0.069008  0.048674  0.808244  1
  O  O39  1  0.547889  0.741162  0.798854  1
  O  O40  1  0.525271  0.727239  0.479136  1
  O  O41  1  0.451364  0.842273  0.655144  1
  O  O42  1  0.728725  0.248627  0.226162  1
  O  O43  1  0.759329  0.841436  0.941941  1
  O  O44  1  0.271275  0.751373  0.773838  1
  O  O45  1  0.047889  0.758838  0.298854  1
  O  O46  1  0.463154  0.344040  0.852944  1
  O  O47  1  0.498763  0.051799  0.890863  1
  O  O48  1  0.740671  0.341436  0.558059  1
  O  O49  1  0.459555  0.730789  0.995240  1
  O  O50  1  0.959555  0.769211  0.495240  1
  O  O51  1  0.540445  0.269211  0.004760  1
  O  O52  1  0.501237  0.948201  0.109137  1
  O  O53  1  0.276137  0.760047  0.119011  1
  O  O54  1  0.569008  0.451326  0.308244  1
  O  O55  1  0.548636  0.157727  0.344856  1
  O  O56  1  0.963154  0.155960  0.352944  1
  O  O57  1  0.001237  0.551799  0.609137  1
  O  O58  1  0.723863  0.239953  0.880989  1
  O  O59  1  0.240671  0.158564  0.058059  1
  O  O60  1  0.974729  0.227239  0.020864  1
  O  O61  1  0.161892  0.450274  0.051811  1
  O  O62  1  0.930992  0.951326  0.191756  1
  O  O63  1  0.452111  0.258838  0.201146  1
  O  O64  1  0.952111  0.241162  0.701146  1
  O  O65  1  0.838108  0.549726  0.948189  1
  O  O66  1  0.228725  0.251373  0.726162  1
  O  O67  1  0.066269  0.269353  0.173529  1
  O  O68  1  0.951364  0.657727  0.155144  1
  O  O69  1  0.933731  0.730647  0.826471  1
  O  O70  1  0.661892  0.049726  0.551811  1
  O  O71  1  0.998763  0.448201  0.390863  1
