# generated using pymatgen
data_LiMnF3
_symmetry_space_group_name_H-M   'P 1'
_cell_length_a   6.24083627
_cell_length_b   6.24090226
_cell_length_c   6.24093022
_cell_angle_alpha   90.00009291
_cell_angle_beta   89.99965370
_cell_angle_gamma   89.99999890
_symmetry_Int_Tables_number   1
_chemical_formula_structural   LiMnF3
_chemical_formula_sum   'Li4 Mn4 F12'
_cell_volume   243.07455352
_cell_formula_units_Z   4
loop_
 _symmetry_equiv_pos_site_id
 _symmetry_equiv_pos_as_xyz
  1  'x, y, z'
loop_
 _atom_site_type_symbol
 _atom_site_label
 _atom_site_symmetry_multiplicity
 _atom_site_fract_x
 _atom_site_fract_y
 _atom_site_fract_z
 _atom_site_occupancy
  Li  Li0  1  0.629651  0.629655  0.629653  1
  Li  Li1  1  0.370349  0.129651  0.870354  1
  Li  Li2  1  0.870348  0.370350  0.129658  1
  Li  Li3  1  0.129644  0.870350  0.370356  1
  Mn  Mn4  1  0.337261  0.337247  0.337240  1
  Mn  Mn5  1  0.162760  0.662735  0.837240  1
  Mn  Mn6  1  0.837245  0.162770  0.662760  1
  Mn  Mn7  1  0.662740  0.837232  0.162739  1
  F  F8  1  0.126071  0.990401  0.734457  1
  F  F9  1  0.009602  0.234455  0.373932  1
  F  F10  1  0.234456  0.373924  0.009605  1
  F  F11  1  0.265553  0.626073  0.509605  1
  F  F12  1  0.490400  0.765540  0.873927  1
  F  F13  1  0.373925  0.009597  0.234448  1
  F  F14  1  0.626072  0.509600  0.265546  1
  F  F15  1  0.509600  0.265546  0.626074  1
  F  F16  1  0.734454  0.126076  0.990397  1
  F  F17  1  0.765545  0.873933  0.490395  1
  F  F18  1  0.990397  0.734462  0.126065  1
  F  F19  1  0.873927  0.490403  0.765548  1
