# generated using pymatgen
data_Li7Mn4P9O32
_symmetry_space_group_name_H-M   'P 1'
_cell_length_a   13.58603653
_cell_length_b   13.58603653
_cell_length_c   6.60293844
_cell_angle_alpha   90.00000000
_cell_angle_beta   90.00000000
_cell_angle_gamma   90.00000000
_symmetry_Int_Tables_number   1
_chemical_formula_structural   Li7Mn4P9O32
_chemical_formula_sum   'Li14 Mn8 P18 O64'
_cell_volume   1218.77294312
_cell_formula_units_Z   2
loop_
 _symmetry_equiv_pos_site_id
 _symmetry_equiv_pos_as_xyz
  1  'x, y, z'
loop_
 _atom_site_type_symbol
 _atom_site_label
 _atom_site_symmetry_multiplicity
 _atom_site_fract_x
 _atom_site_fract_y
 _atom_site_fract_z
 _atom_site_occupancy
  Li  Li0  1  0.000000  0.000000  0.000000  1
  Li  Li1  1  0.000000  0.500000  0.137987  1
  Li  Li2  1  0.000000  0.500000  0.637987  1
  Li  Li3  1  0.091768  0.741886  0.837462  1
  Li  Li4  1  0.241886  0.591768  0.337462  1
  Li  Li5  1  0.258114  0.091768  0.162538  1
  Li  Li6  1  0.408232  0.241886  0.662538  1
  Li  Li7  1  0.500000  0.500000  0.500000  1
  Li  Li8  1  0.500000  0.000000  0.362013  1
  Li  Li9  1  0.500000  0.000000  0.862013  1
  Li  Li10  1  0.591768  0.758114  0.662538  1
  Li  Li11  1  0.741886  0.908232  0.162538  1
  Li  Li12  1  0.758114  0.408232  0.337462  1
  Li  Li13  1  0.908232  0.258114  0.837462  1
  Mn  Mn14  1  0.119886  0.198382  0.614974  1
  Mn  Mn15  1  0.198382  0.880114  0.385026  1
  Mn  Mn16  1  0.301618  0.380114  0.114974  1
  Mn  Mn17  1  0.380114  0.698382  0.885026  1
  Mn  Mn18  1  0.619886  0.301618  0.885026  1
  Mn  Mn19  1  0.698382  0.619886  0.114974  1
  Mn  Mn20  1  0.801618  0.119886  0.385026  1
  Mn  Mn21  1  0.880114  0.801618  0.614974  1
  P  P22  1  0.000000  0.000000  0.500000  1
  P  P23  1  0.062219  0.691730  0.387523  1
  P  P24  1  0.108034  0.244849  0.127769  1
  P  P25  1  0.191730  0.562219  0.887523  1
  P  P26  1  0.244849  0.891966  0.872231  1
  P  P27  1  0.255151  0.391966  0.627769  1
  P  P28  1  0.308270  0.062219  0.612477  1
  P  P29  1  0.391966  0.744849  0.372231  1
  P  P30  1  0.437781  0.191730  0.112477  1
  P  P31  1  0.500000  0.500000  0.000000  1
  P  P32  1  0.562219  0.808270  0.112477  1
  P  P33  1  0.608034  0.255151  0.372231  1
  P  P34  1  0.691730  0.937781  0.612477  1
  P  P35  1  0.744849  0.608034  0.627769  1
  P  P36  1  0.755151  0.108034  0.872231  1
  P  P37  1  0.808270  0.437781  0.887523  1
  P  P38  1  0.891966  0.755151  0.127769  1
  P  P39  1  0.937781  0.308270  0.387523  1
  O  O40  1  0.003207  0.720740  0.183120  1
  O  O41  1  0.015127  0.742896  0.571151  1
  O  O42  1  0.062644  0.065376  0.643890  1
  O  O43  1  0.065376  0.937356  0.356110  1
  O  O44  1  0.066098  0.580406  0.397799  1
  O  O45  1  0.080406  0.566098  0.897799  1
  O  O46  1  0.093042  0.190485  0.929693  1
  O  O47  1  0.144406  0.176056  0.293362  1
  O  O48  1  0.165723  0.734084  0.348972  1
  O  O49  1  0.164262  0.342733  0.109548  1
  O  O50  1  0.157267  0.335738  0.609548  1
  O  O51  1  0.176056  0.855594  0.706638  1
  O  O52  1  0.190485  0.906958  0.070307  1
  O  O53  1  0.220740  0.503207  0.683120  1
  O  O54  1  0.234084  0.665723  0.848972  1
  O  O55  1  0.242896  0.515127  0.071151  1
  O  O56  1  0.257104  0.015127  0.428849  1
  O  O57  1  0.265916  0.165723  0.651028  1
  O  O58  1  0.279260  0.003207  0.816880  1
  O  O59  1  0.309515  0.406958  0.429693  1
  O  O60  1  0.323944  0.355594  0.793362  1
  O  O61  1  0.342733  0.835738  0.890452  1
  O  O62  1  0.335738  0.842733  0.390452  1
  O  O63  1  0.334277  0.234084  0.151028  1
  O  O64  1  0.355594  0.676056  0.206638  1
  O  O65  1  0.406958  0.690485  0.570307  1
  O  O66  1  0.419594  0.066098  0.602201  1
  O  O67  1  0.433902  0.080406  0.102201  1
  O  O68  1  0.434624  0.437356  0.143890  1
  O  O69  1  0.437356  0.565376  0.856110  1
  O  O70  1  0.484873  0.242896  0.928849  1
  O  O71  1  0.496793  0.220740  0.316880  1
  O  O72  1  0.503207  0.779260  0.316880  1
  O  O73  1  0.515127  0.757104  0.928849  1
  O  O74  1  0.562644  0.434624  0.856110  1
  O  O75  1  0.565376  0.562644  0.143890  1
  O  O76  1  0.566098  0.919594  0.102201  1
  O  O77  1  0.580406  0.933902  0.602201  1
  O  O78  1  0.593042  0.309515  0.570307  1
  O  O79  1  0.644406  0.323944  0.206638  1
  O  O80  1  0.665723  0.765916  0.151028  1
  O  O81  1  0.664262  0.157267  0.390452  1
  O  O82  1  0.657267  0.164262  0.890452  1
  O  O83  1  0.676056  0.644406  0.793362  1
  O  O84  1  0.690485  0.593042  0.429693  1
  O  O85  1  0.720740  0.996793  0.816880  1
  O  O86  1  0.734084  0.834277  0.651028  1
  O  O87  1  0.742896  0.984873  0.428849  1
  O  O88  1  0.757104  0.484873  0.071151  1
  O  O89  1  0.765916  0.334277  0.848972  1
  O  O90  1  0.779260  0.496793  0.683120  1
  O  O91  1  0.809515  0.093042  0.070307  1
  O  O92  1  0.823944  0.144406  0.706638  1
  O  O93  1  0.842733  0.664262  0.609548  1
  O  O94  1  0.835738  0.657267  0.109548  1
  O  O95  1  0.834277  0.265916  0.348972  1
  O  O96  1  0.855594  0.823944  0.293362  1
  O  O97  1  0.906958  0.809515  0.929693  1
  O  O98  1  0.919594  0.433902  0.897799  1
  O  O99  1  0.933902  0.419594  0.397799  1
  O  O100  1  0.934624  0.062644  0.356110  1
  O  O101  1  0.937356  0.934624  0.643890  1
  O  O102  1  0.984873  0.257104  0.571151  1
  O  O103  1  0.996793  0.279260  0.183120  1
