# generated using pymatgen
data_LiTi2(PO4)3
_symmetry_space_group_name_H-M   'P 1'
_cell_length_a   8.38986204
_cell_length_b   8.98265877
_cell_length_c   8.41369749
_cell_angle_alpha   117.93706378
_cell_angle_beta   60.01658930
_cell_angle_gamma   117.88735497
_symmetry_Int_Tables_number   1
_chemical_formula_structural   LiTi2(PO4)3
_chemical_formula_sum   'Li2 Ti4 P6 O24'
_cell_volume   462.05774606
_cell_formula_units_Z   2
loop_
 _symmetry_equiv_pos_site_id
 _symmetry_equiv_pos_as_xyz
  1  'x, y, z'
loop_
 _atom_site_type_symbol
 _atom_site_label
 _atom_site_symmetry_multiplicity
 _atom_site_fract_x
 _atom_site_fract_y
 _atom_site_fract_z
 _atom_site_occupancy
  Li  Li0  1  0.923496  0.867855  0.260532  1
  Li  Li1  1  0.689850  0.872082  0.925718  1
  Ti  Ti2  1  0.140112  0.428263  0.145545  1
  Ti  Ti3  1  0.635689  0.944834  0.651673  1
  Ti  Ti4  1  0.352476  0.062414  0.360003  1
  Ti  Ti5  1  0.858080  0.561970  0.849366  1
  P  P6  1  0.034943  0.245843  0.460038  1
  P  P7  1  0.534139  0.749803  0.247056  1
  P  P8  1  0.245771  0.749477  0.971055  1
  P  P9  1  0.748619  0.246285  0.033749  1
  P  P10  1  0.462960  0.252705  0.754583  1
  P  P11  1  0.969209  0.754212  0.534619  1
  O  O12  1  0.207313  0.898208  0.167196  1
  O  O13  1  0.166073  0.902128  0.513232  1
  O  O14  1  0.997050  0.415524  0.624576  1
  O  O15  1  0.109184  0.273714  0.266637  1
  O  O16  1  0.102466  0.719461  0.887119  1
  O  O17  1  0.521840  0.896044  0.206476  1
  O  O18  1  0.377531  0.575676  0.207657  1
  O  O19  1  0.183822  0.201107  0.473584  1
  O  O20  1  0.523977  0.809263  0.457102  1
  O  O21  1  0.209317  0.578347  0.998927  1
  O  O22  1  0.739927  0.731445  0.110812  1
  O  O23  1  0.459064  0.805024  0.832024  1
  O  O24  1  0.542454  0.196012  0.181837  1
  O  O25  1  0.267308  0.276188  0.899728  1
  O  O26  1  0.786392  0.414268  0.996245  1
  O  O27  1  0.475384  0.197141  0.545385  1
  O  O28  1  0.826195  0.804138  0.514835  1
  O  O29  1  0.625128  0.427157  0.792550  1
  O  O30  1  0.896354  0.278811  0.111500  1
  O  O31  1  0.493035  0.105261  0.776080  1
  O  O32  1  0.879232  0.734805  0.739178  1
  O  O33  1  0.997436  0.579067  0.379797  1
  O  O34  1  0.846984  0.086311  0.472735  1
  O  O35  1  0.770286  0.086381  0.844921  1
