# generated using pymatgen
data_Mn6O7F5
_symmetry_space_group_name_H-M   'P 1'
_cell_length_a   4.65148992
_cell_length_b   5.67528986
_cell_length_c   15.28970273
_cell_angle_alpha   91.15810134
_cell_angle_beta   90.83521094
_cell_angle_gamma   87.06035916
_symmetry_Int_Tables_number   1
_chemical_formula_structural   Mn6O7F5
_chemical_formula_sum   'Mn12 O14 F10'
_cell_volume   402.97551361
_cell_formula_units_Z   2
loop_
 _symmetry_equiv_pos_site_id
 _symmetry_equiv_pos_as_xyz
  1  'x, y, z'
loop_
 _atom_site_type_symbol
 _atom_site_label
 _atom_site_symmetry_multiplicity
 _atom_site_fract_x
 _atom_site_fract_y
 _atom_site_fract_z
 _atom_site_occupancy
  Mn  Mn0  1  0.007344  0.167868  0.420639  1
  Mn  Mn1  1  0.030911  0.852594  0.245185  1
  Mn  Mn2  1  0.009668  0.157816  0.088250  1
  Mn  Mn3  1  0.019912  0.167588  0.745542  1
  Mn  Mn4  1  0.025880  0.844523  0.580516  1
  Mn  Mn5  1  0.008260  0.863221  0.912189  1
  Mn  Mn6  1  0.472375  0.347196  0.589284  1
  Mn  Mn7  1  0.471189  0.321790  0.921765  1
  Mn  Mn8  1  0.519811  0.345728  0.250950  1
  Mn  Mn9  1  0.491378  0.632109  0.086095  1
  Mn  Mn10  1  0.472762  0.635999  0.414249  1
  Mn  Mn11  1  0.479539  0.638146  0.751577  1
  O  O12  1  0.219807  0.117060  0.638258  1
  O  O13  1  0.203477  0.107328  0.975083  1
  O  O14  1  0.240229  0.881469  0.137701  1
  O  O15  1  0.221851  0.885750  0.472188  1
  O  O16  1  0.230354  0.893447  0.804848  1
  O  O17  1  0.285513  0.383451  0.143294  1
  O  O18  1  0.277116  0.611557  0.302410  1
  O  O19  1  0.265782  0.387332  0.479226  1
  O  O20  1  0.270513  0.612696  0.641909  1
  O  O21  1  0.270815  0.386720  0.810757  1
  O  O22  1  0.718084  0.376356  0.027120  1
  O  O23  1  0.728977  0.392316  0.362385  1
  O  O24  1  0.719811  0.386842  0.693428  1
  O  O25  1  0.798703  0.117026  0.194079  1
  F  F26  1  0.259574  0.108867  0.310110  1
  F  F27  1  0.249285  0.608073  0.974692  1
  F  F28  1  0.755401  0.620027  0.191788  1
  F  F29  1  0.727324  0.619566  0.525336  1
  F  F30  1  0.730741  0.634638  0.861495  1
  F  F31  1  0.740719  0.112301  0.531726  1
  F  F32  1  0.784625  0.895062  0.356091  1
  F  F33  1  0.754155  0.871938  0.020393  1
  F  F34  1  0.765701  0.137841  0.849838  1
  F  F35  1  0.772416  0.877759  0.689605  1
