# generated using pymatgen
data_H6CSBrN3
_symmetry_space_group_name_H-M   'P 1'
_cell_length_a   12.34572143
_cell_length_b   7.83875140
_cell_length_c   12.08562693
_cell_angle_alpha   90.00000000
_cell_angle_beta   90.00000000
_cell_angle_gamma   90.00000000
_symmetry_Int_Tables_number   1
_chemical_formula_structural   H6CSBrN3
_chemical_formula_sum   'H48 C8 S8 Br8 N24'
_cell_volume   1169.58704339
_cell_formula_units_Z   8
loop_
 _symmetry_equiv_pos_site_id
 _symmetry_equiv_pos_as_xyz
  1  'x, y, z'
loop_
 _atom_site_type_symbol
 _atom_site_label
 _atom_site_symmetry_multiplicity
 _atom_site_fract_x
 _atom_site_fract_y
 _atom_site_fract_z
 _atom_site_occupancy
  H  H0  1  0.877527  0.316590  0.305735  1
  H  H1  1  0.377527  0.183410  0.694265  1
  H  H2  1  0.122473  0.816590  0.194265  1
  H  H3  1  0.622473  0.683410  0.805735  1
  H  H4  1  0.122473  0.683410  0.694265  1
  H  H5  1  0.622473  0.816590  0.305735  1
  H  H6  1  0.877527  0.183410  0.805735  1
  H  H7  1  0.377527  0.316590  0.194265  1
  H  H8  1  0.048514  0.473681  0.361245  1
  H  H9  1  0.548514  0.026319  0.638755  1
  H  H10  1  0.951486  0.973681  0.138755  1
  H  H11  1  0.451486  0.526319  0.861245  1
  H  H12  1  0.951486  0.526319  0.638755  1
  H  H13  1  0.451486  0.973681  0.361245  1
  H  H14  1  0.048514  0.026319  0.861245  1
  H  H15  1  0.548514  0.473681  0.138755  1
  H  H16  1  0.031304  0.380324  0.234954  1
  H  H17  1  0.531304  0.119676  0.765046  1
  H  H18  1  0.968696  0.880324  0.265046  1
  H  H19  1  0.468696  0.619676  0.734954  1
  H  H20  1  0.968696  0.619676  0.765046  1
  H  H21  1  0.468696  0.880324  0.234954  1
  H  H22  1  0.031304  0.119676  0.734954  1
  H  H23  1  0.531304  0.380324  0.265046  1
  H  H24  1  0.106895  0.277162  0.329603  1
  H  H25  1  0.606895  0.222838  0.670397  1
  H  H26  1  0.893105  0.777162  0.170397  1
  H  H27  1  0.393105  0.722838  0.829603  1
  H  H28  1  0.893105  0.722838  0.670397  1
  H  H29  1  0.393105  0.777162  0.329603  1
  H  H30  1  0.106895  0.222838  0.829603  1
  H  H31  1  0.606895  0.277162  0.170397  1
  H  H32  1  0.813843  0.128653  0.562608  1
  H  H33  1  0.313843  0.371347  0.437392  1
  H  H34  1  0.186157  0.628653  0.937392  1
  H  H35  1  0.686157  0.871347  0.062608  1
  H  H36  1  0.186157  0.871347  0.437392  1
  H  H37  1  0.686157  0.628653  0.562608  1
  H  H38  1  0.813843  0.371347  0.062608  1
  H  H39  1  0.313843  0.128653  0.937392  1
  H  H40  1  0.777062  0.138553  0.421676  1
  H  H41  1  0.277062  0.361447  0.578324  1
  H  H42  1  0.222938  0.638553  0.078324  1
  H  H43  1  0.722938  0.861447  0.921676  1
  H  H44  1  0.222938  0.861447  0.578324  1
  H  H45  1  0.722938  0.638553  0.421676  1
  H  H46  1  0.777062  0.361447  0.921676  1
  H  H47  1  0.277062  0.138553  0.078324  1
  C  C48  1  0.927401  0.232896  0.461318  1
  C  C49  1  0.427401  0.267104  0.538682  1
  C  C50  1  0.072599  0.732896  0.038682  1
  C  C51  1  0.572599  0.767104  0.961318  1
  C  C52  1  0.072599  0.767104  0.538682  1
  C  C53  1  0.572599  0.732896  0.461318  1
  C  C54  1  0.927401  0.267104  0.961318  1
  C  C55  1  0.427401  0.232896  0.038682  1
  S  S56  1  0.027127  0.262825  0.555270  1
  S  S57  1  0.527127  0.237175  0.444730  1
  S  S58  1  0.972873  0.762825  0.944730  1
  S  S59  1  0.472873  0.737175  0.055270  1
  S  S60  1  0.972873  0.737175  0.444730  1
  S  S61  1  0.472873  0.762825  0.555270  1
  S  S62  1  0.027127  0.237175  0.055270  1
  S  S63  1  0.527127  0.262825  0.944730  1
  Br  Br64  1  0.718496  0.049959  0.224772  1
  Br  Br65  1  0.218496  0.450041  0.775228  1
  Br  Br66  1  0.281504  0.549959  0.275228  1
  Br  Br67  1  0.781504  0.950041  0.724772  1
  Br  Br68  1  0.281504  0.950041  0.775228  1
  Br  Br69  1  0.781504  0.549959  0.224772  1
  Br  Br70  1  0.718496  0.450041  0.724772  1
  Br  Br71  1  0.218496  0.049959  0.275228  1
  N  N72  1  0.943003  0.270192  0.350918  1
  N  N73  1  0.443003  0.229808  0.649082  1
  N  N74  1  0.056997  0.770192  0.149082  1
  N  N75  1  0.556997  0.729808  0.850918  1
  N  N76  1  0.056997  0.729808  0.649082  1
  N  N77  1  0.556997  0.770192  0.350918  1
  N  N78  1  0.943003  0.229808  0.850918  1
  N  N79  1  0.443003  0.270192  0.149082  1
  N  N80  1  0.038831  0.357508  0.319778  1
  N  N81  1  0.538831  0.142492  0.680222  1
  N  N82  1  0.961169  0.857508  0.180222  1
  N  N83  1  0.461169  0.642492  0.819778  1
  N  N84  1  0.961169  0.642492  0.680222  1
  N  N85  1  0.461169  0.857508  0.319778  1
  N  N86  1  0.038831  0.142492  0.819778  1
  N  N87  1  0.538831  0.357508  0.180222  1
  N  N88  1  0.829236  0.171881  0.483940  1
  N  N89  1  0.329236  0.328119  0.516060  1
  N  N90  1  0.170764  0.671881  0.016060  1
  N  N91  1  0.670764  0.828119  0.983940  1
  N  N92  1  0.170764  0.828119  0.516060  1
  N  N93  1  0.670764  0.671881  0.483940  1
  N  N94  1  0.829236  0.328119  0.983940  1
  N  N95  1  0.329236  0.171881  0.016060  1
