# generated using pymatgen
data_Li2FePCO7
_symmetry_space_group_name_H-M   'P 1'
_cell_length_a   5.08550229
_cell_length_b   12.79722473
_cell_length_c   8.49206991
_cell_angle_alpha   96.39995012
_cell_angle_beta   94.72934612
_cell_angle_gamma   93.65228547
_symmetry_Int_Tables_number   1
_chemical_formula_structural   Li2FePCO7
_chemical_formula_sum   'Li8 Fe4 P4 C4 O28'
_cell_volume   545.86795668
_cell_formula_units_Z   4
loop_
 _symmetry_equiv_pos_site_id
 _symmetry_equiv_pos_as_xyz
  1  'x, y, z'
loop_
 _atom_site_type_symbol
 _atom_site_label
 _atom_site_symmetry_multiplicity
 _atom_site_fract_x
 _atom_site_fract_y
 _atom_site_fract_z
 _atom_site_occupancy
  Li  Li0  1  0.250200  0.560786  0.795570  1
  Li  Li1  1  0.404251  0.793206  0.749400  1
  Li  Li2  1  0.278565  0.018133  0.728657  1
  Li  Li3  1  0.242893  0.216639  0.054125  1
  Li  Li4  1  0.380744  0.332923  0.701386  1
  Li  Li5  1  0.650448  0.801706  0.193351  1
  Li  Li6  1  0.777776  0.573650  0.219948  1
  Li  Li7  1  0.741611  0.069972  0.221735  1
  Fe  Fe8  1  0.205695  0.913425  0.319124  1
  Fe  Fe9  1  0.232456  0.411047  0.310313  1
  Fe  Fe10  1  0.840797  0.669677  0.626755  1
  Fe  Fe11  1  0.830869  0.170712  0.633451  1
  P  P12  1  0.310148  0.669015  0.395732  1
  P  P13  1  0.296431  0.168381  0.399386  1
  P  P14  1  0.741225  0.914457  0.550422  1
  P  P15  1  0.767714  0.414441  0.549003  1
  C  C16  1  0.279419  0.917806  0.030904  1
  C  C17  1  0.346544  0.426777  0.030486  1
  C  C18  1  0.782818  0.672679  0.920943  1
  C  C19  1  0.708526  0.156211  0.914777  1
  O  O20  1  0.048761  0.900572  0.081711  1
  O  O21  1  0.200865  0.704159  0.559126  1
  O  O22  1  0.144170  0.569803  0.312712  1
  O  O23  1  0.129314  0.377779  0.069292  1
  O  O24  1  0.186456  0.208146  0.559590  1
  O  O25  1  0.127287  0.068120  0.319923  1
  O  O26  1  0.303780  0.760622  0.291289  1
  O  O27  1  0.323168  0.917865  0.886164  1
  O  O28  1  0.280293  0.252622  0.283207  1
  O  O29  1  0.382215  0.438800  0.886954  1
  O  O30  1  0.444594  0.939482  0.525069  1
  O  O31  1  0.582055  0.662877  0.807763  1
  O  O32  1  0.466192  0.429844  0.514942  1
  O  O33  1  0.539098  0.147555  0.785746  1
  O  O34  1  0.476451  0.934516  0.147997  1
  O  O35  1  0.605702  0.642737  0.425353  1
  O  O36  1  0.516307  0.459302  0.152277  1
  O  O37  1  0.590874  0.142384  0.430755  1
  O  O38  1  0.745086  0.676837  0.066307  1
  O  O39  1  0.756402  0.824569  0.657610  1
  O  O40  1  0.627398  0.153622  0.051224  1
  O  O41  1  0.776923  0.325878  0.661337  1
  O  O42  1  0.848451  0.878575  0.387501  1
  O  O43  1  0.014694  0.678770  0.865733  1
  O  O44  1  0.913168  0.517200  0.637944  1
  O  O45  1  0.892202  0.383078  0.393417  1
  O  O46  1  0.956044  0.169558  0.885321  1
  O  O47  1  0.909055  0.014641  0.629495  1
