# generated using pymatgen
data_LiV2P4(HO8)2
_symmetry_space_group_name_H-M   'P 1'
_cell_length_a   9.28556035
_cell_length_b   9.23554505
_cell_length_c   7.34455044
_cell_angle_alpha   97.37639845
_cell_angle_beta   97.59068876
_cell_angle_gamma   116.39173078
_symmetry_Int_Tables_number   1
_chemical_formula_structural   LiV2P4(HO8)2
_chemical_formula_sum   'Li2 V4 P8 H4 O32'
_cell_volume   546.70132541
_cell_formula_units_Z   2
loop_
 _symmetry_equiv_pos_site_id
 _symmetry_equiv_pos_as_xyz
  1  'x, y, z'
loop_
 _atom_site_type_symbol
 _atom_site_label
 _atom_site_symmetry_multiplicity
 _atom_site_fract_x
 _atom_site_fract_y
 _atom_site_fract_z
 _atom_site_occupancy
  Li  Li0  1  0.636972  0.268632  0.350868  1
  Li  Li1  1  0.366525  0.736923  0.649035  1
  V  V2  1  0.000354  0.500918  0.003807  1
  V  V3  1  0.499330  0.500143  0.497649  1
  V  V4  1  0.000355  0.999786  0.496350  1
  V  V5  1  0.500153  0.999479  0.002116  1
  P  P6  1  0.259207  0.114031  0.229071  1
  P  P7  1  0.235767  0.388478  0.768472  1
  P  P8  1  0.614180  0.265707  0.741300  1
  P  P9  1  0.106417  0.761826  0.734519  1
  P  P10  1  0.385934  0.738207  0.266116  1
  P  P11  1  0.893143  0.241989  0.270504  1
  P  P12  1  0.758797  0.611673  0.225343  1
  P  P13  1  0.738728  0.887011  0.764510  1
  H  H14  1  0.512807  0.020502  0.513240  1
  H  H15  1  0.008502  0.515730  0.507860  1
  H  H16  1  0.480036  0.488049  0.988728  1
  H  H17  1  0.983778  0.989880  0.991288  1
  O  O18  1  0.148276  0.209112  0.650528  1
  O  O19  1  0.102608  0.432671  0.826314  1
  O  O20  1  0.143851  0.089877  0.052014  1
  O  O21  1  0.004066  0.337653  0.140027  1
  O  O22  1  0.502979  0.162779  0.864771  1
  O  O23  1  0.350339  0.401096  0.946123  1
  O  O24  1  0.403664  0.079858  0.192103  1
  O  O25  1  0.347793  0.295075  0.349942  1
  O  O26  1  0.597677  0.150214  0.556402  1
  O  O27  1  0.097016  0.648024  0.554262  1
  O  O28  1  0.834517  0.997357  0.633204  1
  O  O29  1  0.329642  0.507616  0.643510  1
  O  O30  1  0.567876  0.394742  0.684862  1
  O  O31  1  0.062431  0.895104  0.678328  1
  O  O32  1  0.288251  0.842248  0.838428  1
  O  O33  1  0.794038  0.346576  0.852437  1
  O  O34  1  0.205411  0.653442  0.148372  1
  O  O35  1  0.711659  0.158278  0.161923  1
  O  O36  1  0.937722  0.106467  0.321806  1
  O  O37  1  0.431683  0.605365  0.312739  1
  O  O38  1  0.670938  0.495485  0.357452  1
  O  O39  1  0.165789  0.005102  0.366549  1
  O  O40  1  0.404403  0.853601  0.444948  1
  O  O41  1  0.904539  0.356276  0.446477  1
  O  O42  1  0.651408  0.705757  0.648047  1
  O  O43  1  0.596748  0.921856  0.808028  1
  O  O44  1  0.644630  0.595458  0.051393  1
  O  O45  1  0.494052  0.836663  0.134588  1
  O  O46  1  0.994814  0.663420  0.860437  1
  O  O47  1  0.850702  0.907162  0.947031  1
  O  O48  1  0.895894  0.567289  0.173170  1
  O  O49  1  0.852371  0.791938  0.347475  1
