# generated using pymatgen
data_Li4Cr3Cu3(SbO8)2
_symmetry_space_group_name_H-M   'P 1'
_cell_length_a   5.95292244
_cell_length_b   5.93129654
_cell_length_c   9.62741485
_cell_angle_alpha   90.04664548
_cell_angle_beta   89.02848862
_cell_angle_gamma   119.87971079
_symmetry_Int_Tables_number   1
_chemical_formula_structural   Li4Cr3Cu3(SbO8)2
_chemical_formula_sum   'Li4 Cr3 Cu3 Sb2 O16'
_cell_volume   294.69044355
_cell_formula_units_Z   1
loop_
 _symmetry_equiv_pos_site_id
 _symmetry_equiv_pos_as_xyz
  1  'x, y, z'
loop_
 _atom_site_type_symbol
 _atom_site_label
 _atom_site_symmetry_multiplicity
 _atom_site_fract_x
 _atom_site_fract_y
 _atom_site_fract_z
 _atom_site_occupancy
  Li  Li0  1  0.330945  0.665946  0.902687  1
  Li  Li1  1  0.000317  0.999596  0.992750  1
  Li  Li2  1  0.002648  0.000911  0.489708  1
  Li  Li3  1  0.673750  0.337157  0.401657  1
  Cr  Cr4  1  0.659782  0.830054  0.215107  1
  Cr  Cr5  1  0.828537  0.659373  0.714124  1
  Cr  Cr6  1  0.828406  0.169197  0.714082  1
  Cu  Cu7  1  0.172284  0.831511  0.213226  1
  Cu  Cu8  1  0.172200  0.339960  0.212559  1
  Cu  Cu9  1  0.339492  0.169848  0.714597  1
  Sb  Sb10  1  0.333012  0.666292  0.489387  1
  Sb  Sb11  1  0.663333  0.331802  0.988149  1
  O  O12  1  0.160818  0.833580  0.593227  1
  O  O13  1  0.044224  0.522032  0.344131  1
  O  O14  1  0.338222  0.667962  0.111557  1
  O  O15  1  0.000280  0.001013  0.301649  1
  O  O16  1  0.991757  0.996028  0.805508  1
  O  O17  1  0.160746  0.327101  0.593116  1
  O  O18  1  0.490075  0.967234  0.347002  1
  O  O19  1  0.493921  0.526379  0.348147  1
  O  O20  1  0.323167  0.161131  0.092150  1
  O  O21  1  0.665669  0.833240  0.597406  1
  O  O22  1  0.518980  0.483437  0.844348  1
  O  O23  1  0.518564  0.036103  0.843957  1
  O  O24  1  0.675467  0.337725  0.608141  1
  O  O25  1  0.826661  0.665408  0.094132  1
  O  O26  1  0.962366  0.481303  0.842410  1
  O  O27  1  0.824377  0.158975  0.092924  1
