# generated using pymatgen
data_LiB5H2O9
_symmetry_space_group_name_H-M   'P 1'
_cell_length_a   13.74806773
_cell_length_b   9.18943759
_cell_length_c   5.60631820
_cell_angle_alpha   90.00000000
_cell_angle_beta   91.46998752
_cell_angle_gamma   90.00000000
_symmetry_Int_Tables_number   1
_chemical_formula_structural   LiB5H2O9
_chemical_formula_sum   'Li4 B20 H8 O36'
_cell_volume   708.05238374
_cell_formula_units_Z   4
loop_
 _symmetry_equiv_pos_site_id
 _symmetry_equiv_pos_as_xyz
  1  'x, y, z'
loop_
 _atom_site_type_symbol
 _atom_site_label
 _atom_site_symmetry_multiplicity
 _atom_site_fract_x
 _atom_site_fract_y
 _atom_site_fract_z
 _atom_site_occupancy
  Li  Li0  1  0.803021  0.095283  0.476044  1
  Li  Li1  1  0.696979  0.595283  0.523956  1
  Li  Li2  1  0.196979  0.904717  0.523956  1
  Li  Li3  1  0.303021  0.404717  0.476044  1
  B  B4  1  0.814548  0.827061  0.812641  1
  B  B5  1  0.685452  0.327061  0.187359  1
  B  B6  1  0.185452  0.172939  0.187359  1
  B  B7  1  0.314548  0.672939  0.812641  1
  B  B8  1  0.657759  0.966187  0.766385  1
  B  B9  1  0.842241  0.466187  0.233615  1
  B  B10  1  0.342241  0.033813  0.233615  1
  B  B11  1  0.157759  0.533813  0.766385  1
  B  B12  1  0.681647  0.803269  0.095009  1
  B  B13  1  0.818353  0.303269  0.904991  1
  B  B14  1  0.318353  0.196731  0.904991  1
  B  B15  1  0.181647  0.696731  0.095009  1
  B  B16  1  0.989866  0.859394  0.718090  1
  B  B17  1  0.510134  0.359394  0.281910  1
  B  B18  1  0.010134  0.140606  0.281910  1
  B  B19  1  0.489866  0.640606  0.718090  1
  B  B20  1  0.898671  0.669182  0.514014  1
  B  B21  1  0.601329  0.169182  0.485986  1
  B  B22  1  0.101329  0.330818  0.485986  1
  B  B23  1  0.398671  0.830818  0.514014  1
  H  H24  1  0.579486  0.765268  0.339436  1
  H  H25  1  0.920514  0.265268  0.660564  1
  H  H26  1  0.420514  0.234732  0.660564  1
  H  H27  1  0.079486  0.734732  0.339436  1
  H  H28  1  0.079829  0.000278  0.879383  1
  H  H29  1  0.420171  0.500278  0.120617  1
  H  H30  1  0.920171  0.999722  0.120617  1
  H  H31  1  0.579829  0.499722  0.879383  1
  O  O32  1  0.594898  0.059846  0.649796  1
  O  O33  1  0.905102  0.559846  0.350204  1
  O  O34  1  0.405102  0.940154  0.350204  1
  O  O35  1  0.094898  0.440154  0.649796  1
  O  O36  1  0.620676  0.893691  0.960368  1
  O  O37  1  0.879324  0.393691  0.039632  1
  O  O38  1  0.379324  0.106309  0.039632  1
  O  O39  1  0.120676  0.606309  0.960368  1
  O  O40  1  0.645959  0.737542  0.294731  1
  O  O41  1  0.854041  0.237542  0.705269  1
  O  O42  1  0.354041  0.262458  0.705269  1
  O  O43  1  0.145959  0.762458  0.294731  1
  O  O44  1  0.751235  0.941237  0.694627  1
  O  O45  1  0.748765  0.441237  0.305373  1
  O  O46  1  0.248765  0.058763  0.305373  1
  O  O47  1  0.251235  0.558763  0.694627  1
  O  O48  1  0.775733  0.778734  0.037023  1
  O  O49  1  0.724267  0.278734  0.962977  1
  O  O50  1  0.224267  0.221266  0.962977  1
  O  O51  1  0.275733  0.721266  0.037023  1
  O  O52  1  0.912991  0.890493  0.858518  1
  O  O53  1  0.587009  0.390493  0.141482  1
  O  O54  1  0.087009  0.109507  0.141482  1
  O  O55  1  0.412991  0.609507  0.858518  1
  O  O56  1  0.819137  0.698612  0.646394  1
  O  O57  1  0.680863  0.198612  0.353606  1
  O  O58  1  0.180863  0.301388  0.353606  1
  O  O59  1  0.319137  0.801388  0.646394  1
  O  O60  1  0.078100  0.931501  0.741837  1
  O  O61  1  0.421900  0.431501  0.258163  1
  O  O62  1  0.921900  0.068499  0.258163  1
  O  O63  1  0.578100  0.568499  0.741837  1
  O  O64  1  0.982565  0.754537  0.540035  1
  O  O65  1  0.517435  0.254537  0.459965  1
  O  O66  1  0.017435  0.245463  0.459965  1
  O  O67  1  0.482565  0.745463  0.540035  1
