# generated using pymatgen
data_CoOF
_symmetry_space_group_name_H-M   'P 1'
_cell_length_a   4.71035930
_cell_length_b   13.95811571
_cell_length_c   2.89012017
_cell_angle_alpha   90.00000000
_cell_angle_beta   90.00000000
_cell_angle_gamma   94.30844139
_symmetry_Int_Tables_number   1
_chemical_formula_structural   CoOF
_chemical_formula_sum   'Co6 O6 F6'
_cell_volume   189.48189097
_cell_formula_units_Z   6
loop_
 _symmetry_equiv_pos_site_id
 _symmetry_equiv_pos_as_xyz
  1  'x, y, z'
loop_
 _atom_site_type_symbol
 _atom_site_label
 _atom_site_symmetry_multiplicity
 _atom_site_fract_x
 _atom_site_fract_y
 _atom_site_fract_z
 _atom_site_occupancy
  Co  Co0  1  0.915596  0.001863  0.000000  1
  Co  Co1  1  0.084404  0.331471  0.000000  1
  Co  Co2  1  0.000000  0.666667  0.000000  1
  Co  Co3  1  0.500000  0.166667  0.500000  1
  Co  Co4  1  0.533375  0.495650  0.500000  1
  Co  Co5  1  0.466625  0.837683  0.500000  1
  O  O6  1  0.239491  0.270414  0.500000  1
  O  O7  1  0.285150  0.773233  0.000000  1
  O  O8  1  0.363314  0.429949  0.000000  1
  O  O9  1  0.714850  0.560100  0.000000  1
  O  O10  1  0.636686  0.903385  0.000000  1
  O  O11  1  0.760509  0.062919  0.500000  1
  F  F12  1  0.110061  0.939033  0.500000  1
  F  F13  1  0.210367  0.600433  0.500000  1
  F  F14  1  0.251230  0.096617  0.000000  1
  F  F15  1  0.748770  0.236716  0.000000  1
  F  F16  1  0.889939  0.394301  0.500000  1
  F  F17  1  0.789633  0.732900  0.500000  1
