# generated using pymatgen
data_Li2SiNiO4
_symmetry_space_group_name_H-M   'P 1'
_cell_length_a   6.33091088
_cell_length_b   5.41772366
_cell_length_c   4.92331831
_cell_angle_alpha   89.96762318
_cell_angle_beta   90.57959097
_cell_angle_gamma   89.96890550
_symmetry_Int_Tables_number   1
_chemical_formula_structural   Li2SiNiO4
_chemical_formula_sum   'Li4 Si2 Ni2 O8'
_cell_volume   168.85682122
_cell_formula_units_Z   2
loop_
 _symmetry_equiv_pos_site_id
 _symmetry_equiv_pos_as_xyz
  1  'x, y, z'
loop_
 _atom_site_type_symbol
 _atom_site_label
 _atom_site_symmetry_multiplicity
 _atom_site_fract_x
 _atom_site_fract_y
 _atom_site_fract_z
 _atom_site_occupancy
  Li  Li0  1  0.250341  0.323782  0.495462  1
  Li  Li1  1  0.497246  0.160097  0.995838  1
  Li  Li2  1  0.749413  0.671283  0.996613  1
  Li  Li3  1  0.995562  0.834958  0.496607  1
  Si  Si4  1  0.997175  0.163914  0.006593  1
  Si  Si5  1  0.496673  0.831163  0.506592  1
  Ni  Ni6  1  0.245394  0.665914  0.993438  1
  Ni  Ni7  1  0.745585  0.328791  0.493787  1
  O  O8  1  0.999576  0.874560  0.901543  1
  O  O9  1  0.209864  0.311023  0.901653  1
  O  O10  1  0.280889  0.687093  0.396833  1
  O  O11  1  0.495891  0.827178  0.841913  1
  O  O12  1  0.500260  0.120286  0.400776  1
  O  O13  1  0.709229  0.683347  0.402359  1
  O  O14  1  0.781351  0.308539  0.897006  1
  O  O15  1  0.996372  0.168199  0.341880  1
