# generated using pymatgen
data_BaY3Br11
_symmetry_space_group_name_H-M   'P 1'
_cell_length_a   20.44134019
_cell_length_b   10.88951725
_cell_length_c   5.66029191
_cell_angle_alpha   90.00000000
_cell_angle_beta   90.00000000
_cell_angle_gamma   90.00000000
_symmetry_Int_Tables_number   1
_chemical_formula_structural   BaY3Br11
_chemical_formula_sum   'Ba2 Y6 Br22'
_cell_volume   1259.96018672
_cell_formula_units_Z   2
loop_
 _symmetry_equiv_pos_site_id
 _symmetry_equiv_pos_as_xyz
  1  'x, y, z'
loop_
 _atom_site_type_symbol
 _atom_site_label
 _atom_site_symmetry_multiplicity
 _atom_site_fract_x
 _atom_site_fract_y
 _atom_site_fract_z
 _atom_site_occupancy
  Ba  Ba0  1  0.010008  0.500000  0.000000  1
  Ba  Ba1  1  0.989992  0.000000  0.000000  1
  Y  Y2  1  0.236652  0.248721  0.000000  1
  Y  Y3  1  0.236652  0.751279  0.000000  1
  Y  Y4  1  0.500000  0.250000  0.000000  1
  Y  Y5  1  0.500000  0.750000  0.000000  1
  Y  Y6  1  0.763348  0.251279  0.000000  1
  Y  Y7  1  0.763348  0.748721  0.000000  1
  Br  Br8  1  0.062613  0.500000  0.500000  1
  Br  Br9  1  0.100887  0.214834  0.000000  1
  Br  Br10  1  0.100887  0.785166  0.000000  1
  Br  Br11  1  0.202702  0.500000  0.000000  1
  Br  Br12  1  0.238742  0.247952  0.500000  1
  Br  Br13  1  0.238742  0.752048  0.500000  1
  Br  Br14  1  0.273079  0.000000  0.000000  1
  Br  Br15  1  0.368497  0.322658  0.000000  1
  Br  Br16  1  0.368497  0.677342  0.000000  1
  Br  Br17  1  0.463257  0.000000  0.000000  1
  Br  Br18  1  0.500000  0.250000  0.500000  1
  Br  Br19  1  0.500000  0.750000  0.500000  1
  Br  Br20  1  0.536743  0.500000  0.000000  1
  Br  Br21  1  0.631503  0.177342  0.000000  1
  Br  Br22  1  0.631503  0.822658  0.000000  1
  Br  Br23  1  0.726921  0.500000  0.000000  1
  Br  Br24  1  0.761258  0.252048  0.500000  1
  Br  Br25  1  0.761258  0.747952  0.500000  1
  Br  Br26  1  0.797298  0.000000  0.000000  1
  Br  Br27  1  0.899113  0.285166  0.000000  1
  Br  Br28  1  0.899113  0.714834  0.000000  1
  Br  Br29  1  0.937387  0.000000  0.500000  1
