# generated using pymatgen
data_Li15Mn8P8(O4F)8
_symmetry_space_group_name_H-M   'P 1'
_cell_length_a   5.15563804
_cell_length_b   13.30190183
_cell_length_c   13.37522031
_cell_angle_alpha   58.30321242
_cell_angle_beta   89.28392066
_cell_angle_gamma   89.72108563
_symmetry_Int_Tables_number   1
_chemical_formula_structural   Li15Mn8P8(O4F)8
_chemical_formula_sum   'Li15 Mn8 P8 O32 F8'
_cell_volume   780.38786415
_cell_formula_units_Z   1
loop_
 _symmetry_equiv_pos_site_id
 _symmetry_equiv_pos_as_xyz
  1  'x, y, z'
loop_
 _atom_site_type_symbol
 _atom_site_label
 _atom_site_symmetry_multiplicity
 _atom_site_fract_x
 _atom_site_fract_y
 _atom_site_fract_z
 _atom_site_occupancy
  Li  Li0  1  0.720638  0.181428  0.178146  1
  Li  Li1  1  0.219202  0.323671  0.089598  1
  Li  Li2  1  0.721850  0.178953  0.415084  1
  Li  Li3  1  0.211681  0.313003  0.318091  1
  Li  Li4  1  0.701198  0.164524  0.675262  1
  Li  Li5  1  0.796602  0.676115  0.178330  1
  Li  Li6  1  0.218698  0.327608  0.827087  1
  Li  Li7  1  0.770566  0.419474  0.672876  1
  Li  Li8  1  0.231825  0.586661  0.329497  1
  Li  Li9  1  0.727907  0.908429  0.169859  1
  Li  Li10  1  0.294999  0.824439  0.323958  1
  Li  Li11  1  0.776060  0.687801  0.683097  1
  Li  Li12  1  0.269502  0.824306  0.590070  1
  Li  Li13  1  0.761006  0.675663  0.911414  1
  Li  Li14  1  0.272927  0.833064  0.836149  1
  Mn  Mn15  1  0.754898  0.407411  0.170267  1
  Mn  Mn16  1  0.771753  0.668574  0.405802  1
  Mn  Mn17  1  0.231651  0.593484  0.831593  1
  Mn  Mn18  1  0.727739  0.911361  0.669742  1
  Mn  Mn19  1  0.262218  0.089661  0.330931  1
  Mn  Mn20  1  0.225299  0.323330  0.607067  1
  Mn  Mn21  1  0.730404  0.173209  0.889989  1
  Mn  Mn22  1  0.272507  0.831111  0.092404  1
  P  P23  1  0.229321  0.087333  0.077013  1
  P  P24  1  0.223797  0.088184  0.582124  1
  P  P25  1  0.266744  0.582715  0.082467  1
  P  P26  1  0.713458  0.414115  0.423622  1
  P  P27  1  0.280166  0.584555  0.581421  1
  P  P28  1  0.720631  0.411707  0.919410  1
  P  P29  1  0.771697  0.915712  0.416076  1
  P  P30  1  0.789512  0.910755  0.919873  1
  O  O31  1  0.936307  0.078004  0.054989  1
  O  O32  1  0.662562  0.042684  0.342534  1
  O  O33  1  0.256942  0.147250  0.149341  1
  O  O34  1  0.918361  0.082047  0.583821  1
  O  O35  1  0.326472  0.148165  0.453089  1
  O  O36  1  0.822289  0.344719  0.047075  1
  O  O37  1  0.703877  0.042507  0.853753  1
  O  O38  1  0.324637  0.160277  0.633627  1
  O  O39  1  0.755177  0.353049  0.353010  1
  O  O40  1  0.153409  0.455532  0.149479  1
  O  O41  1  0.569914  0.574618  0.075284  1
  O  O42  1  0.840982  0.338098  0.545648  1
  O  O43  1  0.415192  0.426424  0.440319  1
  O  O44  1  0.378054  0.167092  0.958403  1
  O  O45  1  0.190208  0.645610  0.148348  1
  O  O46  1  0.838284  0.539550  0.354884  1
  O  O47  1  0.153108  0.459464  0.647347  1
  O  O48  1  0.812277  0.344747  0.858479  1
  O  O49  1  0.580554  0.572292  0.573482  1
  O  O50  1  0.668709  0.842747  0.045785  1
  O  O51  1  0.167390  0.658729  0.455994  1
  O  O52  1  0.416800  0.421482  0.918725  1
  O  O53  1  0.837323  0.538330  0.850863  1
  O  O54  1  0.218614  0.647451  0.648897  1
  O  O55  1  0.349941  0.961518  0.144654  1
  O  O56  1  0.688247  0.846526  0.357676  1
  O  O57  1  0.156488  0.652189  0.955378  1
  O  O58  1  0.658478  0.853634  0.543347  1
  O  O59  1  0.075243  0.921532  0.420691  1
  O  O60  1  0.686194  0.853714  0.852045  1
  O  O61  1  0.330236  0.960238  0.654168  1
  O  O62  1  0.088792  0.896999  0.929589  1
  F  F63  1  0.969085  0.224865  0.279194  1
  F  F64  1  0.468675  0.273385  0.224274  1
  F  F65  1  0.023856  0.227560  0.774519  1
  F  F66  1  0.529895  0.289942  0.726441  1
  F  F67  1  0.477867  0.720937  0.270191  1
  F  F68  1  0.979941  0.780374  0.228415  1
  F  F69  1  0.522982  0.723024  0.773612  1
  F  F70  1  0.014872  0.777344  0.722318  1
