# generated using pymatgen
data_BaSr3I8
_symmetry_space_group_name_H-M   'P 1'
_cell_length_a   8.14358500
_cell_length_b   9.98925294
_cell_length_c   8.14358500
_cell_angle_alpha   65.94475701
_cell_angle_beta   90.00000000
_cell_angle_gamma   114.05524299
_symmetry_Int_Tables_number   1
_chemical_formula_structural   BaSr3I8
_chemical_formula_sum   'Ba1 Sr3 I8'
_cell_volume   541.31962229
_cell_formula_units_Z   1
loop_
 _symmetry_equiv_pos_site_id
 _symmetry_equiv_pos_as_xyz
  1  'x, y, z'
loop_
 _atom_site_type_symbol
 _atom_site_label
 _atom_site_symmetry_multiplicity
 _atom_site_fract_x
 _atom_site_fract_y
 _atom_site_fract_z
 _atom_site_occupancy
  Ba  Ba0  1  0.000000  0.000000  0.000000  1
  Sr  Sr1  1  0.500000  0.000000  0.500000  1
  Sr  Sr2  1  0.250000  0.500000  0.250000  1
  Sr  Sr3  1  0.750000  0.500000  0.750000  1
  I  I4  1  0.872806  0.254225  0.127194  1
  I  I5  1  0.381420  0.254225  0.127194  1
  I  I6  1  0.618580  0.745775  0.381420  1
  I  I7  1  0.127194  0.745775  0.381420  1
  I  I8  1  0.872806  0.254225  0.618580  1
  I  I9  1  0.381420  0.254225  0.618580  1
  I  I10  1  0.127194  0.745775  0.872806  1
  I  I11  1  0.618580  0.745775  0.872806  1
