# generated using pymatgen
data_Li4Cr3CoO8
_symmetry_space_group_name_H-M   'P 1'
_cell_length_a   5.10198472
_cell_length_b   7.75206027
_cell_length_c   7.75050169
_cell_angle_alpha   81.67775271
_cell_angle_beta   71.03310129
_cell_angle_gamma   83.74370179
_symmetry_Int_Tables_number   1
_chemical_formula_structural   Li4Cr3CoO8
_chemical_formula_sum   'Li8 Cr6 Co2 O16'
_cell_volume   286.21453241
_cell_formula_units_Z   2
loop_
 _symmetry_equiv_pos_site_id
 _symmetry_equiv_pos_as_xyz
  1  'x, y, z'
loop_
 _atom_site_type_symbol
 _atom_site_label
 _atom_site_symmetry_multiplicity
 _atom_site_fract_x
 _atom_site_fract_y
 _atom_site_fract_z
 _atom_site_occupancy
  Li  Li0  1  0.996561  0.000673  0.001657  1
  Li  Li1  1  0.994637  0.249564  0.252562  1
  Li  Li2  1  0.005356  0.625430  0.122439  1
  Li  Li3  1  0.001507  0.126725  0.623491  1
  Li  Li4  1  0.996131  0.497065  0.502222  1
  Li  Li5  1  0.003436  0.874295  0.373349  1
  Li  Li6  1  0.003867  0.377937  0.872781  1
  Li  Li7  1  0.998471  0.748265  0.751524  1
  Cr  Cr8  1  0.499971  0.063602  0.313649  1
  Cr  Cr9  1  0.500009  0.437500  0.187496  1
  Cr  Cr10  1  0.500028  0.811395  0.061354  1
  Cr  Cr11  1  0.500568  0.683503  0.441144  1
  Cr  Cr12  1  0.499426  0.191502  0.933856  1
  Cr  Cr13  1  0.499984  0.937494  0.687500  1
  Co  Co14  1  0.500133  0.313302  0.563294  1
  Co  Co15  1  0.499888  0.561709  0.811703  1
  O  O16  1  0.273074  0.031484  0.150321  1
  O  O17  1  0.727536  0.220449  0.097298  1
  O  O18  1  0.275702  0.409659  0.022190  1
  O  O19  1  0.723948  0.099446  0.475750  1
  O  O20  1  0.276803  0.281494  0.405423  1
  O  O21  1  0.272426  0.654554  0.277714  1
  O  O22  1  0.724334  0.465341  0.352794  1
  O  O23  1  0.275879  0.159156  0.771275  1
  O  O24  1  0.282458  0.524213  0.654778  1
  O  O25  1  0.726926  0.843519  0.224692  1
  O  O26  1  0.717555  0.350817  0.720211  1
  O  O27  1  0.272681  0.903865  0.526843  1
  O  O28  1  0.724134  0.715853  0.603714  1
  O  O29  1  0.276018  0.775550  0.899266  1
  O  O30  1  0.723264  0.593498  0.969559  1
  O  O31  1  0.727286  0.971141  0.848155  1
