# generated using pymatgen
data_Li2VO2F
_symmetry_space_group_name_H-M   'P 1'
_cell_length_a   6.03039537
_cell_length_b   5.19696553
_cell_length_c   7.35928452
_cell_angle_alpha   90.26054135
_cell_angle_beta   89.98357212
_cell_angle_gamma   90.01321208
_symmetry_Int_Tables_number   1
_chemical_formula_structural   Li2VO2F
_chemical_formula_sum   'Li8 V4 O8 F4'
_cell_volume   230.63578734
_cell_formula_units_Z   4
loop_
 _symmetry_equiv_pos_site_id
 _symmetry_equiv_pos_as_xyz
  1  'x, y, z'
loop_
 _atom_site_type_symbol
 _atom_site_label
 _atom_site_symmetry_multiplicity
 _atom_site_fract_x
 _atom_site_fract_y
 _atom_site_fract_z
 _atom_site_occupancy
  Li  Li0  1  0.981195  0.648002  0.857264  1
  Li  Li1  1  0.980006  0.350496  0.147472  1
  Li  Li2  1  0.240994  0.838767  0.145510  1
  Li  Li3  1  0.245783  0.169511  0.848839  1
  Li  Li4  1  0.519153  0.330838  0.135776  1
  Li  Li5  1  0.519442  0.653640  0.856763  1
  Li  Li6  1  0.755243  0.194378  0.857220  1
  Li  Li7  1  0.759452  0.816050  0.134755  1
  V  V8  1  0.000070  0.995377  0.500403  1
  V  V9  1  0.245595  0.494929  0.506411  1
  V  V10  1  0.499801  0.012608  0.505125  1
  V  V11  1  0.755814  0.494759  0.506430  1
  O  O12  1  0.002173  0.323116  0.654231  1
  O  O13  1  0.001696  0.658219  0.353869  1
  O  O14  1  0.254879  0.833609  0.643908  1
  O  O15  1  0.254643  0.169146  0.352162  1
  O  O16  1  0.499252  0.347160  0.651276  1
  O  O17  1  0.743277  0.830663  0.643598  1
  O  O18  1  0.748186  0.167353  0.354587  1
  O  O19  1  0.749041  0.501215  0.003261  1
  F  F20  1  0.006559  0.999235  0.999489  1
  F  F21  1  0.249868  0.501529  0.002928  1
  F  F22  1  0.497656  0.671302  0.338848  1
  F  F23  1  0.490184  0.998097  0.999879  1
