# generated using pymatgen
data_NaMnO2
_symmetry_space_group_name_H-M   'P 1'
_cell_length_a   6.05491780
_cell_length_b   6.50671200
_cell_length_c   6.05491780
_cell_angle_alpha   62.27149159
_cell_angle_beta   90.00000000
_cell_angle_gamma   117.72850841
_symmetry_Int_Tables_number   1
_chemical_formula_structural   NaMnO2
_chemical_formula_sum   'Na4 Mn4 O8'
_cell_volume   179.63002759
_cell_formula_units_Z   4
loop_
 _symmetry_equiv_pos_site_id
 _symmetry_equiv_pos_as_xyz
  1  'x, y, z'
loop_
 _atom_site_type_symbol
 _atom_site_label
 _atom_site_symmetry_multiplicity
 _atom_site_fract_x
 _atom_site_fract_y
 _atom_site_fract_z
 _atom_site_occupancy
  Na  Na0  1  0.500000  0.500000  0.000000  1
  Na  Na1  1  0.000000  0.000000  0.500000  1
  Na  Na2  1  0.500000  0.000000  0.500000  1
  Na  Na3  1  0.500000  0.500000  0.500000  1
  Mn  Mn4  1  0.000000  0.000000  0.000000  1
  Mn  Mn5  1  0.500000  0.000000  0.000000  1
  Mn  Mn6  1  0.000000  0.500000  0.000000  1
  Mn  Mn7  1  0.000000  0.500000  0.500000  1
  O  O8  1  0.248433  0.996867  0.213049  1
  O  O9  1  0.790084  0.503133  0.248433  1
  O  O10  1  0.213049  0.503133  0.248433  1
  O  O11  1  0.751567  0.003133  0.209916  1
  O  O12  1  0.248433  0.996867  0.790084  1
  O  O13  1  0.786951  0.496867  0.751567  1
  O  O14  1  0.209916  0.496867  0.751567  1
  O  O15  1  0.751567  0.003133  0.786951  1
