# generated using pymatgen
data_BaH8PtC4(NO)4
_symmetry_space_group_name_H-M   'P 1'
_cell_length_a   9.42562218
_cell_length_b   9.42562218
_cell_length_c   6.62167308
_cell_angle_alpha   77.25688877
_cell_angle_beta   102.74311123
_cell_angle_gamma   83.67866427
_symmetry_Int_Tables_number   1
_chemical_formula_structural   BaH8PtC4(NO)4
_chemical_formula_sum   'Ba2 H16 Pt2 C8 N8 O8'
_cell_volume   551.81366839
_cell_formula_units_Z   2
loop_
 _symmetry_equiv_pos_site_id
 _symmetry_equiv_pos_as_xyz
  1  'x, y, z'
loop_
 _atom_site_type_symbol
 _atom_site_label
 _atom_site_symmetry_multiplicity
 _atom_site_fract_x
 _atom_site_fract_y
 _atom_site_fract_z
 _atom_site_occupancy
  Ba  Ba0  1  0.631979  0.631979  0.750000  1
  Ba  Ba1  1  0.368021  0.368021  0.250000  1
  H  H2  1  0.093849  0.540990  0.835970  1
  H  H3  1  0.540990  0.093849  0.664030  1
  H  H4  1  0.906151  0.459010  0.164030  1
  H  H5  1  0.459010  0.906151  0.335970  1
  H  H6  1  0.299813  0.515311  0.660761  1
  H  H7  1  0.515311  0.299813  0.839239  1
  H  H8  1  0.700187  0.484689  0.339239  1
  H  H9  1  0.484689  0.700187  0.160761  1
  H  H10  1  0.288068  0.619668  0.439043  1
  H  H11  1  0.619668  0.288068  0.060957  1
  H  H12  1  0.711932  0.380332  0.560957  1
  H  H13  1  0.380332  0.711932  0.939043  1
  H  H14  1  0.094777  0.489462  0.635016  1
  H  H15  1  0.489462  0.094777  0.864984  1
  H  H16  1  0.905223  0.510538  0.364984  1
  H  H17  1  0.510538  0.905223  0.135016  1
  Pt  Pt18  1  0.000000  0.000000  0.500000  1
  Pt  Pt19  1  0.000000  0.000000  0.000000  1
  C  C20  1  0.932360  0.805452  0.555572  1
  C  C21  1  0.805452  0.932360  0.944428  1
  C  C22  1  0.067640  0.194548  0.444428  1
  C  C23  1  0.194548  0.067640  0.055572  1
  C  C24  1  0.903942  0.211282  0.912157  1
  C  C25  1  0.211282  0.903942  0.587843  1
  C  C26  1  0.096058  0.788718  0.087843  1
  C  C27  1  0.788718  0.096058  0.412157  1
  N  N28  1  0.887822  0.693623  0.593509  1
  N  N29  1  0.693623  0.887822  0.906491  1
  N  N30  1  0.112178  0.306377  0.406491  1
  N  N31  1  0.306377  0.112178  0.093509  1
  N  N32  1  0.847467  0.336111  0.864037  1
  N  N33  1  0.336111  0.847467  0.635963  1
  N  N34  1  0.152533  0.663889  0.135963  1
  N  N35  1  0.663889  0.152533  0.364037  1
  O  O36  1  0.154747  0.475377  0.780889  1
  O  O37  1  0.475377  0.154747  0.719111  1
  O  O38  1  0.845253  0.524623  0.219111  1
  O  O39  1  0.524623  0.845253  0.280889  1
  O  O40  1  0.357879  0.542454  0.553820  1
  O  O41  1  0.542454  0.357879  0.946180  1
  O  O42  1  0.642121  0.457546  0.446180  1
  O  O43  1  0.457546  0.642121  0.053820  1
