# generated using pymatgen
data_BaTi7O14
_symmetry_space_group_name_H-M   'P 1'
_cell_length_a   7.38766551
_cell_length_b   20.60257594
_cell_length_c   7.39038818
_cell_angle_alpha   80.32540527
_cell_angle_beta   92.30204031
_cell_angle_gamma   99.66660964
_symmetry_Int_Tables_number   1
_chemical_formula_structural   BaTi7O14
_chemical_formula_sum   'Ba4 Ti28 O56'
_cell_volume   1093.02927467
_cell_formula_units_Z   4
loop_
 _symmetry_equiv_pos_site_id
 _symmetry_equiv_pos_as_xyz
  1  'x, y, z'
loop_
 _atom_site_type_symbol
 _atom_site_label
 _atom_site_symmetry_multiplicity
 _atom_site_fract_x
 _atom_site_fract_y
 _atom_site_fract_z
 _atom_site_occupancy
  Ba  Ba0  1  0.707872  0.707580  0.292436  1
  Ba  Ba1  1  0.975306  0.974096  0.025137  1
  Ba  Ba2  1  0.434985  0.435277  0.564707  1
  Ba  Ba3  1  0.167551  0.168761  0.832006  1
  Ti  Ti4  1  0.557324  0.048358  0.133060  1
  Ti  Ti5  1  0.936455  0.120390  0.392117  1
  Ti  Ti6  1  0.488728  0.307564  0.170788  1
  Ti  Ti7  1  0.634378  0.450089  0.040849  1
  Ti  Ti8  1  0.206402  0.022467  0.465026  1
  Ti  Ti9  1  0.346483  0.164003  0.322637  1
  Ti  Ti10  1  0.873374  0.380391  0.435351  1
  Ti  Ti11  1  0.712932  0.239011  0.580076  1
  Ti  Ti12  1  0.585534  0.094499  0.724082  1
  Ti  Ti13  1  0.853524  0.333029  0.846449  1
  Ti  Ti14  1  0.707506  0.190693  0.995207  1
  Ti  Ti15  1  0.986605  0.476762  0.708023  1
  Ti  Ti16  1  0.084642  0.265096  0.258251  1
  Ti  Ti17  1  0.222831  0.406763  0.100968  1
  Ti  Ti18  1  0.772643  0.592670  0.884254  1
  Ti  Ti19  1  0.920026  0.736094  0.756175  1
  Ti  Ti20  1  0.156253  0.666096  0.149120  1
  Ti  Ti21  1  0.289333  0.809828  0.010693  1
  Ti  Ti22  1  0.001059  0.524442  0.295709  1
  Ti  Ti23  1  0.269483  0.762466  0.421792  1
  Ti  Ti24  1  0.429925  0.903846  0.277066  1
  Ti  Ti25  1  0.141798  0.618416  0.561434  1
  Ti  Ti26  1  0.370214  0.550187  0.972889  1
  Ti  Ti27  1  0.796374  0.978854  0.534506  1
  Ti  Ti28  1  0.508479  0.692768  0.816294  1
  Ti  Ti29  1  0.654129  0.835293  0.686355  1
  Ti  Ti30  1  0.058215  0.877762  0.598892  1
  Ti  Ti31  1  0.435351  0.952164  0.861936  1
  O  O32  1  0.900790  0.190615  0.180118  1
  O  O33  1  0.753945  0.046844  0.322032  1
  O  O34  1  0.505654  0.137690  0.152028  1
  O  O35  1  0.656441  0.280289  0.013883  1
  O  O36  1  0.914752  0.290056  0.415877  1
  O  O37  1  0.777847  0.149457  0.558811  1
  O  O38  1  0.637203  0.005168  0.705115  1
  O  O39  1  0.281051  0.236025  0.119549  1
  O  O40  1  0.137800  0.092831  0.257936  1
  O  O41  1  0.671849  0.380976  0.250567  1
  O  O42  1  0.388912  0.096013  0.535111  1
  O  O43  1  0.532496  0.237792  0.385276  1
  O  O44  1  0.819616  0.524250  0.099594  1
  O  O45  1  0.886996  0.242336  0.802923  1
  O  O46  1  0.749367  0.099425  0.946048  1
  O  O47  1  0.972072  0.615007  0.339245  1
  O  O48  1  0.823581  0.470443  0.483094  1
  O  O49  1  0.393490  0.043432  0.911095  1
  O  O50  1  0.686877  0.329381  0.624330  1
  O  O51  1  0.539741  0.185057  0.769819  1
  O  O52  1  0.037350  0.332877  0.042770  1
  O  O53  1  0.575403  0.621566  0.021638  1
  O  O54  1  0.431408  0.477125  0.169682  1
  O  O55  1  0.005057  0.050026  0.599207  1
  O  O56  1  0.146433  0.191487  0.454552  1
  O  O57  1  0.289805  0.335931  0.306363  1
  O  O58  1  0.942357  0.566728  0.728076  1
  O  O59  1  0.791537  0.422383  0.868071  1
  O  O60  1  0.066418  0.435338  0.273920  1
  O  O61  1  0.200500  0.576130  0.129067  1
  O  O62  1  0.853052  0.806926  0.550780  1
  O  O63  1  0.996424  0.951370  0.402591  1
  O  O64  1  0.426542  0.380529  0.972964  1
  O  O65  1  0.711450  0.665732  0.687460  1
  O  O66  1  0.567454  0.521291  0.835505  1
  O  O67  1  0.956509  0.666316  0.964988  1
  O  O68  1  0.603116  0.957801  0.087323  1
  O  O69  1  0.170785  0.527850  0.517898  1
  O  O70  1  0.455980  0.813476  0.232813  1
  O  O71  1  0.033862  0.387145  0.659046  1
  O  O72  1  0.319277  0.672414  0.374049  1
  O  O73  1  0.255861  0.900521  0.054220  1
  O  O74  1  0.108996  0.755713  0.198097  1
  O  O75  1  0.471009  0.761881  0.606576  1
  O  O76  1  0.323241  0.618607  0.757549  1
  O  O77  1  0.186348  0.476541  0.892155  1
  O  O78  1  0.610361  0.905066  0.471867  1
  O  O79  1  0.861806  0.906832  0.737594  1
  O  O80  1  0.716315  0.762328  0.884179  1
  O  O81  1  0.076439  0.707519  0.583223  1
  O  O82  1  0.228105  0.852801  0.441266  1
  O  O83  1  0.365010  0.993400  0.298332  1
  O  O84  1  0.486416  0.862568  0.843260  1
  O  O85  1  0.351320  0.720474  0.989072  1
  O  O86  1  0.105508  0.809980  0.814373  1
  O  O87  1  0.242067  0.952242  0.677025  1
