# generated using pymatgen
data_Li2Mn2Si2O7
_symmetry_space_group_name_H-M   'P 1'
_cell_length_a   5.08981375
_cell_length_b   5.44529798
_cell_length_c   13.45136678
_cell_angle_alpha   90.08570441
_cell_angle_beta   89.84478018
_cell_angle_gamma   117.96283799
_symmetry_Int_Tables_number   1
_chemical_formula_structural   Li2Mn2Si2O7
_chemical_formula_sum   'Li4 Mn4 Si4 O14'
_cell_volume   329.28574632
_cell_formula_units_Z   2
loop_
 _symmetry_equiv_pos_site_id
 _symmetry_equiv_pos_as_xyz
  1  'x, y, z'
loop_
 _atom_site_type_symbol
 _atom_site_label
 _atom_site_symmetry_multiplicity
 _atom_site_fract_x
 _atom_site_fract_y
 _atom_site_fract_z
 _atom_site_occupancy
  Li  Li0  1  0.016405  0.005922  0.001628  1
  Li  Li1  1  0.011265  0.996819  0.502326  1
  Li  Li2  1  0.006798  0.028859  0.249108  1
  Li  Li3  1  0.982789  0.981678  0.749057  1
  Mn  Mn4  1  0.343072  0.565909  0.589575  1
  Mn  Mn5  1  0.346048  0.570329  0.911393  1
  Mn  Mn6  1  0.781773  0.435640  0.411125  1
  Mn  Mn7  1  0.780841  0.437399  0.089293  1
  Si  Si8  1  0.441333  0.778862  0.139479  1
  Si  Si9  1  0.442979  0.778535  0.361972  1
  Si  Si10  1  0.661213  0.225131  0.639575  1
  Si  Si11  1  0.663096  0.227401  0.861394  1
  O  O12  1  0.146983  0.823011  0.124398  1
  O  O13  1  0.148163  0.821354  0.377639  1
  O  O14  1  0.434836  0.637395  0.250495  1
  O  O15  1  0.685320  0.938042  0.868565  1
  O  O16  1  0.683894  0.935956  0.631081  1
  O  O17  1  0.444335  0.545396  0.062299  1
  O  O18  1  0.447626  0.546097  0.439078  1
  O  O19  1  0.325319  0.185095  0.876898  1
  O  O20  1  0.322113  0.180911  0.625650  1
  O  O21  1  0.797812  0.369178  0.750260  1
  O  O22  1  0.756181  0.068249  0.369328  1
  O  O23  1  0.754404  0.068957  0.131040  1
  O  O24  1  0.898423  0.458408  0.562214  1
  O  O25  1  0.901090  0.460188  0.938649  1
