# generated using pymatgen
data_Li4MnSi2O7
_symmetry_space_group_name_H-M   'P 1'
_cell_length_a   5.49407332
_cell_length_b   7.28370245
_cell_length_c   8.17748450
_cell_angle_alpha   85.08551508
_cell_angle_beta   90.00000000
_cell_angle_gamma   67.84284111
_symmetry_Int_Tables_number   1
_chemical_formula_structural   Li4MnSi2O7
_chemical_formula_sum   'Li8 Mn2 Si4 O14'
_cell_volume   301.77488674
_cell_formula_units_Z   2
loop_
 _symmetry_equiv_pos_site_id
 _symmetry_equiv_pos_as_xyz
  1  'x, y, z'
loop_
 _atom_site_type_symbol
 _atom_site_label
 _atom_site_symmetry_multiplicity
 _atom_site_fract_x
 _atom_site_fract_y
 _atom_site_fract_z
 _atom_site_occupancy
  Li  Li0  1  0.736750  0.844159  0.875375  1
  Li  Li1  1  0.419091  0.844159  0.375375  1
  Li  Li2  1  0.883613  0.587313  0.594881  1
  Li  Li3  1  0.529074  0.587313  0.094881  1
  Li  Li4  1  0.129686  0.446153  0.947582  1
  Li  Li5  1  0.424160  0.446153  0.447582  1
  Li  Li6  1  0.194234  0.992772  0.019997  1
  Li  Li7  1  0.812994  0.992772  0.519997  1
  Mn  Mn8  1  0.689504  0.297555  0.798725  1
  Mn  Mn9  1  0.012941  0.297555  0.298725  1
  Si  Si10  1  0.304908  0.730270  0.737899  1
  Si  Si11  1  0.964822  0.730270  0.237899  1
  Si  Si12  1  0.260306  0.147266  0.670419  1
  Si  Si13  1  0.592427  0.147266  0.170419  1
  O  O14  1  0.211262  0.946678  0.605050  1
  O  O15  1  0.842060  0.946678  0.105050  1
  O  O16  1  0.426646  0.777666  0.902580  1
  O  O17  1  0.795687  0.777666  0.402580  1
  O  O18  1  0.049198  0.673421  0.771717  1
  O  O19  1  0.277381  0.673421  0.271717  1
  O  O20  1  0.532722  0.557943  0.641550  1
  O  O21  1  0.909336  0.557943  0.141550  1
  O  O22  1  0.147627  0.329900  0.524012  1
  O  O23  1  0.522473  0.329900  0.024012  1
  O  O24  1  0.089629  0.214310  0.835858  1
  O  O25  1  0.696060  0.214310  0.335859  1
  O  O26  1  0.576423  0.085571  0.704034  1
  O  O27  1  0.338006  0.085571  0.204034  1
