# generated using pymatgen
data_K5Li3Ti8(AsO5)8
_symmetry_space_group_name_H-M   'P 1'
_cell_length_a   13.19611499
_cell_length_b   6.68700229
_cell_length_c   10.89391943
_cell_angle_alpha   89.62594799
_cell_angle_beta   90.02469589
_cell_angle_gamma   90.05133215
_symmetry_Int_Tables_number   1
_chemical_formula_structural   K5Li3Ti8(AsO5)8
_chemical_formula_sum   'K5 Li3 Ti8 As8 O40'
_cell_volume   961.28519484
_cell_formula_units_Z   1
loop_
 _symmetry_equiv_pos_site_id
 _symmetry_equiv_pos_as_xyz
  1  'x, y, z'
loop_
 _atom_site_type_symbol
 _atom_site_label
 _atom_site_symmetry_multiplicity
 _atom_site_fract_x
 _atom_site_fract_y
 _atom_site_fract_z
 _atom_site_occupancy
  K  K0  1  0.105014  0.689157  0.078292  1
  K  K1  1  0.109356  0.287200  0.817562  1
  K  K2  1  0.392700  0.800848  0.319279  1
  K  K3  1  0.608589  0.199077  0.819188  1
  K  K4  1  0.885977  0.701185  0.323351  1
  Li  Li5  1  0.396416  0.438436  0.540891  1
  Li  Li6  1  0.603347  0.562428  0.040337  1
  Li  Li7  1  0.896412  0.062900  0.540255  1
  Ti  Ti8  1  0.131280  0.014855  0.511559  1
  Ti  Ti9  1  0.242950  0.268791  0.256853  1
  Ti  Ti10  1  0.258119  0.776795  0.757372  1
  Ti  Ti11  1  0.367997  0.513430  0.011496  1
  Ti  Ti12  1  0.632990  0.484984  0.510648  1
  Ti  Ti13  1  0.742909  0.222354  0.255607  1
  Ti  Ti14  1  0.757933  0.724317  0.756297  1
  Ti  Ti15  1  0.870277  0.987515  0.009595  1
  As  As16  1  0.003265  0.829992  0.768240  1
  As  As17  1  0.183173  0.515450  0.515176  1
  As  As18  1  0.316863  0.016007  0.015073  1
  As  As19  1  0.496632  0.331475  0.269363  1
  As  As20  1  0.504717  0.669029  0.768072  1
  As  As21  1  0.682454  0.984849  0.515433  1
  As  As22  1  0.816874  0.484561  0.015645  1
  As  As23  1  0.994684  0.168931  0.267393  1
  O  O24  1  0.999577  0.043636  0.407375  1
  O  O25  1  0.007526  0.999434  0.649855  1
  O  O26  1  0.095079  0.334252  0.248964  1
  O  O27  1  0.106571  0.715478  0.484293  1
  O  O28  1  0.110754  0.684495  0.778386  1
  O  O29  1  0.112721  0.310279  0.555297  1
  O  O30  1  0.213135  0.064524  0.386234  1
  O  O31  1  0.220313  0.959222  0.640673  1
  O  O32  1  0.231640  0.055361  0.133644  1
  O  O33  1  0.239345  0.973638  0.890125  1
  O  O34  1  0.265338  0.469881  0.394276  1
  O  O35  1  0.273087  0.557141  0.629594  1
  O  O36  1  0.276971  0.461781  0.140802  1
  O  O37  1  0.283858  0.564454  0.889220  1
  O  O38  1  0.386408  0.809186  0.054981  1
  O  O39  1  0.389160  0.187212  0.276726  1
  O  O40  1  0.393680  0.216882  0.985932  1
  O  O41  1  0.404068  0.830414  0.751005  1
  O  O42  1  0.492831  0.501593  0.151709  1
  O  O43  1  0.500562  0.541318  0.906806  1
  O  O44  1  0.499798  0.459723  0.407260  1
  O  O45  1  0.507211  0.498050  0.651697  1
  O  O46  1  0.596247  0.168154  0.252404  1
  O  O47  1  0.605925  0.784986  0.485248  1
  O  O48  1  0.611726  0.814507  0.774761  1
  O  O49  1  0.612286  0.189451  0.555435  1
  O  O50  1  0.713896  0.436901  0.387122  1
  O  O51  1  0.721007  0.540711  0.641671  1
  O  O52  1  0.726414  0.444195  0.129205  1
  O  O53  1  0.734145  0.529941  0.895248  1
  O  O54  1  0.765602  0.029897  0.395170  1
  O  O55  1  0.773147  0.943962  0.629249  1
  O  O56  1  0.779451  0.041891  0.140941  1
  O  O57  1  0.786872  0.934512  0.887968  1
  O  O58  1  0.889571  0.686526  0.055957  1
  O  O59  1  0.888090  0.316826  0.275307  1
  O  O60  1  0.895030  0.286928  0.985620  1
  O  O61  1  0.903191  0.666391  0.750281  1
  O  O62  1  0.988988  0.994137  0.154839  1
  O  O63  1  0.997749  0.958163  0.904819  1
