# generated using pymatgen
data_NaCoP3(H4O5)2
_symmetry_space_group_name_H-M   'P 1'
_cell_length_a   9.17487616
_cell_length_b   14.91974603
_cell_length_c   14.95605358
_cell_angle_alpha   90.00000000
_cell_angle_beta   90.00000000
_cell_angle_gamma   90.00000000
_symmetry_Int_Tables_number   1
_chemical_formula_structural   NaCoP3(H4O5)2
_chemical_formula_sum   'Na8 Co8 P24 H64 O80'
_cell_volume   2047.28664668
_cell_formula_units_Z   8
loop_
 _symmetry_equiv_pos_site_id
 _symmetry_equiv_pos_as_xyz
  1  'x, y, z'
loop_
 _atom_site_type_symbol
 _atom_site_label
 _atom_site_symmetry_multiplicity
 _atom_site_fract_x
 _atom_site_fract_y
 _atom_site_fract_z
 _atom_site_occupancy
  Na  Na0  1  0.062369  0.658010  0.068366  1
  Na  Na1  1  0.562369  0.841990  0.931634  1
  Na  Na2  1  0.937631  0.158010  0.431634  1
  Na  Na3  1  0.437631  0.341990  0.568366  1
  Na  Na4  1  0.937631  0.341990  0.931634  1
  Na  Na5  1  0.437631  0.158010  0.068366  1
  Na  Na6  1  0.062369  0.841990  0.568366  1
  Na  Na7  1  0.562369  0.658010  0.431634  1
  Co  Co8  1  0.948258  0.840822  0.953557  1
  Co  Co9  1  0.448258  0.659178  0.046443  1
  Co  Co10  1  0.051742  0.340822  0.546443  1
  Co  Co11  1  0.551742  0.159178  0.453557  1
  Co  Co12  1  0.051742  0.159178  0.046443  1
  Co  Co13  1  0.551742  0.340822  0.953557  1
  Co  Co14  1  0.948258  0.659178  0.453557  1
  Co  Co15  1  0.448258  0.840822  0.546443  1
  P  P16  1  0.726165  0.531142  0.990671  1
  P  P17  1  0.226165  0.968858  0.009329  1
  P  P18  1  0.273835  0.031142  0.509329  1
  P  P19  1  0.773835  0.468858  0.490671  1
  P  P20  1  0.273835  0.468858  0.009329  1
  P  P21  1  0.773835  0.031142  0.990671  1
  P  P22  1  0.726165  0.968858  0.490671  1
  P  P23  1  0.226165  0.531142  0.509329  1
  P  P24  1  0.235910  0.722487  0.881877  1
  P  P25  1  0.735910  0.777513  0.118123  1
  P  P26  1  0.764090  0.222487  0.618123  1
  P  P27  1  0.264090  0.277514  0.381877  1
  P  P28  1  0.764090  0.277514  0.118123  1
  P  P29  1  0.264090  0.222487  0.881877  1
  P  P30  1  0.235910  0.777513  0.381877  1
  P  P31  1  0.735910  0.722487  0.618123  1
  P  P32  1  0.965132  0.528896  0.262428  1
  P  P33  1  0.465132  0.971104  0.737572  1
  P  P34  1  0.034868  0.028896  0.237572  1
  P  P35  1  0.534868  0.471104  0.762428  1
  P  P36  1  0.034868  0.471104  0.737572  1
  P  P37  1  0.534868  0.028896  0.262428  1
  P  P38  1  0.965132  0.971104  0.762428  1
  P  P39  1  0.465132  0.528896  0.237572  1
  H  H40  1  0.752691  0.544696  0.082181  1
  H  H41  1  0.252691  0.955304  0.917819  1
  H  H42  1  0.247309  0.044696  0.417819  1
  H  H43  1  0.747309  0.455304  0.582181  1
  H  H44  1  0.247309  0.455304  0.917819  1
  H  H45  1  0.747309  0.044696  0.082181  1
  H  H46  1  0.752691  0.955304  0.582181  1
  H  H47  1  0.252691  0.544696  0.417819  1
  H  H48  1  0.226886  0.637669  0.841075  1
  H  H49  1  0.726886  0.862331  0.158925  1
  H  H50  1  0.773114  0.137669  0.658925  1
  H  H51  1  0.273114  0.362331  0.341075  1
  H  H52  1  0.773114  0.362331  0.158925  1
  H  H53  1  0.273114  0.137669  0.841075  1
  H  H54  1  0.226886  0.862331  0.341075  1
  H  H55  1  0.726886  0.637669  0.658925  1
  H  H56  1  0.811200  0.529767  0.265060  1
  H  H57  1  0.311200  0.970233  0.734940  1
  H  H58  1  0.188800  0.029767  0.234940  1
  H  H59  1  0.688800  0.470233  0.765060  1
  H  H60  1  0.188800  0.470233  0.734940  1
  H  H61  1  0.688800  0.029767  0.265060  1
  H  H62  1  0.811200  0.970233  0.765060  1
  H  H63  1  0.311200  0.529767  0.234940  1
  H  H64  1  0.915286  0.534025  0.896880  1
  H  H65  1  0.415286  0.965975  0.103120  1
  H  H66  1  0.084714  0.034025  0.603120  1
  H  H67  1  0.584714  0.465975  0.396880  1
  H  H68  1  0.084714  0.465975  0.103120  1
  H  H69  1  0.584714  0.034025  0.896880  1
  H  H70  1  0.915286  0.965975  0.396880  1
  H  H71  1  0.415286  0.534025  0.603120  1
  H  H72  1  0.147862  0.833595  0.802605  1
  H  H73  1  0.647862  0.666405  0.197395  1
  H  H74  1  0.852138  0.333595  0.697395  1
  H  H75  1  0.352138  0.166405  0.302605  1
  H  H76  1  0.852138  0.166405  0.197395  1
  H  H77  1  0.352138  0.333595  0.802605  1
  H  H78  1  0.147862  0.666405  0.302605  1
  H  H79  1  0.647862  0.833595  0.697395  1
  H  H80  1  0.974846  0.420120  0.360817  1
  H  H81  1  0.474846  0.079880  0.639183  1
  H  H82  1  0.025154  0.920120  0.139183  1
  H  H83  1  0.525154  0.579880  0.860817  1
  H  H84  1  0.025154  0.579880  0.639183  1
  H  H85  1  0.525154  0.920120  0.360817  1
  H  H86  1  0.974846  0.079880  0.860817  1
  H  H87  1  0.474846  0.420120  0.139183  1
  H  H88  1  0.297742  0.735320  0.184748  1
  H  H89  1  0.797742  0.764680  0.815252  1
  H  H90  1  0.702258  0.235320  0.315252  1
  H  H91  1  0.202258  0.264680  0.684748  1
  H  H92  1  0.702258  0.264680  0.815252  1
  H  H93  1  0.202258  0.235320  0.184748  1
  H  H94  1  0.297742  0.764680  0.684748  1
  H  H95  1  0.797742  0.735320  0.315252  1
  H  H96  1  0.303388  0.801921  0.101744  1
  H  H97  1  0.803388  0.698079  0.898256  1
  H  H98  1  0.696612  0.301921  0.398256  1
  H  H99  1  0.196612  0.198079  0.601744  1
  H  H100  1  0.696612  0.198079  0.898256  1
  H  H101  1  0.196612  0.301921  0.101744  1
  H  H102  1  0.303388  0.698079  0.601744  1
  H  H103  1  0.803388  0.801921  0.398256  1
  O  O104  1  0.865873  0.575027  0.943909  1
  O  O105  1  0.365873  0.924973  0.056091  1
  O  O106  1  0.134127  0.075027  0.556091  1
  O  O107  1  0.634127  0.424973  0.443909  1
  O  O108  1  0.134127  0.424973  0.056091  1
  O  O109  1  0.634127  0.075027  0.943909  1
  O  O110  1  0.865873  0.924973  0.443909  1
  O  O111  1  0.365873  0.575027  0.556091  1
  O  O112  1  0.590950  0.585111  0.964880  1
  O  O113  1  0.090950  0.914889  0.035120  1
  O  O114  1  0.409050  0.085111  0.535120  1
  O  O115  1  0.909050  0.414889  0.464880  1
  O  O116  1  0.409050  0.414889  0.035120  1
  O  O117  1  0.909050  0.085111  0.964880  1
  O  O118  1  0.590950  0.914889  0.464880  1
  O  O119  1  0.090950  0.585111  0.535120  1
  O  O120  1  0.722492  0.431245  0.969849  1
  O  O121  1  0.222492  0.068755  0.030151  1
  O  O122  1  0.277508  0.931245  0.530151  1
  O  O123  1  0.777508  0.568755  0.469849  1
  O  O124  1  0.277508  0.568755  0.030151  1
  O  O125  1  0.777508  0.931245  0.969849  1
  O  O126  1  0.722492  0.068755  0.469849  1
  O  O127  1  0.222492  0.431245  0.530151  1
  O  O128  1  0.236346  0.791133  0.799320  1
  O  O129  1  0.736346  0.708867  0.200680  1
  O  O130  1  0.763654  0.291133  0.700680  1
  O  O131  1  0.263654  0.208867  0.299320  1
  O  O132  1  0.763654  0.208867  0.200680  1
  O  O133  1  0.263654  0.291133  0.799320  1
  O  O134  1  0.236346  0.708867  0.299320  1
  O  O135  1  0.736346  0.791133  0.700680  1
  O  O136  1  0.098967  0.738256  0.937025  1
  O  O137  1  0.598967  0.761744  0.062975  1
  O  O138  1  0.901033  0.238256  0.562975  1
  O  O139  1  0.401033  0.261744  0.437025  1
  O  O140  1  0.901033  0.261744  0.062975  1
  O  O141  1  0.401033  0.238256  0.937025  1
  O  O142  1  0.098967  0.761744  0.437025  1
  O  O143  1  0.598967  0.738256  0.562975  1
  O  O144  1  0.381240  0.729616  0.929936  1
  O  O145  1  0.881240  0.770384  0.070064  1
  O  O146  1  0.618760  0.229616  0.570064  1
  O  O147  1  0.118760  0.270384  0.429936  1
  O  O148  1  0.618760  0.270384  0.070064  1
  O  O149  1  0.118760  0.229616  0.929936  1
  O  O150  1  0.381240  0.770384  0.429936  1
  O  O151  1  0.881240  0.729616  0.570064  1
  O  O152  1  0.009695  0.432195  0.297885  1
  O  O153  1  0.509695  0.067805  0.702115  1
  O  O154  1  0.990305  0.932195  0.202115  1
  O  O155  1  0.490305  0.567805  0.797885  1
  O  O156  1  0.990305  0.567805  0.702115  1
  O  O157  1  0.490305  0.932195  0.297885  1
  O  O158  1  0.009695  0.067805  0.797885  1
  O  O159  1  0.509695  0.432195  0.202115  1
  O  O160  1  0.018885  0.536826  0.166990  1
  O  O161  1  0.518885  0.963174  0.833010  1
  O  O162  1  0.981115  0.036826  0.333010  1
  O  O163  1  0.481115  0.463174  0.666990  1
  O  O164  1  0.981115  0.463174  0.833010  1
  O  O165  1  0.481115  0.036826  0.166990  1
  O  O166  1  0.018885  0.963174  0.666990  1
  O  O167  1  0.518885  0.536826  0.333010  1
  O  O168  1  0.017987  0.603447  0.325497  1
  O  O169  1  0.517987  0.896553  0.674503  1
  O  O170  1  0.982013  0.103447  0.174503  1
  O  O171  1  0.482013  0.396553  0.825497  1
  O  O172  1  0.982013  0.396553  0.674503  1
  O  O173  1  0.482013  0.103447  0.325497  1
  O  O174  1  0.017987  0.896553  0.825497  1
  O  O175  1  0.517987  0.603447  0.174503  1
  O  O176  1  0.290295  0.738730  0.118965  1
  O  O177  1  0.790295  0.761270  0.881035  1
  O  O178  1  0.709705  0.238731  0.381035  1
  O  O179  1  0.209705  0.261269  0.618965  1
  O  O180  1  0.709705  0.261269  0.881035  1
  O  O181  1  0.209705  0.238731  0.118965  1
  O  O182  1  0.290295  0.761270  0.618965  1
  O  O183  1  0.790295  0.738730  0.381035  1
