# generated using pymatgen
data_Li3Cr(PO4)2
_symmetry_space_group_name_H-M   'P 1'
_cell_length_a   8.46606593
_cell_length_b   10.31204226
_cell_length_c   8.11614136
_cell_angle_alpha   90.03012696
_cell_angle_beta   107.54990604
_cell_angle_gamma   89.75264434
_symmetry_Int_Tables_number   1
_chemical_formula_structural   Li3Cr(PO4)2
_chemical_formula_sum   'Li12 Cr4 P8 O32'
_cell_volume   675.57223215
_cell_formula_units_Z   4
loop_
 _symmetry_equiv_pos_site_id
 _symmetry_equiv_pos_as_xyz
  1  'x, y, z'
loop_
 _atom_site_type_symbol
 _atom_site_label
 _atom_site_symmetry_multiplicity
 _atom_site_fract_x
 _atom_site_fract_y
 _atom_site_fract_z
 _atom_site_occupancy
  Li  Li0  1  0.157920  0.148242  0.652143  1
  Li  Li1  1  0.229734  0.429862  0.463405  1
  Li  Li2  1  0.269147  0.915805  0.541022  1
  Li  Li3  1  0.330833  0.656684  0.345251  1
  Li  Li4  1  0.392969  0.167461  0.383184  1
  Li  Li5  1  0.597586  0.838499  0.615341  1
  Li  Li6  1  0.674810  0.341623  0.641444  1
  Li  Li7  1  0.653083  0.153546  0.181093  1
  Li  Li8  1  0.867272  0.661855  0.840648  1
  Li  Li9  1  0.779322  0.583349  0.524118  1
  Li  Li10  1  0.832433  0.851192  0.363913  1
  Li  Li11  1  0.902860  0.336104  0.395066  1
  Cr  Cr12  1  0.122752  0.855228  0.124607  1
  Cr  Cr13  1  0.377145  0.357792  0.875987  1
  Cr  Cr14  1  0.622604  0.653051  0.114788  1
  Cr  Cr15  1  0.867492  0.147112  0.877050  1
  P  P16  1  0.050801  0.411584  0.782421  1
  P  P17  1  0.024444  0.086391  0.275740  1
  P  P18  1  0.488484  0.579332  0.716257  1
  P  P19  1  0.545035  0.090957  0.787428  1
  P  P20  1  0.444730  0.913898  0.212104  1
  P  P21  1  0.524276  0.415193  0.284417  1
  P  P22  1  0.975187  0.906802  0.714136  1
  P  P23  1  0.946482  0.592364  0.221647  1
  O  O24  1  0.995999  0.058470  0.749949  1
  O  O25  1  0.143312  0.349365  0.657411  1
  O  O26  1  0.195120  0.415861  0.955973  1
  O  O27  1  0.012881  0.461730  0.294782  1
  O  O28  1  0.113906  0.864384  0.646961  1
  O  O29  1  0.046134  0.123838  0.097988  1
  O  O30  1  0.090199  0.680397  0.209366  1
  O  O31  1  0.190170  0.104561  0.421571  1
  O  O32  1  0.330721  0.595708  0.565346  1
  O  O33  1  0.399601  0.177948  0.804175  1
  O  O34  1  0.460895  0.625158  0.889136  1
  O  O35  1  0.392957  0.355839  0.354407  1
  O  O36  1  0.478756  0.960601  0.714018  1
  O  O37  1  0.300702  0.908738  0.038926  1
  O  O38  1  0.360282  0.849665  0.342055  1
  O  O39  1  0.525318  0.428116  0.746428  1
  O  O40  1  0.487102  0.564346  0.242773  1
  O  O41  1  0.643478  0.159795  0.677147  1
  O  O42  1  0.684679  0.083918  0.967091  1
  O  O43  1  0.505497  0.049969  0.267120  1
  O  O44  1  0.635634  0.648870  0.678643  1
  O  O45  1  0.536660  0.345270  0.116365  1
  O  O46  1  0.591293  0.827928  0.197414  1
  O  O47  1  0.697786  0.405438  0.421332  1
  O  O48  1  0.803535  0.877340  0.587372  1
  O  O49  1  0.911852  0.318124  0.796942  1
  O  O50  1  0.970700  0.839515  0.889632  1
  O  O51  1  0.884312  0.160261  0.317097  1
  O  O52  1  0.971293  0.541381  0.720467  1
  O  O53  1  0.812074  0.587447  0.038164  1
  O  O54  1  0.836461  0.658959  0.324456  1
  O  O55  1  0.987185  0.935087  0.260028  1
