# generated using pymatgen
data_MgB2H6O7
_symmetry_space_group_name_H-M   'P 1'
_cell_length_a   7.69188569
_cell_length_b   7.69188569
_cell_length_c   8.22368526
_cell_angle_alpha   90.00000000
_cell_angle_beta   90.00000000
_cell_angle_gamma   90.00000000
_symmetry_Int_Tables_number   1
_chemical_formula_structural   MgB2H6O7
_chemical_formula_sum   'Mg4 B8 H24 O28'
_cell_volume   486.55520574
_cell_formula_units_Z   4
loop_
 _symmetry_equiv_pos_site_id
 _symmetry_equiv_pos_as_xyz
  1  'x, y, z'
loop_
 _atom_site_type_symbol
 _atom_site_label
 _atom_site_symmetry_multiplicity
 _atom_site_fract_x
 _atom_site_fract_y
 _atom_site_fract_z
 _atom_site_occupancy
  Mg  Mg0  1  0.247782  0.250690  0.224943  1
  Mg  Mg1  1  0.250690  0.752218  0.724943  1
  Mg  Mg2  1  0.749310  0.247782  0.724943  1
  Mg  Mg3  1  0.752218  0.749310  0.224943  1
  B  B4  1  0.110874  0.120855  0.580934  1
  B  B5  1  0.120855  0.889126  0.080934  1
  B  B6  1  0.380696  0.612142  0.369438  1
  B  B7  1  0.387858  0.380696  0.869438  1
  B  B8  1  0.612142  0.619304  0.869438  1
  B  B9  1  0.619304  0.387858  0.369438  1
  B  B10  1  0.879145  0.110874  0.080934  1
  B  B11  1  0.889126  0.879145  0.580934  1
  H  H12  1  0.035849  0.135263  0.822307  1
  H  H13  1  0.100992  0.638366  0.160595  1
  H  H14  1  0.137511  0.403702  0.789507  1
  H  H15  1  0.132330  0.695712  0.431192  1
  H  H16  1  0.135263  0.964151  0.322307  1
  H  H17  1  0.190262  0.369727  0.520811  1
  H  H18  1  0.304288  0.132330  0.931192  1
  H  H19  1  0.364867  0.534718  0.128784  1
  H  H20  1  0.361634  0.100992  0.660595  1
  H  H21  1  0.369727  0.809738  0.020811  1
  H  H22  1  0.403702  0.862489  0.289507  1
  H  H23  1  0.465282  0.364867  0.628784  1
  H  H24  1  0.534718  0.635133  0.628784  1
  H  H25  1  0.596298  0.137511  0.289507  1
  H  H26  1  0.630273  0.190262  0.020811  1
  H  H27  1  0.638366  0.899008  0.660595  1
  H  H28  1  0.635133  0.465282  0.128784  1
  H  H29  1  0.695712  0.867670  0.931192  1
  H  H30  1  0.809738  0.630273  0.520811  1
  H  H31  1  0.864737  0.035849  0.322307  1
  H  H32  1  0.867670  0.304288  0.431192  1
  H  H33  1  0.862489  0.596298  0.789507  1
  H  H34  1  0.899008  0.361634  0.160595  1
  H  H35  1  0.964151  0.864737  0.822307  1
  O  O36  1  0.000000  0.000000  0.491527  1
  O  O37  1  0.000000  0.000000  0.991527  1
  O  O38  1  0.021707  0.736761  0.141298  1
  O  O39  1  0.017576  0.206562  0.722533  1
  O  O40  1  0.155923  0.262950  0.465455  1
  O  O41  1  0.206562  0.982424  0.222533  1
  O  O42  1  0.237383  0.481668  0.806872  1
  O  O43  1  0.240124  0.661000  0.484985  1
  O  O44  1  0.262950  0.844077  0.965455  1
  O  O45  1  0.263240  0.021707  0.641298  1
  O  O46  1  0.293625  0.517896  0.228952  1
  O  O47  1  0.339000  0.240124  0.984985  1
  O  O48  1  0.481668  0.762617  0.306872  1
  O  O49  1  0.482104  0.293625  0.728952  1
  O  O50  1  0.500000  0.500000  0.959284  1
  O  O51  1  0.500000  0.500000  0.459284  1
  O  O52  1  0.517896  0.706375  0.728952  1
  O  O53  1  0.518332  0.237383  0.306872  1
  O  O54  1  0.661000  0.759876  0.984985  1
  O  O55  1  0.706375  0.482104  0.228952  1
  O  O56  1  0.736761  0.978293  0.641298  1
  O  O57  1  0.737050  0.155923  0.965455  1
  O  O58  1  0.759876  0.339000  0.484985  1
  O  O59  1  0.762617  0.518332  0.806872  1
  O  O60  1  0.793438  0.017576  0.222533  1
  O  O61  1  0.844077  0.737050  0.465455  1
  O  O62  1  0.982424  0.793438  0.722533  1
  O  O63  1  0.978293  0.263240  0.141298  1
