# generated using pymatgen
data_CsY3O5
_symmetry_space_group_name_H-M   'P 1'
_cell_length_a   10.56182206
_cell_length_b   3.52049126
_cell_length_c   17.56484552
_cell_angle_alpha   90.00000000
_cell_angle_beta   90.00000000
_cell_angle_gamma   90.00000000
_symmetry_Int_Tables_number   1
_chemical_formula_structural   CsY3O5
_chemical_formula_sum   'Cs4 Y12 O20'
_cell_volume   653.11017756
_cell_formula_units_Z   4
loop_
 _symmetry_equiv_pos_site_id
 _symmetry_equiv_pos_as_xyz
  1  'x, y, z'
loop_
 _atom_site_type_symbol
 _atom_site_label
 _atom_site_symmetry_multiplicity
 _atom_site_fract_x
 _atom_site_fract_y
 _atom_site_fract_z
 _atom_site_occupancy
  Cs  Cs0  1  0.029138  0.750000  0.625064  1
  Cs  Cs1  1  0.470862  0.250000  0.125064  1
  Cs  Cs2  1  0.529138  0.750000  0.874936  1
  Cs  Cs3  1  0.970862  0.250000  0.374936  1
  Y  Y4  1  0.106135  0.750000  0.161187  1
  Y  Y5  1  0.150564  0.250000  0.986866  1
  Y  Y6  1  0.185537  0.750000  0.814972  1
  Y  Y7  1  0.314463  0.250000  0.314972  1
  Y  Y8  1  0.349436  0.750000  0.486866  1
  Y  Y9  1  0.393865  0.250000  0.661187  1
  Y  Y10  1  0.606135  0.750000  0.338813  1
  Y  Y11  1  0.650564  0.250000  0.513134  1
  Y  Y12  1  0.685537  0.750000  0.685028  1
  Y  Y13  1  0.814463  0.250000  0.185028  1
  Y  Y14  1  0.849436  0.750000  0.013134  1
  Y  Y15  1  0.893865  0.250000  0.838813  1
  O  O16  1  0.021331  0.750000  0.919782  1
  O  O17  1  0.068850  0.250000  0.770767  1
  O  O18  1  0.190853  0.250000  0.214200  1
  O  O19  1  0.221802  0.750000  0.050880  1
  O  O20  1  0.230159  0.750000  0.384744  1
  O  O21  1  0.269841  0.250000  0.884744  1
  O  O22  1  0.278198  0.250000  0.550880  1
  O  O23  1  0.309147  0.750000  0.714200  1
  O  O24  1  0.431150  0.750000  0.270767  1
  O  O25  1  0.478669  0.250000  0.419782  1
  O  O26  1  0.521331  0.750000  0.580218  1
  O  O27  1  0.568850  0.250000  0.729233  1
  O  O28  1  0.690853  0.250000  0.285800  1
  O  O29  1  0.721802  0.750000  0.449120  1
  O  O30  1  0.730159  0.750000  0.115256  1
  O  O31  1  0.769841  0.250000  0.615256  1
  O  O32  1  0.778198  0.250000  0.949120  1
  O  O33  1  0.809147  0.750000  0.785800  1
  O  O34  1  0.931150  0.750000  0.229233  1
  O  O35  1  0.978669  0.250000  0.080218  1
