# generated using pymatgen
data_Li4V3P8O29
_symmetry_space_group_name_H-M   'P 1'
_cell_length_a   9.77913143
_cell_length_b   9.76418627
_cell_length_c   14.07859766
_cell_angle_alpha   90.25225168
_cell_angle_beta   90.32105319
_cell_angle_gamma   60.06497143
_symmetry_Int_Tables_number   1
_chemical_formula_structural   Li4V3P8O29
_chemical_formula_sum   'Li8 V6 P16 O58'
_cell_volume   1164.93786654
_cell_formula_units_Z   2
loop_
 _symmetry_equiv_pos_site_id
 _symmetry_equiv_pos_as_xyz
  1  'x, y, z'
loop_
 _atom_site_type_symbol
 _atom_site_label
 _atom_site_symmetry_multiplicity
 _atom_site_fract_x
 _atom_site_fract_y
 _atom_site_fract_z
 _atom_site_occupancy
  Li  Li0  1  0.904520  0.771012  0.057875  1
  Li  Li1  1  0.777437  0.310960  0.058529  1
  Li  Li2  1  0.318663  0.912424  0.063304  1
  Li  Li3  1  0.665736  0.235829  0.439827  1
  Li  Li4  1  0.332492  0.769058  0.554249  1
  Li  Li5  1  0.224864  0.685931  0.943396  1
  Li  Li6  1  0.092070  0.671895  0.438608  1
  Li  Li7  1  0.996635  0.038726  0.499210  1
  V  V8  1  0.570464  0.429642  0.248218  1
  V  V9  1  0.438469  0.563389  0.750033  1
  V  V10  1  0.567910  0.996290  0.750350  1
  V  V11  1  0.431943  0.006489  0.255620  1
  V  V12  1  0.998064  0.563553  0.250931  1
  V  V13  1  0.000951  0.430813  0.746296  1
  P  P14  1  0.912854  0.770067  0.838521  1
  P  P15  1  0.775709  0.917361  0.341675  1
  P  P16  1  0.917055  0.307344  0.344970  1
  P  P17  1  0.662523  0.670469  0.130416  1
  P  P18  1  0.665323  0.667201  0.630451  1
  P  P19  1  0.775486  0.316072  0.840666  1
  P  P20  1  0.686219  0.222958  0.659295  1
  P  P21  1  0.317751  0.912096  0.845763  1
  P  P22  1  0.684796  0.082730  0.155300  1
  P  P23  1  0.317022  0.771892  0.339781  1
  P  P24  1  0.230370  0.678498  0.159386  1
  P  P25  1  0.335938  0.335987  0.372852  1
  P  P26  1  0.332085  0.334509  0.867885  1
  P  P27  1  0.089397  0.685602  0.656122  1
  P  P28  1  0.224335  0.082631  0.661284  1
  P  P29  1  0.085558  0.228218  0.159747  1
  O  O30  1  0.015470  0.768503  0.565403  1
  O  O31  1  0.914908  0.744642  0.339011  1
  O  O32  1  0.764274  0.990897  0.069165  1
  O  O33  1  0.744365  0.914127  0.834599  1
  O  O34  1  0.906376  0.617496  0.820318  1
  O  O35  1  0.812768  0.671460  0.170789  1
  O  O36  1  0.918174  0.462883  0.333815  1
  O  O37  1  0.996780  0.235979  0.072693  1
  O  O38  1  0.918143  0.342147  0.831476  1
  O  O39  1  0.667601  0.813286  0.676505  1
  O  O40  1  0.617291  0.916351  0.329092  1
  O  O41  1  0.813024  0.518362  0.672795  1
  O  O42  1  0.656695  0.676773  0.024577  1
  O  O43  1  0.652527  0.672474  0.525304  1
  O  O44  1  0.669198  0.515139  0.168291  1
  O  O45  1  0.476980  0.903957  0.823466  1
  O  O46  1  0.512963  0.817689  0.175267  1
  O  O47  1  0.742365  0.340705  0.334211  1
  O  O48  1  0.794700  0.204828  0.750386  1
  O  O49  1  0.765434  0.218758  0.568352  1
  O  O50  1  0.761995  0.249015  0.931593  1
  O  O51  1  0.621798  0.477487  0.819125  1
  O  O52  1  0.510857  0.672423  0.672381  1
  O  O53  1  0.663019  0.251553  0.157563  1
  O  O54  1  0.472692  0.617926  0.327961  1
  O  O55  1  0.342013  0.916409  0.333958  1
  O  O56  1  0.794813  0.997681  0.247213  1
  O  O57  1  0.783750  0.006676  0.425552  1
  O  O58  1  0.210050  0.992945  0.579105  1
  O  O59  1  0.654665  0.083640  0.668556  1
  O  O60  1  0.528421  0.380809  0.674969  1
  O  O61  1  0.339108  0.742377  0.837782  1
  O  O62  1  0.490676  0.323348  0.332123  1
  O  O63  1  0.380891  0.518172  0.179513  1
  O  O64  1  0.246160  0.754111  0.070686  1
  O  O65  1  0.227430  0.778757  0.428359  1
  O  O66  1  0.206718  0.791883  0.249039  1
  O  O67  1  0.260992  0.657662  0.662654  1
  O  O68  1  0.474985  0.184488  0.823069  1
  O  O69  1  0.524164  0.092768  0.177739  1
  O  O70  1  0.334843  0.485211  0.825806  1
  O  O71  1  0.327506  0.344789  0.972914  1
  O  O72  1  0.342088  0.326099  0.478152  1
  O  O73  1  0.189784  0.488333  0.333784  1
  O  O74  1  0.383119  0.079784  0.671000  1
  O  O75  1  0.330512  0.188743  0.324825  1
  O  O76  1  0.082252  0.661250  0.158961  1
  O  O77  1  0.002642  0.792953  0.748681  1
  O  O78  1  0.000112  0.760033  0.928654  1
  O  O79  1  0.088510  0.529192  0.670865  1
  O  O80  1  0.182425  0.341093  0.820722  1
  O  O81  1  0.094003  0.381280  0.179401  1
  O  O82  1  0.256531  0.083814  0.162675  1
  O  O83  1  0.248847  0.986622  0.938188  1
  O  O84  1  0.202551  0.007192  0.758701  1
  O  O85  1  0.086382  0.255917  0.664124  1
  O  O86  1  0.990746  0.209994  0.430097  1
  O  O87  1  0.002865  0.203861  0.251325  1
