# generated using pymatgen
data_Li2VCrO4
_symmetry_space_group_name_H-M   'P 1'
_cell_length_a   5.22363297
_cell_length_b   9.90198508
_cell_length_c   2.97074974
_cell_angle_alpha   98.62932963
_cell_angle_beta   89.99509574
_cell_angle_gamma   84.44556705
_symmetry_Int_Tables_number   1
_chemical_formula_structural   Li2VCrO4
_chemical_formula_sum   'Li4 V2 Cr2 O8'
_cell_volume   151.19060303
_cell_formula_units_Z   2
loop_
 _symmetry_equiv_pos_site_id
 _symmetry_equiv_pos_as_xyz
  1  'x, y, z'
loop_
 _atom_site_type_symbol
 _atom_site_label
 _atom_site_symmetry_multiplicity
 _atom_site_fract_x
 _atom_site_fract_y
 _atom_site_fract_z
 _atom_site_occupancy
  Li  Li0  1  0.999975  0.000002  0.999913  1
  Li  Li1  1  0.253584  0.500951  0.250500  1
  Li  Li2  1  0.500010  0.999996  0.500091  1
  Li  Li3  1  0.746420  0.499044  0.749500  1
  V  V4  1  0.124956  0.250240  0.625102  1
  V  V5  1  0.875010  0.749757  0.374899  1
  Cr  Cr6  1  0.625049  0.249720  0.124844  1
  Cr  Cr7  1  0.374976  0.750278  0.875131  1
  O  O8  1  0.312687  0.137026  0.068640  1
  O  O9  1  0.063428  0.636699  0.818320  1
  O  O10  1  0.193189  0.863564  0.431825  1
  O  O11  1  0.556185  0.636904  0.318456  1
  O  O12  1  0.443795  0.363096  0.681594  1
  O  O13  1  0.936554  0.363317  0.181492  1
  O  O14  1  0.687359  0.862955  0.931548  1
  O  O15  1  0.806823  0.136449  0.568143  1
