# generated using pymatgen
data_LiVF3
_symmetry_space_group_name_H-M   'P 1'
_cell_length_a   5.01117832
_cell_length_b   8.90879702
_cell_length_c   5.37241856
_cell_angle_alpha   90.00007070
_cell_angle_beta   89.99985813
_cell_angle_gamma   90.00014390
_symmetry_Int_Tables_number   1
_chemical_formula_structural   LiVF3
_chemical_formula_sum   'Li4 V4 F12'
_cell_volume   239.84394665
_cell_formula_units_Z   4
loop_
 _symmetry_equiv_pos_site_id
 _symmetry_equiv_pos_as_xyz
  1  'x, y, z'
loop_
 _atom_site_type_symbol
 _atom_site_label
 _atom_site_symmetry_multiplicity
 _atom_site_fract_x
 _atom_site_fract_y
 _atom_site_fract_z
 _atom_site_occupancy
  Li  Li0  1  0.000001  0.189547  0.750000  1
  Li  Li1  1  0.000001  0.810454  0.250001  1
  Li  Li2  1  0.500000  0.689547  0.250001  1
  Li  Li3  1  0.499999  0.310454  0.750000  1
  V  V4  1  0.999993  0.405416  0.249991  1
  V  V5  1  0.000009  0.594578  0.750011  1
  V  V6  1  0.499991  0.094579  0.249999  1
  V  V7  1  0.499997  0.905421  0.749991  1
  F  F8  1  0.217933  0.585469  0.084984  1
  F  F9  1  0.217932  0.414535  0.584985  1
  F  F10  1  0.250002  0.749999  0.552416  1
  F  F11  1  0.249999  0.250003  0.052413  1
  F  F12  1  0.282066  0.914529  0.084981  1
  F  F13  1  0.282069  0.085466  0.584985  1
  F  F14  1  0.717936  0.085468  0.915015  1
  F  F15  1  0.717937  0.914532  0.415015  1
  F  F16  1  0.750004  0.749999  0.947587  1
  F  F17  1  0.749999  0.250000  0.447588  1
  F  F18  1  0.782065  0.414535  0.915017  1
  F  F19  1  0.782067  0.585468  0.415020  1
