# generated using pymatgen
data_Li5Mn2P2(CO7)2
_symmetry_space_group_name_H-M   'P 1'
_cell_length_a   8.52570913
_cell_length_b   10.08072916
_cell_length_c   6.48286667
_cell_angle_alpha   90.04720503
_cell_angle_beta   89.62895617
_cell_angle_gamma   86.02533548
_symmetry_Int_Tables_number   1
_chemical_formula_structural   Li5Mn2P2(CO7)2
_chemical_formula_sum   'Li10 Mn4 P4 C4 O28'
_cell_volume   555.82012008
_cell_formula_units_Z   2
loop_
 _symmetry_equiv_pos_site_id
 _symmetry_equiv_pos_as_xyz
  1  'x, y, z'
loop_
 _atom_site_type_symbol
 _atom_site_label
 _atom_site_symmetry_multiplicity
 _atom_site_fract_x
 _atom_site_fract_y
 _atom_site_fract_z
 _atom_site_occupancy
  Li  Li0  1  0.091120  0.378810  0.248406  1
  Li  Li1  1  0.263047  0.120749  0.027944  1
  Li  Li2  1  0.264279  0.121186  0.471864  1
  Li  Li3  1  0.266892  0.633139  0.028688  1
  Li  Li4  1  0.264491  0.632474  0.472176  1
  Li  Li5  1  0.725918  0.375246  0.543132  1
  Li  Li6  1  0.736567  0.874114  0.515705  1
  Li  Li7  1  0.736826  0.872386  0.981624  1
  Li  Li8  1  0.901195  0.118457  0.754856  1
  Li  Li9  1  0.899810  0.613089  0.758106  1
  Mn  Mn10  1  0.339540  0.394607  0.752629  1
  Mn  Mn11  1  0.339429  0.895084  0.748481  1
  Mn  Mn12  1  0.666139  0.108770  0.247220  1
  Mn  Mn13  1  0.670115  0.595855  0.246296  1
  P  P14  1  0.412405  0.363942  0.256149  1
  P  P15  1  0.418198  0.863488  0.248712  1
  P  P16  1  0.583947  0.138523  0.744370  1
  P  P17  1  0.585988  0.643849  0.747956  1
  C  C18  1  0.038451  0.350771  0.743140  1
  C  C19  1  0.037374  0.854080  0.749388  1
  C  C20  1  0.960840  0.142561  0.255002  1
  C  C21  1  0.964725  0.641898  0.253573  1
  O  O22  1  0.068888  0.475024  0.752340  1
  O  O23  1  0.104579  0.180173  0.252659  1
  O  O24  1  0.068032  0.977258  0.749585  1
  O  O25  1  0.158700  0.260867  0.759969  1
  O  O26  1  0.105427  0.675302  0.250002  1
  O  O27  1  0.156134  0.763154  0.749001  1
  O  O28  1  0.316410  0.418253  0.067002  1
  O  O29  1  0.302329  0.413787  0.437739  1
  O  O30  1  0.324923  0.917888  0.059081  1
  O  O31  1  0.324771  0.920184  0.438457  1
  O  O32  1  0.416461  0.087339  0.751525  1
  O  O33  1  0.430824  0.209118  0.251160  1
  O  O34  1  0.419388  0.591717  0.750795  1
  O  O35  1  0.431843  0.708417  0.250831  1
  O  O36  1  0.563846  0.291073  0.726046  1
  O  O37  1  0.576663  0.417236  0.272547  1
  O  O38  1  0.569126  0.798505  0.735736  1
  O  O39  1  0.588615  0.911999  0.245150  1
  O  O40  1  0.686192  0.089350  0.931611  1
  O  O41  1  0.686197  0.078911  0.561781  1
  O  O42  1  0.689361  0.586937  0.564480  1
  O  O43  1  0.688336  0.601723  0.936001  1
  O  O44  1  0.845833  0.236674  0.268969  1
  O  O45  1  0.901091  0.311560  0.717136  1
  O  O46  1  0.843373  0.731948  0.251038  1
  O  O47  1  0.925613  0.022576  0.241854  1
  O  O48  1  0.895345  0.815931  0.749594  1
  O  O49  1  0.928183  0.519177  0.258675  1
