# generated using pymatgen
data_Li8V3P8O29
_symmetry_space_group_name_H-M   'P 1'
_cell_length_a   9.87640850
_cell_length_b   9.90216192
_cell_length_c   13.83084067
_cell_angle_alpha   90.32300851
_cell_angle_beta   89.70279966
_cell_angle_gamma   59.95457676
_symmetry_Int_Tables_number   1
_chemical_formula_structural   Li8V3P8O29
_chemical_formula_sum   'Li16 V6 P16 O58'
_cell_volume   1170.80297811
_cell_formula_units_Z   2
loop_
 _symmetry_equiv_pos_site_id
 _symmetry_equiv_pos_as_xyz
  1  'x, y, z'
loop_
 _atom_site_type_symbol
 _atom_site_label
 _atom_site_symmetry_multiplicity
 _atom_site_fract_x
 _atom_site_fract_y
 _atom_site_fract_z
 _atom_site_occupancy
  Li  Li0  1  0.902373  0.763325  0.062344  1
  Li  Li1  1  0.763623  0.903735  0.566795  1
  Li  Li2  1  0.908512  0.326802  0.564693  1
  Li  Li3  1  0.667782  0.668494  0.382397  1
  Li  Li4  1  0.668806  0.665210  0.879140  1
  Li  Li5  1  0.765378  0.331612  0.063687  1
  Li  Li6  1  0.325754  0.904083  0.061467  1
  Li  Li7  1  0.662026  0.235909  0.439799  1
  Li  Li8  1  0.328433  0.765047  0.564529  1
  Li  Li9  1  0.227418  0.675754  0.935000  1
  Li  Li10  1  0.341675  0.326787  0.115147  1
  Li  Li11  1  0.101314  0.662895  0.439315  1
  Li  Li12  1  0.237010  0.103157  0.438631  1
  Li  Li13  1  0.095677  0.234659  0.936411  1
  Li  Li14  1  0.933847  0.018270  0.989662  1
  Li  Li15  1  0.990075  0.003381  0.502965  1
  V  V16  1  0.564946  0.434634  0.250991  1
  V  V17  1  0.437300  0.563401  0.749258  1
  V  V18  1  0.562501  0.004758  0.752860  1
  V  V19  1  0.436860  0.999570  0.248598  1
  V  V20  1  0.000780  0.565363  0.250044  1
  V  V21  1  0.001049  0.436337  0.746167  1
  P  P22  1  0.905342  0.777446  0.842347  1
  P  P23  1  0.772346  0.912565  0.347674  1
  P  P24  1  0.910034  0.317302  0.344947  1
  P  P25  1  0.669383  0.664893  0.123784  1
  P  P26  1  0.667061  0.669348  0.625886  1
  P  P27  1  0.778349  0.315241  0.845450  1
  P  P28  1  0.691920  0.223077  0.659206  1
  P  P29  1  0.314873  0.911543  0.842459  1
  P  P30  1  0.692616  0.085345  0.158972  1
  P  P31  1  0.315914  0.774215  0.342592  1
  P  P32  1  0.228878  0.680230  0.154332  1
  P  P33  1  0.332211  0.334507  0.374818  1
  P  P34  1  0.328633  0.333849  0.873125  1
  P  P35  1  0.086408  0.688898  0.656236  1
  P  P36  1  0.228998  0.083696  0.655454  1
  P  P37  1  0.090680  0.227757  0.156133  1
  O  O38  1  0.997689  0.781616  0.567201  1
  O  O39  1  0.919558  0.751540  0.345756  1
  O  O40  1  0.796250  0.986002  0.078171  1
  O  O41  1  0.740630  0.920127  0.842121  1
  O  O42  1  0.892634  0.629535  0.832469  1
  O  O43  1  0.811419  0.673223  0.164241  1
  O  O44  1  0.889396  0.481517  0.333683  1
  O  O45  1  0.998900  0.231881  0.068401  1
  O  O46  1  0.923944  0.333651  0.840391  1
  O  O47  1  0.675350  0.813267  0.669601  1
  O  O48  1  0.625349  0.894310  0.332549  1
  O  O49  1  0.809755  0.514738  0.661768  1
  O  O50  1  0.667022  0.670084  0.015336  1
  O  O51  1  0.670355  0.676876  0.516428  1
  O  O52  1  0.670946  0.516509  0.161808  1
  O  O53  1  0.480759  0.890996  0.828631  1
  O  O54  1  0.514797  0.815766  0.166324  1
  O  O55  1  0.749126  0.329185  0.346204  1
  O  O56  1  0.794436  0.206146  0.753485  1
  O  O57  1  0.788779  0.212933  0.569343  1
  O  O58  1  0.783077  0.229078  0.936308  1
  O  O59  1  0.631424  0.477426  0.834284  1
  O  O60  1  0.512811  0.678848  0.662070  1
  O  O61  1  0.669666  0.250079  0.157020  1
  O  O62  1  0.481558  0.631232  0.333268  1
  O  O63  1  0.329636  0.923562  0.341460  1
  O  O64  1  0.781676  0.010361  0.258990  1
  O  O65  1  0.765772  0.002462  0.438361  1
  O  O66  1  0.222824  0.995221  0.566281  1
  O  O67  1  0.670180  0.079005  0.660164  1
  O  O68  1  0.537127  0.374466  0.666757  1
  O  O69  1  0.329721  0.749881  0.844156  1
  O  O70  1  0.485359  0.326407  0.337382  1
  O  O71  1  0.372072  0.515598  0.166750  1
  O  O72  1  0.237009  0.765733  0.066116  1
  O  O73  1  0.225620  0.772731  0.430983  1
  O  O74  1  0.216457  0.784709  0.248483  1
  O  O75  1  0.250354  0.668720  0.656860  1
  O  O76  1  0.475097  0.185541  0.824666  1
  O  O77  1  0.528755  0.097162  0.166316  1
  O  O78  1  0.330612  0.482201  0.839947  1
  O  O79  1  0.331486  0.320713  0.981656  1
  O  O80  1  0.324873  0.326938  0.482366  1
  O  O81  1  0.188901  0.483638  0.333661  1
  O  O82  1  0.385009  0.080363  0.665130  1
  O  O83  1  0.332870  0.182742  0.327530  1
  O  O84  1  0.078846  0.670546  0.155252  1
  O  O85  1  0.997410  0.794085  0.750770  1
  O  O86  1  0.994847  0.778689  0.931943  1
  O  O87  1  0.089540  0.534062  0.665359  1
  O  O88  1  0.184644  0.329916  0.833652  1
  O  O89  1  0.113716  0.369550  0.167098  1
  O  O90  1  0.253999  0.077551  0.156780  1
  O  O91  1  0.232054  0.004891  0.932614  1
  O  O92  1  0.208996  -0.000387  0.750587  1
  O  O93  1  0.086810  0.248111  0.654967  1
  O  O94  1  0.004644  0.227961  0.432282  1
  O  O95  1  0.000794  0.214763  0.250241  1
