# generated using pymatgen
data_NaCuCSO7
_symmetry_space_group_name_H-M   'P 1'
_cell_length_a   8.83600115
_cell_length_b   7.19687830
_cell_length_c   5.03179420
_cell_angle_alpha   90.00000000
_cell_angle_beta   87.99073608
_cell_angle_gamma   90.00000000
_symmetry_Int_Tables_number   1
_chemical_formula_structural   NaCuCSO7
_chemical_formula_sum   'Na2 Cu2 C2 S2 O14'
_cell_volume   319.78323638
_cell_formula_units_Z   2
loop_
 _symmetry_equiv_pos_site_id
 _symmetry_equiv_pos_as_xyz
  1  'x, y, z'
loop_
 _atom_site_type_symbol
 _atom_site_label
 _atom_site_symmetry_multiplicity
 _atom_site_fract_x
 _atom_site_fract_y
 _atom_site_fract_z
 _atom_site_occupancy
  Na  Na0  1  0.240192  0.475723  0.236591  1
  Na  Na1  1  0.759808  0.975723  0.763409  1
  Cu  Cu2  1  0.348559  0.764140  0.777902  1
  Cu  Cu3  1  0.651441  0.264140  0.222098  1
  C  C4  1  0.083651  0.747029  0.723691  1
  C  C5  1  0.916349  0.247029  0.276309  1
  S  S6  1  0.423307  0.251918  0.726708  1
  S  S7  1  0.576693  0.751919  0.273292  1
  O  O8  1  0.054874  0.249240  0.301133  1
  O  O9  1  0.153421  0.750829  0.950828  1
  O  O10  1  0.187036  0.742549  0.526335  1
  O  O11  1  0.333763  0.084964  0.775509  1
  O  O12  1  0.339605  0.421335  0.803151  1
  O  O13  1  0.425752  0.741903  0.139110  1
  O  O14  1  0.464219  0.268221  0.428064  1
  O  O15  1  0.535781  0.768221  0.571936  1
  O  O16  1  0.574248  0.241903  0.860890  1
  O  O17  1  0.660395  0.921335  0.196849  1
  O  O18  1  0.666237  0.584964  0.224491  1
  O  O19  1  0.812964  0.242549  0.473665  1
  O  O20  1  0.846579  0.250829  0.049172  1
  O  O21  1  0.945126  0.749240  0.698867  1
