# generated using pymatgen
data_Na5GdO4
_symmetry_space_group_name_H-M   'P 1'
_cell_length_a   15.08398344
_cell_length_b   15.08398344
_cell_length_c   5.54635717
_cell_angle_alpha   90.00000000
_cell_angle_beta   90.00000000
_cell_angle_gamma   90.00000000
_symmetry_Int_Tables_number   1
_chemical_formula_structural   Na5GdO4
_chemical_formula_sum   'Na40 Gd8 O32'
_cell_volume   1261.94354756
_cell_formula_units_Z   8
loop_
 _symmetry_equiv_pos_site_id
 _symmetry_equiv_pos_as_xyz
  1  'x, y, z'
loop_
 _atom_site_type_symbol
 _atom_site_label
 _atom_site_symmetry_multiplicity
 _atom_site_fract_x
 _atom_site_fract_y
 _atom_site_fract_z
 _atom_site_occupancy
  Na  Na0  1  0.986186  0.013814  0.250000  1
  Na  Na1  1  0.013814  0.986186  0.750000  1
  Na  Na2  1  0.986186  0.486186  0.250000  1
  Na  Na3  1  0.013814  0.513814  0.750000  1
  Na  Na4  1  0.101367  0.354736  0.810714  1
  Na  Na5  1  0.101367  0.145264  0.810714  1
  Na  Na6  1  0.122420  0.622420  0.250000  1
  Na  Na7  1  0.122420  0.877580  0.250000  1
  Na  Na8  1  0.145264  0.101367  0.310714  1
  Na  Na9  1  0.145264  0.398633  0.310714  1
  Na  Na10  1  0.250000  0.250000  0.373413  1
  Na  Na11  1  0.250000  0.750000  0.750000  1
  Na  Na12  1  0.250000  0.750000  0.250000  1
  Na  Na13  1  0.250000  0.250000  0.873413  1
  Na  Na14  1  0.354736  0.101367  0.310714  1
  Na  Na15  1  0.354736  0.398633  0.310714  1
  Na  Na16  1  0.377580  0.622420  0.250000  1
  Na  Na17  1  0.377580  0.877580  0.250000  1
  Na  Na18  1  0.398633  0.145264  0.810714  1
  Na  Na19  1  0.398633  0.354736  0.810714  1
  Na  Na20  1  0.513814  0.013814  0.250000  1
  Na  Na21  1  0.486186  0.986186  0.750000  1
  Na  Na22  1  0.513814  0.486186  0.250000  1
  Na  Na23  1  0.486186  0.513814  0.750000  1
  Na  Na24  1  0.601367  0.645264  0.189286  1
  Na  Na25  1  0.601367  0.854736  0.189286  1
  Na  Na26  1  0.622420  0.122420  0.750000  1
  Na  Na27  1  0.622420  0.377580  0.750000  1
  Na  Na28  1  0.645264  0.601367  0.689286  1
  Na  Na29  1  0.645264  0.898633  0.689286  1
  Na  Na30  1  0.750000  0.250000  0.250000  1
  Na  Na31  1  0.750000  0.250000  0.750000  1
  Na  Na32  1  0.750000  0.750000  0.126587  1
  Na  Na33  1  0.750000  0.750000  0.626587  1
  Na  Na34  1  0.854736  0.601367  0.689286  1
  Na  Na35  1  0.854736  0.898633  0.689286  1
  Na  Na36  1  0.877580  0.122420  0.750000  1
  Na  Na37  1  0.877580  0.377580  0.750000  1
  Na  Na38  1  0.898633  0.645264  0.189286  1
  Na  Na39  1  0.898633  0.854736  0.189286  1
  Gd  Gd40  1  0.014698  0.750000  0.714706  1
  Gd  Gd41  1  0.250000  0.514698  0.785294  1
  Gd  Gd42  1  0.250000  0.985302  0.785294  1
  Gd  Gd43  1  0.485302  0.750000  0.714706  1
  Gd  Gd44  1  0.514698  0.250000  0.285294  1
  Gd  Gd45  1  0.750000  0.014698  0.214706  1
  Gd  Gd46  1  0.750000  0.485302  0.214706  1
  Gd  Gd47  1  0.985302  0.250000  0.285294  1
  O  O48  1  0.006387  0.127381  0.501146  1
  O  O49  1  0.006387  0.372619  0.501146  1
  O  O50  1  0.127381  0.006387  0.001146  1
  O  O51  1  0.127381  0.493613  0.001146  1
  O  O52  1  0.122341  0.250000  0.114132  1
  O  O53  1  0.119742  0.750000  0.992505  1
  O  O54  1  0.250000  0.122341  0.614132  1
  O  O55  1  0.250000  0.619742  0.507495  1
  O  O56  1  0.250000  0.880258  0.507495  1
  O  O57  1  0.250000  0.377659  0.614132  1
  O  O58  1  0.380258  0.750000  0.992505  1
  O  O59  1  0.377659  0.250000  0.114132  1
  O  O60  1  0.372619  0.493613  0.001146  1
  O  O61  1  0.372619  0.006387  0.001146  1
  O  O62  1  0.493613  0.127381  0.501146  1
  O  O63  1  0.493613  0.372619  0.501146  1
  O  O64  1  0.506387  0.627381  0.498854  1
  O  O65  1  0.506387  0.872619  0.498854  1
  O  O66  1  0.627381  0.993613  0.998854  1
  O  O67  1  0.627381  0.506387  0.998854  1
  O  O68  1  0.622341  0.750000  0.885868  1
  O  O69  1  0.619742  0.250000  0.007495  1
  O  O70  1  0.750000  0.119742  0.492505  1
  O  O71  1  0.750000  0.380258  0.492505  1
  O  O72  1  0.750000  0.622341  0.385868  1
  O  O73  1  0.750000  0.877659  0.385868  1
  O  O74  1  0.880258  0.250000  0.007495  1
  O  O75  1  0.877659  0.750000  0.885868  1
  O  O76  1  0.872619  0.993613  0.998854  1
  O  O77  1  0.872619  0.506387  0.998854  1
  O  O78  1  0.993613  0.627381  0.498854  1
  O  O79  1  0.993613  0.872619  0.498854  1
