# generated using pymatgen
data_Na2Li3Ti3Al(PO4)6
_symmetry_space_group_name_H-M   'P 1'
_cell_length_a   8.72449361
_cell_length_b   8.79231371
_cell_length_c   8.72449382
_cell_angle_alpha   119.74516144
_cell_angle_beta   59.99999869
_cell_angle_gamma   119.74515936
_symmetry_Int_Tables_number   1
_chemical_formula_structural   Na2Li3Ti3Al(PO4)6
_chemical_formula_sum   'Na2 Li3 Ti3 Al1 P6 O24'
_cell_volume   475.04068244
_cell_formula_units_Z   1
loop_
 _symmetry_equiv_pos_site_id
 _symmetry_equiv_pos_as_xyz
  1  'x, y, z'
loop_
 _atom_site_type_symbol
 _atom_site_label
 _atom_site_symmetry_multiplicity
 _atom_site_fract_x
 _atom_site_fract_y
 _atom_site_fract_z
 _atom_site_occupancy
  Na  Na0  1  0.995349  0.986047  0.995349  1
  Na  Na1  1  0.503707  0.511122  0.503707  1
  Li  Li2  1  0.152323  0.255093  0.758834  1
  Li  Li3  1  0.343937  0.255093  0.152323  1
  Li  Li4  1  0.758834  0.255093  0.343937  1
  Ti  Ti5  1  0.350717  0.052153  0.350717  1
  Ti  Ti6  1  0.857137  0.571413  0.857137  1
  Ti  Ti7  1  0.641917  0.925752  0.641917  1
  Al  Al8  1  0.150218  0.450655  0.150218  1
  P  P9  1  0.035067  0.251792  0.457990  1
  P  P10  1  0.457990  0.251792  0.758736  1
  P  P11  1  0.758736  0.251792  0.035067  1
  P  P12  1  0.249834  0.745023  0.956742  1
  P  P13  1  0.538446  0.745023  0.249834  1
  P  P14  1  0.956742  0.745023  0.538446  1
  O  O15  1  0.063736  0.266298  0.272405  1
  O  O16  1  0.224162  0.243896  0.427451  1
  O  O17  1  0.006062  0.423554  0.628193  1
  O  O18  1  0.483701  0.076782  0.726093  1
  O  O19  1  0.272405  0.266298  0.930157  1
  O  O20  1  0.427451  0.243896  0.592282  1
  O  O21  1  0.726093  0.076782  0.866990  1
  O  O22  1  0.592282  0.243896  0.224162  1
  O  O23  1  0.206350  0.570886  0.994968  1
  O  O24  1  0.081396  0.738787  0.936006  1
  O  O25  1  0.866990  0.076782  0.483701  1
  O  O26  1  0.369568  0.570886  0.206350  1
  O  O27  1  0.628193  0.423554  0.789299  1
  O  O28  1  0.118791  0.929660  0.517018  1
  O  O29  1  0.930157  0.266298  0.063736  1
  O  O30  1  0.789299  0.423554  0.006062  1
  O  O31  1  0.419276  0.749181  0.774963  1
  O  O32  1  0.293851  0.929660  0.118791  1
  O  O33  1  0.554942  0.749181  0.419276  1
  O  O34  1  0.721385  0.738787  0.081396  1
  O  O35  1  0.517018  0.929660  0.293851  1
  O  O36  1  0.994968  0.570886  0.369568  1
  O  O37  1  0.774963  0.749181  0.554942  1
  O  O38  1  0.936006  0.738787  0.721385  1
