# generated using pymatgen
data_Na6NiO4
_symmetry_space_group_name_H-M   'P 1'
_cell_length_a   7.47474739
_cell_length_b   7.46354435
_cell_length_c   5.41928013
_cell_angle_alpha   89.99988744
_cell_angle_beta   89.99873390
_cell_angle_gamma   90.05990897
_symmetry_Int_Tables_number   1
_chemical_formula_structural   Na6NiO4
_chemical_formula_sum   'Na12 Ni2 O8'
_cell_volume   302.33122346
_cell_formula_units_Z   2
loop_
 _symmetry_equiv_pos_site_id
 _symmetry_equiv_pos_as_xyz
  1  'x, y, z'
loop_
 _atom_site_type_symbol
 _atom_site_label
 _atom_site_symmetry_multiplicity
 _atom_site_fract_x
 _atom_site_fract_y
 _atom_site_fract_z
 _atom_site_occupancy
  Na  Na0  1  0.037314  0.538759  0.749451  1
  Na  Na1  1  0.036616  0.961879  0.749432  1
  Na  Na2  1  0.250009  0.249976  0.660334  1
  Na  Na3  1  0.250010  0.249911  0.160268  1
  Na  Na4  1  0.463375  0.538102  0.749403  1
  Na  Na5  1  0.462720  0.961234  0.749459  1
  Na  Na6  1  0.538870  0.037432  0.249637  1
  Na  Na7  1  0.539418  0.462043  0.249627  1
  Na  Na8  1  0.749996  0.750021  0.340961  1
  Na  Na9  1  0.750007  0.750021  0.840892  1
  Na  Na10  1  0.960542  0.038045  0.249672  1
  Na  Na11  1  0.961214  0.462665  0.249596  1
  Ni  Ni12  1  0.250005  0.750007  0.248148  1
  Ni  Ni13  1  0.750013  0.250028  0.749196  1
  O  O14  1  0.994254  0.250818  0.925660  1
  O  O15  1  0.249559  0.994541  0.425867  1
  O  O16  1  0.250460  0.505394  0.425780  1
  O  O17  1  0.505764  0.249188  0.925655  1
  O  O18  1  0.497174  0.749544  0.074993  1
  O  O19  1  0.749288  0.002233  0.575483  1
  O  O20  1  0.750736  0.497830  0.575485  1
  O  O21  1  0.002834  0.750509  0.075004  1
