# generated using pymatgen
data_H2CS3
_symmetry_space_group_name_H-M   'P 1'
_cell_length_a   6.06247491
_cell_length_b   23.21683991
_cell_length_c   13.70653261
_cell_angle_alpha   90.00000000
_cell_angle_beta   91.69693275
_cell_angle_gamma   90.00000000
_symmetry_Int_Tables_number   1
_chemical_formula_structural   H2CS3
_chemical_formula_sum   'H32 C16 S48'
_cell_volume   1928.36909106
_cell_formula_units_Z   16
loop_
 _symmetry_equiv_pos_site_id
 _symmetry_equiv_pos_as_xyz
  1  'x, y, z'
loop_
 _atom_site_type_symbol
 _atom_site_label
 _atom_site_symmetry_multiplicity
 _atom_site_fract_x
 _atom_site_fract_y
 _atom_site_fract_z
 _atom_site_occupancy
  H  H0  1  0.731040  0.286404  0.570978  1
  H  H1  1  0.268960  0.786404  0.929022  1
  H  H2  1  0.268960  0.713596  0.429022  1
  H  H3  1  0.731040  0.213596  0.070978  1
  H  H4  1  0.440878  0.276255  0.656983  1
  H  H5  1  0.559122  0.776255  0.843017  1
  H  H6  1  0.559122  0.723745  0.343017  1
  H  H7  1  0.440878  0.223745  0.156983  1
  H  H8  1  0.229612  0.587208  0.734565  1
  H  H9  1  0.770388  0.087208  0.765435  1
  H  H10  1  0.770388  0.412792  0.265435  1
  H  H11  1  0.229612  0.912792  0.234565  1
  H  H12  1  0.010229  0.442323  0.606468  1
  H  H13  1  0.989771  0.942323  0.893532  1
  H  H14  1  0.989771  0.557677  0.393532  1
  H  H15  1  0.010229  0.057677  0.106468  1
  H  H16  1  0.776779  0.379325  0.062143  1
  H  H17  1  0.223221  0.879325  0.437857  1
  H  H18  1  0.223221  0.620675  0.937857  1
  H  H19  1  0.776779  0.120675  0.562143  1
  H  H20  1  0.499517  0.475975  0.849981  1
  H  H21  1  0.500483  0.975975  0.650019  1
  H  H22  1  0.500483  0.524025  0.150019  1
  H  H23  1  0.499517  0.024025  0.349981  1
  H  H24  1  0.158811  0.158374  0.768783  1
  H  H25  1  0.841189  0.658374  0.731217  1
  H  H26  1  0.841189  0.841626  0.231217  1
  H  H27  1  0.158811  0.341626  0.268782  1
  H  H28  1  0.031870  0.315160  0.879724  1
  H  H29  1  0.968130  0.815160  0.620276  1
  H  H30  1  0.968130  0.684840  0.120276  1
  H  H31  1  0.031870  0.184840  0.379724  1
  C  C32  1  0.444046  0.355806  0.545297  1
  C  C33  1  0.555954  0.855806  0.954703  1
  C  C34  1  0.555954  0.644194  0.454703  1
  C  C35  1  0.444046  0.144194  0.045297  1
  C  C36  1  0.950831  0.517926  0.720046  1
  C  C37  1  0.049169  0.017926  0.779954  1
  C  C38  1  0.049169  0.482074  0.279954  1
  C  C39  1  0.950831  0.982074  0.220046  1
  C  C40  1  0.473718  0.394512  0.955750  1
  C  C41  1  0.526282  0.894512  0.544250  1
  C  C42  1  0.526282  0.605488  0.044250  1
  C  C43  1  0.473718  0.105488  0.455750  1
  C  C44  1  0.918231  0.236122  0.778099  1
  C  C45  1  0.081769  0.736122  0.721901  1
  C  C46  1  0.081769  0.763878  0.221901  1
  C  C47  1  0.918231  0.263878  0.278099  1
  S  S48  1  0.336660  0.413746  0.491309  1
  S  S49  1  0.663340  0.913746  0.008691  1
  S  S50  1  0.663340  0.586254  0.508691  1
  S  S51  1  0.336660  0.086254  0.991309  1
  S  S52  1  0.707441  0.334316  0.513429  1
  S  S53  1  0.292559  0.834316  0.986571  1
  S  S54  1  0.292559  0.665684  0.486571  1
  S  S55  1  0.707441  0.165684  0.013429  1
  S  S56  1  0.294411  0.319259  0.631666  1
  S  S57  1  0.705589  0.819259  0.868334  1
  S  S58  1  0.705589  0.680741  0.368334  1
  S  S59  1  0.294411  0.180741  0.131666  1
  S  S60  1  0.808217  0.551061  0.804996  1
  S  S61  1  0.191783  0.051061  0.695004  1
  S  S62  1  0.191783  0.448939  0.195004  1
  S  S63  1  0.808217  0.948939  0.304996  1
  S  S64  1  0.207108  0.539232  0.677899  1
  S  S65  1  0.792892  0.039232  0.822101  1
  S  S66  1  0.792892  0.460768  0.322101  1
  S  S67  1  0.207108  0.960768  0.177899  1
  S  S68  1  0.839966  0.456614  0.665484  1
  S  S69  1  0.160034  0.956614  0.834516  1
  S  S70  1  0.160034  0.543386  0.334516  1
  S  S71  1  0.839966  0.043386  0.165484  1
  S  S72  1  0.350913  0.336545  0.999156  1
  S  S73  1  0.649087  0.836545  0.500844  1
  S  S74  1  0.649087  0.663455  0.000844  1
  S  S75  1  0.350913  0.163455  0.499156  1
  S  S76  1  0.733896  0.420024  0.992803  1
  S  S77  1  0.266104  0.920024  0.507197  1
  S  S78  1  0.266104  0.579976  0.007197  1
  S  S79  1  0.733896  0.079976  0.492803  1
  S  S80  1  0.340764  0.435025  0.865282  1
  S  S81  1  0.659236  0.935025  0.634718  1
  S  S82  1  0.659236  0.564975  0.134718  1
  S  S83  1  0.340764  0.064975  0.365282  1
  S  S84  1  0.744907  0.203903  0.698658  1
  S  S85  1  0.255093  0.703903  0.801342  1
  S  S86  1  0.255093  0.796097  0.301342  1
  S  S87  1  0.744907  0.296097  0.198658  1
  S  S88  1  0.166316  0.207986  0.822380  1
  S  S89  1  0.833684  0.707986  0.677620  1
  S  S90  1  0.833684  0.792014  0.177620  1
  S  S91  1  0.166316  0.292014  0.322380  1
  S  S92  1  0.847294  0.303249  0.821970  1
  S  S93  1  0.152706  0.803249  0.678030  1
  S  S94  1  0.152706  0.696751  0.178030  1
  S  S95  1  0.847294  0.196751  0.321970  1
