# generated using pymatgen
data_KH3(SeO3)2
_symmetry_space_group_name_H-M   'P 1'
_cell_length_a   16.25214093
_cell_length_b   6.40290174
_cell_length_c   6.47790401
_cell_angle_alpha   90.00000000
_cell_angle_beta   90.00000000
_cell_angle_gamma   90.00000000
_symmetry_Int_Tables_number   1
_chemical_formula_structural   KH3(SeO3)2
_chemical_formula_sum   'K4 H12 Se8 O24'
_cell_volume   674.09627160
_cell_formula_units_Z   4
loop_
 _symmetry_equiv_pos_site_id
 _symmetry_equiv_pos_as_xyz
  1  'x, y, z'
loop_
 _atom_site_type_symbol
 _atom_site_label
 _atom_site_symmetry_multiplicity
 _atom_site_fract_x
 _atom_site_fract_y
 _atom_site_fract_z
 _atom_site_occupancy
  K  K0  1  0.500000  0.811387  0.750000  1
  K  K1  1  0.000000  0.688613  0.250000  1
  K  K2  1  0.500000  0.188613  0.250000  1
  K  K3  1  0.000000  0.311387  0.750000  1
  H  H4  1  0.171991  0.558463  0.969026  1
  H  H5  1  0.328009  0.941537  0.469026  1
  H  H6  1  0.671991  0.941537  0.030974  1
  H  H7  1  0.828009  0.558463  0.530974  1
  H  H8  1  0.828009  0.441537  0.030974  1
  H  H9  1  0.671991  0.058463  0.530974  1
  H  H10  1  0.328009  0.058463  0.969026  1
  H  H11  1  0.171991  0.441537  0.469026  1
  H  H12  1  0.000000  0.876657  0.750000  1
  H  H13  1  0.500000  0.623343  0.250000  1
  H  H14  1  0.000000  0.123343  0.250000  1
  H  H15  1  0.500000  0.376657  0.750000  1
  Se  Se16  1  0.150201  0.807987  0.709194  1
  Se  Se17  1  0.349799  0.692013  0.209194  1
  Se  Se18  1  0.650201  0.692013  0.290806  1
  Se  Se19  1  0.849799  0.807987  0.790806  1
  Se  Se20  1  0.849799  0.192013  0.290806  1
  Se  Se21  1  0.650201  0.307987  0.790806  1
  Se  Se22  1  0.349799  0.307987  0.709194  1
  Se  Se23  1  0.150201  0.192013  0.209194  1
  O  O24  1  0.111179  0.609092  0.567219  1
  O  O25  1  0.388821  0.890908  0.067219  1
  O  O26  1  0.611179  0.890908  0.432781  1
  O  O27  1  0.888821  0.609092  0.932781  1
  O  O28  1  0.888821  0.390908  0.432781  1
  O  O29  1  0.611179  0.109092  0.932781  1
  O  O30  1  0.388821  0.109092  0.567219  1
  O  O31  1  0.111179  0.390908  0.067219  1
  O  O32  1  0.063445  0.886585  0.850885  1
  O  O33  1  0.436555  0.613415  0.350885  1
  O  O34  1  0.563445  0.613415  0.149115  1
  O  O35  1  0.936555  0.886585  0.649115  1
  O  O36  1  0.936555  0.113415  0.149115  1
  O  O37  1  0.563445  0.386585  0.649115  1
  O  O38  1  0.436555  0.386585  0.850885  1
  O  O39  1  0.063445  0.113415  0.350885  1
  O  O40  1  0.206865  0.678529  0.908591  1
  O  O41  1  0.293135  0.821471  0.408591  1
  O  O42  1  0.706865  0.821471  0.091409  1
  O  O43  1  0.793135  0.678529  0.591409  1
  O  O44  1  0.793135  0.321471  0.091409  1
  O  O45  1  0.706865  0.178529  0.591409  1
  O  O46  1  0.293135  0.178529  0.908591  1
  O  O47  1  0.206865  0.321471  0.408591  1
