# generated using pymatgen
data_Fe10O11F9
_symmetry_space_group_name_H-M   'P 1'
_cell_length_a   4.72927226
_cell_length_b   4.73815098
_cell_length_c   15.38700385
_cell_angle_alpha   90.13466420
_cell_angle_beta   90.12940269
_cell_angle_gamma   92.26205459
_symmetry_Int_Tables_number   1
_chemical_formula_structural   Fe10O11F9
_chemical_formula_sum   'Fe10 O11 F9'
_cell_volume   344.52149138
_cell_formula_units_Z   1
loop_
 _symmetry_equiv_pos_site_id
 _symmetry_equiv_pos_as_xyz
  1  'x, y, z'
loop_
 _atom_site_type_symbol
 _atom_site_label
 _atom_site_symmetry_multiplicity
 _atom_site_fract_x
 _atom_site_fract_y
 _atom_site_fract_z
 _atom_site_occupancy
  Fe  Fe0  1  0.004652  0.987682  0.996655  1
  Fe  Fe1  1  0.011503  0.995702  0.203448  1
  Fe  Fe2  1  0.991410  0.947158  0.400166  1
  Fe  Fe3  1  0.047817  0.999494  0.599668  1
  Fe  Fe4  1  0.045337  0.997894  0.799932  1
  Fe  Fe5  1  0.505232  0.494088  0.099922  1
  Fe  Fe6  1  0.478841  0.516961  0.497652  1
  Fe  Fe7  1  0.486573  0.531893  0.291870  1
  Fe  Fe8  1  0.462107  0.498561  0.702259  1
  Fe  Fe9  1  0.468959  0.511927  0.908265  1
  O  O10  1  0.182719  0.804141  0.297541  1
  O  O11  1  0.190829  0.801444  0.499176  1
  O  O12  1  0.204530  0.813344  0.700256  1
  O  O13  1  0.191783  0.811349  0.902658  1
  O  O14  1  0.304654  0.301114  0.007926  1
  O  O15  1  0.309115  0.304806  0.193863  1
  O  O16  1  0.316631  0.315976  0.597705  1
  O  O17  1  0.310908  0.318151  0.804685  1
  O  O18  1  0.694443  0.690213  0.006443  1
  O  O19  1  0.698688  0.694786  0.192141  1
  O  O20  1  0.675201  0.680210  0.397559  1
  F  F21  1  0.195045  0.807050  0.100171  1
  F  F22  1  0.286693  0.292698  0.396392  1
  F  F23  1  0.703919  0.706818  0.601325  1
  F  F24  1  0.702154  0.706983  0.802249  1
  F  F25  1  0.815059  0.185490  0.100000  1
  F  F26  1  0.803049  0.191928  0.498570  1
  F  F27  1  0.797773  0.191930  0.299575  1
  F  F28  1  0.803093  0.197279  0.900796  1
  F  F29  1  0.811281  0.202929  0.701132  1
