# generated using pymatgen
data_Er2GeO5
_symmetry_space_group_name_H-M   'P 1'
_cell_length_a   8.00020448
_cell_length_b   11.27475729
_cell_length_c   8.00020456
_cell_angle_alpha   86.72893885
_cell_angle_beta   91.15377985
_cell_angle_gamma   93.27106065
_symmetry_Int_Tables_number   1
_chemical_formula_structural   Er2GeO5
_chemical_formula_sum   'Er12 Ge6 O30'
_cell_volume   719.16874237
_cell_formula_units_Z   6
loop_
 _symmetry_equiv_pos_site_id
 _symmetry_equiv_pos_as_xyz
  1  'x, y, z'
loop_
 _atom_site_type_symbol
 _atom_site_label
 _atom_site_symmetry_multiplicity
 _atom_site_fract_x
 _atom_site_fract_y
 _atom_site_fract_z
 _atom_site_occupancy
  Er  Er0  1  0.005766  0.936680  0.701615  1
  Er  Er1  1  0.997752  0.751666  0.360298  1
  Er  Er2  1  0.298385  0.436680  0.994234  1
  Er  Er3  1  0.345870  0.571710  0.372040  1
  Er  Er4  1  0.372040  0.928290  0.345870  1
  Er  Er5  1  0.360298  0.748334  0.997752  1
  Er  Er6  1  0.639702  0.251666  0.002248  1
  Er  Er7  1  0.627960  0.071710  0.654130  1
  Er  Er8  1  0.654130  0.428290  0.627960  1
  Er  Er9  1  0.701615  0.563320  0.005766  1
  Er  Er10  1  0.002248  0.248334  0.639702  1
  Er  Er11  1  0.994234  0.063320  0.298385  1
  Ge  Ge12  1  0.064099  0.546089  0.725187  1
  Ge  Ge13  1  0.274813  0.046089  0.935901  1
  Ge  Ge14  1  0.359319  0.250000  0.359319  1
  Ge  Ge15  1  0.640681  0.750000  0.640681  1
  Ge  Ge16  1  0.725187  0.953911  0.064099  1
  Ge  Ge17  1  0.935901  0.453911  0.274813  1
  O  O18  1  0.122355  0.923143  0.457401  1
  O  O19  1  0.122084  0.607793  0.525506  1
  O  O20  1  0.116752  0.115928  0.813007  1
  O  O21  1  0.142186  0.221317  0.401093  1
  O  O22  1  0.186993  0.615928  0.883248  1
  O  O23  1  0.151437  0.460693  0.227719  1
  O  O24  1  0.142110  0.399082  0.762604  1
  O  O25  1  0.258932  0.750000  0.258932  1
  O  O26  1  0.227719  0.039307  0.151437  1
  O  O27  1  0.237396  0.899082  0.857890  1
  O  O28  1  0.401093  0.278683  0.142186  1
  O  O29  1  0.440372  0.381718  0.456680  1
  O  O30  1  0.457401  0.576857  0.122355  1
  O  O31  1  0.474494  0.107793  0.877916  1
  O  O32  1  0.456680  0.118282  0.440372  1
  O  O33  1  0.543320  0.881718  0.559628  1
  O  O34  1  0.525506  0.892207  0.122084  1
  O  O35  1  0.542599  0.423143  0.877645  1
  O  O36  1  0.559628  0.618282  0.543320  1
  O  O37  1  0.598907  0.721317  0.857814  1
  O  O38  1  0.762604  0.100918  0.142110  1
  O  O39  1  0.772281  0.960693  0.848563  1
  O  O40  1  0.741068  0.250000  0.741068  1
  O  O41  1  0.857890  0.600918  0.237396  1
  O  O42  1  0.848563  0.539307  0.772281  1
  O  O43  1  0.813007  0.384072  0.116752  1
  O  O44  1  0.857814  0.778683  0.598907  1
  O  O45  1  0.883248  0.884072  0.186993  1
  O  O46  1  0.877916  0.392207  0.474494  1
  O  O47  1  0.877645  0.076857  0.542599  1
