# generated using pymatgen
data_Li3Si2Bi3O10
_symmetry_space_group_name_H-M   'P 1'
_cell_length_a   6.90548241
_cell_length_b   12.90988434
_cell_length_c   5.45506425
_cell_angle_alpha   88.27163573
_cell_angle_beta   90.00023875
_cell_angle_gamma   89.99997626
_symmetry_Int_Tables_number   1
_chemical_formula_structural   Li3Si2Bi3O10
_chemical_formula_sum   'Li6 Si4 Bi6 O20'
_cell_volume   486.09216132
_cell_formula_units_Z   2
loop_
 _symmetry_equiv_pos_site_id
 _symmetry_equiv_pos_as_xyz
  1  'x, y, z'
loop_
 _atom_site_type_symbol
 _atom_site_label
 _atom_site_symmetry_multiplicity
 _atom_site_fract_x
 _atom_site_fract_y
 _atom_site_fract_z
 _atom_site_occupancy
  Li  Li0  1  0.019108  0.463031  0.016297  1
  Li  Li1  1  0.267287  0.265840  0.979996  1
  Li  Li2  1  0.232706  0.765897  0.980058  1
  Li  Li3  1  0.480993  0.963038  0.016350  1
  Li  Li4  1  0.711572  0.058014  0.473779  1
  Li  Li5  1  0.788429  0.558030  0.473695  1
  Si  Si6  1  0.011990  0.341844  0.532175  1
  Si  Si7  1  0.962167  0.002516  0.004818  1
  Si  Si8  1  0.487914  0.841861  0.532448  1
  Si  Si9  1  0.537858  0.502517  0.004780  1
  Bi  Bi10  1  0.007381  0.824990  0.446692  1
  Bi  Bi11  1  0.241978  0.594676  0.490287  1
  Bi  Bi12  1  0.258010  0.094683  0.490287  1
  Bi  Bi13  1  0.492593  0.324995  0.446624  1
  Bi  Bi14  1  0.783032  0.711993  0.950886  1
  Bi  Bi15  1  0.716978  0.211997  0.950879  1
  O  O16  1  0.071047  0.345786  0.818502  1
  O  O17  1  0.006194  0.457811  0.392040  1
  O  O18  1  0.970586  0.873538  0.015503  1
  O  O19  1  0.948028  0.041644  0.289887  1
  O  O20  1  0.049565  0.698521  0.738235  1
  O  O21  1  0.985881  0.677177  0.254524  1
  O  O22  1  0.161273  0.050890  0.881997  1
  O  O23  1  0.167731  0.269536  0.373111  1
  O  O24  1  0.332187  0.769547  0.373185  1
  O  O25  1  0.338679  0.550840  0.881995  1
  O  O26  1  0.429003  0.845801  0.818415  1
  O  O27  1  0.529502  0.373520  0.015419  1
  O  O28  1  0.551961  0.541618  0.289856  1
  O  O29  1  0.493844  0.957809  0.392051  1
  O  O30  1  0.514087  0.177189  0.254438  1
  O  O31  1  0.450466  0.198521  0.738182  1
  O  O32  1  0.737668  0.541636  0.854610  1
  O  O33  1  0.698370  0.780512  0.516717  1
  O  O34  1  0.801618  0.280557  0.516652  1
  O  O35  1  0.762313  0.041625  0.854630  1
