# generated using pymatgen
data_KSr3La8Mn12O36
_symmetry_space_group_name_H-M   'P 1'
_cell_length_a   5.52132196
_cell_length_b   33.11630106
_cell_length_c   9.53692047
_cell_angle_alpha   30.23720540
_cell_angle_beta   55.20735563
_cell_angle_gamma   60.46364241
_symmetry_Int_Tables_number   1
_chemical_formula_structural   KSr3La8Mn12O36
_chemical_formula_sum   'K1 Sr3 La8 Mn12 O36'
_cell_volume   721.14611899
_cell_formula_units_Z   1
loop_
 _symmetry_equiv_pos_site_id
 _symmetry_equiv_pos_as_xyz
  1  'x, y, z'
loop_
 _atom_site_type_symbol
 _atom_site_label
 _atom_site_symmetry_multiplicity
 _atom_site_fract_x
 _atom_site_fract_y
 _atom_site_fract_z
 _atom_site_occupancy
  K  K0  1  0.750000  0.833367  0.749898  1
  Sr  Sr1  1  0.250000  0.167274  0.248179  1
  Sr  Sr2  1  0.250000  0.332434  0.252697  1
  Sr  Sr3  1  0.250000  0.499491  0.251526  1
  La  La4  1  0.750000  0.166234  0.751299  1
  La  La5  1  0.250000  0.667924  0.246228  1
  La  La6  1  0.750000  0.333410  0.749769  1
  La  La7  1  0.250000  0.834233  0.247300  1
  La  La8  1  0.750000  0.498059  0.755823  1
  La  La9  1  0.250000  0.998576  0.254273  1
  La  La10  1  0.750000  0.667963  0.746112  1
  La  La11  1  0.750000  0.000928  0.747216  1
  Mn  Mn12  1  0.998932  0.999475  0.002145  1
  Mn  Mn13  1  0.998648  0.499837  0.001202  1
  Mn  Mn14  1  0.500143  0.167331  0.497485  1
  Mn  Mn15  1  0.999857  0.167331  0.998532  1
  Mn  Mn16  1  0.500190  0.333300  0.500021  1
  Mn  Mn17  1  0.999810  0.333300  0.000177  1
  Mn  Mn18  1  0.501352  0.499837  0.499779  1
  Mn  Mn19  1  0.500168  0.667072  0.498164  1
  Mn  Mn20  1  0.999832  0.667072  0.999404  1
  Mn  Mn21  1  0.497238  0.833037  0.503945  1
  Mn  Mn22  1  0.002762  0.833037  0.997831  1
  Mn  Mn23  1  0.501068  0.999475  0.501007  1
  O  O24  1  0.298848  0.090045  0.201776  1
  O  O25  1  0.250000  0.012655  0.712034  1
  O  O26  1  0.201152  0.090045  0.757953  1
  O  O27  1  0.301012  0.257975  0.200422  1
  O  O28  1  0.801959  0.074600  0.251185  1
  O  O29  1  0.250000  0.177845  0.716466  1
  O  O30  1  0.750000  0.149864  0.300410  1
  O  O31  1  0.198988  0.257975  0.751728  1
  O  O32  1  0.698041  0.074600  0.801215  1
  O  O33  1  0.300051  0.425365  0.197768  1
  O  O34  1  0.788639  0.242790  0.252824  1
  O  O35  1  0.250000  0.346167  0.711499  1
  O  O36  1  0.750000  0.316722  0.299834  1
  O  O37  1  0.199949  0.425365  0.750046  1
  O  O38  1  0.711361  0.242790  0.790438  1
  O  O39  1  0.296975  0.592377  0.203526  1
  O  O40  1  0.790033  0.410626  0.247894  1
  O  O41  1  0.250000  0.517917  0.696249  1
  O  O42  1  0.750000  0.483314  0.300058  1
  O  O43  1  0.203025  0.592377  0.742212  1
  O  O44  1  0.709967  0.410626  0.788354  1
  O  O45  1  0.268837  0.753531  0.231527  1
  O  O46  1  0.785720  0.577025  0.251819  1
  O  O47  1  0.250000  0.683104  0.700688  1
  O  O48  1  0.750000  0.648036  0.305894  1
  O  O49  1  0.231163  0.753531  0.747289  1
  O  O50  1  0.714280  0.577025  0.786026  1
  O  O51  1  0.304812  0.926048  0.193845  1
  O  O52  1  0.795028  0.738677  0.270260  1
  O  O53  1  0.250000  0.850131  0.699607  1
  O  O54  1  0.750000  0.818161  0.295515  1
  O  O55  1  0.195188  0.926048  0.749870  1
  O  O56  1  0.704972  0.738677  0.797675  1
  O  O57  1  0.801389  0.912200  0.226961  1
  O  O58  1  0.750000  0.993573  0.269282  1
  O  O59  1  0.698611  0.912200  0.799841  1
