# generated using pymatgen
data_LiMn4(PO4)3
_symmetry_space_group_name_H-M   'P 1'
_cell_length_a   9.31283598
_cell_length_b   6.69111967
_cell_length_c   15.06182538
_cell_angle_alpha   90.00000000
_cell_angle_beta   90.15586702
_cell_angle_gamma   90.00000000
_symmetry_Int_Tables_number   1
_chemical_formula_structural   LiMn4(PO4)3
_chemical_formula_sum   'Li4 Mn16 P12 O48'
_cell_volume   938.54857028
_cell_formula_units_Z   4
loop_
 _symmetry_equiv_pos_site_id
 _symmetry_equiv_pos_as_xyz
  1  'x, y, z'
loop_
 _atom_site_type_symbol
 _atom_site_label
 _atom_site_symmetry_multiplicity
 _atom_site_fract_x
 _atom_site_fract_y
 _atom_site_fract_z
 _atom_site_occupancy
  Li  Li0  1  0.657919  0.750000  0.677610  1
  Li  Li1  1  0.844612  0.250000  0.508638  1
  Li  Li2  1  0.838620  0.250000  0.836098  1
  Li  Li3  1  0.841873  0.250000  0.172494  1
  Mn  Mn4  1  0.000941  0.509270  0.667779  1
  Mn  Mn5  1  0.992367  0.996674  0.994500  1
  Mn  Mn6  1  0.992367  0.503326  0.994500  1
  Mn  Mn7  1  0.005953  0.001369  0.338758  1
  Mn  Mn8  1  0.005953  0.498631  0.338758  1
  Mn  Mn9  1  0.000941  0.990730  0.667779  1
  Mn  Mn10  1  0.150199  0.750000  0.159765  1
  Mn  Mn11  1  0.344629  0.250000  0.659563  1
  Mn  Mn12  1  0.355002  0.250000  0.994179  1
  Mn  Mn13  1  0.505514  0.002372  0.167357  1
  Mn  Mn14  1  0.505514  0.497628  0.167357  1
  Mn  Mn15  1  0.490619  0.998041  0.497542  1
  Mn  Mn16  1  0.505426  0.990509  0.833291  1
  Mn  Mn17  1  0.490619  0.501959  0.497542  1
  Mn  Mn18  1  0.505426  0.509491  0.833291  1
  Mn  Mn19  1  0.646953  0.750000  0.340588  1
  P  P20  1  0.178697  0.250000  0.493277  1
  P  P21  1  0.176534  0.250000  0.162574  1
  P  P22  1  0.177195  0.250000  0.825232  1
  P  P23  1  0.327458  0.750000  0.323679  1
  P  P24  1  0.318076  0.750000  0.665623  1
  P  P25  1  0.317540  0.750000  0.995249  1
  P  P26  1  0.681518  0.250000  0.337632  1
  P  P27  1  0.676560  0.250000  0.008072  1
  P  P28  1  0.680442  0.250000  0.670378  1
  P  P29  1  0.820123  0.750000  0.835916  1
  P  P30  1  0.827304  0.750000  0.173562  1
  P  P31  1  0.820529  0.750000  0.507034  1
  O  O32  1  0.119059  0.059221  0.114921  1
  O  O33  1  0.120627  0.060457  0.782163  1
  O  O34  1  0.122196  0.059706  0.450134  1
  O  O35  1  0.122196  0.440294  0.450134  1
  O  O36  1  0.120627  0.439543  0.782163  1
  O  O37  1  0.119059  0.440779  0.114921  1
  O  O38  1  0.129858  0.250000  0.260149  1
  O  O39  1  0.135839  0.250000  0.596107  1
  O  O40  1  0.145013  0.250000  0.929086  1
  O  O41  1  0.157231  0.750000  0.306893  1
  O  O42  1  0.149614  0.750000  0.992702  1
  O  O43  1  0.153883  0.750000  0.654886  1
  O  O44  1  0.344160  0.250000  0.140882  1
  O  O45  1  0.348847  0.250000  0.493372  1
  O  O46  1  0.349808  0.250000  0.812450  1
  O  O47  1  0.361083  0.750000  0.096902  1
  O  O48  1  0.379287  0.750000  0.422268  1
  O  O49  1  0.377977  0.750000  0.762468  1
  O  O50  1  0.384130  0.938962  0.277695  1
  O  O51  1  0.378264  0.941343  0.618806  1
  O  O52  1  0.375011  0.942058  0.951048  1
  O  O53  1  0.378264  0.558657  0.618806  1
  O  O54  1  0.375011  0.557942  0.951048  1
  O  O55  1  0.384130  0.561038  0.277695  1
  O  O56  1  0.613695  0.062261  0.051562  1
  O  O57  1  0.620764  0.058370  0.381222  1
  O  O58  1  0.613695  0.437739  0.051562  1
  O  O59  1  0.620764  0.441630  0.381222  1
  O  O60  1  0.617163  0.060179  0.713964  1
  O  O61  1  0.617163  0.439821  0.713964  1
  O  O62  1  0.646249  0.250000  0.235920  1
  O  O63  1  0.634958  0.250000  0.906260  1
  O  O64  1  0.639654  0.250000  0.569044  1
  O  O65  1  0.658938  0.750000  0.193001  1
  O  O66  1  0.652826  0.750000  0.843891  1
  O  O67  1  0.650106  0.750000  0.516347  1
  O  O68  1  0.846971  0.250000  0.687351  1
  O  O69  1  0.845201  0.250000  0.022859  1
  O  O70  1  0.847566  0.250000  0.355787  1
  O  O71  1  0.859832  0.750000  0.734499  1
  O  O72  1  0.856169  0.750000  0.403577  1
  O  O73  1  0.874869  0.750000  0.074889  1
  O  O74  1  0.876050  0.555573  0.879660  1
  O  O75  1  0.876050  0.944427  0.879660  1
  O  O76  1  0.876333  0.556521  0.549348  1
  O  O77  1  0.885392  0.558368  0.218994  1
  O  O78  1  0.885392  0.941632  0.218994  1
  O  O79  1  0.876333  0.943479  0.549348  1
