# generated using pymatgen
data_Fe3Ni2Sn(PO4)6
_symmetry_space_group_name_H-M   'P 1'
_cell_length_a   8.53907306
_cell_length_b   8.53907367
_cell_length_c   8.53907326
_cell_angle_alpha   60.90476185
_cell_angle_beta   60.90476323
_cell_angle_gamma   60.90476878
_symmetry_Int_Tables_number   1
_chemical_formula_structural   Fe3Ni2Sn(PO4)6
_chemical_formula_sum   'Fe3 Ni2 Sn1 P6 O24'
_cell_volume   449.24641392
_cell_formula_units_Z   1
loop_
 _symmetry_equiv_pos_site_id
 _symmetry_equiv_pos_as_xyz
  1  'x, y, z'
loop_
 _atom_site_type_symbol
 _atom_site_label
 _atom_site_symmetry_multiplicity
 _atom_site_fract_x
 _atom_site_fract_y
 _atom_site_fract_z
 _atom_site_occupancy
  Fe  Fe0  1  0.145472  0.145472  0.145472  1
  Fe  Fe1  1  0.354430  0.354430  0.354430  1
  Fe  Fe2  1  0.643884  0.643884  0.643884  1
  Ni  Ni3  1  0.003477  0.003477  0.003477  1
  Ni  Ni4  1  0.499314  0.499314  0.499314  1
  Sn  Sn5  1  0.856116  0.856116  0.856116  1
  P  P6  1  0.748015  0.449225  0.049193  1
  P  P7  1  0.049193  0.748015  0.449225  1
  P  P8  1  0.449225  0.049193  0.748015  1
  P  P9  1  0.254589  0.542179  0.952839  1
  P  P10  1  0.542179  0.952839  0.254589  1
  P  P11  1  0.952839  0.254589  0.542179  1
  O  O12  1  0.106860  0.322723  0.502637  1
  O  O13  1  0.322723  0.502637  0.106860  1
  O  O14  1  0.062783  0.907960  0.253010  1
  O  O15  1  0.502637  0.106860  0.322723  1
  O  O16  1  0.015142  0.817477  0.602658  1
  O  O17  1  0.247186  0.591417  0.433720  1
  O  O18  1  0.253010  0.062783  0.907960  1
  O  O19  1  0.433720  0.247186  0.591417  1
  O  O20  1  0.181397  0.390653  0.994471  1
  O  O21  1  0.591417  0.433720  0.247186  1
  O  O22  1  0.094589  0.744244  0.940213  1
  O  O23  1  0.390653  0.994471  0.181397  1
  O  O24  1  0.602658  0.015142  0.817477  1
  O  O25  1  0.907960  0.253010  0.062783  1
  O  O26  1  0.409321  0.559955  0.753359  1
  O  O27  1  0.817477  0.602658  0.015142  1
  O  O28  1  0.559955  0.753359  0.409321  1
  O  O29  1  0.744244  0.940213  0.094589  1
  O  O30  1  0.753359  0.409321  0.559955  1
  O  O31  1  0.994471  0.181397  0.390653  1
  O  O32  1  0.496747  0.889777  0.682969  1
  O  O33  1  0.940213  0.094589  0.744244  1
  O  O34  1  0.682969  0.496747  0.889777  1
  O  O35  1  0.889777  0.682969  0.496747  1
