# generated using pymatgen
data_Co3(O2F)2
_symmetry_space_group_name_H-M   'P 1'
_cell_length_a   4.57248350
_cell_length_b   7.48844504
_cell_length_c   5.41296752
_cell_angle_alpha   95.53761680
_cell_angle_beta   95.18241929
_cell_angle_gamma   85.33103066
_symmetry_Int_Tables_number   1
_chemical_formula_structural   Co3(O2F)2
_chemical_formula_sum   'Co6 O8 F4'
_cell_volume   183.23063881
_cell_formula_units_Z   2
loop_
 _symmetry_equiv_pos_site_id
 _symmetry_equiv_pos_as_xyz
  1  'x, y, z'
loop_
 _atom_site_type_symbol
 _atom_site_label
 _atom_site_symmetry_multiplicity
 _atom_site_fract_x
 _atom_site_fract_y
 _atom_site_fract_z
 _atom_site_occupancy
  Co  Co0  1  0.458444  0.984814  0.526756  1
  Co  Co1  1  0.541595  0.348572  0.806690  1
  Co  Co2  1  0.499958  0.666639  0.166571  1
  Co  Co3  1  0.000106  0.666729  0.666684  1
  Co  Co4  1  0.990815  0.332463  0.342272  1
  Co  Co5  1  0.009212  0.000824  0.990972  1
  O  O6  1  0.822854  0.447422  0.624406  1
  O  O7  1  0.692294  0.768173  0.467804  1
  O  O8  1  0.696220  0.101925  0.791967  1
  O  O9  1  0.695362  0.437711  0.130632  1
  O  O10  1  0.307793  0.565160  0.865537  1
  O  O11  1  0.303694  0.231432  0.541399  1
  O  O12  1  0.304675  0.895616  0.202682  1
  O  O13  1  0.177116  0.885866  0.708912  1
  F  F14  1  0.808024  0.754296  0.948525  1
  F  F15  1  0.809006  0.094022  0.284413  1
  F  F16  1  0.190855  0.239278  0.049030  1
  F  F17  1  0.191981  0.579058  0.384752  1
