# generated using pymatgen
data_CsCoH18N6(ClO2)4
_symmetry_space_group_name_H-M   'P 1'
_cell_length_a   9.95730597
_cell_length_b   9.95730597
_cell_length_c   9.95730572
_cell_angle_alpha   42.90510739
_cell_angle_beta   42.90510739
_cell_angle_gamma   42.90510771
_symmetry_Int_Tables_number   1
_chemical_formula_structural   CsCoH18N6(ClO2)4
_chemical_formula_sum   'Cs1 Co1 H18 N6 Cl4 O8'
_cell_volume   414.65178145
_cell_formula_units_Z   1
loop_
 _symmetry_equiv_pos_site_id
 _symmetry_equiv_pos_as_xyz
  1  'x, y, z'
loop_
 _atom_site_type_symbol
 _atom_site_label
 _atom_site_symmetry_multiplicity
 _atom_site_fract_x
 _atom_site_fract_y
 _atom_site_fract_z
 _atom_site_occupancy
  Cs  Cs0  1  0.500000  0.500000  0.500000  1
  Co  Co1  1  0.000000  0.000000  0.000000  1
  H  H2  1  0.415300  0.831225  0.830097  1
  H  H3  1  0.831225  0.830097  0.415300  1
  H  H4  1  0.830097  0.415300  0.831225  1
  H  H5  1  0.584700  0.168775  0.169903  1
  H  H6  1  0.168775  0.169903  0.584700  1
  H  H7  1  0.169903  0.584700  0.168775  1
  H  H8  1  0.319968  0.973214  0.935509  1
  H  H9  1  0.973214  0.935509  0.319968  1
  H  H10  1  0.935509  0.319968  0.973214  1
  H  H11  1  0.680032  0.026786  0.064491  1
  H  H12  1  0.026786  0.064491  0.680032  1
  H  H13  1  0.064491  0.680032  0.026786  1
  H  H14  1  0.323573  0.729667  0.093168  1
  H  H15  1  0.729667  0.093168  0.323573  1
  H  H16  1  0.093168  0.323573  0.729667  1
  H  H17  1  0.676427  0.270333  0.906832  1
  H  H18  1  0.270333  0.906832  0.676427  1
  H  H19  1  0.906832  0.676427  0.270333  1
  N  N20  1  0.294291  0.872999  0.959665  1
  N  N21  1  0.872999  0.959665  0.294291  1
  N  N22  1  0.959665  0.294291  0.872999  1
  N  N23  1  0.705709  0.127001  0.040335  1
  N  N24  1  0.127001  0.040335  0.705709  1
  N  N25  1  0.040335  0.705709  0.127001  1
  Cl  Cl26  1  0.631381  0.631381  0.631381  1
  Cl  Cl27  1  0.368619  0.368619  0.368619  1
  Cl  Cl28  1  0.808413  0.808413  0.808413  1
  Cl  Cl29  1  0.191587  0.191587  0.191587  1
  O  O30  1  0.862522  0.862522  0.862522  1
  O  O31  1  0.137478  0.137478  0.137478  1
  O  O32  1  0.005410  0.714836  0.650679  1
  O  O33  1  0.714836  0.650679  0.005410  1
  O  O34  1  0.650679  0.005410  0.714836  1
  O  O35  1  0.994590  0.285164  0.349321  1
  O  O36  1  0.285164  0.349321  0.994590  1
  O  O37  1  0.349321  0.994590  0.285164  1
