# generated using pymatgen
data_Na4Al2Si6ClO24
_symmetry_space_group_name_H-M   'P 1'
_cell_length_a   9.27888158
_cell_length_b   10.16158259
_cell_length_c   9.19109402
_cell_angle_alpha   71.82620370
_cell_angle_beta   54.12638954
_cell_angle_gamma   61.43111227
_symmetry_Int_Tables_number   1
_chemical_formula_structural   Na4Al2Si6ClO24
_chemical_formula_sum   'Na4 Al2 Si6 Cl1 O24'
_cell_volume   616.11313131
_cell_formula_units_Z   1
loop_
 _symmetry_equiv_pos_site_id
 _symmetry_equiv_pos_as_xyz
  1  'x, y, z'
loop_
 _atom_site_type_symbol
 _atom_site_label
 _atom_site_symmetry_multiplicity
 _atom_site_fract_x
 _atom_site_fract_y
 _atom_site_fract_z
 _atom_site_occupancy
  Na  Na0  1  0.296246  0.625944  0.143863  1
  Na  Na1  1  0.617889  0.955538  0.405274  1
  Na  Na2  1  0.063587  0.961816  0.312740  1
  Na  Na3  1  0.749740  0.286794  0.844492  1
  Al  Al4  1  0.733953  0.418564  0.249852  1
  Al  Al5  1  0.174515  0.419550  0.927566  1
  Si  Si6  1  0.109221  0.279309  0.252246  1
  Si  Si7  1  0.053359  0.913293  0.990564  1
  Si  Si8  1  0.716441  0.975579  0.756361  1
  Si  Si9  1  0.442085  0.743244  0.358413  1
  Si  Si10  1  0.576629  0.216787  0.623227  1
  Si  Si11  1  0.154192  0.738089  0.795247  1
  Cl  Cl12  1  0.172850  0.074666  0.860662  1
  O  O13  1  -0.002620  0.353992  0.134331  1
  O  O14  1  0.014447  0.333099  0.554577  1
  O  O15  1  0.181467  0.109361  0.296485  1
  O  O16  1  0.926649  0.927066  0.200631  1
  O  O17  1  0.749378  0.375628  0.053530  1
  O  O18  1  0.304316  0.736254  0.583843  1
  O  O19  1  0.559523  0.462518  0.175266  1
  O  O20  1  0.268952  0.341639  0.421304  1
  O  O21  1  0.320449  0.755657  0.278930  1
  O  O22  1  0.393944  0.227252  0.435740  1
  O  O23  1  0.236375  0.745518  0.915244  1
  O  O24  1  0.349697  0.312487  0.742535  1
  O  O25  1  0.644948  0.599765  0.305033  1
  O  O26  1  0.419319  0.379787  0.068280  1
  O  O27  1  0.511310  0.883991  0.292198  1
  O  O28  1  0.680334  0.158689  0.748381  1
  O  O29  1  0.726796  0.689390  0.595322  1
  O  O30  1  -0.037072  0.398566  0.426364  1
  O  O31  1  0.691499  0.286921  0.429288  1
  O  O32  1  0.264788  0.365592  0.081186  1
  O  O33  1  -0.026338  0.905889  0.869699  1
  O  O34  1  0.630724  0.033816  0.612886  1
  O  O35  1  0.886507  0.677341  0.550557  1
  O  O36  1  0.076901  0.604608  0.875882  1
