# generated using pymatgen
data_LiCu(PO3)2
_symmetry_space_group_name_H-M   'P 1'
_cell_length_a   5.34203547
_cell_length_b   5.07351273
_cell_length_c   5.64798584
_cell_angle_alpha   89.99859723
_cell_angle_beta   89.99038661
_cell_angle_gamma   118.36278823
_symmetry_Int_Tables_number   1
_chemical_formula_structural   LiCu(PO3)2
_chemical_formula_sum   'Li1 Cu1 P2 O6'
_cell_volume   134.70096459
_cell_formula_units_Z   1
loop_
 _symmetry_equiv_pos_site_id
 _symmetry_equiv_pos_as_xyz
  1  'x, y, z'
loop_
 _atom_site_type_symbol
 _atom_site_label
 _atom_site_symmetry_multiplicity
 _atom_site_fract_x
 _atom_site_fract_y
 _atom_site_fract_z
 _atom_site_occupancy
  Li  Li0  1  0.000022  0.000010  0.666685  1
  Cu  Cu1  1  0.000039  0.500004  0.666382  1
  P  P2  1  0.500030  0.500006  0.336926  1
  P  P3  1  0.500225  0.000100  0.996410  1
  O  O4  1  0.224735  0.884953  0.862094  1
  O  O5  1  0.225153  0.339969  0.471482  1
  O  O6  1  0.471822  0.735837  0.166635  1
  O  O7  1  0.528140  0.264156  0.166608  1
  O  O8  1  0.775081  0.660101  0.471361  1
  O  O9  1  0.774861  0.114864  0.862085  1
