# generated using pymatgen
data_In2Ag
_symmetry_space_group_name_H-M   'P 1'
_cell_length_a   5.97141198
_cell_length_b   5.97138448
_cell_length_c   5.97140872
_cell_angle_alpha   102.20477000
_cell_angle_beta   102.20575784
_cell_angle_gamma   125.25215867
_symmetry_Int_Tables_number   1
_chemical_formula_structural   In2Ag
_chemical_formula_sum   'In4 Ag2'
_cell_volume   154.40893898
_cell_formula_units_Z   2
loop_
 _symmetry_equiv_pos_site_id
 _symmetry_equiv_pos_as_xyz
  1  'x, y, z'
loop_
 _atom_site_type_symbol
 _atom_site_label
 _atom_site_symmetry_multiplicity
 _atom_site_fract_x
 _atom_site_fract_y
 _atom_site_fract_z
 _atom_site_occupancy
  In  In0  1  0.649044  0.149044  0.798090  1
  In  In1  1  0.850953  0.649044  0.499999  1
  In  In2  1  0.149047  0.350956  0.500001  1
  In  In3  1  0.350956  0.850956  0.201910  1
  Ag  Ag4  1  0.000000  0.000000  0.000000  1
  Ag  Ag5  1  0.500000  0.500000  0.000000  1
