# generated using pymatgen
data_Li4Fe3TeO12
_symmetry_space_group_name_H-M   'P 1'
_cell_length_a   5.03489372
_cell_length_b   4.94903027
_cell_length_c   8.34078577
_cell_angle_alpha   90.00000000
_cell_angle_beta   90.00000000
_cell_angle_gamma   88.97370242
_symmetry_Int_Tables_number   1
_chemical_formula_structural   Li4Fe3TeO12
_chemical_formula_sum   'Li4 Fe3 Te1 O12'
_cell_volume   207.80103648
_cell_formula_units_Z   1
loop_
 _symmetry_equiv_pos_site_id
 _symmetry_equiv_pos_as_xyz
  1  'x, y, z'
loop_
 _atom_site_type_symbol
 _atom_site_label
 _atom_site_symmetry_multiplicity
 _atom_site_fract_x
 _atom_site_fract_y
 _atom_site_fract_z
 _atom_site_occupancy
  Li  Li0  1  0.000000  0.000000  0.699578  1
  Li  Li1  1  0.000000  0.500000  0.801916  1
  Li  Li2  1  0.500000  0.000000  0.326887  1
  Li  Li3  1  0.500000  0.500000  0.209551  1
  Fe  Fe4  1  0.000000  0.500000  0.419163  1
  Fe  Fe5  1  0.500000  0.000000  0.902328  1
  Fe  Fe6  1  0.500000  0.500000  0.601837  1
  Te  Te7  1  0.000000  0.000000  0.104365  1
  O  O8  1  0.159723  0.243628  0.259208  1
  O  O9  1  0.181687  0.305153  0.589651  1
  O  O10  1  0.175243  0.199293  0.924720  1
  O  O11  1  0.314228  0.692593  0.428929  1
  O  O12  1  0.323814  0.792114  0.085926  1
  O  O13  1  0.351432  0.751286  0.749293  1
  O  O14  1  0.648568  0.248714  0.749293  1
  O  O15  1  0.676186  0.207885  0.085926  1
  O  O16  1  0.685772  0.307407  0.428929  1
  O  O17  1  0.824757  0.800707  0.924720  1
  O  O18  1  0.818313  0.694847  0.589651  1
  O  O19  1  0.840277  0.756372  0.259208  1
