# generated using pymatgen
data_Ti17(NO4)6
_symmetry_space_group_name_H-M   'P 1'
_cell_length_a   10.39471822
_cell_length_b   11.47014684
_cell_length_c   10.04243957
_cell_angle_alpha   90.00000000
_cell_angle_beta   90.00000000
_cell_angle_gamma   68.41621234
_symmetry_Int_Tables_number   1
_chemical_formula_structural   Ti17(NO4)6
_chemical_formula_sum   'Ti34 N12 O48'
_cell_volume   1113.39205797
_cell_formula_units_Z   2
loop_
 _symmetry_equiv_pos_site_id
 _symmetry_equiv_pos_as_xyz
  1  'x, y, z'
loop_
 _atom_site_type_symbol
 _atom_site_label
 _atom_site_symmetry_multiplicity
 _atom_site_fract_x
 _atom_site_fract_y
 _atom_site_fract_z
 _atom_site_occupancy
  Ti  Ti0  1  0.801997  0.897073  0.750000  1
  Ti  Ti1  1  0.856068  0.876914  0.422671  1
  Ti  Ti2  1  0.856068  0.876914  0.077329  1
  Ti  Ti3  1  0.637422  0.787336  0.939873  1
  Ti  Ti4  1  0.637422  0.787336  0.560127  1
  Ti  Ti5  1  0.364562  0.878472  0.070654  1
  Ti  Ti6  1  0.364562  0.878472  0.429346  1
  Ti  Ti7  1  0.301340  0.898298  0.750000  1
  Ti  Ti8  1  0.859672  0.551956  0.423508  1
  Ti  Ti9  1  0.198084  0.768951  0.250000  1
  Ti  Ti10  1  0.135616  0.789165  0.930622  1
  Ti  Ti11  1  0.135616  0.789165  0.569378  1
  Ti  Ti12  1  0.859672  0.551956  0.076492  1
  Ti  Ti13  1  0.803758  0.569201  0.750000  1
  Ti  Ti14  1  0.640974  0.453039  0.572022  1
  Ti  Ti15  1  0.640974  0.453039  0.927978  1
  Ti  Ti16  1  0.359026  0.546961  0.072022  1
  Ti  Ti17  1  0.698088  0.433684  0.250000  1
  Ti  Ti18  1  0.359026  0.546961  0.427978  1
  Ti  Ti19  1  0.301912  0.566316  0.750000  1
  Ti  Ti20  1  0.864384  0.210835  0.430622  1
  Ti  Ti21  1  0.801916  0.231049  0.750000  1
  Ti  Ti22  1  0.140328  0.448044  0.923508  1
  Ti  Ti23  1  0.196242  0.430799  0.250000  1
  Ti  Ti24  1  0.864384  0.210835  0.069378  1
  Ti  Ti25  1  0.140328  0.448044  0.576492  1
  Ti  Ti26  1  0.362578  0.212664  0.060127  1
  Ti  Ti27  1  0.362578  0.212664  0.439873  1
  Ti  Ti28  1  0.698660  0.101702  0.250000  1
  Ti  Ti29  1  0.635438  0.121528  0.570654  1
  Ti  Ti30  1  0.635438  0.121528  0.929346  1
  Ti  Ti31  1  0.198003  0.102926  0.250000  1
  Ti  Ti32  1  0.143932  0.123086  0.922671  1
  Ti  Ti33  1  0.143932  0.123086  0.577329  1
  N  N34  1  0.778901  0.917538  0.250000  1
  N  N35  1  0.267316  0.912320  0.250000  1
  N  N36  1  0.731137  0.756517  0.750000  1
  N  N37  1  0.780764  0.559701  0.250000  1
  N  N38  1  0.226908  0.756433  0.750000  1
  N  N39  1  0.270354  0.575066  0.250000  1
  N  N40  1  0.729646  0.424934  0.750000  1
  N  N41  1  0.773092  0.243567  0.250000  1
  N  N42  1  0.219236  0.440299  0.750000  1
  N  N43  1  0.732684  0.087680  0.750000  1
  N  N44  1  0.268863  0.243483  0.250000  1
  N  N45  1  0.221099  0.082462  0.750000  1
  O  O46  1  0.952645  0.850690  0.879346  1
  O  O47  1  0.690108  0.936239  0.937521  1
  O  O48  1  0.952645  0.850690  0.620654  1
  O  O49  1  0.690108  0.936239  0.562479  1
  O  O50  1  0.543962  0.818896  0.391422  1
  O  O51  1  0.450537  0.849700  0.878234  1
  O  O52  1  0.186499  0.936149  0.934647  1
  O  O53  1  0.824273  0.725031  0.450033  1
  O  O54  1  0.450537  0.849700  0.621766  1
  O  O55  1  0.824273  0.725031  0.049967  1
  O  O56  1  0.543962  0.818896  0.108578  1
  O  O57  1  0.186499  0.936149  0.565353  1
  O  O58  1  0.688537  0.604213  0.937198  1
  O  O59  1  0.951610  0.512989  0.619715  1
  O  O60  1  0.951610  0.512989  0.880285  1
  O  O61  1  0.688537  0.604213  0.562802  1
  O  O62  1  0.048754  0.816325  0.118426  1
  O  O63  1  0.048754  0.816325  0.381574  1
  O  O64  1  0.312058  0.729341  0.066024  1
  O  O65  1  0.312058  0.729341  0.433976  1
  O  O66  1  0.452994  0.515139  0.881469  1
  O  O67  1  0.547006  0.484861  0.118531  1
  O  O68  1  0.190531  0.604824  0.937046  1
  O  O69  1  0.809469  0.395176  0.062954  1
  O  O70  1  0.809469  0.395176  0.437046  1
  O  O71  1  0.547006  0.484861  0.381469  1
  O  O72  1  0.452994  0.515139  0.618531  1
  O  O73  1  0.190531  0.604824  0.562954  1
  O  O74  1  0.951246  0.183675  0.881574  1
  O  O75  1  0.687942  0.270659  0.933976  1
  O  O76  1  0.311463  0.395787  0.062802  1
  O  O77  1  0.048390  0.487011  0.380285  1
  O  O78  1  0.311463  0.395787  0.437198  1
  O  O79  1  0.048390  0.487011  0.119715  1
  O  O80  1  0.951246  0.183675  0.618426  1
  O  O81  1  0.687942  0.270659  0.566024  1
  O  O82  1  0.549463  0.150300  0.121766  1
  O  O83  1  0.813501  0.063851  0.434647  1
  O  O84  1  0.549463  0.150300  0.378234  1
  O  O85  1  0.456038  0.181104  0.891422  1
  O  O86  1  0.813501  0.063851  0.065353  1
  O  O87  1  0.456038  0.181104  0.608578  1
  O  O88  1  0.175727  0.274969  0.549967  1
  O  O89  1  0.175727  0.274969  0.950033  1
  O  O90  1  0.309892  0.063761  0.437521  1
  O  O91  1  0.047355  0.149310  0.120654  1
  O  O92  1  0.047355  0.149310  0.379346  1
  O  O93  1  0.309892  0.063761  0.062479  1
