# generated using pymatgen
data_LiAlCrO3
_symmetry_space_group_name_H-M   'P 1'
_cell_length_a   5.82964235
_cell_length_b   5.78893432
_cell_length_c   5.68468225
_cell_angle_alpha   61.50028019
_cell_angle_beta   119.66211778
_cell_angle_gamma   90.13335682
_symmetry_Int_Tables_number   1
_chemical_formula_structural   LiAlCrO3
_chemical_formula_sum   'Li2 Al2 Cr2 O6'
_cell_volume   139.46720620
_cell_formula_units_Z   2
loop_
 _symmetry_equiv_pos_site_id
 _symmetry_equiv_pos_as_xyz
  1  'x, y, z'
loop_
 _atom_site_type_symbol
 _atom_site_label
 _atom_site_symmetry_multiplicity
 _atom_site_fract_x
 _atom_site_fract_y
 _atom_site_fract_z
 _atom_site_occupancy
  Li  Li0  1  0.653409  0.630496  0.415524  1
  Li  Li1  1  0.346591  0.369504  0.584476  1
  Al  Al2  1  0.850688  0.863109  0.898257  1
  Al  Al3  1  0.149312  0.136891  0.101743  1
  Cr  Cr4  1  0.749553  0.249122  0.238339  1
  Cr  Cr5  1  0.250447  0.750878  0.761661  1
  O  O6  1  0.671200  0.666391  0.046113  1
  O  O7  1  0.833099  0.844118  0.587132  1
  O  O8  1  0.781463  0.219015  0.792119  1
  O  O9  1  0.218537  0.780985  0.207881  1
  O  O10  1  0.166901  0.155882  0.412868  1
  O  O11  1  0.328800  0.333609  0.953887  1
