# generated using pymatgen
data_CaEr15Si8Se11ClO28
_symmetry_space_group_name_H-M   'P 1'
_cell_length_a   10.86905947
_cell_length_b   10.87605904
_cell_length_c   10.87085479
_cell_angle_alpha   100.91881566
_cell_angle_beta   113.85305422
_cell_angle_gamma   113.90687681
_symmetry_Int_Tables_number   1
_chemical_formula_structural   CaEr15Si8Se11ClO28
_chemical_formula_sum   'Ca1 Er15 Si8 Se11 Cl1 O28'
_cell_volume   973.83922484
_cell_formula_units_Z   1
loop_
 _symmetry_equiv_pos_site_id
 _symmetry_equiv_pos_as_xyz
  1  'x, y, z'
loop_
 _atom_site_type_symbol
 _atom_site_label
 _atom_site_symmetry_multiplicity
 _atom_site_fract_x
 _atom_site_fract_y
 _atom_site_fract_z
 _atom_site_occupancy
  Ca  Ca0  1  0.487492  0.818555  0.330678  1
  Er  Er1  1  0.014521  0.670505  0.184931  1
  Er  Er2  1  0.399014  0.698772  0.951925  1
  Er  Er3  1  0.012138  0.341727  0.330945  1
  Er  Er4  1  0.252834  0.952642  0.048040  1
  Er  Er5  1  0.248732  0.296135  0.703802  1
  Er  Er6  1  0.484773  0.670080  0.655779  1
  Er  Er7  1  0.103426  0.050737  0.301411  1
  Er  Er8  1  0.510472  0.181026  0.667107  1
  Er  Er9  1  0.902607  0.951832  0.700471  1
  Er  Er10  1  0.513665  0.330411  0.344328  1
  Er  Er11  1  0.751919  0.051200  0.949727  1
  Er  Er12  1  0.747855  0.700590  0.301920  1
  Er  Er13  1  0.989144  0.658317  0.669938  1
  Er  Er14  1  0.593448  0.296642  0.046767  1
  Er  Er15  1  0.985167  0.329280  0.819439  1
  Si  Si16  1  0.125106  0.909890  0.536063  1
  Si  Si17  1  0.374283  0.910358  0.784910  1
  Si  Si18  1  0.126428  0.215337  0.090236  1
  Si  Si19  1  0.627290  0.536134  0.909413  1
  Si  Si20  1  0.374987  0.463919  0.089607  1
  Si  Si21  1  0.875264  0.783056  0.909701  1
  Si  Si22  1  0.626216  0.089882  0.214632  1
  Si  Si23  1  0.874338  0.090568  0.464895  1
  Se  Se24  1  0.144219  0.498281  0.644489  1
  Se  Se25  1  0.244279  0.621146  0.377557  1
  Se  Se26  1  0.247954  0.124847  0.875436  1
  Se  Se27  1  0.139374  0.641983  0.995735  1
  Se  Se28  1  0.356035  0.356514  0.501273  1
  Se  Se29  1  0.646538  0.642097  0.504097  1
  Se  Se30  1  0.355988  0.004895  0.356731  1
  Se  Se31  1  0.751018  0.375794  0.626441  1
  Se  Se32  1  0.646038  0.004811  0.650664  1
  Se  Se33  1  0.856127  0.500512  0.355792  1
  Se  Se34  1  0.858139  0.358143  0.005308  1
  Cl  Cl35  1  0.751341  0.875766  0.125752  1
  O  O36  1  0.015604  0.835314  0.350732  1
  O  O37  1  0.264291  0.838223  0.850855  1
  O  O38  1  0.008481  0.852956  0.087361  1
  O  O39  1  0.248870  0.856772  0.607454  1
  O  O40  1  0.265022  0.425920  0.913042  1
  O  O41  1  0.008736  0.154256  0.421782  1
  O  O42  1  0.485730  0.836431  0.821430  1
  O  O43  1  0.016772  0.179966  0.166329  1
  O  O44  1  0.494758  0.581013  0.844803  1
  O  O45  1  0.233846  0.086165  0.573924  1
  O  O46  1  0.248875  0.392741  0.141612  1
  O  O47  1  0.517892  0.351613  0.833881  1
  O  O48  1  0.489357  0.913828  0.138044  1
  O  O49  1  0.766047  0.851500  0.845371  1
  O  O50  1  0.234617  0.147445  0.160673  1
  O  O51  1  0.510591  0.087087  0.851625  1
  O  O52  1  0.488036  0.647610  0.160955  1
  O  O53  1  0.753225  0.605859  0.858034  1
  O  O54  1  0.773869  0.914504  0.425216  1
  O  O55  1  0.510970  0.423323  0.160906  1
  O  O56  1  0.983841  0.816841  0.834284  1
  O  O57  1  0.519430  0.167914  0.184533  1
  O  O58  1  0.986461  0.838959  0.573395  1
  O  O59  1  0.733498  0.580401  0.087282  1
  O  O60  1  0.750354  0.143021  0.391509  1
  O  O61  1  0.985182  0.146173  0.914615  1
  O  O62  1  0.734707  0.154622  0.145945  1
  O  O63  1  0.981325  0.167425  0.649549  1
