# generated using pymatgen
data_FeCu(PO4)2
_symmetry_space_group_name_H-M   'P 1'
_cell_length_a   10.00434425
_cell_length_b   5.96661733
_cell_length_c   5.04909780
_cell_angle_alpha   90.00000000
_cell_angle_beta   93.63918996
_cell_angle_gamma   90.00000000
_symmetry_Int_Tables_number   1
_chemical_formula_structural   FeCu(PO4)2
_chemical_formula_sum   'Fe2 Cu2 P4 O16'
_cell_volume   300.78347812
_cell_formula_units_Z   2
loop_
 _symmetry_equiv_pos_site_id
 _symmetry_equiv_pos_as_xyz
  1  'x, y, z'
loop_
 _atom_site_type_symbol
 _atom_site_label
 _atom_site_symmetry_multiplicity
 _atom_site_fract_x
 _atom_site_fract_y
 _atom_site_fract_z
 _atom_site_occupancy
  Fe  Fe0  1  0.217396  0.750000  0.459080  1
  Fe  Fe1  1  0.782604  0.250000  0.540920  1
  Cu  Cu2  1  0.303822  0.250000  0.867561  1
  Cu  Cu3  1  0.696178  0.750000  0.132439  1
  P  P4  1  0.104267  0.250000  0.403115  1
  P  P5  1  0.398194  0.750000  0.941569  1
  P  P6  1  0.601806  0.250000  0.058431  1
  P  P7  1  0.895733  0.750000  0.596885  1
  O  O8  1  0.049096  0.750000  0.643231  1
  O  O9  1  0.132678  0.250000  0.713582  1
  O  O10  1  0.168333  0.039535  0.284058  1
  O  O11  1  0.168333  0.460465  0.284058  1
  O  O12  1  0.326488  0.943974  0.771289  1
  O  O13  1  0.326488  0.556026  0.771289  1
  O  O14  1  0.376112  0.750000  0.235091  1
  O  O15  1  0.451209  0.250000  0.110103  1
  O  O16  1  0.548791  0.750000  0.889897  1
  O  O17  1  0.623888  0.250000  0.764909  1
  O  O18  1  0.673512  0.056026  0.228711  1
  O  O19  1  0.673512  0.443974  0.228711  1
  O  O20  1  0.831667  0.539535  0.715942  1
  O  O21  1  0.831667  0.960465  0.715942  1
  O  O22  1  0.867322  0.750000  0.286418  1
  O  O23  1  0.950904  0.250000  0.356769  1
