# generated using pymatgen
data_Li3V3P8O29
_symmetry_space_group_name_H-M   'P 1'
_cell_length_a   9.77838453
_cell_length_b   9.71299857
_cell_length_c   14.26534296
_cell_angle_alpha   89.93118695
_cell_angle_beta   91.08850362
_cell_angle_gamma   60.19800669
_symmetry_Int_Tables_number   1
_chemical_formula_structural   Li3V3P8O29
_chemical_formula_sum   'Li6 V6 P16 O58'
_cell_volume   1175.39895815
_cell_formula_units_Z   2
loop_
 _symmetry_equiv_pos_site_id
 _symmetry_equiv_pos_as_xyz
  1  'x, y, z'
loop_
 _atom_site_type_symbol
 _atom_site_label
 _atom_site_symmetry_multiplicity
 _atom_site_fract_x
 _atom_site_fract_y
 _atom_site_fract_z
 _atom_site_occupancy
  Li  Li0  1  0.684886  0.661859  0.897266  1
  Li  Li1  1  0.312446  0.918141  0.063658  1
  Li  Li2  1  0.672245  0.234097  0.438951  1
  Li  Li3  1  0.332217  0.765081  0.559013  1
  Li  Li4  1  0.940032  0.017481  0.994963  1
  Li  Li5  1  0.003327  0.999520  0.499029  1
  V  V6  1  0.566110  0.438056  0.242944  1
  V  V7  1  0.432231  0.562441  0.753573  1
  V  V8  1  0.570437  0.997946  0.748474  1
  V  V9  1  0.436435  0.006736  0.252640  1
  V  V10  1  0.000162  0.559889  0.250668  1
  V  V11  1  0.000706  0.434723  0.744374  1
  P  P12  1  0.917476  0.780173  0.842607  1
  P  P13  1  0.783803  0.912374  0.338643  1
  P  P14  1  0.918419  0.298645  0.342107  1
  P  P15  1  0.662648  0.673085  0.130679  1
  P  P16  1  0.659583  0.669224  0.631518  1
  P  P17  1  0.785705  0.307019  0.837842  1
  P  P18  1  0.686728  0.227875  0.656808  1
  P  P19  1  0.320904  0.907021  0.846597  1
  P  P20  1  0.691470  0.084162  0.155244  1
  P  P21  1  0.318923  0.771467  0.342899  1
  P  P22  1  0.215753  0.694646  0.163633  1
  P  P23  1  0.338690  0.336216  0.367305  1
  P  P24  1  0.334014  0.327282  0.867994  1
  P  P25  1  0.079708  0.702208  0.657339  1
  P  P26  1  0.220859  0.081779  0.664431  1
  P  P27  1  0.081064  0.220156  0.157410  1
  O  O28  1  0.008839  0.800957  0.572332  1
  O  O29  1  0.913948  0.736456  0.333371  1
  O  O30  1  0.778265  0.016908  0.068991  1
  O  O31  1  0.739931  0.915633  0.830886  1
  O  O32  1  0.909679  0.624295  0.831484  1
  O  O33  1  0.810574  0.666971  0.177589  1
  O  O34  1  0.927101  0.454470  0.330090  1
  O  O35  1  0.006941  0.200034  0.071656  1
  O  O36  1  0.918746  0.350701  0.831456  1
  O  O37  1  0.662770  0.814724  0.678237  1
  O  O38  1  0.620599  0.919694  0.327595  1
  O  O39  1  0.809597  0.522849  0.677133  1
  O  O40  1  0.662362  0.667028  0.026273  1
  O  O41  1  0.650081  0.675442  0.527882  1
  O  O42  1  0.661603  0.522493  0.173655  1
  O  O43  1  0.484478  0.891887  0.830696  1
  O  O44  1  0.511886  0.820003  0.166884  1
  O  O45  1  0.740641  0.344808  0.332029  1
  O  O46  1  0.803966  0.210627  0.741568  1
  O  O47  1  0.758897  0.219215  0.564970  1
  O  O48  1  0.801555  0.207497  0.919492  1
  O  O49  1  0.627508  0.470213  0.828859  1
  O  O50  1  0.511821  0.668823  0.673783  1
  O  O51  1  0.647466  0.261204  0.169790  1
  O  O52  1  0.472952  0.614423  0.325801  1
  O  O53  1  0.353728  0.909532  0.325580  1
  O  O54  1  0.802886  0.992809  0.244706  1
  O  O55  1  0.796670  0.001289  0.419999  1
  O  O56  1  0.201375  0.992416  0.585636  1
  O  O57  1  0.653244  0.088124  0.670459  1
  O  O58  1  0.531782  0.383687  0.675600  1
  O  O59  1  0.347479  0.735321  0.831263  1
  O  O60  1  0.488657  0.332302  0.327794  1
  O  O61  1  0.377743  0.536415  0.173653  1
  O  O62  1  0.207922  0.795928  0.083744  1
  O  O63  1  0.245058  0.785961  0.435016  1
  O  O64  1  0.196925  0.788651  0.260906  1
  O  O65  1  0.258962  0.654533  0.666394  1
  O  O66  1  0.472539  0.178200  0.821812  1
  O  O67  1  0.537132  0.078627  0.169696  1
  O  O68  1  0.344475  0.471938  0.822970  1
  O  O69  1  0.335490  0.327891  0.971035  1
  O  O70  1  0.343307  0.326898  0.470910  1
  O  O71  1  0.189359  0.479720  0.320743  1
  O  O72  1  0.381519  0.075077  0.672450  1
  O  O73  1  0.338746  0.186936  0.319581  1
  O  O74  1  0.082729  0.652941  0.166819  1
  O  O75  1  0.000818  0.800205  0.750747  1
  O  O76  1  0.990595  0.804501  0.927468  1
  O  O77  1  0.070049  0.547453  0.669662  1
  O  O78  1  0.182272  0.343476  0.818270  1
  O  O79  1  0.074575  0.383126  0.172512  1
  O  O80  1  0.259280  0.087972  0.165906  1
  O  O81  1  0.247185  0.973005  0.937194  1
  O  O82  1  0.201725  0.010288  0.762869  1
  O  O83  1  0.085640  0.258696  0.666255  1
  O  O84  1  0.990179  0.199642  0.427161  1
  O  O85  1  0.000978  0.197339  0.249804  1
