# generated using pymatgen
data_Ba8Co7O19
_symmetry_space_group_name_H-M   'P 1'
_cell_length_a   10.67746686
_cell_length_b   10.69849975
_cell_length_c   11.69972733
_cell_angle_alpha   105.69890936
_cell_angle_beta   104.82812488
_cell_angle_gamma   115.02158669
_symmetry_Int_Tables_number   1
_chemical_formula_structural   Ba8Co7O19
_chemical_formula_sum   'Ba16 Co14 O38'
_cell_volume   1055.59082972
_cell_formula_units_Z   2
loop_
 _symmetry_equiv_pos_site_id
 _symmetry_equiv_pos_as_xyz
  1  'x, y, z'
loop_
 _atom_site_type_symbol
 _atom_site_label
 _atom_site_symmetry_multiplicity
 _atom_site_fract_x
 _atom_site_fract_y
 _atom_site_fract_z
 _atom_site_occupancy
  Ba  Ba0  1  0.663997  0.666838  0.331275  1
  Ba  Ba1  1  0.711655  0.951740  0.677506  1
  Ba  Ba2  1  0.210689  0.424703  0.162543  1
  Ba  Ba3  1  0.182691  0.461716  0.662568  1
  Ba  Ba4  1  0.409720  0.919301  0.831059  1
  Ba  Ba5  1  0.184719  0.178733  0.359616  1
  Ba  Ba6  1  0.171810  0.177102  0.818019  1
  Ba  Ba7  1  0.391331  0.894240  0.316671  1
  Ba  Ba8  1  0.706516  0.962876  0.175660  1
  Ba  Ba9  1  0.488025  0.199740  0.660709  1
  Ba  Ba10  1  0.950271  0.730775  0.161693  1
  Ba  Ba11  1  0.930837  0.425170  0.858697  1
  Ba  Ba12  1  0.647100  0.631765  0.813751  1
  Ba  Ba13  1  0.933216  0.417179  0.313423  1
  Ba  Ba14  1  0.475074  0.214202  0.176117  1
  Ba  Ba15  1  0.963321  0.720689  0.674866  1
  Co  Co16  1  0.166200  0.863325  0.995540  1
  Co  Co17  1  0.835534  0.142787  0.998491  1
  Co  Co18  1  0.427230  0.559792  0.006099  1
  Co  Co19  1  0.311287  0.678893  0.506999  1
  Co  Co20  1  0.718850  0.305428  0.002391  1
  Co  Co21  1  0.284363  0.699858  0.006584  1
  Co  Co22  1  0.578778  0.446273  0.006003  1
  Co  Co23  1  0.057573  0.972504  0.506304  1
  Co  Co24  1  0.450706  0.537769  0.505935  1
  Co  Co25  1  0.197789  0.829689  0.505442  1
  Co  Co26  1  0.605938  0.415289  0.494660  1
  Co  Co27  1  0.759679  0.275335  0.510588  1
  Co  Co28  1  0.884169  0.080491  0.497327  1
  Co  Co29  1  0.978830  0.000868  0.011178  1
  O  O30  1  0.381057  0.913640  0.073523  1
  O  O31  1  0.181007  0.678520  0.357564  1
  O  O32  1  0.176008  0.944285  0.416199  1
  O  O33  1  0.679977  0.158665  0.845070  1
  O  O34  1  0.423932  0.698005  0.144382  1
  O  O35  1  0.879475  0.213453  0.636547  1
  O  O36  1  0.697566  0.429620  0.918326  1
  O  O37  1  0.169290  0.005882  0.132824  1
  O  O38  1  0.198545  0.973022  0.644357  1
  O  O39  1  0.686724  0.156233  0.068684  1
  O  O40  1  0.130750  0.715853  0.070275  1
  O  O41  1  0.664134  0.646755  0.573194  1
  O  O42  1  0.938262  0.365711  0.072918  1
  O  O43  1  0.241351  0.472713  0.421421  1
  O  O44  1  0.719669  0.447658  0.144953  1
  O  O45  1  0.438956  0.415352  0.347592  1
  O  O46  1  0.457613  0.385346  0.574649  1
  O  O47  1  0.909545  0.944384  0.357420  1
  O  O48  1  0.428679  0.401509  0.071478  1
  O  O49  1  0.163687  0.698050  0.856970  1
  O  O50  1  0.428248  0.428476  0.857412  1
  O  O51  1  0.746870  0.441643  0.420771  1
  O  O52  1  0.950925  0.803064  0.922268  1
  O  O53  1  0.419381  0.893329  0.571342  1
  O  O54  1  0.216091  0.987660  0.913121  1
  O  O55  1  0.447962  0.676991  0.646546  1
  O  O56  1  0.105609  0.189551  0.571566  1
  O  O57  1  0.643596  0.670636  0.071698  1
  O  O58  1  0.910653  0.943975  0.573779  1
  O  O59  1  0.984185  0.138196  0.929598  1
  O  O60  1  0.874538  0.226135  0.425994  1
  O  O61  1  0.541930  0.185623  0.425575  1
  O  O62  1  0.767212  0.424110  0.652145  1
  O  O63  1  0.740426  0.928639  0.927409  1
  O  O64  1  0.221816  0.490715  0.918547  1
  O  O65  1  0.151472  0.680353  0.572460  1
  O  O66  1  0.677814  0.952201  0.415008  1
  O  O67  1  0.984429  0.142920  0.158572  1
