# generated using pymatgen
data_LiVCrP2(HO5)2
_symmetry_space_group_name_H-M   'P 1'
_cell_length_a   19.33157632
_cell_length_b   7.36253650
_cell_length_c   5.20093831
_cell_angle_alpha   74.48436689
_cell_angle_beta   89.36158795
_cell_angle_gamma   85.93046772
_symmetry_Int_Tables_number   1
_chemical_formula_structural   LiVCrP2(HO5)2
_chemical_formula_sum   'Li4 V4 Cr4 P8 H8 O40'
_cell_volume   711.44810571
_cell_formula_units_Z   4
loop_
 _symmetry_equiv_pos_site_id
 _symmetry_equiv_pos_as_xyz
  1  'x, y, z'
loop_
 _atom_site_type_symbol
 _atom_site_label
 _atom_site_symmetry_multiplicity
 _atom_site_fract_x
 _atom_site_fract_y
 _atom_site_fract_z
 _atom_site_occupancy
  Li  Li0  1  0.139476  0.988290  0.787525  1
  Li  Li1  1  0.359822  0.511705  0.713310  1
  Li  Li2  1  0.609742  0.760875  0.463072  1
  Li  Li3  1  0.859978  0.011111  0.212437  1
  V  V4  1  0.123969  0.618316  0.380400  1
  V  V5  1  0.374981  0.880997  0.120534  1
  V  V6  1  0.624924  0.130600  0.870904  1
  V  V7  1  0.874965  0.380880  0.620823  1
  Cr  Cr8  1  0.999818  0.000089  0.000354  1
  Cr  Cr9  1  0.249774  0.250111  0.750357  1
  Cr  Cr10  1  0.499358  0.497915  0.502276  1
  Cr  Cr11  1  0.749379  0.747855  0.252175  1
  P  P12  1  0.031072  0.254269  0.417942  1
  P  P13  1  0.218450  0.988933  0.330423  1
  P  P14  1  0.281040  0.510758  0.170121  1
  P  P15  1  0.468620  0.243994  0.083077  1
  P  P16  1  0.531158  0.759668  0.920612  1
  P  P17  1  0.718614  0.493765  0.832925  1
  P  P18  1  0.781176  0.009680  0.670647  1
  P  P19  1  0.968344  0.745088  0.582703  1
  H  H20  1  0.070929  0.723863  0.922187  1
  H  H21  1  0.172852  0.509808  0.843530  1
  H  H22  1  0.327087  0.990515  0.657189  1
  H  H23  1  0.428428  0.774554  0.579861  1
  H  H24  1  0.576561  0.238985  0.408448  1
  H  H25  1  0.678406  0.024320  0.330421  1
  H  H26  1  0.826515  0.488858  0.157982  1
  H  H27  1  0.928915  0.276000  0.078882  1
  O  O28  1  0.044003  0.113399  0.253094  1
  O  O29  1  0.053981  0.164562  0.709457  1
  O  O30  1  0.046695  0.668459  0.608466  1
  O  O31  1  0.076337  0.425613  0.299664  1
  O  O32  1  0.081055  0.799596  0.047119  1
  O  O33  1  0.198357  0.071318  0.035043  1
  O  O34  1  0.171950  0.453272  0.691341  1
  O  O35  1  0.205921  0.134241  0.493917  1
  O  O36  1  0.170848  0.828342  0.462440  1
  O  O37  1  0.202992  0.586358  0.139588  1
  O  O38  1  0.327760  0.046773  0.809696  1
  O  O39  1  0.294072  0.365884  0.006051  1
  O  O40  1  0.301546  0.428342  0.465104  1
  O  O41  1  0.296790  0.913121  0.360860  1
  O  O42  1  0.328919  0.671663  0.038142  1
  O  O43  1  0.423390  0.073420  0.202790  1
  O  O44  1  0.445285  0.334613  0.792048  1
  O  O45  1  0.418376  0.698870  0.454552  1
  O  O46  1  0.456883  0.387347  0.244809  1
  O  O47  1  0.452767  0.833643  0.886524  1
  O  O48  1  0.546559  0.165632  0.106547  1
  O  O49  1  0.544808  0.615976  0.755257  1
  O  O50  1  0.577160  0.295085  0.561001  1
  O  O51  1  0.550540  0.678810  0.216692  1
  O  O52  1  0.578852  0.921058  0.790142  1
  O  O53  1  0.673446  0.323158  0.952400  1
  O  O54  1  0.702745  0.083418  0.636904  1
  O  O55  1  0.695344  0.584353  0.541801  1
  O  O56  1  0.706897  0.636989  0.994918  1
  O  O57  1  0.668181  0.948662  0.205247  1
  O  O58  1  0.796599  0.415633  0.856270  1
  O  O59  1  0.828876  0.171021  0.540400  1
  O  O60  1  0.794808  0.866129  0.504999  1
  O  O61  1  0.827287  0.545122  0.310359  1
  O  O62  1  0.800545  0.928833  0.966823  1
  O  O63  1  0.918677  0.200143  0.954243  1
  O  O64  1  0.923364  0.574070  0.700729  1
  O  O65  1  0.953017  0.330717  0.392221  1
  O  O66  1  0.945940  0.835059  0.290759  1
  O  O67  1  0.956060  0.886374  0.747188  1
