# generated using pymatgen
data_Li3Cr13Ni3(SO4)24
_symmetry_space_group_name_H-M   'P 1'
_cell_length_a   8.83909084
_cell_length_b   8.84629397
_cell_length_c   35.46345964
_cell_angle_alpha   56.01959264
_cell_angle_beta   55.84692550
_cell_angle_gamma   55.96913559
_symmetry_Int_Tables_number   1
_chemical_formula_structural   Li3Cr13Ni3(SO4)24
_chemical_formula_sum   'Li3 Cr13 Ni3 S24 O96'
_cell_volume   1776.55963889
_cell_formula_units_Z   1
loop_
 _symmetry_equiv_pos_site_id
 _symmetry_equiv_pos_as_xyz
  1  'x, y, z'
loop_
 _atom_site_type_symbol
 _atom_site_label
 _atom_site_symmetry_multiplicity
 _atom_site_fract_x
 _atom_site_fract_y
 _atom_site_fract_z
 _atom_site_occupancy
  Li  Li0  1  0.819105  0.568564  0.308400  1
  Li  Li1  1  0.816377  0.568193  0.559363  1
  Li  Li2  1  0.816595  0.567773  0.809490  1
  Cr  Cr3  1  0.152501  0.150367  0.037164  1
  Cr  Cr4  1  0.356869  0.355487  0.088958  1
  Cr  Cr5  1  0.356282  0.357100  0.338629  1
  Cr  Cr6  1  0.642886  0.647188  0.160007  1
  Cr  Cr7  1  0.151909  0.147474  0.537809  1
  Cr  Cr8  1  0.849712  0.855166  0.210035  1
  Cr  Cr9  1  0.642074  0.645740  0.411382  1
  Cr  Cr10  1  0.152767  0.146468  0.787779  1
  Cr  Cr11  1  0.851147  0.852224  0.460151  1
  Cr  Cr12  1  0.641131  0.647163  0.661631  1
  Cr  Cr13  1  0.848521  0.851744  0.710663  1
  Cr  Cr14  1  0.643288  0.645896  0.911797  1
  Cr  Cr15  1  0.847910  0.847852  0.962388  1
  Ni  Ni16  1  0.153920  0.146490  0.286905  1
  Ni  Ni17  1  0.356671  0.356573  0.589829  1
  Ni  Ni18  1  0.355987  0.356635  0.839919  1
  S  S19  1  0.042078  0.748246  0.115213  1
  S  S20  1  0.462005  0.040544  0.186842  1
  S  S21  1  0.748346  0.461849  0.010467  1
  S  S22  1  0.255203  0.534768  0.239332  1
  S  S23  1  0.537561  0.959049  0.062838  1
  S  S24  1  0.040127  0.748829  0.365343  1
  S  S25  1  0.958219  0.253610  0.134022  1
  S  S26  1  0.461523  0.042821  0.436768  1
  S  S27  1  0.749239  0.460153  0.259344  1
  S  S28  1  0.254056  0.536427  0.489600  1
  S  S29  1  0.536085  0.960306  0.312665  1
  S  S30  1  0.043559  0.748850  0.615005  1
  S  S31  1  0.957820  0.252956  0.384925  1
  S  S32  1  0.459779  0.044151  0.687218  1
  S  S33  1  0.749907  0.457230  0.510580  1
  S  S34  1  0.253930  0.536257  0.739674  1
  S  S35  1  0.538538  0.960660  0.562281  1
  S  S36  1  0.043464  0.748833  0.865282  1
  S  S37  1  0.958038  0.251467  0.635635  1
  S  S38  1  0.460611  0.043813  0.937299  1
  S  S39  1  0.750071  0.456738  0.760599  1
  S  S40  1  0.251759  0.537674  0.989750  1
  S  S41  1  0.538475  0.960424  0.812457  1
  S  S42  1  0.958009  0.250405  0.885787  1
  O  O43  1  0.107722  0.301309  0.127995  1
  O  O44  1  0.300561  0.511946  0.027084  1
  O  O45  1  0.015045  0.952996  0.081749  1
  O  O46  1  0.512643  0.107638  0.075197  1
  O  O47  1  0.026039  0.717419  0.163138  1
  O  O48  1  0.239564  0.616996  0.094587  1
  O  O49  1  0.379052  0.238305  0.154081  1
  O  O50  1  0.330725  0.009976  0.237655  1
  O  O51  1  0.617502  0.377809  0.059759  1
  O  O52  1  0.042875  0.669719  0.247596  1
  O  O53  1  0.286475  0.347590  0.242788  1
  O  O54  1  0.345861  0.974343  0.070802  1
  O  O55  1  0.655321  0.027735  0.178090  1
  O  O56  1  0.716332  0.652891  0.006795  1
  O  O57  1  0.108048  0.299969  0.378655  1
  O  O58  1  0.953471  0.326469  0.003728  1
  O  O59  1  0.377980  0.629402  0.190204  1
  O  O60  1  0.300038  0.513980  0.276958  1
  O  O61  1  0.673635  0.984553  0.011776  1
  O  O62  1  0.621658  0.761443  0.095393  1
  O  O63  1  0.010785  0.951265  0.332615  1
  O  O64  1  0.515238  0.104559  0.325746  1
  O  O65  1  0.760443  0.383273  0.155453  1
  O  O66  1  0.974112  0.282569  0.086594  1
  O  O67  1  0.025657  0.714655  0.413563  1
  O  O68  1  0.238578  0.616032  0.344921  1
  O  O69  1  0.490805  0.892875  0.173332  1
  O  O70  1  0.985613  0.048063  0.168036  1
  O  O71  1  0.377705  0.239500  0.404317  1
  O  O72  1  0.327480  0.013963  0.488183  1
  O  O73  1  0.692801  0.493873  0.222750  1
  O  O74  1  0.616752  0.379628  0.309316  1
  O  O75  1  0.041687  0.669573  0.497077  1
  O  O76  1  0.892764  0.698271  0.121899  1
  O  O77  1  0.282595  0.346335  0.493202  1
  O  O78  1  0.348485  0.970229  0.321829  1
  O  O79  1  0.653402  0.027852  0.428691  1
  O  O80  1  0.719192  0.651669  0.257402  1
  O  O81  1  0.104932  0.299724  0.629002  1
  O  O82  1  0.951653  0.329031  0.252714  1
  O  O83  1  0.378701  0.624776  0.439455  1
  O  O84  1  0.299423  0.515030  0.526199  1
  O  O85  1  0.675552  0.983291  0.261727  1
  O  O86  1  0.631188  0.757013  0.344386  1
  O  O87  1  0.010504  0.957269  0.582010  1
  O  O88  1  0.516767  0.102149  0.575254  1
  O  O89  1  0.759009  0.383791  0.406398  1
  O  O90  1  0.968559  0.289678  0.337201  1
  O  O91  1  0.024398  0.718448  0.663206  1
  O  O92  1  0.239536  0.623161  0.593960  1
  O  O93  1  0.486921  0.893046  0.424701  1
  O  O94  1  0.985633  0.047856  0.417985  1
  O  O95  1  0.376119  0.239283  0.655840  1
  O  O96  1  0.328953  0.009015  0.739276  1
  O  O97  1  0.698770  0.489873  0.473041  1
  O  O98  1  0.623663  0.376427  0.559741  1
  O  O99  1  0.041793  0.669474  0.747029  1
  O  O100  1  0.892510  0.693094  0.372663  1
  O  O101  1  0.282850  0.346255  0.743201  1
  O  O102  1  0.347473  0.972459  0.570636  1
  O  O103  1  0.654179  0.026068  0.678966  1
  O  O104  1  0.722271  0.650721  0.507086  1
  O  O105  1  0.104878  0.298920  0.879141  1
  O  O106  1  0.958131  0.327500  0.502394  1
  O  O107  1  0.379016  0.624686  0.689470  1
  O  O108  1  0.299773  0.515244  0.776132  1
  O  O109  1  0.675374  0.981577  0.511085  1
  O  O110  1  0.626659  0.755428  0.594269  1
  O  O111  1  0.010375  0.957076  0.832185  1
  O  O112  1  0.516783  0.102297  0.825283  1
  O  O113  1  0.756727  0.385007  0.654902  1
  O  O114  1  0.971323  0.286773  0.586507  1
  O  O115  1  0.023739  0.718272  0.913582  1
  O  O116  1  0.239316  0.623171  0.844121  1
  O  O117  1  0.486377  0.893308  0.674906  1
  O  O118  1  0.984012  0.046284  0.667844  1
  O  O119  1  0.377173  0.238933  0.905847  1
  O  O120  1  0.327892  0.010340  0.989353  1
  O  O121  1  0.699529  0.489237  0.722853  1
  O  O122  1  0.623449  0.376174  0.809668  1
  O  O123  1  0.046671  0.672989  0.996300  1
  O  O124  1  0.891841  0.700101  0.621718  1
  O  O125  1  0.283490  0.346346  0.993446  1
  O  O126  1  0.347562  0.972221  0.820788  1
  O  O127  1  0.654480  0.024131  0.929712  1
  O  O128  1  0.721656  0.650192  0.757215  1
  O  O129  1  0.958258  0.327587  0.752316  1
  O  O130  1  0.383254  0.621462  0.940448  1
  O  O131  1  0.675265  0.981679  0.761194  1
  O  O132  1  0.626569  0.755201  0.844428  1
  O  O133  1  0.756847  0.384757  0.904914  1
  O  O134  1  0.971748  0.286142  0.836559  1
  O  O135  1  0.486529  0.892877  0.925138  1
  O  O136  1  0.982795  0.045610  0.918145  1
  O  O137  1  0.699449  0.486535  0.973247  1
  O  O138  1  0.892010  0.700183  0.871781  1
