# generated using pymatgen
data_Li3Fe2P2(CO7)2
_symmetry_space_group_name_H-M   'P 1'
_cell_length_a   8.38309857
_cell_length_b   10.27637472
_cell_length_c   6.47359356
_cell_angle_alpha   90.00000000
_cell_angle_beta   90.00000000
_cell_angle_gamma   85.05604822
_symmetry_Int_Tables_number   1
_chemical_formula_structural   Li3Fe2P2(CO7)2
_chemical_formula_sum   'Li6 Fe4 P4 C4 O28'
_cell_volume   555.61136308
_cell_formula_units_Z   2
loop_
 _symmetry_equiv_pos_site_id
 _symmetry_equiv_pos_as_xyz
  1  'x, y, z'
loop_
 _atom_site_type_symbol
 _atom_site_label
 _atom_site_symmetry_multiplicity
 _atom_site_fract_x
 _atom_site_fract_y
 _atom_site_fract_z
 _atom_site_occupancy
  Li  Li0  1  0.110657  0.387375  0.246141  1
  Li  Li1  1  0.110657  0.887375  0.253859  1
  Li  Li2  1  0.714708  0.374175  0.544553  1
  Li  Li3  1  0.714708  0.874175  0.955447  1
  Li  Li4  1  0.901888  0.119707  0.748128  1
  Li  Li5  1  0.901888  0.619707  0.751872  1
  Fe  Fe6  1  0.329461  0.401060  0.753742  1
  Fe  Fe7  1  0.329461  0.901060  0.746258  1
  Fe  Fe8  1  0.666643  0.099308  0.252739  1
  Fe  Fe9  1  0.666643  0.599308  0.247261  1
  P  P10  1  0.422516  0.361730  0.256858  1
  P  P11  1  0.422516  0.861730  0.243142  1
  P  P12  1  0.579312  0.135594  0.747974  1
  P  P13  1  0.579312  0.635594  0.752026  1
  C  C14  1  0.038225  0.353701  0.741862  1
  C  C15  1  0.038225  0.853701  0.758138  1
  C  C16  1  0.956735  0.149514  0.250084  1
  C  C17  1  0.956735  0.649514  0.249916  1
  O  O18  1  0.071215  0.475185  0.749495  1
  O  O19  1  0.092919  0.191256  0.247758  1
  O  O20  1  0.071215  0.975185  0.750505  1
  O  O21  1  0.161029  0.268328  0.759459  1
  O  O22  1  0.092919  0.691256  0.252242  1
  O  O23  1  0.161029  0.768328  0.740541  1
  O  O24  1  0.319548  0.401123  0.065415  1
  O  O25  1  0.307490  0.393859  0.440417  1
  O  O26  1  0.307490  0.893859  0.059583  1
  O  O27  1  0.319548  0.901123  0.434585  1
  O  O28  1  0.426315  0.064990  0.752516  1
  O  O29  1  0.476526  0.213752  0.250804  1
  O  O30  1  0.426315  0.564990  0.747484  1
  O  O31  1  0.476526  0.713752  0.249196  1
  O  O32  1  0.536129  0.286225  0.740304  1
  O  O33  1  0.579032  0.431685  0.278134  1
  O  O34  1  0.536129  0.786225  0.759696  1
  O  O35  1  0.579032  0.931685  0.221866  1
  O  O36  1  0.691404  0.097777  0.561014  1
  O  O37  1  0.693132  0.093836  0.933352  1
  O  O38  1  0.693132  0.593836  0.566648  1
  O  O39  1  0.691404  0.597777  0.938986  1
  O  O40  1  0.829397  0.233903  0.260258  1
  O  O41  1  0.898293  0.316144  0.717431  1
  O  O42  1  0.829397  0.733903  0.239742  1
  O  O43  1  0.926315  0.027157  0.242397  1
  O  O44  1  0.898293  0.816144  0.782569  1
  O  O45  1  0.926315  0.527157  0.257603  1
