# generated using pymatgen
data_Li2AlCoO4
_symmetry_space_group_name_H-M   'P 1'
_cell_length_a   6.24076164
_cell_length_b   5.50301743
_cell_length_c   5.00330702
_cell_angle_alpha   90.00000000
_cell_angle_beta   90.00000000
_cell_angle_gamma   90.00000000
_symmetry_Int_Tables_number   1
_chemical_formula_structural   Li2AlCoO4
_chemical_formula_sum   'Li4 Al2 Co2 O8'
_cell_volume   171.82867346
_cell_formula_units_Z   2
loop_
 _symmetry_equiv_pos_site_id
 _symmetry_equiv_pos_as_xyz
  1  'x, y, z'
loop_
 _atom_site_type_symbol
 _atom_site_label
 _atom_site_symmetry_multiplicity
 _atom_site_fract_x
 _atom_site_fract_y
 _atom_site_fract_z
 _atom_site_occupancy
  Li  Li0  1  0.249315  0.335290  0.992739  1
  Li  Li1  1  0.250685  0.664710  0.492739  1
  Li  Li2  1  0.750685  0.335290  0.992739  1
  Li  Li3  1  0.749315  0.664710  0.492739  1
  Al  Al4  1  0.000000  0.157540  0.498884  1
  Al  Al5  1  0.500000  0.842460  0.998884  1
  Co  Co6  1  0.000000  0.828961  0.994491  1
  Co  Co7  1  0.500000  0.171039  0.494491  1
  O  O8  1  0.000000  0.148437  0.855178  1
  O  O9  1  0.000000  0.854739  0.371913  1
  O  O10  1  0.261501  0.687151  0.897028  1
  O  O11  1  0.238499  0.312849  0.397028  1
  O  O12  1  0.500000  0.145261  0.871913  1
  O  O13  1  0.500000  0.851563  0.355178  1
  O  O14  1  0.761501  0.312849  0.397028  1
  O  O15  1  0.738499  0.687151  0.897028  1
