# generated using pymatgen
data_Rb2O
_symmetry_space_group_name_H-M   'P 1'
_cell_length_a   7.39369001
_cell_length_b   9.91422548
_cell_length_c   9.91673893
_cell_angle_alpha   80.40135639
_cell_angle_beta   68.09886433
_cell_angle_gamma   138.16873258
_symmetry_Int_Tables_number   1
_chemical_formula_structural   Rb2O
_chemical_formula_sum   'Rb6 O3'
_cell_volume   312.81609008
_cell_formula_units_Z   3
loop_
 _symmetry_equiv_pos_site_id
 _symmetry_equiv_pos_as_xyz
  1  'x, y, z'
loop_
 _atom_site_type_symbol
 _atom_site_label
 _atom_site_symmetry_multiplicity
 _atom_site_fract_x
 _atom_site_fract_y
 _atom_site_fract_z
 _atom_site_occupancy
  Rb  Rb0  1  0.173281  0.849326  0.005890  1
  Rb  Rb1  1  0.131567  0.791789  0.664820  1
  Rb  Rb2  1  0.126551  0.463219  0.992464  1
  Rb  Rb3  1  0.196701  0.530571  0.323937  1
  Rb  Rb4  1  0.106573  0.114643  0.340769  1
  Rb  Rb5  1  0.190201  0.186285  0.668260  1
  O  O6  1  0.646696  0.315752  0.332916  1
  O  O7  1  0.676479  0.011645  0.665840  1
  O  O8  1  0.637346  0.639786  -0.000065  1
