# generated using pymatgen
data_Li3Bi2(PO4)3
_symmetry_space_group_name_H-M   'P 1'
_cell_length_a   8.81363645
_cell_length_b   9.44990204
_cell_length_c   12.85301114
_cell_angle_alpha   90.00000017
_cell_angle_beta   81.95434242
_cell_angle_gamma   89.99999870
_symmetry_Int_Tables_number   1
_chemical_formula_structural   Li3Bi2(PO4)3
_chemical_formula_sum   'Li12 Bi8 P12 O48'
_cell_volume   1059.96449906
_cell_formula_units_Z   4
loop_
 _symmetry_equiv_pos_site_id
 _symmetry_equiv_pos_as_xyz
  1  'x, y, z'
loop_
 _atom_site_type_symbol
 _atom_site_label
 _atom_site_symmetry_multiplicity
 _atom_site_fract_x
 _atom_site_fract_y
 _atom_site_fract_z
 _atom_site_occupancy
  Li  Li0  1  0.720256  0.184083  0.942910  1
  Li  Li1  1  0.500000  0.609704  0.750000  1
  Li  Li2  1  0.279744  0.184083  0.557090  1
  Li  Li3  1  0.500000  0.500000  0.500000  1
  Li  Li4  1  0.000000  0.000000  0.500000  1
  Li  Li5  1  0.720256  0.815917  0.442910  1
  Li  Li6  1  1.000000  0.888368  0.750000  1
  Li  Li7  1  0.500000  0.390296  0.250000  1
  Li  Li8  1  0.000000  0.111632  0.250000  1
  Li  Li9  1  0.000000  0.000000  0.000000  1
  Li  Li10  1  0.500000  0.500000  0.000000  1
  Li  Li11  1  0.279744  0.815917  0.057090  1
  Bi  Bi12  1  0.809376  0.504943  0.838936  1
  Bi  Bi13  1  0.685962  0.002664  0.659994  1
  Bi  Bi14  1  0.314038  0.002664  0.840006  1
  Bi  Bi15  1  0.190624  0.504943  0.661064  1
  Bi  Bi16  1  0.685962  0.997336  0.159994  1
  Bi  Bi17  1  0.314038  0.997336  0.340006  1
  Bi  Bi18  1  0.809376  0.495057  0.338936  1
  Bi  Bi19  1  0.190624  0.495057  0.161064  1
  P  P20  1  0.500000  0.331275  0.750000  1
  P  P21  1  0.677581  0.835579  0.917502  1
  P  P22  1  0.814330  0.661505  0.590145  1
  P  P23  1  1.000000  0.161663  0.750000  1
  P  P24  1  0.677581  0.164421  0.417502  1
  P  P25  1  0.185670  0.661505  0.909855  1
  P  P26  1  0.322419  0.835579  0.582498  1
  P  P27  1  0.814330  0.338495  0.090145  1
  P  P28  1  0.185670  0.338495  0.409855  1
  P  P29  1  0.322419  0.164421  0.082498  1
  P  P30  1  0.500000  0.668725  0.250000  1
  P  P31  1  0.000000  0.838337  0.250000  1
  O  O32  1  0.873830  0.247784  0.815827  1
  O  O33  1  0.029537  0.595642  0.901109  1
  O  O34  1  0.934512  0.058588  0.669671  1
  O  O35  1  0.559622  0.432895  0.833588  1
  O  O36  1  0.370494  0.241470  0.808210  1
  O  O37  1  0.679097  0.671943  0.936779  1
  O  O38  1  0.763834  0.919015  0.998033  1
  O  O39  1  0.629506  0.241470  0.691790  1
  O  O40  1  0.065488  0.058588  0.830329  1
  O  O41  1  0.763834  0.080985  0.498033  1
  O  O42  1  0.265588  0.605190  0.004493  1
  O  O43  1  0.704087  0.636721  0.691730  1
  O  O44  1  0.029537  0.404358  0.401109  1
  O  O45  1  0.507196  0.879413  0.928901  1
  O  O46  1  0.770505  0.874581  0.810340  1
  O  O47  1  0.440378  0.432895  0.666412  1
  O  O48  1  0.770505  0.125419  0.310340  1
  O  O49  1  0.295913  0.636721  0.808270  1
  O  O50  1  0.834422  0.825394  0.566613  1
  O  O51  1  0.734412  0.605190  0.495507  1
  O  O52  1  0.126170  0.247784  0.684173  1
  O  O53  1  0.507196  0.120587  0.428901  1
  O  O54  1  0.679097  0.328057  0.436779  1
  O  O55  1  0.165578  0.825394  0.933387  1
  O  O56  1  0.320903  0.671943  0.563221  1
  O  O57  1  0.834422  0.174606  0.066613  1
  O  O58  1  0.873830  0.752216  0.315827  1
  O  O59  1  0.492804  0.879413  0.571099  1
  O  O60  1  0.165578  0.174606  0.433387  1
  O  O61  1  0.265588  0.394810  0.504493  1
  O  O62  1  0.229495  0.874581  0.689660  1
  O  O63  1  0.704087  0.363279  0.191730  1
  O  O64  1  0.559622  0.567105  0.333588  1
  O  O65  1  0.229495  0.125419  0.189660  1
  O  O66  1  0.970463  0.595642  0.598891  1
  O  O67  1  0.492804  0.120587  0.071099  1
  O  O68  1  0.295913  0.363279  0.308270  1
  O  O69  1  0.734412  0.394810  0.995507  1
  O  O70  1  0.236166  0.919015  0.501967  1
  O  O71  1  0.934512  0.941412  0.169671  1
  O  O72  1  0.370494  0.758530  0.308210  1
  O  O73  1  0.320903  0.328057  0.063221  1
  O  O74  1  0.236166  0.080985  0.001967  1
  O  O75  1  0.629506  0.758530  0.191790  1
  O  O76  1  0.440378  0.567105  0.166412  1
  O  O77  1  0.065488  0.941412  0.330329  1
  O  O78  1  0.970463  0.404358  0.098891  1
  O  O79  1  0.126170  0.752216  0.184173  1
