# generated using pymatgen
data_Na2Ge2O5
_symmetry_space_group_name_H-M   'P 1'
_cell_length_a   8.80145456
_cell_length_b   12.46260743
_cell_length_c   5.04140414
_cell_angle_alpha   90.00000000
_cell_angle_beta   90.51984775
_cell_angle_gamma   90.00000000
_symmetry_Int_Tables_number   1
_chemical_formula_structural   Na2Ge2O5
_chemical_formula_sum   'Na8 Ge8 O20'
_cell_volume   552.96418536
_cell_formula_units_Z   4
loop_
 _symmetry_equiv_pos_site_id
 _symmetry_equiv_pos_as_xyz
  1  'x, y, z'
loop_
 _atom_site_type_symbol
 _atom_site_label
 _atom_site_symmetry_multiplicity
 _atom_site_fract_x
 _atom_site_fract_y
 _atom_site_fract_z
 _atom_site_occupancy
  Na  Na0  1  0.120183  0.962941  0.225878  1
  Na  Na1  1  0.129604  0.502493  0.737661  1
  Na  Na2  1  0.370396  0.002493  0.762339  1
  Na  Na3  1  0.379817  0.462941  0.274122  1
  Na  Na4  1  0.620183  0.537059  0.725878  1
  Na  Na5  1  0.629604  0.997507  0.237661  1
  Na  Na6  1  0.870396  0.497507  0.262339  1
  Na  Na7  1  0.879817  0.037059  0.774122  1
  Ge  Ge8  1  0.052549  0.804811  0.693824  1
  Ge  Ge9  1  0.175292  0.676002  0.196375  1
  Ge  Ge10  1  0.324708  0.176002  0.303625  1
  Ge  Ge11  1  0.447451  0.304811  0.806176  1
  Ge  Ge12  1  0.552549  0.695189  0.193824  1
  Ge  Ge13  1  0.675292  0.823998  0.696375  1
  Ge  Ge14  1  0.824708  0.323998  0.803625  1
  Ge  Ge15  1  0.947451  0.195189  0.306176  1
  O  O16  1  0.062819  0.780271  0.341587  1
  O  O17  1  0.115052  0.933775  0.755970  1
  O  O18  1  0.133536  0.543834  0.264826  1
  O  O19  1  0.150052  0.693634  0.843333  1
  O  O20  1  0.138599  0.216808  0.209682  1
  O  O21  1  0.349948  0.193634  0.656667  1
  O  O22  1  0.361401  0.716808  0.290318  1
  O  O23  1  0.366464  0.043834  0.235174  1
  O  O24  1  0.384948  0.433775  0.744030  1
  O  O25  1  0.437181  0.280271  0.158413  1
  O  O26  1  0.562819  0.719729  0.841587  1
  O  O27  1  0.615052  0.566225  0.255970  1
  O  O28  1  0.633536  0.956166  0.764826  1
  O  O29  1  0.638599  0.283192  0.709682  1
  O  O30  1  0.650052  0.806366  0.343333  1
  O  O31  1  0.861401  0.783192  0.790318  1
  O  O32  1  0.849948  0.306366  0.156667  1
  O  O33  1  0.866464  0.456166  0.735174  1
  O  O34  1  0.884948  0.066225  0.244030  1
  O  O35  1  0.937181  0.219729  0.658413  1
