# generated using pymatgen
data_Fe4O5F3
_symmetry_space_group_name_H-M   'P 1'
_cell_length_a   4.69851692
_cell_length_b   7.69933005
_cell_length_c   7.70600774
_cell_angle_alpha   75.24109733
_cell_angle_beta   91.20723249
_cell_angle_gamma   89.13960919
_symmetry_Int_Tables_number   1
_chemical_formula_structural   Fe4O5F3
_chemical_formula_sum   'Fe8 O10 F6'
_cell_volume   269.45084514
_cell_formula_units_Z   2
loop_
 _symmetry_equiv_pos_site_id
 _symmetry_equiv_pos_as_xyz
  1  'x, y, z'
loop_
 _atom_site_type_symbol
 _atom_site_label
 _atom_site_symmetry_multiplicity
 _atom_site_fract_x
 _atom_site_fract_y
 _atom_site_fract_z
 _atom_site_occupancy
  Fe  Fe0  1  0.503465  0.408101  0.858263  1
  Fe  Fe1  1  0.492194  0.122350  0.628582  1
  Fe  Fe2  1  0.548193  0.866627  0.366956  1
  Fe  Fe3  1  0.492281  0.620362  0.129059  1
  Fe  Fe4  1  0.004348  0.763388  0.741844  1
  Fe  Fe5  1  0.976058  0.478441  0.517418  1
  Fe  Fe6  1  0.940473  0.244342  0.254580  1
  Fe  Fe7  1  0.037410  0.994407  0.006854  1
  O  O8  1  0.791492  0.265225  0.481283  1
  O  O9  1  0.812896  0.544389  0.720642  1
  O  O10  1  0.818631  0.022323  0.213591  1
  O  O11  1  0.695292  0.906963  0.595975  1
  O  O12  1  0.698641  0.635799  0.341368  1
  O  O13  1  0.678513  0.411772  0.095124  1
  O  O14  1  0.295772  0.611261  0.908468  1
  O  O15  1  0.307587  0.344191  0.657561  1
  O  O16  1  0.316958  0.834544  0.153950  1
  O  O17  1  0.195552  0.977176  0.775668  1
  F  F18  1  0.801991  0.786707  0.969084  1
  F  F19  1  0.704242  0.157287  0.856195  1
  F  F20  1  0.300956  0.096198  0.392995  1
  F  F21  1  0.196918  0.228762  0.029475  1
  F  F22  1  0.203849  0.722899  0.520797  1
  F  F23  1  0.186288  0.456485  0.284275  1
