# generated using pymatgen
data_Sb2(SO4)3
_symmetry_space_group_name_H-M   'P 1'
_cell_length_a   8.90087029
_cell_length_b   9.59807779
_cell_length_c   8.90086984
_cell_angle_alpha   117.62481436
_cell_angle_beta   59.99999834
_cell_angle_gamma   117.62481680
_symmetry_Int_Tables_number   1
_chemical_formula_structural   Sb2(SO4)3
_chemical_formula_sum   'Sb4 S6 O24'
_cell_volume   556.19424288
_cell_formula_units_Z   2
loop_
 _symmetry_equiv_pos_site_id
 _symmetry_equiv_pos_as_xyz
  1  'x, y, z'
loop_
 _atom_site_type_symbol
 _atom_site_label
 _atom_site_symmetry_multiplicity
 _atom_site_fract_x
 _atom_site_fract_y
 _atom_site_fract_z
 _atom_site_occupancy
  Sb  Sb0  1  0.142819  0.428455  0.142819  1
  Sb  Sb1  1  0.347615  0.042843  0.347615  1
  Sb  Sb2  1  0.652385  0.957157  0.652385  1
  Sb  Sb3  1  0.857181  0.571545  0.857181  1
  S  S4  1  0.040520  0.247474  0.455942  1
  S  S5  1  0.544058  0.752526  0.248988  1
  S  S6  1  0.248988  0.752526  0.959480  1
  S  S7  1  0.751012  0.247474  0.040520  1
  S  S8  1  0.455942  0.247474  0.751012  1
  S  S9  1  0.959480  0.752526  0.544058  1
  O  O10  1  0.207799  0.881004  0.141247  1
  O  O11  1  0.141247  0.881004  0.531960  1
  O  O12  1  0.017761  0.410056  0.590144  1
  O  O13  1  0.135343  0.262213  0.267145  1
  O  O14  1  0.531960  0.881004  0.207799  1
  O  O15  1  0.140275  0.737787  0.864657  1
  O  O16  1  0.409856  0.589944  0.197850  1
  O  O17  1  0.151603  0.199312  0.494080  1
  O  O18  1  0.505920  0.800688  0.446371  1
  O  O19  1  0.197850  0.589944  0.982239  1
  O  O20  1  0.732855  0.737787  0.140275  1
  O  O21  1  0.446371  0.800688  0.848397  1
  O  O22  1  0.553629  0.199312  0.151603  1
  O  O23  1  0.267145  0.262213  0.859725  1
  O  O24  1  0.802150  0.410056  0.017761  1
  O  O25  1  0.494080  0.199312  0.553629  1
  O  O26  1  0.848397  0.800688  0.505920  1
  O  O27  1  0.590144  0.410056  0.802150  1
  O  O28  1  0.859725  0.262213  0.135343  1
  O  O29  1  0.468040  0.118996  0.792201  1
  O  O30  1  0.864657  0.737787  0.732855  1
  O  O31  1  0.982239  0.589944  0.409856  1
  O  O32  1  0.858753  0.118996  0.468040  1
  O  O33  1  0.792201  0.118996  0.858753  1
