# generated using pymatgen
data_Li4V2SiO8
_symmetry_space_group_name_H-M   'P 1'
_cell_length_a   8.27910168
_cell_length_b   10.93360325
_cell_length_c   8.27377000
_cell_angle_alpha   90.00000000
_cell_angle_beta   103.09791044
_cell_angle_gamma   90.00000000
_symmetry_Int_Tables_number   1
_chemical_formula_structural   Li4V2SiO8
_chemical_formula_sum   'Li16 V8 Si4 O32'
_cell_volume   729.46069682
_cell_formula_units_Z   4
loop_
 _symmetry_equiv_pos_site_id
 _symmetry_equiv_pos_as_xyz
  1  'x, y, z'
loop_
 _atom_site_type_symbol
 _atom_site_label
 _atom_site_symmetry_multiplicity
 _atom_site_fract_x
 _atom_site_fract_y
 _atom_site_fract_z
 _atom_site_occupancy
  Li  Li0  1  0.096312  0.668864  0.600500  1
  Li  Li1  1  0.162510  0.166262  0.662921  1
  Li  Li2  1  0.157280  0.336774  0.143351  1
  Li  Li3  1  0.218997  0.421621  0.464755  1
  Li  Li4  1  0.281003  0.921621  0.535245  1
  Li  Li5  1  0.342720  0.836774  0.856649  1
  Li  Li6  1  0.337490  0.666262  0.337079  1
  Li  Li7  1  0.403688  0.168864  0.399500  1
  Li  Li8  1  0.596312  0.831136  0.600500  1
  Li  Li9  1  0.662510  0.333738  0.662921  1
  Li  Li10  1  0.657280  0.163226  0.143351  1
  Li  Li11  1  0.718997  0.078379  0.464755  1
  Li  Li12  1  0.781003  0.578379  0.535245  1
  Li  Li13  1  0.842720  0.663226  0.856649  1
  Li  Li14  1  0.837490  0.833738  0.337079  1
  Li  Li15  1  0.903688  0.331136  0.399500  1
  V  V16  1  0.041865  0.410670  0.764368  1
  V  V17  1  0.030957  0.086950  0.287804  1
  V  V18  1  0.469043  0.586950  0.712196  1
  V  V19  1  0.541865  0.089330  0.764368  1
  V  V20  1  0.458135  0.910670  0.235632  1
  V  V21  1  0.530957  0.413050  0.287804  1
  V  V22  1  0.969043  0.913050  0.712196  1
  V  V23  1  0.958135  0.589330  0.235632  1
  Si  Si24  1  0.086250  0.834127  0.089731  1
  Si  Si25  1  0.413751  0.334127  0.910269  1
  Si  Si26  1  0.586248  0.665873  0.089731  1
  Si  Si27  1  0.913752  0.165873  0.910269  1
  O  O28  1  0.991413  0.081351  0.779357  1
  O  O29  1  0.090673  0.333883  0.596823  1
  O  O30  1  0.236252  0.385792  0.942132  1
  O  O31  1  0.020502  0.436881  0.258141  1
  O  O32  1  0.142454  0.842814  0.664893  1
  O  O33  1  0.048605  0.172810  0.091209  1
  O  O34  1  0.116873  0.695301  0.168998  1
  O  O35  1  0.207948  0.088487  0.454472  1
  O  O36  1  0.292052  0.588487  0.545528  1
  O  O37  1  0.383127  0.195301  0.831002  1
  O  O38  1  0.451395  0.672810  0.908791  1
  O  O39  1  0.357546  0.342814  0.335107  1
  O  O40  1  0.479498  0.936881  0.741859  1
  O  O41  1  0.263748  0.885792  0.057868  1
  O  O42  1  0.491413  0.418649  0.779357  1
  O  O43  1  0.409327  0.833883  0.403177  1
  O  O44  1  0.590673  0.166117  0.596823  1
  O  O45  1  0.508587  0.581351  0.220643  1
  O  O46  1  0.736252  0.114208  0.942132  1
  O  O47  1  0.520502  0.063119  0.258141  1
  O  O48  1  0.642454  0.657186  0.664893  1
  O  O49  1  0.548605  0.327190  0.091209  1
  O  O50  1  0.616873  0.804699  0.168998  1
  O  O51  1  0.707948  0.411513  0.454472  1
  O  O52  1  0.792052  0.911513  0.545528  1
  O  O53  1  0.883127  0.304699  0.831002  1
  O  O54  1  0.951395  0.827190  0.908791  1
  O  O55  1  0.857546  0.157186  0.335107  1
  O  O56  1  0.979498  0.563119  0.741859  1
  O  O57  1  0.763748  0.614208  0.057868  1
  O  O58  1  0.909327  0.666117  0.403177  1
  O  O59  1  0.008587  0.918649  0.220643  1
