# generated using pymatgen
data_Li7V2P7O24
_symmetry_space_group_name_H-M   'P 1'
_cell_length_a   15.18928999
_cell_length_b   5.20355253
_cell_length_c   11.73612768
_cell_angle_alpha   90.00000000
_cell_angle_beta   96.79480653
_cell_angle_gamma   90.00000000
_symmetry_Int_Tables_number   1
_chemical_formula_structural   Li7V2P7O24
_chemical_formula_sum   'Li14 V4 P14 O48'
_cell_volume   921.08794323
_cell_formula_units_Z   2
loop_
 _symmetry_equiv_pos_site_id
 _symmetry_equiv_pos_as_xyz
  1  'x, y, z'
loop_
 _atom_site_type_symbol
 _atom_site_label
 _atom_site_symmetry_multiplicity
 _atom_site_fract_x
 _atom_site_fract_y
 _atom_site_fract_z
 _atom_site_occupancy
  Li  Li0  1  0.049663  0.739618  0.516260  1
  Li  Li1  1  0.135584  0.791881  0.883532  1
  Li  Li2  1  0.049663  0.260382  0.016260  1
  Li  Li3  1  0.135584  0.208119  0.383532  1
  Li  Li4  1  0.408729  0.158161  0.562747  1
  Li  Li5  1  0.408729  0.841839  0.062747  1
  Li  Li6  1  0.500000  0.711643  0.750000  1
  Li  Li7  1  0.500000  0.288357  0.250000  1
  Li  Li8  1  0.591271  0.158161  0.937253  1
  Li  Li9  1  0.591271  0.841839  0.437253  1
  Li  Li10  1  0.864416  0.791881  0.616468  1
  Li  Li11  1  0.950337  0.739618  0.983740  1
  Li  Li12  1  0.864416  0.208119  0.116468  1
  Li  Li13  1  0.950337  0.260382  0.483740  1
  V  V14  1  0.278520  0.637526  0.689133  1
  V  V15  1  0.278520  0.362474  0.189133  1
  V  V16  1  0.721480  0.637526  0.810867  1
  V  V17  1  0.721480  0.362474  0.310867  1
  P  P18  1  0.000000  0.431994  0.750000  1
  P  P19  1  0.000000  0.568006  0.250000  1
  P  P20  1  0.140723  0.124027  0.657867  1
  P  P21  1  0.140723  0.875973  0.157867  1
  P  P22  1  0.278382  0.388820  0.952421  1
  P  P23  1  0.278382  0.611180  0.452421  1
  P  P24  1  0.391609  0.150101  0.803480  1
  P  P25  1  0.391609  0.849899  0.303480  1
  P  P26  1  0.608391  0.150101  0.696520  1
  P  P27  1  0.608391  0.849899  0.196520  1
  P  P28  1  0.721618  0.388820  0.547579  1
  P  P29  1  0.721618  0.611180  0.047579  1
  P  P30  1  0.859277  0.124027  0.842133  1
  P  P31  1  0.859277  0.875973  0.342133  1
  O  O32  1  0.014973  0.576632  0.862506  1
  O  O33  1  0.014973  0.423368  0.362506  1
  O  O34  1  0.081991  0.238406  0.755529  1
  O  O35  1  0.080169  0.106512  0.544581  1
  O  O36  1  0.081991  0.761594  0.255529  1
  O  O37  1  0.080169  0.893488  0.044581  1
  O  O38  1  0.167886  0.865606  0.715137  1
  O  O39  1  0.203669  0.283726  0.015589  1
  O  O40  1  0.217435  0.302925  0.652339  1
  O  O41  1  0.167886  0.134394  0.215137  1
  O  O42  1  0.203669  0.716274  0.515589  1
  O  O43  1  0.249424  0.591613  0.861460  1
  O  O44  1  0.217435  0.697075  0.152339  1
  O  O45  1  0.249424  0.408387  0.361460  1
  O  O46  1  0.314525  0.140103  0.889564  1
  O  O47  1  0.314525  0.859897  0.389564  1
  O  O48  1  0.359673  0.967699  0.703221  1
  O  O49  1  0.351721  0.520361  0.545833  1
  O  O50  1  0.396488  0.434610  0.765088  1
  O  O51  1  0.359673  0.032301  0.203221  1
  O  O52  1  0.351721  0.479639  0.045833  1
  O  O53  1  0.396488  0.565390  0.265088  1
  O  O54  1  0.474286  0.047075  0.873171  1
  O  O55  1  0.474286  0.952925  0.373171  1
  O  O56  1  0.525714  0.047075  0.626829  1
  O  O57  1  0.525714  0.952925  0.126829  1
  O  O58  1  0.603512  0.434610  0.734912  1
  O  O59  1  0.648279  0.520361  0.954167  1
  O  O60  1  0.640327  0.967699  0.796779  1
  O  O61  1  0.603512  0.565390  0.234912  1
  O  O62  1  0.648279  0.479639  0.454167  1
  O  O63  1  0.640327  0.032301  0.296779  1
  O  O64  1  0.685475  0.140103  0.610436  1
  O  O65  1  0.685475  0.859897  0.110436  1
  O  O66  1  0.750576  0.591613  0.638540  1
  O  O67  1  0.782565  0.302925  0.847661  1
  O  O68  1  0.750576  0.408387  0.138540  1
  O  O69  1  0.796331  0.283726  0.484411  1
  O  O70  1  0.832114  0.865606  0.784863  1
  O  O71  1  0.782565  0.697075  0.347661  1
  O  O72  1  0.796331  0.716274  0.984411  1
  O  O73  1  0.832114  0.134394  0.284863  1
  O  O74  1  0.919831  0.106512  0.955419  1
  O  O75  1  0.918009  0.238406  0.744471  1
  O  O76  1  0.919831  0.893488  0.455419  1
  O  O77  1  0.918009  0.761594  0.244471  1
  O  O78  1  0.985027  0.576632  0.637494  1
  O  O79  1  0.985027  0.423368  0.137494  1
