# generated using pymatgen
data_Mn6O5F7
_symmetry_space_group_name_H-M   'P 1'
_cell_length_a   4.73795412
_cell_length_b   5.75561918
_cell_length_c   15.57763996
_cell_angle_alpha   90.44715229
_cell_angle_beta   89.34592003
_cell_angle_gamma   93.24870559
_symmetry_Int_Tables_number   1
_chemical_formula_structural   Mn6O5F7
_chemical_formula_sum   'Mn12 O10 F14'
_cell_volume   424.07884581
_cell_formula_units_Z   2
loop_
 _symmetry_equiv_pos_site_id
 _symmetry_equiv_pos_as_xyz
  1  'x, y, z'
loop_
 _atom_site_type_symbol
 _atom_site_label
 _atom_site_symmetry_multiplicity
 _atom_site_fract_x
 _atom_site_fract_y
 _atom_site_fract_z
 _atom_site_occupancy
  Mn  Mn0  1  0.042931  0.155096  0.413932  1
  Mn  Mn1  1  0.978132  0.845908  0.248811  1
  Mn  Mn2  1  0.028892  0.165434  0.079669  1
  Mn  Mn3  1  0.995153  0.188744  0.746132  1
  Mn  Mn4  1  0.020963  0.863148  0.581310  1
  Mn  Mn5  1  0.056572  0.836425  0.920922  1
  Mn  Mn6  1  0.487547  0.336772  0.583928  1
  Mn  Mn7  1  0.477393  0.355040  0.918542  1
  Mn  Mn8  1  0.478057  0.350770  0.247229  1
  Mn  Mn9  1  0.501707  0.638394  0.088472  1
  Mn  Mn10  1  0.463366  0.656461  0.423534  1
  Mn  Mn11  1  0.504338  0.623683  0.749090  1
  O  O12  1  0.215169  0.115125  0.303141  1
  O  O13  1  0.213911  0.121215  0.637003  1
  O  O14  1  0.238198  0.120857  0.974189  1
  O  O15  1  0.223537  0.885721  0.473606  1
  O  O16  1  0.276088  0.381524  0.139073  1
  O  O17  1  0.279349  0.387252  0.476692  1
  O  O18  1  0.282867  0.386832  0.813620  1
  O  O19  1  0.304024  0.608638  0.978283  1
  O  O20  1  0.706988  0.614075  0.195040  1
  O  O21  1  0.696931  0.383578  0.690872  1
  F  F22  1  0.230447  0.884627  0.140544  1
  F  F23  1  0.260692  0.868551  0.800435  1
  F  F24  1  0.233870  0.614521  0.308990  1
  F  F25  1  0.250546  0.615286  0.640405  1
  F  F26  1  0.738805  0.369173  0.018887  1
  F  F27  1  0.708110  0.395979  0.357238  1
  F  F28  1  0.738142  0.621341  0.533678  1
  F  F29  1  0.761796  0.606793  0.865691  1
  F  F30  1  0.774977  0.120151  0.184789  1
  F  F31  1  0.774730  0.130286  0.516063  1
  F  F32  1  0.741597  0.887734  0.363492  1
  F  F33  1  0.778169  0.879786  0.033837  1
  F  F34  1  0.769677  0.112529  0.861404  1
  F  F35  1  0.766327  0.872555  0.691459  1
