# generated using pymatgen
data_LiTi2(PO4)3
_symmetry_space_group_name_H-M   'P 1'
_cell_length_a   8.66075409
_cell_length_b   8.66249545
_cell_length_c   8.71815999
_cell_angle_alpha   59.78720312
_cell_angle_beta   59.78049639
_cell_angle_gamma   59.94734107
_symmetry_Int_Tables_number   1
_chemical_formula_structural   LiTi2(PO4)3
_chemical_formula_sum   'Li2 Ti4 P6 O24'
_cell_volume   460.79729855
_cell_formula_units_Z   2
loop_
 _symmetry_equiv_pos_site_id
 _symmetry_equiv_pos_as_xyz
  1  'x, y, z'
loop_
 _atom_site_type_symbol
 _atom_site_label
 _atom_site_symmetry_multiplicity
 _atom_site_fract_x
 _atom_site_fract_y
 _atom_site_fract_z
 _atom_site_occupancy
  Li  Li0  1  0.447140  0.560684  0.683938  1
  Li  Li1  1  0.052860  0.939316  0.191762  1
  Ti  Ti2  1  0.865578  0.410494  0.864658  1
  Ti  Ti3  1  0.361642  0.916857  0.361570  1
  Ti  Ti4  1  0.634422  0.089506  0.640731  1
  Ti  Ti5  1  0.138358  0.583143  0.140069  1
  P  P6  1  0.750000  0.750000  0.471608  1
  P  P7  1  0.961451  0.247839  0.257425  1
  P  P8  1  0.538549  0.252161  0.966713  1
  P  P9  1  0.468083  0.750748  0.037518  1
  P  P10  1  0.031917  0.749252  0.756348  1
  P  P11  1  0.250000  0.250000  0.534157  1
  O  O12  1  0.871156  0.927952  0.701293  1
  O  O13  1  0.999116  0.568264  0.804505  1
  O  O14  1  0.500884  0.931736  0.871886  1
  O  O15  1  0.795828  0.569955  0.636555  1
  O  O16  1  0.919894  0.752445  0.283726  1
  O  O17  1  0.704172  0.930045  0.502338  1
  O  O18  1  0.628844  0.572048  0.000401  1
  O  O19  1  0.725482  0.246409  0.951583  1
  O  O20  1  0.580106  0.747555  0.456065  1
  O  O21  1  0.942115  0.241931  0.092738  1
  O  O22  1  0.774518  0.253591  0.423474  1
  O  O23  1  0.557885  0.258069  0.776784  1
  O  O24  1  0.445994  0.757184  0.222075  1
  O  O25  1  0.227413  0.744546  0.594490  1
  O  O26  1  0.054006  0.742816  0.925254  1
  O  O27  1  0.418644  0.243859  0.557157  1
  O  O28  1  0.272587  0.755454  0.066450  1
  O  O29  1  0.379352  0.444180  0.982762  1
  O  O30  1  0.294382  0.073136  0.497534  1
  O  O31  1  0.081355  0.256141  0.719660  1
  O  O32  1  0.205618  0.426864  0.365052  1
  O  O33  1  0.487218  0.081545  0.133473  1
  O  O34  1  0.012782  0.418455  0.202236  1
  O  O35  1  0.120648  0.055820  0.306294  1
