# generated using pymatgen
data_Li3MnFeCo(PO4)3
_symmetry_space_group_name_H-M   'P 1'
_cell_length_a   10.46144990
_cell_length_b   6.09222945
_cell_length_c   14.27934143
_cell_angle_alpha   90.00000000
_cell_angle_beta   89.94739895
_cell_angle_gamma   90.00000000
_symmetry_Int_Tables_number   1
_chemical_formula_structural   Li3MnFeCo(PO4)3
_chemical_formula_sum   'Li12 Mn4 Fe4 Co4 P12 O48'
_cell_volume   910.07278235
_cell_formula_units_Z   4
loop_
 _symmetry_equiv_pos_site_id
 _symmetry_equiv_pos_as_xyz
  1  'x, y, z'
loop_
 _atom_site_type_symbol
 _atom_site_label
 _atom_site_symmetry_multiplicity
 _atom_site_fract_x
 _atom_site_fract_y
 _atom_site_fract_z
 _atom_site_occupancy
  Li  Li0  1  0.998190  0.499399  0.667001  1
  Li  Li1  1  0.999066  0.000451  0.999552  1
  Li  Li2  1  0.999066  0.499549  0.999552  1
  Li  Li3  1  0.999160  0.000233  0.333478  1
  Li  Li4  1  0.999160  0.499767  0.333478  1
  Li  Li5  1  0.998190  0.000601  0.667001  1
  Li  Li6  1  0.502042  0.000228  0.500488  1
  Li  Li7  1  0.502042  0.499772  0.500488  1
  Li  Li8  1  0.500560  0.000363  0.166622  1
  Li  Li9  1  0.500560  0.499637  0.166622  1
  Li  Li10  1  0.501425  0.000814  0.833438  1
  Li  Li11  1  0.501425  0.499186  0.833438  1
  Mn  Mn12  1  0.217820  0.750000  0.493442  1
  Mn  Mn13  1  0.218026  0.750000  0.826233  1
  Mn  Mn14  1  0.280648  0.250000  0.326289  1
  Mn  Mn15  1  0.719597  0.750000  0.007444  1
  Fe  Fe16  1  0.219652  0.750000  0.159761  1
  Fe  Fe17  1  0.281612  0.250000  0.659071  1
  Fe  Fe18  1  0.281201  0.250000  0.992679  1
  Fe  Fe19  1  0.720217  0.750000  0.340788  1
  Co  Co20  1  0.720745  0.750000  0.673188  1
  Co  Co21  1  0.779060  0.250000  0.838670  1
  Co  Co22  1  0.778483  0.250000  0.507360  1
  Co  Co23  1  0.779843  0.250000  0.173012  1
  P  P24  1  0.093097  0.250000  0.804893  1
  P  P25  1  0.093324  0.250000  0.138625  1
  P  P26  1  0.091198  0.250000  0.472942  1
  P  P27  1  0.407531  0.750000  0.304604  1
  P  P28  1  0.408509  0.750000  0.640123  1
  P  P29  1  0.405766  0.750000  0.973452  1
  P  P30  1  0.596809  0.250000  0.361299  1
  P  P31  1  0.594773  0.250000  0.028476  1
  P  P32  1  0.596302  0.250000  0.693957  1
  P  P33  1  0.904505  0.750000  0.859515  1
  P  P34  1  0.905411  0.750000  0.194489  1
  P  P35  1  0.903047  0.750000  0.527755  1
  O  O36  1  0.042345  0.750000  0.236101  1
  O  O37  1  0.039605  0.750000  0.569788  1
  O  O38  1  0.040896  0.750000  0.902296  1
  O  O39  1  0.096538  0.250000  0.580227  1
  O  O40  1  0.097760  0.250000  0.912387  1
  O  O41  1  0.095050  0.250000  0.246034  1
  O  O42  1  0.164246  0.047860  0.094717  1
  O  O43  1  0.164246  0.452140  0.094717  1
  O  O44  1  0.161406  0.048534  0.427783  1
  O  O45  1  0.161406  0.451466  0.427783  1
  O  O46  1  0.163495  0.049066  0.759363  1
  O  O47  1  0.163495  0.450934  0.759363  1
  O  O48  1  0.337214  0.547440  0.596552  1
  O  O49  1  0.337214  0.952560  0.596552  1
  O  O50  1  0.336634  0.549819  0.259481  1
  O  O51  1  0.336634  0.950181  0.259481  1
  O  O52  1  0.335054  0.547025  0.930027  1
  O  O53  1  0.335054  0.952975  0.930027  1
  O  O54  1  0.404041  0.750000  0.412036  1
  O  O55  1  0.404008  0.750000  0.080688  1
  O  O56  1  0.405971  0.750000  0.747410  1
  O  O57  1  0.459790  0.250000  0.403195  1
  O  O58  1  0.456732  0.250000  0.068393  1
  O  O59  1  0.459103  0.250000  0.735070  1
  O  O60  1  0.545430  0.750000  0.264634  1
  O  O61  1  0.541944  0.750000  0.930683  1
  O  O62  1  0.545405  0.750000  0.597960  1
  O  O63  1  0.597825  0.250000  0.253598  1
  O  O64  1  0.598868  0.250000  0.920715  1
  O  O65  1  0.598547  0.250000  0.586370  1
  O  O66  1  0.664698  0.049160  0.074103  1
  O  O67  1  0.667382  0.047921  0.405435  1
  O  O68  1  0.667535  0.047128  0.738607  1
  O  O69  1  0.667535  0.452872  0.738607  1
  O  O70  1  0.664698  0.450840  0.074103  1
  O  O71  1  0.667382  0.452079  0.405435  1
  O  O72  1  0.834636  0.545686  0.903066  1
  O  O73  1  0.834636  0.954314  0.903066  1
  O  O74  1  0.834585  0.547055  0.238340  1
  O  O75  1  0.832016  0.547028  0.571946  1
  O  O76  1  0.834585  0.952945  0.238340  1
  O  O77  1  0.832016  0.952972  0.571946  1
  O  O78  1  0.903178  0.750000  0.752039  1
  O  O79  1  0.902288  0.750000  0.420480  1
  O  O80  1  0.905193  0.750000  0.086879  1
  O  O81  1  0.954979  0.250000  0.765211  1
  O  O82  1  0.955223  0.250000  0.096982  1
  O  O83  1  0.953413  0.250000  0.432760  1
