# generated using pymatgen
data_Li2MnVP2(O4F)2
_symmetry_space_group_name_H-M   'P 1'
_cell_length_a   7.98124402
_cell_length_b   6.91230228
_cell_length_c   7.48778393
_cell_angle_alpha   61.91614932
_cell_angle_beta   88.63281938
_cell_angle_gamma   91.62928520
_symmetry_Int_Tables_number   1
_chemical_formula_structural   Li2MnVP2(O4F)2
_chemical_formula_sum   'Li4 Mn2 V2 P4 O16 F4'
_cell_volume   363.98186867
_cell_formula_units_Z   2
loop_
 _symmetry_equiv_pos_site_id
 _symmetry_equiv_pos_as_xyz
  1  'x, y, z'
loop_
 _atom_site_type_symbol
 _atom_site_label
 _atom_site_symmetry_multiplicity
 _atom_site_fract_x
 _atom_site_fract_y
 _atom_site_fract_z
 _atom_site_occupancy
  Li  Li0  1  0.174080  0.556353  0.187715  1
  Li  Li1  1  0.674543  0.057978  0.188245  1
  Li  Li2  1  0.325457  0.942022  0.811755  1
  Li  Li3  1  0.825920  0.443647  0.812285  1
  Mn  Mn4  1  0.500000  0.500000  0.000000  1
  Mn  Mn5  1  0.500000  0.500000  0.500000  1
  V  V6  1  0.000000  0.000000  0.000000  1
  V  V7  1  0.000000  0.000000  0.500000  1
  P  P8  1  0.162611  0.520587  0.761285  1
  P  P9  1  0.659746  0.016759  0.764413  1
  P  P10  1  0.340254  0.983241  0.235587  1
  P  P11  1  0.837389  0.479413  0.238715  1
  O  O12  1  0.232826  0.020282  0.387509  1
  O  O13  1  0.441159  0.196546  0.081523  1
  O  O14  1  0.060488  0.308423  0.912810  1
  O  O15  1  0.017855  0.674568  0.654390  1
  O  O16  1  0.271890  0.480770  0.611474  1
  O  O17  1  0.517437  0.176343  0.661570  1
  O  O18  1  0.232191  0.898542  0.111891  1
  O  O19  1  0.732242  0.391910  0.116379  1
  O  O20  1  0.267758  0.608090  0.883621  1
  O  O21  1  0.767809  0.101458  0.888109  1
  O  O22  1  0.482563  0.823657  0.338430  1
  O  O23  1  0.728110  0.519230  0.388526  1
  O  O24  1  0.982145  0.325432  0.345610  1
  O  O25  1  0.939512  0.691577  0.087190  1
  O  O26  1  0.558841  0.803454  0.918477  1
  O  O27  1  0.767174  0.979718  0.612491  1
  F  F28  1  0.100327  0.027936  0.737861  1
  F  F29  1  0.390583  0.466762  0.262966  1
  F  F30  1  0.609417  0.533238  0.737034  1
  F  F31  1  0.899673  0.972064  0.262139  1
