# generated using pymatgen
data_Re6Pb6O19
_symmetry_space_group_name_H-M   'P 1'
_cell_length_a   9.42844225
_cell_length_b   9.42978735
_cell_length_c   9.43286275
_cell_angle_alpha   90.00000000
_cell_angle_beta   90.00000000
_cell_angle_gamma   90.00000000
_symmetry_Int_Tables_number   1
_chemical_formula_structural   Re6Pb6O19
_chemical_formula_sum   'Re12 Pb12 O38'
_cell_volume   838.65889945
_cell_formula_units_Z   2
loop_
 _symmetry_equiv_pos_site_id
 _symmetry_equiv_pos_as_xyz
  1  'x, y, z'
loop_
 _atom_site_type_symbol
 _atom_site_label
 _atom_site_symmetry_multiplicity
 _atom_site_fract_x
 _atom_site_fract_y
 _atom_site_fract_z
 _atom_site_occupancy
  Re  Re0  1  0.120067  0.750000  0.250000  1
  Re  Re1  1  0.250461  0.119366  0.749380  1
  Re  Re2  1  0.250461  0.380634  0.750620  1
  Re  Re3  1  0.249698  0.749149  0.619538  1
  Re  Re4  1  0.249698  0.750851  0.880462  1
  Re  Re5  1  0.381328  0.750000  0.250000  1
  Re  Re6  1  0.620067  0.250000  0.750000  1
  Re  Re7  1  0.749698  0.249149  0.380462  1
  Re  Re8  1  0.749698  0.250851  0.119538  1
  Re  Re9  1  0.750461  0.619366  0.250620  1
  Re  Re10  1  0.750461  0.880634  0.249380  1
  Re  Re11  1  0.881328  0.250000  0.750000  1
  Pb  Pb12  1  0.102317  0.394768  0.394209  1
  Pb  Pb13  1  0.102317  0.105232  0.105791  1
  Pb  Pb14  1  0.392651  0.102212  0.396006  1
  Pb  Pb15  1  0.392651  0.397788  0.103994  1
  Pb  Pb16  1  0.489684  0.490101  0.490876  1
  Pb  Pb17  1  0.489684  0.009899  0.009124  1
  Pb  Pb18  1  0.602317  0.605232  0.894209  1
  Pb  Pb19  1  0.602317  0.894768  0.605791  1
  Pb  Pb20  1  0.892651  0.602212  0.603994  1
  Pb  Pb21  1  0.892651  0.897788  0.896006  1
  Pb  Pb22  1  0.989684  0.509899  0.990876  1
  Pb  Pb23  1  0.989684  0.990101  0.509124  1
  O  O24  1  0.036991  0.103135  0.750411  1
  O  O25  1  0.036991  0.396865  0.749589  1
  O  O26  1  0.078879  0.750000  0.750000  1
  O  O27  1  0.102975  0.748494  0.462968  1
  O  O28  1  0.102975  0.751506  0.037032  1
  O  O29  1  0.249438  0.963777  0.896576  1
  O  O30  1  0.249438  0.536223  0.603424  1
  O  O31  1  0.249421  0.250000  0.250000  1
  O  O32  1  0.250888  0.920718  0.250173  1
  O  O33  1  0.250888  0.579282  0.249827  1
  O  O34  1  0.251475  0.250988  0.579429  1
  O  O35  1  0.251475  0.249012  0.920571  1
  O  O36  1  0.247285  0.536461  0.899063  1
  O  O37  1  0.247285  0.963539  0.600937  1
  O  O38  1  0.398545  0.753340  0.036040  1
  O  O39  1  0.398545  0.746660  0.463960  1
  O  O40  1  0.419976  0.750000  0.750000  1
  O  O41  1  0.464365  0.100839  0.752790  1
  O  O42  1  0.464365  0.399161  0.747210  1
  O  O43  1  0.536991  0.603135  0.249589  1
  O  O44  1  0.536991  0.896865  0.250411  1
  O  O45  1  0.578879  0.250000  0.250000  1
  O  O46  1  0.602975  0.248494  0.537032  1
  O  O47  1  0.602975  0.251506  0.962968  1
  O  O48  1  0.749437  0.036223  0.396576  1
  O  O49  1  0.749437  0.463777  0.103424  1
  O  O50  1  0.750888  0.079282  0.750173  1
  O  O51  1  0.750888  0.420718  0.749827  1
  O  O52  1  0.751475  0.749012  0.079429  1
  O  O53  1  0.751475  0.750988  0.420571  1
  O  O54  1  0.749421  0.750000  0.750000  1
  O  O55  1  0.747285  0.036461  0.100937  1
  O  O56  1  0.747285  0.463539  0.399063  1
  O  O57  1  0.898545  0.253340  0.963960  1
  O  O58  1  0.898545  0.246660  0.536040  1
  O  O59  1  0.919976  0.250000  0.250000  1
  O  O60  1  0.964365  0.600839  0.247210  1
  O  O61  1  0.964365  0.899161  0.252790  1
