# generated using pymatgen
data_Li4Fe3CoO8
_symmetry_space_group_name_H-M   'P 1'
_cell_length_a   10.33037226
_cell_length_b   10.33014890
_cell_length_c   14.63319746
_cell_angle_alpha   19.20576709
_cell_angle_beta   19.20577041
_cell_angle_gamma   33.10322147
_symmetry_Int_Tables_number   1
_chemical_formula_structural   Li4Fe3CoO8
_chemical_formula_sum   'Li4 Fe3 Co1 O8'
_cell_volume   146.35736043
_cell_formula_units_Z   1
loop_
 _symmetry_equiv_pos_site_id
 _symmetry_equiv_pos_as_xyz
  1  'x, y, z'
loop_
 _atom_site_type_symbol
 _atom_site_label
 _atom_site_symmetry_multiplicity
 _atom_site_fract_x
 _atom_site_fract_y
 _atom_site_fract_z
 _atom_site_occupancy
  Li  Li0  1  1.000000  0.000000  0.499999  1
  Li  Li1  1  1.000000  0.500000  0.499999  1
  Li  Li2  1  0.500001  0.000000  0.499999  1
  Li  Li3  1  0.500001  0.500000  0.499999  1
  Fe  Fe4  1  0.999997  0.499998  0.000004  1
  Fe  Fe5  1  0.499999  0.000002  0.999999  1
  Fe  Fe6  1  0.499995  0.499998  0.000005  1
  Co  Co7  1  0.000000  0.000000  1.000000  1
  O  O8  1  0.000101  0.000088  0.256377  1
  O  O9  1  0.000031  0.514239  0.248601  1
  O  O10  1  0.514263  0.000020  0.248594  1
  O  O11  1  0.999901  0.999912  0.743621  1
  O  O12  1  0.485581  0.485562  0.277366  1
  O  O13  1  0.999972  0.485763  0.751395  1
  O  O14  1  0.485736  0.999981  0.751406  1
  O  O15  1  0.514421  0.514436  0.722634  1
