# generated using pymatgen
data_Li2FeNi3O8
_symmetry_space_group_name_H-M   'P 1'
_cell_length_a   8.11875356
_cell_length_b   8.12358016
_cell_length_c   8.29757513
_cell_angle_alpha   90.30733574
_cell_angle_beta   90.02143994
_cell_angle_gamma   90.05392712
_symmetry_Int_Tables_number   1
_chemical_formula_structural   Li2FeNi3O8
_chemical_formula_sum   'Li8 Fe4 Ni12 O32'
_cell_volume   547.24468317
_cell_formula_units_Z   4
loop_
 _symmetry_equiv_pos_site_id
 _symmetry_equiv_pos_as_xyz
  1  'x, y, z'
loop_
 _atom_site_type_symbol
 _atom_site_label
 _atom_site_symmetry_multiplicity
 _atom_site_fract_x
 _atom_site_fract_y
 _atom_site_fract_z
 _atom_site_occupancy
  Li  Li0  1  0.992717  0.998830  0.997776  1
  Li  Li1  1  0.254144  0.251554  0.253928  1
  Li  Li2  1  0.254384  0.752097  0.757066  1
  Li  Li3  1  0.499620  0.996685  0.497177  1
  Li  Li4  1  0.498800  0.500420  0.995324  1
  Li  Li5  1  0.750744  0.251045  0.747389  1
  Li  Li6  1  0.748343  0.752517  0.253148  1
  Li  Li7  1  0.000515  0.498218  0.497377  1
  Fe  Fe8  1  0.127251  0.874976  0.372960  1
  Fe  Fe9  1  0.382396  0.123052  0.872495  1
  Fe  Fe10  1  0.625737  0.627837  0.622404  1
  Fe  Fe11  1  0.872469  0.377527  0.126675  1
  Ni  Ni12  1  0.117141  0.127285  0.627456  1
  Ni  Ni13  1  0.123323  0.377820  0.870250  1
  Ni  Ni14  1  0.131514  0.624828  0.118536  1
  Ni  Ni15  1  0.372849  0.376480  0.624305  1
  Ni  Ni16  1  0.379346  0.621669  0.368538  1
  Ni  Ni17  1  0.378721  0.871177  0.123107  1
  Ni  Ni18  1  0.624530  0.373055  0.381277  1
  Ni  Ni19  1  0.621234  0.120540  0.133905  1
  Ni  Ni20  1  0.628519  0.872980  0.876492  1
  Ni  Ni21  1  0.868850  0.127244  0.384259  1
  Ni  Ni22  1  0.870987  0.878019  0.623176  1
  Ni  Ni23  1  0.877175  0.625752  0.873323  1
  O  O24  1  0.103186  0.123519  0.397462  1
  O  O25  1  0.104654  0.893648  0.620482  1
  O  O26  1  0.112341  0.610906  0.889409  1
  O  O27  1  0.125545  0.146130  0.855503  1
  O  O28  1  0.126237  0.392282  0.099760  1
  O  O29  1  0.124856  0.358083  0.642589  1
  O  O30  1  0.144972  0.626338  0.347416  1
  O  O31  1  0.143312  0.856186  0.126904  1
  O  O32  1  0.346793  0.129640  0.630257  1
  O  O33  1  0.355452  0.370499  0.851361  1
  O  O34  1  0.362332  0.640733  0.123481  1
  O  O35  1  0.394672  0.620887  0.619455  1
  O  O36  1  0.370719  0.860086  0.350734  1
  O  O37  1  0.392561  0.385424  0.397531  1
  O  O38  1  0.385681  0.103886  0.118737  1
  O  O39  1  0.394059  0.878246  0.897332  1
  O  O40  1  0.622665  0.389282  0.607729  1
  O  O41  1  0.611006  0.604537  0.379972  1
  O  O42  1  0.608527  0.889829  0.122890  1
  O  O43  1  0.624842  0.357070  0.151351  1
  O  O44  1  0.622830  0.109096  0.883195  1
  O  O45  1  0.640511  0.143909  0.382085  1
  O  O46  1  0.640824  0.862965  0.626869  1
  O  O47  1  0.645167  0.634821  0.862679  1
  O  O48  1  0.856349  0.356911  0.373046  1
  O  O49  1  0.860397  0.127959  0.157348  1
  O  O50  1  0.861921  0.861161  0.850552  1
  O  O51  1  0.877777  0.896154  0.396248  1
  O  O52  1  0.861943  0.648327  0.619359  1
  O  O53  1  0.884522  0.111137  0.612863  1
  O  O54  1  0.891998  0.389502  0.883242  1
  O  O55  1  0.900043  0.619379  0.123952  1
