# generated using pymatgen
data_Li4Ti2V3Cu3O16
_symmetry_space_group_name_H-M   'P 1'
_cell_length_a   5.99809724
_cell_length_b   5.82258584
_cell_length_c   9.68570685
_cell_angle_alpha   90.05942601
_cell_angle_beta   86.63674523
_cell_angle_gamma   119.03902678
_symmetry_Int_Tables_number   1
_chemical_formula_structural   Li4Ti2V3Cu3O16
_chemical_formula_sum   'Li4 Ti2 V3 Cu3 O16'
_cell_volume   295.08863641
_cell_formula_units_Z   1
loop_
 _symmetry_equiv_pos_site_id
 _symmetry_equiv_pos_as_xyz
  1  'x, y, z'
loop_
 _atom_site_type_symbol
 _atom_site_label
 _atom_site_symmetry_multiplicity
 _atom_site_fract_x
 _atom_site_fract_y
 _atom_site_fract_z
 _atom_site_occupancy
  Li  Li0  1  0.322731  0.652372  0.910473  1
  Li  Li1  1  0.992240  0.996731  0.996565  1
  Li  Li2  1  0.005692  0.005035  0.485159  1
  Li  Li3  1  0.697882  0.351692  0.401633  1
  Ti  Ti4  1  0.292643  0.644637  0.485663  1
  Ti  Ti5  1  0.663931  0.334260  0.005229  1
  V  V6  1  0.817208  0.656980  0.719274  1
  V  V7  1  0.650652  0.830401  0.235295  1
  V  V8  1  0.803826  0.152594  0.723053  1
  Cu  Cu9  1  0.172333  0.834323  0.204019  1
  Cu  Cu10  1  0.173323  0.338980  0.204662  1
  Cu  Cu11  1  0.333216  0.170627  0.703728  1
  O  O12  1  0.142944  0.813846  0.591428  1
  O  O13  1  0.062543  0.532259  0.345716  1
  O  O14  1  0.364128  0.682227  0.116356  1
  O  O15  1  0.986389  0.993351  0.292511  1
  O  O16  1  0.994058  0.008446  0.803907  1
  O  O17  1  0.151811  0.334063  0.587554  1
  O  O18  1  0.528771  0.983494  0.352035  1
  O  O19  1  0.528478  0.550916  0.352136  1
  O  O20  1  0.322510  0.161894  0.081002  1
  O  O21  1  0.685093  0.852705  0.609322  1
  O  O22  1  0.541804  0.502314  0.838879  1
  O  O23  1  0.532824  0.027061  0.839042  1
  O  O24  1  0.685677  0.330404  0.607540  1
  O  O25  1  0.794685  0.648350  0.091195  1
  O  O26  1  0.959764  0.465744  0.832550  1
  O  O27  1  0.792840  0.144599  0.091916  1
