# generated using pymatgen
data_CsSmHgSe3
_symmetry_space_group_name_H-M   'P 1'
_cell_length_a   4.37051822
_cell_length_b   8.49011428
_cell_length_c   11.31299226
_cell_angle_alpha   90.00000000
_cell_angle_beta   90.00000000
_cell_angle_gamma   104.91517050
_symmetry_Int_Tables_number   1
_chemical_formula_structural   CsSmHgSe3
_chemical_formula_sum   'Cs2 Sm2 Hg2 Se6'
_cell_volume   405.63882849
_cell_formula_units_Z   2
loop_
 _symmetry_equiv_pos_site_id
 _symmetry_equiv_pos_as_xyz
  1  'x, y, z'
loop_
 _atom_site_type_symbol
 _atom_site_label
 _atom_site_symmetry_multiplicity
 _atom_site_fract_x
 _atom_site_fract_y
 _atom_site_fract_z
 _atom_site_occupancy
  Se  Se0  1  0.938510  0.877020  0.250000  1
  Se  Se1  1  0.061490  0.122980  0.750000  1
  Se  Se2  1  0.380282  0.760564  0.544812  1
  Se  Se3  1  0.380282  0.760564  0.955188  1
  Se  Se4  1  0.619718  0.239436  0.044812  1
  Se  Se5  1  0.619718  0.239436  0.455188  1
  Cs  Cs6  1  0.255297  0.510594  0.250000  1
  Cs  Cs7  1  0.744703  0.489406  0.750000  1
  Sm  Sm8  1  0.000000  0.000000  0.500000  1
  Sm  Sm9  1  0.000000  0.000000  0.000000  1
  Hg  Hg10  1  0.456670  0.913339  0.750000  1
  Hg  Hg11  1  0.543330  0.086661  0.250000  1
