# generated using pymatgen
data_PCl3O
_symmetry_space_group_name_H-M   'P 1'
_cell_length_a   12.10426859
_cell_length_b   9.50472474
_cell_length_c   5.96923863
_cell_angle_alpha   90.00000000
_cell_angle_beta   90.00000000
_cell_angle_gamma   90.00000000
_symmetry_Int_Tables_number   1
_chemical_formula_structural   PCl3O
_chemical_formula_sum   'P4 Cl12 O4'
_cell_volume   686.74742063
_cell_formula_units_Z   4
loop_
 _symmetry_equiv_pos_site_id
 _symmetry_equiv_pos_as_xyz
  1  'x, y, z'
loop_
 _atom_site_type_symbol
 _atom_site_label
 _atom_site_symmetry_multiplicity
 _atom_site_fract_x
 _atom_site_fract_y
 _atom_site_fract_z
 _atom_site_occupancy
  P  P0  1  0.179279  0.759309  0.868040  1
  P  P1  1  0.320721  0.259309  0.368040  1
  P  P2  1  0.679279  0.740691  0.868040  1
  P  P3  1  0.820721  0.240691  0.368040  1
  Cl  Cl4  1  0.057319  0.750230  0.095583  1
  Cl  Cl5  1  0.137213  0.923313  0.672864  1
  Cl  Cl6  1  0.153932  0.589492  0.674506  1
  Cl  Cl7  1  0.346068  0.089492  0.174506  1
  Cl  Cl8  1  0.362787  0.423313  0.172864  1
  Cl  Cl9  1  0.442681  0.250230  0.595583  1
  Cl  Cl10  1  0.557319  0.749770  0.095583  1
  Cl  Cl11  1  0.637213  0.576687  0.672864  1
  Cl  Cl12  1  0.653932  0.910508  0.674506  1
  Cl  Cl13  1  0.846068  0.410508  0.174506  1
  Cl  Cl14  1  0.862787  0.076687  0.172864  1
  Cl  Cl15  1  0.942681  0.249770  0.595583  1
  O  O16  1  0.208684  0.268792  0.462976  1
  O  O17  1  0.291316  0.768792  0.962977  1
  O  O18  1  0.708684  0.231208  0.462976  1
  O  O19  1  0.791316  0.731208  0.962977  1
