# generated using pymatgen
data_Li6ScFe5(SiO3)12
_symmetry_space_group_name_H-M   'P 1'
_cell_length_a   6.60866798
_cell_length_b   11.05702122
_cell_length_c   9.52815384
_cell_angle_alpha   77.32023261
_cell_angle_beta   102.79413199
_cell_angle_gamma   100.69708379
_symmetry_Int_Tables_number   1
_chemical_formula_structural   Li6ScFe5(SiO3)12
_chemical_formula_sum   'Li6 Sc1 Fe5 Si12 O36'
_cell_volume   655.49383412
_cell_formula_units_Z   1
loop_
 _symmetry_equiv_pos_site_id
 _symmetry_equiv_pos_as_xyz
  1  'x, y, z'
loop_
 _atom_site_type_symbol
 _atom_site_label
 _atom_site_symmetry_multiplicity
 _atom_site_fract_x
 _atom_site_fract_y
 _atom_site_fract_z
 _atom_site_occupancy
  Li  Li0  1  0.743539  0.335284  0.079220  1
  Li  Li1  1  0.742845  0.668435  0.410607  1
  Li  Li2  1  0.256618  0.997857  0.254699  1
  Li  Li3  1  0.742694  0.003194  0.746264  1
  Li  Li4  1  0.256627  0.330999  0.587497  1
  Li  Li5  1  0.258999  0.663748  0.922564  1
  Sc  Sc6  1  0.899831  0.783584  0.682833  1
  Fe  Fe7  1  0.896941  0.117942  0.014591  1
  Fe  Fe8  1  0.896691  0.450592  0.348518  1
  Fe  Fe9  1  0.103159  0.216021  0.318404  1
  Fe  Fe10  1  0.103378  0.547149  0.651755  1
  Fe  Fe11  1  0.104398  0.883273  0.987028  1
  Si  Si12  1  0.793010  0.615611  0.003142  1
  Si  Si13  1  0.613864  0.842403  0.048106  1
  Si  Si14  1  0.792357  0.950500  0.331674  1
  Si  Si15  1  0.614737  0.175643  0.382482  1
  Si  Si16  1  0.385098  0.491012  0.283975  1
  Si  Si17  1  0.792626  0.282377  0.668413  1
  Si  Si18  1  0.207095  0.717093  0.332100  1
  Si  Si19  1  0.613946  0.506851  0.716040  1
  Si  Si20  1  0.383733  0.824814  0.617252  1
  Si  Si21  1  0.207837  0.052625  0.665706  1
  Si  Si22  1  0.385992  0.158151  0.950734  1
  Si  Si23  1  0.206810  0.383852  0.998415  1
  O  O24  1  0.887535  0.514250  0.141360  1
  O  O25  1  0.643446  0.696917  0.051325  1
  O  O26  1  0.968869  0.050781  0.249356  1
  O  O27  1  0.625161  0.146769  0.035669  1
  O  O28  1  0.643231  0.864311  0.216941  1
  O  O29  1  0.797546  0.273204  0.303936  1
  O  O30  1  0.889930  0.850223  0.468328  1
  O  O31  1  0.353654  0.470263  0.114244  1
  O  O32  1  0.968906  0.381849  0.585138  1
  O  O33  1  0.624563  0.479821  0.368159  1
  O  O34  1  0.203411  0.060618  0.029635  1
  O  O35  1  0.355821  0.636151  0.282394  1
  O  O36  1  0.644504  0.030745  0.383673  1
  O  O37  1  0.795292  0.601734  0.634977  1
  O  O38  1  0.111765  0.818152  0.193701  1
  O  O39  1  0.375148  0.186784  0.298151  1
  O  O40  1  0.030626  0.284256  0.081568  1
  O  O41  1  0.353920  0.803542  0.447778  1
  O  O42  1  0.646058  0.196107  0.552220  1
  O  O43  1  0.972158  0.714971  0.923764  1
  O  O44  1  0.620622  0.814882  0.703787  1
  O  O45  1  0.888918  0.182253  0.807411  1
  O  O46  1  0.202281  0.393533  0.362727  1
  O  O47  1  0.351252  0.969768  0.614294  1
  O  O48  1  0.642735  0.361538  0.718929  1
  O  O49  1  0.797777  0.939904  0.970555  1
  O  O50  1  0.374806  0.518540  0.631418  1
  O  O51  1  0.030821  0.617121  0.414930  1
  O  O52  1  0.647395  0.530547  0.885048  1
  O  O53  1  0.111678  0.152395  0.525965  1
  O  O54  1  0.205445  0.724421  0.696355  1
  O  O55  1  0.357152  0.138559  0.780877  1
  O  O56  1  0.374390  0.853218  0.963773  1
  O  O57  1  0.033141  0.955432  0.750976  1
  O  O58  1  0.355916  0.303110  0.949032  1
  O  O59  1  0.111304  0.484316  0.859588  1
