# generated using pymatgen
data_NbOF3
_symmetry_space_group_name_H-M   'P 1'
_cell_length_a   5.58613344
_cell_length_b   5.51524807
_cell_length_c   9.63139387
_cell_angle_alpha   90.00000000
_cell_angle_beta   90.00000000
_cell_angle_gamma   90.00000000
_symmetry_Int_Tables_number   1
_chemical_formula_structural   NbOF3
_chemical_formula_sum   'Nb4 O4 F12'
_cell_volume   296.73276304
_cell_formula_units_Z   4
loop_
 _symmetry_equiv_pos_site_id
 _symmetry_equiv_pos_as_xyz
  1  'x, y, z'
loop_
 _atom_site_type_symbol
 _atom_site_label
 _atom_site_symmetry_multiplicity
 _atom_site_fract_x
 _atom_site_fract_y
 _atom_site_fract_z
 _atom_site_occupancy
  Nb  Nb0  1  0.169652  0.124643  0.110963  1
  Nb  Nb1  1  0.330348  0.875357  0.610963  1
  Nb  Nb2  1  0.669652  0.375357  0.889037  1
  Nb  Nb3  1  0.830348  0.624643  0.389037  1
  O  O4  1  0.146501  0.697249  0.491657  1
  O  O5  1  0.353499  0.302751  0.991657  1
  O  O6  1  0.646501  0.802751  0.508343  1
  O  O7  1  0.853499  0.197249  0.008343  1
  F  F8  1  0.054069  0.387263  0.243836  1
  F  F9  1  0.083168  0.949582  0.739863  1
  F  F10  1  0.301092  0.177822  0.519495  1
  F  F11  1  0.198908  0.822178  0.019495  1
  F  F12  1  0.416832  0.050418  0.239863  1
  F  F13  1  0.445931  0.612737  0.743836  1
  F  F14  1  0.554069  0.112737  0.756164  1
  F  F15  1  0.583168  0.550418  0.260137  1
  F  F16  1  0.801092  0.322178  0.480505  1
  F  F17  1  0.698908  0.677822  0.980505  1
  F  F18  1  0.916832  0.449582  0.760137  1
  F  F19  1  0.945931  0.887263  0.256164  1
