# generated using pymatgen
data_Ti3Sb2(PO4)6
_symmetry_space_group_name_H-M   'P 1'
_cell_length_a   8.80751246
_cell_length_b   8.80751227
_cell_length_c   8.80751206
_cell_angle_alpha   59.31900607
_cell_angle_beta   59.31901078
_cell_angle_gamma   59.31900818
_symmetry_Int_Tables_number   1
_chemical_formula_structural   Ti3Sb2(PO4)6
_chemical_formula_sum   'Ti3 Sb2 P6 O24'
_cell_volume   475.61825845
_cell_formula_units_Z   1
loop_
 _symmetry_equiv_pos_site_id
 _symmetry_equiv_pos_as_xyz
  1  'x, y, z'
loop_
 _atom_site_type_symbol
 _atom_site_label
 _atom_site_symmetry_multiplicity
 _atom_site_fract_x
 _atom_site_fract_y
 _atom_site_fract_z
 _atom_site_occupancy
  Ti  Ti0  1  0.137282  0.137282  0.137282  1
  Ti  Ti1  1  0.349890  0.349890  0.349890  1
  Ti  Ti2  1  0.655847  0.655847  0.655847  1
  Sb  Sb3  1  0.968379  0.968379  0.968379  1
  Sb  Sb4  1  0.497612  0.497612  0.497612  1
  P  P5  1  0.259418  0.526774  0.955438  1
  P  P6  1  0.526774  0.955438  0.259418  1
  P  P7  1  0.955438  0.259418  0.526774  1
  P  P8  1  0.052755  0.751712  0.468317  1
  P  P9  1  0.468317  0.052755  0.751712  1
  P  P10  1  0.751712  0.468317  0.052755  1
  O  O11  1  0.112115  0.323814  0.482201  1
  O  O12  1  0.323814  0.482201  0.112115  1
  O  O13  1  0.063467  0.915857  0.274872  1
  O  O14  1  0.482201  0.112115  0.323814  1
  O  O15  1  0.047741  0.780539  0.621656  1
  O  O16  1  0.238823  0.580478  0.419771  1
  O  O17  1  0.274872  0.063467  0.915857  1
  O  O18  1  0.419771  0.238823  0.580478  1
  O  O19  1  0.207253  0.367500  0.992806  1
  O  O20  1  0.580478  0.419771  0.238823  1
  O  O21  1  0.093634  0.712693  0.945108  1
  O  O22  1  0.367500  0.992806  0.207253  1
  O  O23  1  0.621656  0.047741  0.780539  1
  O  O24  1  0.915857  0.274872  0.063467  1
  O  O25  1  0.428448  0.550126  0.767376  1
  O  O26  1  0.780539  0.621656  0.047741  1
  O  O27  1  0.550126  0.767376  0.428448  1
  O  O28  1  0.712693  0.945108  0.093634  1
  O  O29  1  0.767376  0.428448  0.550126  1
  O  O30  1  0.992806  0.207253  0.367500  1
  O  O31  1  0.509352  0.880949  0.702607  1
  O  O32  1  0.945108  0.093634  0.712693  1
  O  O33  1  0.702607  0.509352  0.880949  1
  O  O34  1  0.880949  0.702607  0.509352  1
