# generated using pymatgen
data_V4O7F5
_symmetry_space_group_name_H-M   'P 1'
_cell_length_a   5.18539774
_cell_length_b   7.40601668
_cell_length_c   5.35148237
_cell_angle_alpha   92.77054749
_cell_angle_beta   89.43614124
_cell_angle_gamma   89.75757244
_symmetry_Int_Tables_number   1
_chemical_formula_structural   V4O7F5
_chemical_formula_sum   'V4 O7 F5'
_cell_volume   205.26129689
_cell_formula_units_Z   1
loop_
 _symmetry_equiv_pos_site_id
 _symmetry_equiv_pos_as_xyz
  1  'x, y, z'
loop_
 _atom_site_type_symbol
 _atom_site_label
 _atom_site_symmetry_multiplicity
 _atom_site_fract_x
 _atom_site_fract_y
 _atom_site_fract_z
 _atom_site_occupancy
  V  V0  1  0.465253  0.519394  0.471190  1
  V  V1  1  0.533196  0.023733  0.473201  1
  V  V2  1  0.028670  0.513209  0.973293  1
  V  V3  1  0.030134  0.002907  0.982932  1
  O  O4  1  0.705382  0.958081  0.217605  1
  O  O5  1  0.583771  0.245215  0.504687  1
  O  O6  1  0.412981  0.740545  0.498268  1
  O  O7  1  0.281913  0.453868  0.215682  1
  O  O8  1  0.283413  0.034596  0.797429  1
  O  O9  1  0.213322  0.452934  0.717169  1
  O  O10  1  0.075777  0.737751  0.002597  1
  F  F11  1  0.904246  0.253342  0.007287  1
  F  F12  1  0.789212  0.536340  0.309675  1
  F  F13  1  0.782218  0.946705  0.710564  1
  F  F14  1  0.706682  0.535506  0.808730  1
  F  F15  1  0.203831  0.045875  0.309692  1
