# generated using pymatgen
data_K2Cr2O7
_symmetry_space_group_name_H-M   'P 1'
_cell_length_a   6.71776820
_cell_length_b   8.14085825
_cell_length_c   16.04409595
_cell_angle_alpha   93.96846158
_cell_angle_beta   90.00000000
_cell_angle_gamma   90.00000000
_symmetry_Int_Tables_number   1
_chemical_formula_structural   K2Cr2O7
_chemical_formula_sum   'K8 Cr8 O28'
_cell_volume   875.32210797
_cell_formula_units_Z   4
loop_
 _symmetry_equiv_pos_site_id
 _symmetry_equiv_pos_as_xyz
  1  'x, y, z'
loop_
 _atom_site_type_symbol
 _atom_site_label
 _atom_site_symmetry_multiplicity
 _atom_site_fract_x
 _atom_site_fract_y
 _atom_site_fract_z
 _atom_site_occupancy
  K  K0  1  0.500000  0.760308  0.146042  1
  K  K1  1  0.000000  0.713930  0.368423  1
  K  K2  1  0.500000  0.286070  0.131577  1
  K  K3  1  0.000000  0.286070  0.631577  1
  K  K4  1  0.500000  0.239692  0.853958  1
  K  K5  1  0.000000  0.760308  0.646042  1
  K  K6  1  0.500000  0.713930  0.868423  1
  K  K7  1  0.000000  0.239692  0.353958  1
  Cr  Cr8  1  0.500000  0.434333  0.635972  1
  Cr  Cr9  1  0.000000  0.434333  0.135972  1
  Cr  Cr10  1  0.000000  0.565667  0.864028  1
  Cr  Cr11  1  0.500000  0.565667  0.364028  1
  Cr  Cr12  1  0.500000  0.002157  0.629338  1
  Cr  Cr13  1  0.500000  0.997843  0.370662  1
  Cr  Cr14  1  0.000000  0.997843  0.870662  1
  Cr  Cr15  1  0.000000  0.002157  0.129338  1
  O  O16  1  0.797337  0.488240  0.902091  1
  O  O17  1  0.202663  0.511760  0.097909  1
  O  O18  1  0.702663  0.488240  0.402091  1
  O  O19  1  0.799952  0.077552  0.914447  1
  O  O20  1  0.000000  0.781859  0.886836  1
  O  O21  1  0.500000  0.533341  0.261713  1
  O  O22  1  0.700048  0.922448  0.585553  1
  O  O23  1  0.000000  0.218141  0.113164  1
  O  O24  1  0.200048  0.077552  0.914447  1
  O  O25  1  0.500000  0.218141  0.613164  1
  O  O26  1  0.000000  0.466659  0.238287  1
  O  O27  1  0.500000  0.974005  0.729948  1
  O  O28  1  0.000000  0.533341  0.761713  1
  O  O29  1  0.200048  0.922448  0.085553  1
  O  O30  1  0.299952  0.077552  0.414447  1
  O  O31  1  0.500000  0.466659  0.738287  1
  O  O32  1  0.297337  0.488240  0.402091  1
  O  O33  1  0.702663  0.511760  0.597909  1
  O  O34  1  0.797337  0.511760  0.097909  1
  O  O35  1  0.297337  0.511760  0.597909  1
  O  O36  1  0.299952  0.922448  0.585553  1
  O  O37  1  0.500000  0.025995  0.270052  1
  O  O38  1  0.700048  0.077552  0.414447  1
  O  O39  1  0.000000  0.974005  0.229948  1
  O  O40  1  0.500000  0.781859  0.386836  1
  O  O41  1  0.202663  0.488240  0.902091  1
  O  O42  1  0.799952  0.922448  0.085553  1
  O  O43  1  0.000000  0.025995  0.770052  1
