# generated using pymatgen
data_Li2VCr(P2O7)2
_symmetry_space_group_name_H-M   'P 1'
_cell_length_a   14.03942006
_cell_length_b   8.22326458
_cell_length_c   7.02177420
_cell_angle_alpha   89.92057741
_cell_angle_beta   80.43152024
_cell_angle_gamma   90.05547224
_symmetry_Int_Tables_number   1
_chemical_formula_structural   Li2VCr(P2O7)2
_chemical_formula_sum   'Li6 V3 Cr3 P12 O42'
_cell_volume   799.38329032
_cell_formula_units_Z   3
loop_
 _symmetry_equiv_pos_site_id
 _symmetry_equiv_pos_as_xyz
  1  'x, y, z'
loop_
 _atom_site_type_symbol
 _atom_site_label
 _atom_site_symmetry_multiplicity
 _atom_site_fract_x
 _atom_site_fract_y
 _atom_site_fract_z
 _atom_site_occupancy
  Li  Li0  1  0.059018  0.862825  0.617236  1
  Li  Li1  1  0.274525  0.362937  0.048709  1
  Li  Li2  1  0.392042  0.862896  0.284568  1
  Li  Li3  1  0.607889  0.362593  0.715812  1
  Li  Li4  1  0.725699  0.863174  0.951097  1
  Li  Li5  1  0.940917  0.362868  0.382845  1
  V  V6  1  0.261169  0.999482  0.009918  1
  V  V7  1  0.405264  0.499591  0.323600  1
  V  V8  1  0.739105  0.499674  0.990527  1
  Cr  Cr9  1  0.071197  0.500039  0.656557  1
  Cr  Cr10  1  0.595618  -0.000041  0.677274  1
  Cr  Cr11  1  0.928612  -0.000014  0.343530  1
  P  P12  1  0.132940  0.180691  0.390080  1
  P  P13  1  0.070156  0.783092  0.015213  1
  P  P14  1  0.261835  0.284913  0.652186  1
  P  P15  1  0.199505  0.679582  0.278866  1
  P  P16  1  0.404603  0.785100  0.681040  1
  P  P17  1  0.533321  0.680779  0.943199  1
  P  P18  1  0.466993  0.179835  0.054402  1
  P  P19  1  0.595777  0.282340  0.319474  1
  P  P20  1  0.800022  0.179492  0.720971  1
  P  P21  1  0.737401  0.785686  0.349070  1
  P  P22  1  0.929586  0.282718  0.984617  1
  P  P23  1  0.866933  0.680551  0.609663  1
  O  O24  1  0.017934  0.323136  0.836470  1
  O  O25  1  0.043619  0.693094  0.840231  1
  O  O26  1  0.131948  0.933542  0.948416  1
  O  O27  1  0.061866  0.037981  0.419818  1
  O  O28  1  0.082435  0.346230  0.426983  1
  O  O29  1  0.132297  0.678374  0.474389  1
  O  O30  1  0.199905  0.434809  0.715688  1
  O  O31  1  0.198153  0.151924  0.555334  1
  O  O32  1  0.134835  0.651823  0.111505  1
  O  O33  1  0.289720  0.197001  0.825712  1
  O  O34  1  0.316485  0.823396  0.832008  1
  O  O35  1  0.200230  0.179840  0.194067  1
  O  O36  1  0.250622  0.843970  0.244106  1
  O  O37  1  0.270803  0.536938  0.246328  1
  O  O38  1  0.350058  0.323371  0.501283  1
  O  O39  1  0.376853  0.696863  0.507658  1
  O  O40  1  0.468193  0.652033  0.778041  1
  O  O41  1  0.466783  0.934937  0.617272  1
  O  O42  1  0.534324  0.178659  0.859213  1
  O  O43  1  0.395543  0.037170  0.087032  1
  O  O44  1  0.416087  0.344166  0.089606  1
  O  O45  1  0.584092  0.846125  0.906429  1
  O  O46  1  0.604751  0.538471  0.913107  1
  O  O47  1  0.466203  0.679682  0.139280  1
  O  O48  1  0.534644  0.433153  0.385332  1
  O  O49  1  0.531594  0.151664  0.222041  1
  O  O50  1  0.622963  0.192756  0.493676  1
  O  O51  1  0.649014  0.824134  0.498220  1
  O  O52  1  0.728982  0.036514  0.752985  1
  O  O53  1  0.749262  0.344112  0.755827  1
  O  O54  1  0.799824  0.679577  0.806097  1
  O  O55  1  0.683808  0.322448  0.169332  1
  O  O56  1  0.710106  0.697145  0.174947  1
  O  O57  1  0.864747  0.151608  0.888511  1
  O  O58  1  0.801710  0.652046  0.444710  1
  O  O59  1  0.800010  0.935063  0.284359  1
  O  O60  1  0.867556  0.178453  0.525687  1
  O  O61  1  0.917615  0.846177  0.573090  1
  O  O62  1  0.938032  0.538013  0.580209  1
  O  O63  1  0.868098  0.433266  0.051246  1
  O  O64  1  0.956217  0.192999  0.159765  1
  O  O65  1  0.981954  0.823275  0.163530  1
