# generated using pymatgen
data_Li6MnSn3(PO4)6
_symmetry_space_group_name_H-M   'P 1'
_cell_length_a   8.60685868
_cell_length_b   8.65457816
_cell_length_c   8.64029249
_cell_angle_alpha   64.13619205
_cell_angle_beta   64.26855974
_cell_angle_gamma   64.45725451
_symmetry_Int_Tables_number   1
_chemical_formula_structural   Li6MnSn3(PO4)6
_chemical_formula_sum   'Li6 Mn1 Sn3 P6 O24'
_cell_volume   497.95901240
_cell_formula_units_Z   1
loop_
 _symmetry_equiv_pos_site_id
 _symmetry_equiv_pos_as_xyz
  1  'x, y, z'
loop_
 _atom_site_type_symbol
 _atom_site_label
 _atom_site_symmetry_multiplicity
 _atom_site_fract_x
 _atom_site_fract_y
 _atom_site_fract_z
 _atom_site_occupancy
  Li  Li0  1  0.021549  0.985397  0.981010  1
  Li  Li1  1  0.747253  0.155515  0.371477  1
  Li  Li2  1  0.476163  0.521238  0.522176  1
  Li  Li3  1  0.221595  0.858744  0.680934  1
  Li  Li4  1  0.690413  0.219475  0.863575  1
  Li  Li5  1  0.858858  0.685902  0.220151  1
  Mn  Mn6  1  0.839332  0.840421  0.837905  1
  Sn  Sn7  1  0.146486  0.148171  0.143921  1
  Sn  Sn8  1  0.359277  0.362474  0.354305  1
  Sn  Sn9  1  0.663863  0.661011  0.662702  1
  P  P10  1  0.074343  0.745896  0.417778  1
  P  P11  1  0.416969  0.071266  0.745356  1
  P  P12  1  0.748247  0.423832  0.066367  1
  P  P13  1  0.243050  0.554063  0.958722  1
  P  P14  1  0.559690  0.966016  0.244592  1
  P  P15  1  0.954422  0.241371  0.549081  1
  O  O16  1  0.121488  0.303016  0.487691  1
  O  O17  1  0.319909  0.515534  0.108750  1
  O  O18  1  0.099173  0.905956  0.238145  1
  O  O19  1  0.545803  0.112325  0.315440  1
  O  O20  1  0.262930  0.598475  0.417400  1
  O  O21  1  0.013106  0.804126  0.584349  1
  O  O22  1  0.237610  0.103415  0.902330  1
  O  O23  1  0.424259  0.257719  0.592516  1
  O  O24  1  0.605386  0.413575  0.260922  1
  O  O25  1  0.170935  0.398007  0.009298  1
  O  O26  1  0.085719  0.733585  0.950892  1
  O  O27  1  0.385779  0.033010  0.193179  1
  O  O28  1  0.587382  0.009951  0.799077  1
  O  O29  1  0.898916  0.237789  0.103352  1
  O  O30  1  0.805115  0.589417  0.009327  1
  O  O31  1  0.385266  0.576235  0.768245  1
  O  O32  1  0.579122  0.775654  0.384279  1
  O  O33  1  0.731094  0.956732  0.077683  1
  O  O34  1  0.968482  0.183472  0.394011  1
  O  O35  1  0.769539  0.386918  0.585105  1
  O  O36  1  0.401468  0.940586  0.681292  1
  O  O37  1  0.956562  0.080533  0.725741  1
  O  O38  1  0.681784  0.413406  0.934607  1
  O  O39  1  0.941661  0.678770  0.407310  1
