# generated using pymatgen
data_Li3Ti2(PO4)3
_symmetry_space_group_name_H-M   'P 1'
_cell_length_a   8.96726831
_cell_length_b   8.58302886
_cell_length_c   8.96726831
_cell_angle_alpha   120.57699089
_cell_angle_beta   120.82223011
_cell_angle_gamma   59.42300911
_symmetry_Int_Tables_number   1
_chemical_formula_structural   Li3Ti2(PO4)3
_chemical_formula_sum   'Li6 Ti4 P6 O24'
_cell_volume   480.70493733
_cell_formula_units_Z   2
loop_
 _symmetry_equiv_pos_site_id
 _symmetry_equiv_pos_as_xyz
  1  'x, y, z'
loop_
 _atom_site_type_symbol
 _atom_site_label
 _atom_site_symmetry_multiplicity
 _atom_site_fract_x
 _atom_site_fract_y
 _atom_site_fract_z
 _atom_site_occupancy
  Li  Li0  1  0.557103  0.919684  0.185094  1
  Li  Li1  1  0.867873  0.750000  0.867873  1
  Li  Li2  1  0.185094  0.580316  0.557103  1
  Li  Li3  1  0.814906  0.419684  0.442897  1
  Li  Li4  1  0.132127  0.250000  0.132127  1
  Li  Li5  1  0.442897  0.080316  0.814906  1
  Ti  Ti6  1  0.857574  0.929860  0.646617  1
  Ti  Ti7  1  0.646617  0.570140  0.857574  1
  Ti  Ti8  1  0.353383  0.429860  0.142426  1
  Ti  Ti9  1  0.142426  0.070140  0.353383  1
  P  P10  1  0.253031  0.765424  0.972611  1
  P  P11  1  0.550553  0.750000  0.550553  1
  P  P12  1  0.027389  0.265424  0.746969  1
  P  P13  1  0.972611  0.734576  0.253031  1
  P  P14  1  0.449447  0.250000  0.449447  1
  P  P15  1  0.746969  0.234576  0.027389  1
  O  O16  1  0.104491  0.749838  0.777324  1
  O  O17  1  0.031083  0.881443  0.262438  1
  O  O18  1  0.395353  0.936847  0.520888  1
  O  O19  1  0.437887  0.726670  0.966148  1
  O  O20  1  0.205267  0.968197  0.116383  1
  O  O21  1  0.571649  0.769156  0.744217  1
  O  O22  1  0.744217  0.730844  0.571649  1
  O  O23  1  0.116383  0.531803  0.205267  1
  O  O24  1  0.222676  0.249838  0.895509  1
  O  O25  1  0.966148  0.773330  0.437887  1
  O  O26  1  0.520888  0.563153  0.395353  1
  O  O27  1  0.262438  0.618557  0.031083  1
  O  O28  1  0.737562  0.381443  0.968917  1
  O  O29  1  0.479112  0.436847  0.604647  1
  O  O30  1  0.033852  0.226670  0.562113  1
  O  O31  1  0.777324  0.750162  0.104491  1
  O  O32  1  0.883617  0.468197  0.794733  1
  O  O33  1  0.255783  0.269156  0.428351  1
  O  O34  1  0.428351  0.230844  0.255783  1
  O  O35  1  0.794733  0.031803  0.883617  1
  O  O36  1  0.562113  0.273330  0.033852  1
  O  O37  1  0.604647  0.063153  0.479112  1
  O  O38  1  0.968917  0.118557  0.737562  1
  O  O39  1  0.895509  0.250162  0.222676  1
