# generated using pymatgen
data_Sn3H4(NO5)2
_symmetry_space_group_name_H-M   'P 1'
_cell_length_a   7.93188679
_cell_length_b   9.18311315
_cell_length_c   14.37417032
_cell_angle_alpha   90.00000000
_cell_angle_beta   89.33863702
_cell_angle_gamma   90.00000000
_symmetry_Int_Tables_number   1
_chemical_formula_structural   Sn3H4(NO5)2
_chemical_formula_sum   'Sn12 H16 N8 O40'
_cell_volume   1046.93639031
_cell_formula_units_Z   4
loop_
 _symmetry_equiv_pos_site_id
 _symmetry_equiv_pos_as_xyz
  1  'x, y, z'
loop_
 _atom_site_type_symbol
 _atom_site_label
 _atom_site_symmetry_multiplicity
 _atom_site_fract_x
 _atom_site_fract_y
 _atom_site_fract_z
 _atom_site_occupancy
  Sn  Sn0  1  0.459050  0.696679  0.321369  1
  Sn  Sn1  1  0.959050  0.803321  0.821369  1
  Sn  Sn2  1  0.540950  0.303321  0.678631  1
  Sn  Sn3  1  0.040950  0.196679  0.178631  1
  Sn  Sn4  1  0.713853  0.722415  0.112195  1
  Sn  Sn5  1  0.213853  0.777585  0.612195  1
  Sn  Sn6  1  0.286147  0.277585  0.887805  1
  Sn  Sn7  1  0.786147  0.222415  0.387805  1
  Sn  Sn8  1  0.906927  0.733511  0.339000  1
  Sn  Sn9  1  0.406927  0.766489  0.839000  1
  Sn  Sn10  1  0.093073  0.266489  0.661000  1
  Sn  Sn11  1  0.593073  0.233511  0.161000  1
  H  H12  1  0.003560  0.588619  0.173626  1
  H  H13  1  0.503560  0.911381  0.673626  1
  H  H14  1  0.996440  0.411381  0.826374  1
  H  H15  1  0.496440  0.088619  0.326374  1
  H  H16  1  0.684458  0.938053  0.264703  1
  H  H17  1  0.184458  0.561947  0.764703  1
  H  H18  1  0.315542  0.061947  0.735297  1
  H  H19  1  0.815542  0.438053  0.235297  1
  H  H20  1  0.421029  0.572997  0.151870  1
  H  H21  1  0.921029  0.927003  0.651870  1
  H  H22  1  0.578971  0.427003  0.848130  1
  H  H23  1  0.078971  0.072997  0.348130  1
  H  H24  1  0.683993  0.571462  0.440482  1
  H  H25  1  0.183993  0.928538  0.940482  1
  H  H26  1  0.316007  0.428538  0.559518  1
  H  H27  1  0.816007  0.071462  0.059518  1
  N  N28  1  0.680957  0.910020  0.523607  1
  N  N29  1  0.180957  0.589980  0.023607  1
  N  N30  1  0.319043  0.089980  0.476393  1
  N  N31  1  0.819043  0.410020  0.976393  1
  N  N32  1  0.725673  0.070432  0.888281  1
  N  N33  1  0.225673  0.429568  0.388281  1
  N  N34  1  0.274327  0.929568  0.111719  1
  N  N35  1  0.774327  0.570432  0.611719  1
  O  O36  1  0.893226  0.607647  0.204438  1
  O  O37  1  0.393226  0.892353  0.704438  1
  O  O38  1  0.106774  0.392353  0.795562  1
  O  O39  1  0.606774  0.107647  0.295562  1
  O  O40  1  0.700266  0.830153  0.257390  1
  O  O41  1  0.200266  0.669847  0.757390  1
  O  O42  1  0.299734  0.169847  0.742610  1
  O  O43  1  0.799734  0.330153  0.242610  1
  O  O44  1  0.525119  0.593806  0.187397  1
  O  O45  1  0.025119  0.906194  0.687397  1
  O  O46  1  0.474881  0.406194  0.812603  1
  O  O47  1  0.974881  0.093806  0.312603  1
  O  O48  1  0.693736  0.597367  0.373723  1
  O  O49  1  0.193736  0.902633  0.873723  1
  O  O50  1  0.306264  0.402633  0.626277  1
  O  O51  1  0.806264  0.097367  0.126277  1
  O  O52  1  0.549076  0.843815  0.500348  1
  O  O53  1  0.049076  0.656185  0.000348  1
  O  O54  1  0.450924  0.156185  0.499652  1
  O  O55  1  0.950924  0.343815  0.999652  1
  O  O56  1  0.702170  0.947254  0.608125  1
  O  O57  1  0.202170  0.552746  0.108125  1
  O  O58  1  0.297830  0.052746  0.391875  1
  O  O59  1  0.797830  0.447254  0.891875  1
  O  O60  1  0.794235  0.941242  0.463337  1
  O  O61  1  0.294235  0.558758  0.963337  1
  O  O62  1  0.205765  0.058758  0.536663  1
  O  O63  1  0.705765  0.441242  0.036663  1
  O  O64  1  0.609274  0.135408  0.932578  1
  O  O65  1  0.109274  0.364592  0.432578  1
  O  O66  1  0.390726  0.864592  0.067422  1
  O  O67  1  0.890726  0.635408  0.567422  1
  O  O68  1  0.854904  0.023929  0.932320  1
  O  O69  1  0.354904  0.476071  0.432320  1
  O  O70  1  0.145096  0.976071  0.067680  1
  O  O71  1  0.645096  0.523929  0.567680  1
  O  O72  1  0.716759  0.047675  0.801567  1
  O  O73  1  0.216759  0.452325  0.301567  1
  O  O74  1  0.283241  0.952325  0.198433  1
  O  O75  1  0.783241  0.547675  0.698433  1
