# generated using pymatgen
data_Co3C10O9
_symmetry_space_group_name_H-M   'P 1'
_cell_length_a   9.44262881
_cell_length_b   9.44416288
_cell_length_c   18.95550856
_cell_angle_alpha   75.54017399
_cell_angle_beta   75.57730710
_cell_angle_gamma   60.00537183
_symmetry_Int_Tables_number   1
_chemical_formula_structural   Co3C10O9
_chemical_formula_sum   'Co12 C40 O36'
_cell_volume   1401.99720815
_cell_formula_units_Z   4
loop_
 _symmetry_equiv_pos_site_id
 _symmetry_equiv_pos_as_xyz
  1  'x, y, z'
loop_
 _atom_site_type_symbol
 _atom_site_label
 _atom_site_symmetry_multiplicity
 _atom_site_fract_x
 _atom_site_fract_y
 _atom_site_fract_z
 _atom_site_occupancy
  Co  Co0  1  0.744277  0.163082  0.637505  1
  Co  Co1  1  0.836286  0.255740  0.862719  1
  Co  Co2  1  0.455136  0.663082  0.137505  1
  Co  Co3  1  0.255723  0.836918  0.362495  1
  Co  Co4  1  0.336454  0.545143  0.362811  1
  Co  Co5  1  0.544864  0.336918  0.862495  1
  Co  Co6  1  0.163714  0.744260  0.137281  1
  Co  Co7  1  0.244408  0.954857  0.137189  1
  Co  Co8  1  0.954745  0.244260  0.637281  1
  Co  Co9  1  0.755592  0.045143  0.862811  1
  Co  Co10  1  0.045255  0.755740  0.362719  1
  Co  Co11  1  0.663546  0.454857  0.637189  1
  C  C12  1  0.830945  0.451708  0.837777  1
  C  C13  1  0.548677  0.167821  0.662268  1
  C  C14  1  0.451323  0.832179  0.337732  1
  C  C15  1  0.049799  0.134811  0.834346  1
  C  C16  1  0.481046  0.550486  0.834506  1
  C  C17  1  0.022108  0.271531  0.539663  1
  C  C18  1  0.450132  0.518979  0.665589  1
  C  C19  1  0.271664  0.022395  0.039716  1
  C  C20  1  0.333775  0.477604  0.460284  1
  C  C21  1  0.018956  0.365189  0.665654  1
  C  C22  1  0.523754  0.666385  0.040228  1
  C  C23  1  0.120431  0.048292  0.662223  1
  C  C24  1  0.833303  0.228469  0.960337  1
  C  C25  1  0.728336  0.977604  0.960284  1
  C  C26  1  0.879569  0.951708  0.337777  1
  C  C27  1  0.668819  0.620709  0.661964  1
  C  C28  1  0.977892  0.728469  0.460337  1
  C  C29  1  0.237423  0.737196  0.289111  1
  C  C30  1  0.133963  0.050486  0.334506  1
  C  C31  1  0.621234  0.667821  0.162268  1
  C  C32  1  0.736270  0.237196  0.789111  1
  C  C33  1  0.634699  0.981021  0.834411  1
  C  C34  1  0.230367  0.833615  0.459772  1
  C  C35  1  0.769633  0.166385  0.540228  1
  C  C36  1  0.981044  0.634811  0.334346  1
  C  C37  1  0.762577  0.262804  0.710889  1
  C  C38  1  0.263730  0.762804  0.210889  1
  C  C39  1  0.518954  0.449514  0.165494  1
  C  C40  1  0.048509  0.120709  0.161964  1
  C  C41  1  0.866037  0.949514  0.665494  1
  C  C42  1  0.549868  0.481021  0.334411  1
  C  C43  1  0.950201  0.865189  0.165654  1
  C  C44  1  0.476246  0.333615  0.959772  1
  C  C45  1  0.951491  0.879291  0.838036  1
  C  C46  1  0.378766  0.332179  0.837732  1
  C  C47  1  0.365301  0.018979  0.165589  1
  C  C48  1  0.169055  0.548292  0.162223  1
  C  C49  1  0.666225  0.522396  0.539716  1
  C  C50  1  0.166697  0.771531  0.039663  1
  C  C51  1  0.331181  0.379291  0.338036  1
  O  O52  1  0.573059  0.664623  0.977755  1
  O  O53  1  0.557614  0.936004  0.816208  1
  O  O54  1  0.934956  0.557379  0.317184  1
  O  O55  1  0.943860  0.809019  0.682942  1
  O  O56  1  0.576867  0.834083  0.324913  1
  O  O57  1  0.834731  0.212546  0.022936  1
  O  O58  1  0.235173  0.922736  0.674917  1
  O  O59  1  0.809520  0.942621  0.182816  1
  O  O60  1  0.165269  0.787454  0.977064  1
  O  O61  1  0.764827  0.077264  0.325083  1
  O  O62  1  0.070213  0.287454  0.477064  1
  O  O63  1  0.289376  0.068825  0.977010  1
  O  O64  1  0.065044  0.442621  0.682816  1
  O  O65  1  0.665954  0.735860  0.674729  1
  O  O66  1  0.309826  0.563996  0.683792  1
  O  O67  1  0.423133  0.165917  0.675087  1
  O  O68  1  0.334046  0.264140  0.325271  1
  O  O69  1  0.564180  0.309019  0.182942  1
  O  O70  1  0.735864  0.665917  0.175087  1
  O  O71  1  0.929787  0.712546  0.522936  1
  O  O72  1  0.710624  0.931175  0.022990  1
  O  O73  1  0.056140  0.190981  0.317058  1
  O  O74  1  0.784563  0.164623  0.477755  1
  O  O75  1  0.832826  0.577264  0.825083  1
  O  O76  1  0.190480  0.057379  0.817184  1
  O  O77  1  0.426941  0.335377  0.022245  1
  O  O78  1  0.442386  0.063996  0.183792  1
  O  O79  1  0.215437  0.835377  0.522245  1
  O  O80  1  0.335211  0.431175  0.522990  1
  O  O81  1  0.264136  0.334083  0.824913  1
  O  O82  1  0.923456  0.235860  0.174729  1
  O  O83  1  0.690174  0.436004  0.316208  1
  O  O84  1  0.076544  0.764140  0.825271  1
  O  O85  1  0.664789  0.568825  0.477010  1
  O  O86  1  0.435820  0.690981  0.817058  1
  O  O87  1  0.167174  0.422736  0.174917  1
