# generated using pymatgen
data_LiBiB2O5
_symmetry_space_group_name_H-M   'P 1'
_cell_length_a   12.71161946
_cell_length_b   5.62857080
_cell_length_c   11.38489069
_cell_angle_alpha   90.00000000
_cell_angle_beta   90.00000000
_cell_angle_gamma   77.99453736
_symmetry_Int_Tables_number   1
_chemical_formula_structural   LiBiB2O5
_chemical_formula_sum   'Li8 Bi8 B16 O40'
_cell_volume   796.75256805
_cell_formula_units_Z   8
loop_
 _symmetry_equiv_pos_site_id
 _symmetry_equiv_pos_as_xyz
  1  'x, y, z'
loop_
 _atom_site_type_symbol
 _atom_site_label
 _atom_site_symmetry_multiplicity
 _atom_site_fract_x
 _atom_site_fract_y
 _atom_site_fract_z
 _atom_site_occupancy
  Li  Li0  1  0.227673  0.246877  0.629879  1
  Li  Li1  1  0.268548  0.254356  0.133342  1
  Li  Li2  1  0.227673  0.746877  0.870121  1
  Li  Li3  1  0.268548  0.754356  0.366658  1
  Li  Li4  1  0.731452  0.245644  0.633342  1
  Li  Li5  1  0.772327  0.253123  0.129879  1
  Li  Li6  1  0.731452  0.745644  0.866658  1
  Li  Li7  1  0.772327  0.753123  0.370121  1
  Bi  Bi8  1  0.110366  0.383691  0.383908  1
  Bi  Bi9  1  0.110366  0.883691  0.116092  1
  Bi  Bi10  1  0.392756  0.144753  0.877905  1
  Bi  Bi11  1  0.392756  0.644753  0.622095  1
  Bi  Bi12  1  0.607244  0.355247  0.377905  1
  Bi  Bi13  1  0.607244  0.855247  0.122095  1
  Bi  Bi14  1  0.889634  0.116309  0.883908  1
  Bi  Bi15  1  0.889634  0.616309  0.616092  1
  B  B16  1  0.013233  0.125977  0.624456  1
  B  B17  1  0.013233  0.625977  0.875544  1
  B  B18  1  0.172541  0.291643  0.883880  1
  B  B19  1  0.172541  0.791643  0.616120  1
  B  B20  1  0.325904  0.197201  0.374589  1
  B  B21  1  0.325904  0.697201  0.125411  1
  B  B22  1  0.515063  0.145058  0.620507  1
  B  B23  1  0.484937  0.354942  0.120507  1
  B  B24  1  0.515063  0.645057  0.879493  1
  B  B25  1  0.484937  0.854943  0.379493  1
  B  B26  1  0.674096  0.302799  0.874589  1
  B  B27  1  0.674096  0.802799  0.625411  1
  B  B28  1  0.827459  0.208357  0.383880  1
  B  B29  1  0.827459  0.708357  0.116120  1
  B  B30  1  0.986767  0.374023  0.124456  1
  B  B31  1  0.986767  0.874023  0.375544  1
  O  O32  1  0.064544  0.302882  0.588114  1
  O  O33  1  0.060096  0.377001  0.887626  1
  O  O34  1  0.089382  0.311565  0.172641  1
  O  O35  1  0.064544  0.802882  0.911886  1
  O  O36  1  0.060096  0.877001  0.612374  1
  O  O37  1  0.089382  0.811565  0.327359  1
  O  O38  1  0.222126  0.096660  0.952779  1
  O  O39  1  0.261784  0.090489  0.445560  1
  O  O40  1  0.234499  0.398419  0.810470  1
  O  O41  1  0.222126  0.596660  0.547221  1
  O  O42  1  0.280694  0.397913  0.309143  1
  O  O43  1  0.261784  0.590489  0.054440  1
  O  O44  1  0.234499  0.898419  0.689530  1
  O  O45  1  0.280694  0.897913  0.190857  1
  O  O46  1  0.410214  0.220835  0.660721  1
  O  O47  1  0.439183  0.103531  0.368125  1
  O  O48  1  0.431946  0.186052  0.076767  1
  O  O49  1  0.410214  0.720835  0.839279  1
  O  O50  1  0.439183  0.603531  0.131876  1
  O  O51  1  0.431946  0.686052  0.423233  1
  O  O52  1  0.568054  0.313948  0.576767  1
  O  O53  1  0.560817  0.396469  0.868124  1
  O  O54  1  0.589786  0.279165  0.160721  1
  O  O55  1  0.568054  0.813948  0.923233  1
  O  O56  1  0.560817  0.896469  0.631876  1
  O  O57  1  0.589786  0.779165  0.339279  1
  O  O58  1  0.719306  0.102087  0.809143  1
  O  O59  1  0.765501  0.101581  0.310470  1
  O  O60  1  0.738216  0.409511  0.945560  1
  O  O61  1  0.719306  0.602087  0.690857  1
  O  O62  1  0.777874  0.403340  0.452779  1
  O  O63  1  0.765501  0.601581  0.189530  1
  O  O64  1  0.738216  0.909511  0.554440  1
  O  O65  1  0.777874  0.903340  0.047221  1
  O  O66  1  0.910618  0.188435  0.672641  1
  O  O67  1  0.939904  0.122999  0.387626  1
  O  O68  1  0.935456  0.197118  0.088114  1
  O  O69  1  0.910618  0.688435  0.827359  1
  O  O70  1  0.939904  0.622999  0.112374  1
  O  O71  1  0.935456  0.697118  0.411886  1
