# generated using pymatgen
data_TiNi(PO4)2
_symmetry_space_group_name_H-M   'P 1'
_cell_length_a   8.46549158
_cell_length_b   8.60981621
_cell_length_c   8.60981600
_cell_angle_alpha   60.00000076
_cell_angle_beta   59.43441813
_cell_angle_gamma   59.43441524
_symmetry_Int_Tables_number   1
_chemical_formula_structural   TiNi(PO4)2
_chemical_formula_sum   'Ti3 Ni3 P6 O24'
_cell_volume   439.90495876
_cell_formula_units_Z   3
loop_
 _symmetry_equiv_pos_site_id
 _symmetry_equiv_pos_as_xyz
  1  'x, y, z'
loop_
 _atom_site_type_symbol
 _atom_site_label
 _atom_site_symmetry_multiplicity
 _atom_site_fract_x
 _atom_site_fract_y
 _atom_site_fract_z
 _atom_site_occupancy
  Ti  Ti0  1  0.065600  0.644801  0.644801  1
  Ti  Ti1  1  0.427009  0.857664  0.857664  1
  Ti  Ti2  1  0.935542  0.354820  0.354820  1
  Ni  Ni3  1  0.991533  0.002822  0.002822  1
  Ni  Ni4  1  0.574579  0.141807  0.141807  1
  Ni  Ni5  1  0.496270  0.501244  0.501244  1
  P  P6  1  0.255683  0.247612  0.543727  1
  P  P7  1  0.255683  0.952977  0.247612  1
  P  P8  1  0.255683  0.543727  0.952977  1
  P  P9  1  0.749003  0.453792  0.047211  1
  P  P10  1  0.749003  0.047211  0.749995  1
  P  P11  1  0.749003  0.749995  0.453792  1
  O  O12  1  0.069702  0.117303  0.316267  1
  O  O13  1  0.069702  0.496729  0.117303  1
  O  O14  1  0.069702  0.316267  0.496729  1
  O  O15  1  0.222071  0.090806  0.745549  1
  O  O16  1  0.439556  0.182624  0.391646  1
  O  O17  1  0.266582  0.410638  0.567682  1
  O  O18  1  0.222071  0.941574  0.090806  1
  O  O19  1  0.266582  0.755097  0.410638  1
  O  O20  1  0.566365  0.617761  0.997846  1
  O  O21  1  0.266582  0.567682  0.755097  1
  O  O22  1  0.782686  0.259026  0.054299  1
  O  O23  1  0.566365  0.997846  0.818027  1
  O  O24  1  0.439556  0.986174  0.182624  1
  O  O25  1  0.222071  0.745549  0.941574  1
  O  O26  1  0.722814  0.446530  0.243306  1
  O  O27  1  0.439556  0.391646  0.986174  1
  O  O28  1  0.722814  0.243306  0.587350  1
  O  O29  1  0.782686  0.054299  0.903990  1
  O  O30  1  0.722814  0.587350  0.446530  1
  O  O31  1  0.566365  0.818027  0.617761  1
  O  O32  1  0.782686  0.903990  0.259026  1
  O  O33  1  0.928696  0.671979  0.511129  1
  O  O34  1  0.928696  0.511129  0.888197  1
  O  O35  1  0.928696  0.888197  0.671979  1
