# generated using pymatgen
data_Al15Fe9O32
_symmetry_space_group_name_H-M   'P 1'
_cell_length_a   5.85404244
_cell_length_b   5.85072815
_cell_length_c   19.34653465
_cell_angle_alpha   99.07019855
_cell_angle_beta   89.56378436
_cell_angle_gamma   120.44059139
_symmetry_Int_Tables_number   1
_chemical_formula_structural   Al15Fe9O32
_chemical_formula_sum   'Al15 Fe9 O32'
_cell_volume   562.10810964
_cell_formula_units_Z   1
loop_
 _symmetry_equiv_pos_site_id
 _symmetry_equiv_pos_as_xyz
  1  'x, y, z'
loop_
 _atom_site_type_symbol
 _atom_site_label
 _atom_site_symmetry_multiplicity
 _atom_site_fract_x
 _atom_site_fract_y
 _atom_site_fract_z
 _atom_site_occupancy
  Al  Al0  1  0.375000  0.750000  0.125000  1
  Al  Al1  1  0.123867  0.750636  0.375795  1
  Al  Al2  1  0.501417  0.996855  0.999302  1
  Al  Al3  1  0.248583  0.503145  0.250698  1
  Al  Al4  1  0.875000  0.250000  0.125000  1
  Al  Al5  1  0.624439  0.750385  0.375448  1
  Al  Al6  1  0.124065  0.250287  0.375354  1
  Al  Al7  1  0.000099  0.000434  0.500273  1
  Al  Al8  1  0.125561  0.749615  0.874552  1
  Al  Al9  1  0.875000  0.750000  0.625000  1
  Al  Al10  1  0.375000  0.250000  0.625000  1
  Al  Al11  1  0.626133  0.749364  0.874205  1
  Al  Al12  1  0.875000  0.250000  0.625000  1
  Al  Al13  1  0.749901  0.499566  0.749727  1
  Al  Al14  1  0.625935  0.249713  0.874646  1
  Fe  Fe15  1  0.844548  0.687728  0.031699  1
  Fe  Fe16  1  0.375000  0.250000  0.125000  1
  Fe  Fe17  1  0.905452  0.812272  0.218301  1
  Fe  Fe18  1  0.343276  0.688779  0.531954  1
  Fe  Fe19  1  0.592999  0.189316  0.282074  1
  Fe  Fe20  1  0.406724  0.811221  0.718046  1
  Fe  Fe21  1  0.657183  0.311463  0.468353  1
  Fe  Fe22  1  0.092817  0.188537  0.781647  1
  Fe  Fe23  1  0.157001  0.310684  0.967926  1
  O  O24  1  0.232246  0.889827  0.065049  1
  O  O25  1  0.669827  0.896124  0.065601  1
  O  O26  1  0.188394  0.384727  0.074182  1
  O  O27  1  0.080173  0.603876  0.184399  1
  O  O28  1  0.517754  0.610173  0.184951  1
  O  O29  1  0.075423  0.167258  0.184957  1
  O  O30  1  0.674577  0.332742  0.065043  1
  O  O31  1  0.417495  0.838374  0.317522  1
  O  O32  1  0.167249  0.899200  0.565957  1
  O  O33  1  0.416295  0.399337  0.316814  1
  O  O34  1  0.561606  0.115273  0.175818  1
  O  O35  1  0.306422  0.618404  0.426403  1
  O  O36  1  0.941580  0.882276  0.324501  1
  O  O37  1  0.829539  0.663897  0.433900  1
  O  O38  1  0.269864  0.103592  0.433586  1
  O  O39  1  0.020019  0.603047  0.683160  1
  O  O40  1  0.729981  0.896953  0.566840  1
  O  O41  1  0.978923  0.399111  0.317126  1
  O  O42  1  0.170077  0.336716  0.566812  1
  O  O43  1  0.057103  0.117791  0.675988  1
  O  O44  1  0.692897  0.382209  0.574012  1
  O  O45  1  0.832390  0.100868  0.434415  1
  O  O46  1  0.443578  0.881596  0.823597  1
  O  O47  1  0.582751  0.600800  0.684043  1
  O  O48  1  0.579923  0.163284  0.683188  1
  O  O49  1  0.332505  0.661626  0.932478  1
  O  O50  1  0.480136  0.396408  0.816414  1
  O  O51  1  0.920461  0.836103  0.816100  1
  O  O52  1  0.917610  0.399132  0.815585  1
  O  O53  1  0.808420  0.617724  0.925499  1
  O  O54  1  0.333705  0.100663  0.933186  1
  O  O55  1  0.771077  0.100889  0.932874  1
