# generated using pymatgen
data_Li2MnCrO4
_symmetry_space_group_name_H-M   'P 1'
_cell_length_a   6.03475357
_cell_length_b   10.24858659
_cell_length_c   10.24075081
_cell_angle_alpha   72.36789538
_cell_angle_beta   91.95776360
_cell_angle_gamma   88.76121084
_symmetry_Int_Tables_number   1
_chemical_formula_structural   Li2MnCrO4
_chemical_formula_sum   'Li16 Mn8 Cr8 O32'
_cell_volume   602.91973702
_cell_formula_units_Z   8
loop_
 _symmetry_equiv_pos_site_id
 _symmetry_equiv_pos_as_xyz
  1  'x, y, z'
loop_
 _atom_site_type_symbol
 _atom_site_label
 _atom_site_symmetry_multiplicity
 _atom_site_fract_x
 _atom_site_fract_y
 _atom_site_fract_z
 _atom_site_occupancy
  Li  Li0  1  0.505557  0.003035  0.998888  1
  Li  Li1  1  0.755266  0.250116  0.000328  1
  Li  Li2  1  0.745961  0.250395  0.500798  1
  Li  Li3  1  0.241411  0.248492  0.001037  1
  Li  Li4  1  0.994443  0.996965  0.501112  1
  Li  Li5  1  0.005288  0.250369  0.248146  1
  Li  Li6  1  0.248030  0.249556  0.498925  1
  Li  Li7  1  0.498499  0.249445  0.748288  1
  Li  Li8  1  0.996405  0.496828  0.000410  1
  Li  Li9  1  0.503595  0.503172  0.499590  1
  Li  Li10  1  0.754039  0.749605  0.999202  1
  Li  Li11  1  0.251970  0.750444  0.001075  1
  Li  Li12  1  0.494712  0.749631  0.251854  1
  Li  Li13  1  0.744734  0.749884  0.499672  1
  Li  Li14  1  0.258589  0.751508  0.498963  1
  Li  Li15  1  0.001501  0.750555  0.751712  1
  Mn  Mn16  1  0.750000  0.000000  0.250000  1
  Mn  Mn17  1  0.750000  0.000000  0.750000  1
  Mn  Mn18  1  0.490193  0.001160  0.500072  1
  Mn  Mn19  1  0.009807  0.998840  -0.000072  1
  Mn  Mn20  1  0.250000  0.000000  0.250000  1
  Mn  Mn21  1  0.499829  0.500500  0.999356  1
  Mn  Mn22  1  0.250000  0.500000  0.750000  1
  Mn  Mn23  1  0.000171  0.499500  0.500644  1
  Cr  Cr24  1  0.250000  0.000000  0.750000  1
  Cr  Cr25  1  0.503176  0.250807  0.246779  1
  Cr  Cr26  1  0.750000  0.500000  0.250000  1
  Cr  Cr27  1  0.250000  0.500000  0.250000  1
  Cr  Cr28  1  0.750000  0.500000  0.750000  1
  Cr  Cr29  1  0.996536  0.249336  0.751068  1
  Cr  Cr30  1  0.503464  0.750664  0.748932  1
  Cr  Cr31  1  0.996824  0.749193  0.253221  1
  O  O32  1  0.022705  0.113721  0.121587  1
  O  O33  1  0.746835  0.125211  0.364287  1
  O  O34  1  0.989328  0.114533  0.638390  1
  O  O35  1  0.520539  0.122838  0.130914  1
  O  O36  1  0.723434  0.377724  0.127869  1
  O  O37  1  0.473289  0.114581  0.620471  1
  O  O38  1  0.274349  0.127516  0.363458  1
  O  O39  1  0.775500  0.119952  0.867553  1
  O  O40  1  0.509734  0.383405  0.360314  1
  O  O41  1  0.750840  0.371390  0.633891  1
  O  O42  1  0.253924  0.372799  0.133278  1
  O  O43  1  0.247645  0.129081  0.864092  1
  O  O44  1  0.990266  0.616595  0.139686  1
  O  O45  1  0.220786  0.376227  0.631868  1
  O  O46  1  0.502347  0.394634  0.865293  1
  O  O47  1  0.009529  0.390946  0.370638  1
  O  O48  1  0.490471  0.609054  0.129363  1
  O  O49  1  0.776566  0.622276  0.372131  1
  O  O50  1  0.997653  0.605366  0.634707  1
  O  O51  1  0.246076  0.627201  0.366722  1
  O  O52  1  0.511670  0.626528  0.630668  1
  O  O53  1  0.988330  0.373471  0.869332  1
  O  O54  1  0.749160  0.628610  0.866109  1
  O  O55  1  0.753165  0.874789  0.135713  1
  O  O56  1  0.225651  0.872484  0.136542  1
  O  O57  1  0.477295  0.886279  0.378413  1
  O  O58  1  0.724500  0.880048  0.632447  1
  O  O59  1  0.279214  0.623773  0.868132  1
  O  O60  1  0.510672  0.885467  0.861610  1
  O  O61  1  0.979461  0.877162  0.369086  1
  O  O62  1  0.252355  0.870919  0.635908  1
  O  O63  1  0.026711  0.885419  0.879529  1
