# generated using pymatgen
data_Li3MnV(PO4)3
_symmetry_space_group_name_H-M   'P 1'
_cell_length_a   9.87293670
_cell_length_b   9.85065687
_cell_length_c   9.75582290
_cell_angle_alpha   87.47591298
_cell_angle_beta   93.56820922
_cell_angle_gamma   95.33092801
_symmetry_Int_Tables_number   1
_chemical_formula_structural   Li3MnV(PO4)3
_chemical_formula_sum   'Li12 Mn4 V4 P12 O48'
_cell_volume   942.16749313
_cell_formula_units_Z   4
loop_
 _symmetry_equiv_pos_site_id
 _symmetry_equiv_pos_as_xyz
  1  'x, y, z'
loop_
 _atom_site_type_symbol
 _atom_site_label
 _atom_site_symmetry_multiplicity
 _atom_site_fract_x
 _atom_site_fract_y
 _atom_site_fract_z
 _atom_site_occupancy
  Li  Li0  1  0.013610  0.512221  0.242490  1
  Li  Li1  1  0.995007  0.259163  0.384916  1
  Li  Li2  1  0.225274  0.562455  0.472554  1
  Li  Li3  1  0.226780  0.734240  0.177994  1
  Li  Li4  1  0.252717  0.988578  0.604168  1
  Li  Li5  1  0.374111  0.745861  0.810629  1
  Li  Li6  1  0.504838  0.011645  0.752363  1
  Li  Li7  1  0.558906  0.225693  0.529982  1
  Li  Li8  1  0.696710  0.924638  0.978647  1
  Li  Li9  1  0.732028  0.231580  0.818494  1
  Li  Li10  1  0.751081  0.381983  0.193503  1
  Li  Li11  1  0.923799  0.693412  0.023238  1
  Mn  Mn12  1  0.259787  0.027268  0.218445  1
  Mn  Mn13  1  0.535159  0.531251  0.506322  1
  Mn  Mn14  1  0.752553  0.757916  0.499307  1
  Mn  Mn15  1  0.971035  0.737423  0.722197  1
  V  V16  1  0.028059  0.249160  0.784783  1
  V  V17  1  0.246950  0.246963  0.000728  1
  V  V18  1  0.468707  0.464143  0.001998  1
  V  V19  1  0.746063  0.966134  0.281701  1
  P  P20  1  0.051540  0.825200  0.404733  1
  P  P21  1  0.174065  0.945722  0.899979  1
  P  P22  1  0.161744  0.550683  0.929927  1
  P  P23  1  0.321304  0.341648  0.304000  1
  P  P24  1  0.336723  0.319316  0.697000  1
  P  P25  1  0.443752  0.831529  0.425788  1
  P  P26  1  0.550056  0.153172  0.071416  1
  P  P27  1  0.652056  0.679903  0.802606  1
  P  P28  1  0.686728  0.653660  0.199767  1
  P  P29  1  0.840620  0.445292  0.576152  1
  P  P30  1  0.814921  0.054356  0.591779  1
  P  P31  1  0.944211  0.176749  0.095422  1
  O  O32  1  0.032989  0.870314  0.856733  1
  O  O33  1  0.082265  0.824333  0.563073  1
  O  O34  1  0.113868  0.614259  0.791640  1
  O  O35  1  0.117778  0.962755  0.345496  1
  O  O36  1  0.096159  0.698481  0.339941  1
  O  O37  1  0.126094  0.390384  0.924982  1
  O  O38  1  0.096391  0.602266  0.054776  1
  O  O39  1  0.102424  0.168810  0.120930  1
  O  O40  1  0.160702  0.103988  0.873860  1
  O  O41  1  0.179033  0.305109  0.669467  1
  O  O42  1  0.197210  0.908144  0.056132  1
  O  O43  1  0.197671  0.407360  0.348941  1
  O  O44  1  0.288950  0.912542  0.812493  1
  O  O45  1  0.320451  0.586892  0.943786  1
  O  O46  1  0.309484  0.183996  0.332780  1
  O  O47  1  0.329148  0.376358  0.142210  1
  O  O48  1  0.368342  0.865601  0.287030  1
  O  O49  1  0.401982  0.902204  0.549852  1
  O  O50  1  0.376326  0.323295  0.860702  1
  O  O51  1  0.384714  0.458595  0.633231  1
  O  O52  1  0.414028  0.670604  0.444445  1
  O  O53  1  0.401807  0.196323  0.647487  1
  O  O54  1  0.387972  0.121209  0.076466  1
  O  O55  1  0.461649  0.391601  0.372776  1
  O  O56  1  0.580117  0.802783  0.843772  1
  O  O57  1  0.549338  0.591106  0.141333  1
  O  O58  1  0.590151  0.543067  0.862205  1
  O  O59  1  0.601234  0.872991  0.412127  1
  O  O60  1  0.628283  0.669635  0.639688  1
  O  O61  1  0.597310  0.096613  0.939647  1
  O  O62  1  0.588794  0.310999  0.072369  1
  O  O63  1  0.608823  0.086145  0.204162  1
  O  O64  1  0.681678  0.631229  0.361583  1
  O  O65  1  0.703505  0.808998  0.155544  1
  O  O66  1  0.680155  0.412694  0.561435  1
  O  O67  1  0.690674  0.108843  0.650831  1
  O  O68  1  0.807350  0.697365  0.844923  1
  O  O69  1  0.813210  0.895299  0.624496  1
  O  O70  1  0.808717  0.582436  0.156595  1
  O  O71  1  0.818768  0.087895  0.433296  1
  O  O72  1  0.879063  0.605391  0.591849  1
  O  O73  1  0.890991  0.832123  0.372964  1
  O  O74  1  0.883806  0.372395  0.713096  1
  O  O75  1  0.903611  0.206873  0.939782  1
  O  O76  1  0.906112  0.405084  0.449131  1
  O  O77  1  0.870372  0.036059  0.132081  1
  O  O78  1  0.910258  0.290837  0.186654  1
  O  O79  1  0.952152  0.111555  0.658189  1
