# generated using pymatgen
data_LiCu3(CO3)3
_symmetry_space_group_name_H-M   'P 1'
_cell_length_a   14.01203822
_cell_length_b   14.03601828
_cell_length_c   3.20035727
_cell_angle_alpha   93.90116799
_cell_angle_beta   91.11134204
_cell_angle_gamma   59.18698819
_symmetry_Int_Tables_number   1
_chemical_formula_structural   LiCu3(CO3)3
_chemical_formula_sum   'Li3 Cu9 C9 O27'
_cell_volume   539.23695652
_cell_formula_units_Z   3
loop_
 _symmetry_equiv_pos_site_id
 _symmetry_equiv_pos_as_xyz
  1  'x, y, z'
loop_
 _atom_site_type_symbol
 _atom_site_label
 _atom_site_symmetry_multiplicity
 _atom_site_fract_x
 _atom_site_fract_y
 _atom_site_fract_z
 _atom_site_occupancy
  Li  Li0  1  0.178249  0.251323  0.002411  1
  Li  Li1  1  0.519937  0.583807  0.011507  1
  Li  Li2  1  0.873552  0.899010  0.974619  1
  Cu  Cu3  1  0.120898  0.769818  0.510595  1
  Cu  Cu4  1  0.449105  0.812859  0.501142  1
  Cu  Cu5  1  0.108989  0.461820  0.447238  1
  Cu  Cu6  1  0.441124  0.429458  0.576934  1
  Cu  Cu7  1  0.110641  0.089720  0.489785  1
  Cu  Cu8  1  0.794521  0.739267  0.513673  1
  Cu  Cu9  1  0.758391  0.441879  0.528946  1
  Cu  Cu10  1  0.444943  0.113090  0.433215  1
  Cu  Cu11  1  0.781980  0.128612  0.490142  1
  C  C12  1  0.005403  0.661836  0.998078  1
  C  C13  1  0.335059  0.682414  0.537620  1
  C  C14  1  0.686569  0.983514  0.464741  1
  C  C15  1  0.333703  0.329926  0.005185  1
  C  C16  1  0.662427  0.666969  0.016589  1
  C  C17  1  0.652189  0.338208  0.992202  1
  C  C18  1  0.332891  0.014509  0.010528  1
  C  C19  1  0.989957  0.328287  0.511356  1
  C  C20  1  0.997323  0.998083  0.978007  1
  O  O21  1  0.013023  0.898342  0.927469  1
  O  O22  1  0.078532  0.678683  0.170367  1
  O  O23  1  0.344317  0.917736  0.925704  1
  O  O24  1  0.025403  0.559091  0.945559  1
  O  O25  1  0.250466  0.780101  0.510617  1
  O  O26  1  0.322996  0.599193  0.579309  1
  O  O27  1  0.682251  0.894817  0.476552  1
  O  O28  1  0.435286  0.669356  0.524970  1
  O  O29  1  0.087162  0.321293  0.514047  1
  O  O30  1  0.784392  0.977831  0.494598  1
  O  O31  1  0.566817  0.756321  0.081763  1
  O  O32  1  0.228505  0.360361  0.028839  1
  O  O33  1  0.363693  0.403280  0.072188  1
  O  O34  1  0.079460  0.014736  0.937928  1
  O  O35  1  0.666267  0.573317  0.922716  1
  O  O36  1  0.752740  0.670821  0.035153  1
  O  O37  1  0.550204  0.427142  0.032138  1
  O  O38  1  0.236529  0.097228  0.142157  1
  O  O39  1  0.405416  0.227382  0.913225  1
  O  O40  1  0.910582  0.743592  0.883068  1
  O  O41  1  0.736774  0.346711  0.100086  1
  O  O42  1  0.417000  0.028675  0.968749  1
  O  O43  1  0.661850  0.247004  0.839342  1
  O  O44  1  0.902569  0.423955  0.488451  1
  O  O45  1  0.600904  0.077151  0.420013  1
  O  O46  1  0.984335  0.240570  0.533365  1
  O  O47  1  0.898597  0.081170  0.068028  1
