# generated using pymatgen
data_Na4Mn2P(CO4)4
_symmetry_space_group_name_H-M   'P 1'
_cell_length_a   10.08192347
_cell_length_b   9.89653000
_cell_length_c   10.08192354
_cell_angle_alpha   59.11464933
_cell_angle_beta   89.55509325
_cell_angle_gamma   59.11464493
_symmetry_Int_Tables_number   1
_chemical_formula_structural   Na4Mn2P(CO4)4
_chemical_formula_sum   'Na8 Mn4 P2 C8 O32'
_cell_volume   694.77474323
_cell_formula_units_Z   2
loop_
 _symmetry_equiv_pos_site_id
 _symmetry_equiv_pos_as_xyz
  1  'x, y, z'
loop_
 _atom_site_type_symbol
 _atom_site_label
 _atom_site_symmetry_multiplicity
 _atom_site_fract_x
 _atom_site_fract_y
 _atom_site_fract_z
 _atom_site_occupancy
  Na  Na0  1  0.085525  0.828951  0.835525  1
  Na  Na1  1  0.081168  0.250000  0.831168  1
  Na  Na2  1  0.331168  0.750000  0.581168  1
  Na  Na3  1  0.335525  0.328951  0.585525  1
  Na  Na4  1  0.664475  0.671049  0.414475  1
  Na  Na5  1  0.668832  0.250000  0.418832  1
  Na  Na6  1  0.918832  0.750000  0.168832  1
  Na  Na7  1  0.914475  0.171049  0.164475  1
  Mn  Mn8  1  0.000000  0.500000  0.000000  1
  Mn  Mn9  1  0.500000  0.000000  0.500000  1
  Mn  Mn10  1  0.500000  0.500000  0.000000  1
  Mn  Mn11  1  0.500000  0.000000  0.000000  1
  P  P12  1  0.125000  0.750000  0.375000  1
  P  P13  1  0.875000  0.250000  0.625000  1
  C  C14  1  0.357149  0.930827  0.775365  1
  C  C15  1  0.275365  0.430827  0.857149  1
  C  C16  1  0.712024  0.930827  0.793808  1
  C  C17  1  0.706192  0.569173  0.787976  1
  C  C18  1  0.293808  0.430827  0.212024  1
  C  C19  1  0.287976  0.069173  0.206192  1
  C  C20  1  0.724635  0.569173  0.142851  1
  C  C21  1  0.642851  0.069173  0.224635  1
  O  O22  1  0.351866  0.789226  0.889698  1
  O  O23  1  0.060382  0.881050  0.434401  1
  O  O24  1  0.367555  0.947477  0.639888  1
  O  O25  1  0.139888  0.447477  0.867555  1
  O  O26  1  0.684969  0.947477  0.912635  1
  O  O27  1  0.296960  0.552562  0.845478  1
  O  O28  1  0.058568  0.881050  0.184549  1
  O  O29  1  0.065599  0.618950  0.439618  1
  O  O30  1  0.398040  0.947438  0.349522  1
  O  O31  1  0.587365  0.552523  0.815031  1
  O  O32  1  0.389698  0.289226  0.851866  1
  O  O33  1  0.315451  0.618950  0.441432  1
  O  O34  1  0.858909  0.789226  0.821077  1
  O  O35  1  0.678923  0.710774  0.641091  1
  O  O36  1  0.345478  0.052562  0.796960  1
  O  O37  1  0.150478  0.552562  0.101960  1
  O  O38  1  0.849522  0.447438  0.898040  1
  O  O39  1  0.654522  0.947438  0.203040  1
  O  O40  1  0.321077  0.289226  0.358909  1
  O  O41  1  0.141091  0.210774  0.178923  1
  O  O42  1  0.684549  0.381050  0.558568  1
  O  O43  1  0.610302  0.710774  0.148134  1
  O  O44  1  0.412635  0.447477  0.184969  1
  O  O45  1  0.601960  0.052562  0.650478  1
  O  O46  1  0.934401  0.381050  0.560382  1
  O  O47  1  0.941432  0.118950  0.815451  1
  O  O48  1  0.703040  0.447438  0.154522  1
  O  O49  1  0.315031  0.052523  0.087365  1
  O  O50  1  0.860112  0.552523  0.132445  1
  O  O51  1  0.632445  0.052523  0.360112  1
  O  O52  1  0.939618  0.118950  0.565599  1
  O  O53  1  0.648134  0.210774  0.110302  1
