# generated using pymatgen
data_Na3Cr2P2O8F3
_symmetry_space_group_name_H-M   'P 1'
_cell_length_a   6.43040298
_cell_length_b   6.43354009
_cell_length_c   21.22724840
_cell_angle_alpha   116.79241446
_cell_angle_beta   116.71161261
_cell_angle_gamma   90.04798039
_symmetry_Int_Tables_number   1
_chemical_formula_structural   Na3Cr2P2O8F3
_chemical_formula_sum   'Na9 Cr6 P6 O24 F9'
_cell_volume   677.06548073
_cell_formula_units_Z   3
loop_
 _symmetry_equiv_pos_site_id
 _symmetry_equiv_pos_as_xyz
  1  'x, y, z'
loop_
 _atom_site_type_symbol
 _atom_site_label
 _atom_site_symmetry_multiplicity
 _atom_site_fract_x
 _atom_site_fract_y
 _atom_site_fract_z
 _atom_site_occupancy
  Na  Na0  1  0.563771  0.230904  0.666116  1
  Na  Na1  1  0.516198  0.770581  0.666866  1
  Na  Na2  1  0.972394  0.502180  0.665741  1
  Na  Na3  1  0.283894  0.284057  0.329818  1
  Na  Na4  1  0.636412  0.774696  0.333258  1
  Na  Na5  1  0.774333  0.319235  0.333711  1
  Na  Na6  1  0.282769  0.318870  0.999162  1
  Na  Na7  1  0.799210  0.422303  0.001821  1
  Na  Na8  1  0.551423  0.840864  0.004786  1
  Cr  Cr9  1  0.192025  0.182850  0.787182  1
  Cr  Cr10  1  0.197102  0.178069  0.452963  1
  Cr  Cr11  1  0.841390  0.818497  0.881597  1
  Cr  Cr12  1  0.198001  0.183396  0.122432  1
  Cr  Cr13  1  0.827187  0.818572  0.544175  1
  Cr  Cr14  1  0.826534  0.816084  0.211277  1
  P  P15  1  0.270129  0.759449  0.837771  1
  P  P16  1  0.255463  0.749583  0.498032  1
  P  P17  1  0.760751  0.252550  0.834013  1
  P  P18  1  0.260056  0.757827  0.167444  1
  P  P19  1  0.748572  0.246035  0.493283  1
  P  P20  1  0.762729  0.263572  0.169507  1
  O  O21  1  0.179983  0.850234  0.900031  1
  O  O22  1  0.178193  0.482901  0.779995  1
  O  O23  1  0.173148  0.861546  0.779528  1
  O  O24  1  0.546188  0.841250  0.891694  1
  O  O25  1  0.159106  0.822480  0.558356  1
  O  O26  1  0.484522  0.154452  0.774305  1
  O  O27  1  0.183963  0.472887  0.439834  1
  O  O28  1  0.154526  0.855114  0.441432  1
  O  O29  1  0.856872  0.148503  0.892153  1
  O  O30  1  0.840839  0.526583  0.892778  1
  O  O31  1  0.532088  0.846293  0.556798  1
  O  O32  1  0.859759  0.167889  0.774422  1
  O  O33  1  0.156269  0.826979  0.225210  1
  O  O34  1  0.474397  0.148486  0.432279  1
  O  O35  1  0.195011  0.480724  0.110334  1
  O  O36  1  0.154145  0.855166  0.108225  1
  O  O37  1  0.836242  0.139377  0.550391  1
  O  O38  1  0.821819  0.521088  0.552044  1
  O  O39  1  0.536190  0.861425  0.225798  1
  O  O40  1  0.864419  0.176300  0.439050  1
  O  O41  1  0.487879  0.153647  0.107496  1
  O  O42  1  0.859387  0.151211  0.225193  1
  O  O43  1  0.820615  0.535685  0.227928  1
  O  O44  1  0.875802  0.199763  0.114624  1
  F  F45  1  0.995334  0.003970  0.665629  1
  F  F46  1  0.378823  0.360191  0.907463  1
  F  F47  1  0.997997  0.012718  0.332075  1
  F  F48  1  0.392166  0.357646  0.571977  1
  F  F49  1  0.688281  0.641509  0.762179  1
  F  F50  1  0.005540  0.018541  0.002065  1
  F  F51  1  0.390729  0.350577  0.242189  1
  F  F52  1  0.664463  0.632054  0.424068  1
  F  F53  1  0.653361  0.638837  0.091501  1
