# generated using pymatgen
data_Li4Ti2V3Cr4O18
_symmetry_space_group_name_H-M   'P 1'
_cell_length_a   8.96260863
_cell_length_b   24.98488601
_cell_length_c   2.97694480
_cell_angle_alpha   90.00002133
_cell_angle_beta   90.00003152
_cell_angle_gamma   89.91314142
_symmetry_Int_Tables_number   1
_chemical_formula_structural   Li4Ti2V3Cr4O18
_chemical_formula_sum   'Li8 Ti4 V6 Cr8 O36'
_cell_volume   666.62575380
_cell_formula_units_Z   2
loop_
 _symmetry_equiv_pos_site_id
 _symmetry_equiv_pos_as_xyz
  1  'x, y, z'
loop_
 _atom_site_type_symbol
 _atom_site_label
 _atom_site_symmetry_multiplicity
 _atom_site_fract_x
 _atom_site_fract_y
 _atom_site_fract_z
 _atom_site_occupancy
  Li  Li0  1  0.187802  0.993784  0.000001  1
  Li  Li1  1  0.208049  0.190013  1.000000  1
  Li  Li2  1  0.291864  0.690062  0.000001  1
  Li  Li3  1  0.312728  0.493793  0.000001  1
  Li  Li4  1  0.687245  0.506212  0.000001  1
  Li  Li5  1  0.708154  0.309952  0.999999  1
  Li  Li6  1  0.791970  0.809982  0.000001  1
  Li  Li7  1  0.812164  0.006200  0.999998  1
  Ti  Ti8  1  0.993173  0.102560  0.000001  1
  Ti  Ti9  1  0.506796  0.602629  0.999997  1
  Ti  Ti10  1  0.493218  0.397393  0.000003  1
  Ti  Ti11  1  0.006850  0.897388  1.000000  1
  V  V12  1  0.000001  0.500016  0.000002  1
  V  V13  1  0.145377  0.802525  0.499999  1
  V  V14  1  0.354681  0.302651  0.500001  1
  V  V15  1  0.500001  0.999988  -0.000001  1
  V  V16  1  0.645302  0.697366  0.499999  1
  V  V17  1  0.854616  0.197456  0.499999  1
  Cr  Cr18  1  0.019093  0.310595  0.000043  1
  Cr  Cr19  1  0.148382  0.586256  0.500006  1
  Cr  Cr20  1  0.351685  0.086308  0.500008  1
  Cr  Cr21  1  0.480724  0.810627  0.999955  1
  Cr  Cr22  1  0.519191  0.189345  -0.000014  1
  Cr  Cr23  1  0.648352  0.913662  0.500006  1
  Cr  Cr24  1  0.851631  0.413794  0.499998  1
  Cr  Cr25  1  0.980954  0.689465  0.999990  1
  O  O26  1  0.999548  0.424158  0.999999  1
  O  O27  1  0.000473  0.575870  0.000003  1
  O  O28  1  0.060798  0.941734  0.499998  1
  O  O29  1  0.045843  0.159725  0.500003  1
  O  O30  1  0.113278  0.664618  0.499999  1
  O  O31  1  0.090844  0.756218  0.999999  1
  O  O32  1  0.150450  0.504652  0.500004  1
  O  O33  1  0.152490  0.284801  0.500021  1
  O  O34  1  0.187743  0.853655  0.999997  1
  O  O35  1  0.201884  0.085644  0.000005  1
  O  O36  1  0.298270  0.585622  0.000003  1
  O  O37  1  0.312291  0.353843  0.000003  1
  O  O38  1  0.347702  0.784755  0.499987  1
  O  O39  1  0.349578  0.004716  0.500000  1
  O  O40  1  0.409280  0.256279  0.000001  1
  O  O41  1  0.386829  0.164614  0.499996  1
  O  O42  1  0.453943  0.659808  0.499999  1
  O  O43  1  0.439046  0.441795  0.499999  1
  O  O44  1  0.499622  0.075828  0.000005  1
  O  O45  1  0.500418  0.924157  0.999994  1
  O  O46  1  0.560994  0.558231  0.499998  1
  O  O47  1  0.546053  0.340206  0.500002  1
  O  O48  1  0.613110  0.835366  0.499985  1
  O  O49  1  0.590603  0.743714  0.999999  1
  O  O50  1  0.650418  0.995265  0.499998  1
  O  O51  1  0.652256  0.215191  0.499994  1
  O  O52  1  0.687702  0.646182  -0.000001  1
  O  O53  1  0.701734  0.414410  0.999997  1
  O  O54  1  0.798162  0.914322  0.999996  1
  O  O55  1  0.812283  0.146292  0.000002  1
  O  O56  1  0.847499  0.715237  0.499997  1
  O  O57  1  0.849546  0.495382  0.499998  1
  O  O58  1  0.909089  0.243812  0.000006  1
  O  O59  1  0.886796  0.335448  0.500018  1
  O  O60  1  0.954124  0.840238  0.499997  1
  O  O61  1  0.939298  0.058190  0.500005  1
