# generated using pymatgen
data_Ti3Mn2Cu(PO4)6
_symmetry_space_group_name_H-M   'P 1'
_cell_length_a   8.63639977
_cell_length_b   8.63639940
_cell_length_c   8.63640008
_cell_angle_alpha   60.16823808
_cell_angle_beta   60.16823232
_cell_angle_gamma   60.16823531
_symmetry_Int_Tables_number   1
_chemical_formula_structural   Ti3Mn2Cu(PO4)6
_chemical_formula_sum   'Ti3 Mn2 Cu1 P6 O24'
_cell_volume   457.23012440
_cell_formula_units_Z   1
loop_
 _symmetry_equiv_pos_site_id
 _symmetry_equiv_pos_as_xyz
  1  'x, y, z'
loop_
 _atom_site_type_symbol
 _atom_site_label
 _atom_site_symmetry_multiplicity
 _atom_site_fract_x
 _atom_site_fract_y
 _atom_site_fract_z
 _atom_site_occupancy
  Ti  Ti0  1  0.143676  0.143676  0.143676  1
  Ti  Ti1  1  0.353792  0.353792  0.353792  1
  Ti  Ti2  1  0.647088  0.647088  0.647088  1
  Mn  Mn3  1  0.995365  0.995365  0.995365  1
  Mn  Mn4  1  0.499154  0.499154  0.499154  1
  Cu  Cu5  1  0.853530  0.853530  0.853530  1
  P  P6  1  0.251801  0.542060  0.955547  1
  P  P7  1  0.542060  0.955547  0.251801  1
  P  P8  1  0.955547  0.251801  0.542060  1
  P  P9  1  0.046030  0.752208  0.457048  1
  P  P10  1  0.457048  0.046030  0.752208  1
  P  P11  1  0.752208  0.457048  0.046030  1
  O  O12  1  0.114673  0.323736  0.486792  1
  O  O13  1  0.323736  0.486792  0.114673  1
  O  O14  1  0.059018  0.913329  0.260149  1
  O  O15  1  0.486792  0.114673  0.323736  1
  O  O16  1  0.019453  0.808269  0.609700  1
  O  O17  1  0.238320  0.585705  0.430196  1
  O  O18  1  0.260149  0.059018  0.913329  1
  O  O19  1  0.430196  0.238320  0.585705  1
  O  O20  1  0.190192  0.378303  0.001272  1
  O  O21  1  0.585705  0.430196  0.238320  1
  O  O22  1  0.093897  0.732435  0.947997  1
  O  O23  1  0.378303  0.001272  0.190192  1
  O  O24  1  0.609700  0.019453  0.808269  1
  O  O25  1  0.913329  0.260149  0.059018  1
  O  O26  1  0.418155  0.552301  0.763654  1
  O  O27  1  0.808269  0.609700  0.019453  1
  O  O28  1  0.552301  0.763654  0.418155  1
  O  O29  1  0.732435  0.947997  0.093897  1
  O  O30  1  0.763654  0.418155  0.552301  1
  O  O31  1  0.001272  0.190192  0.378303  1
  O  O32  1  0.503703  0.879090  0.692365  1
  O  O33  1  0.947997  0.093897  0.732435  1
  O  O34  1  0.692365  0.503703  0.879090  1
  O  O35  1  0.879090  0.692365  0.503703  1
