# generated using pymatgen
data_LiCu2F5
_symmetry_space_group_name_H-M   'P 1'
_cell_length_a   10.03034794
_cell_length_b   10.03034794
_cell_length_c   12.28769240
_cell_angle_alpha   90.00000000
_cell_angle_beta   90.00000000
_cell_angle_gamma   90.00000000
_symmetry_Int_Tables_number   1
_chemical_formula_structural   LiCu2F5
_chemical_formula_sum   'Li8 Cu16 F40'
_cell_volume   1236.23867997
_cell_formula_units_Z   8
loop_
 _symmetry_equiv_pos_site_id
 _symmetry_equiv_pos_as_xyz
  1  'x, y, z'
loop_
 _atom_site_type_symbol
 _atom_site_label
 _atom_site_symmetry_multiplicity
 _atom_site_fract_x
 _atom_site_fract_y
 _atom_site_fract_z
 _atom_site_occupancy
  Li  Li0  1  0.250000  0.250000  0.250000  1
  Li  Li1  1  0.250000  0.250000  0.000000  1
  Li  Li2  1  0.250000  0.250000  0.500000  1
  Li  Li3  1  0.250000  0.250000  0.750000  1
  Li  Li4  1  0.750000  0.750000  0.000000  1
  Li  Li5  1  0.750000  0.750000  0.250000  1
  Li  Li6  1  0.750000  0.750000  0.500000  1
  Li  Li7  1  0.750000  0.750000  0.750000  1
  Cu  Cu8  1  0.031340  0.048301  0.391555  1
  Cu  Cu9  1  0.031340  0.451699  0.608445  1
  Cu  Cu10  1  0.048301  0.031340  0.108445  1
  Cu  Cu11  1  0.048301  0.468660  0.891555  1
  Cu  Cu12  1  0.451699  0.468660  0.108445  1
  Cu  Cu13  1  0.451699  0.031340  0.891555  1
  Cu  Cu14  1  0.468660  0.451699  0.391555  1
  Cu  Cu15  1  0.468660  0.048301  0.608445  1
  Cu  Cu16  1  0.531340  0.951699  0.391555  1
  Cu  Cu17  1  0.531340  0.548301  0.608445  1
  Cu  Cu18  1  0.548301  0.531340  0.891555  1
  Cu  Cu19  1  0.548301  0.968660  0.108445  1
  Cu  Cu20  1  0.951699  0.968660  0.891555  1
  Cu  Cu21  1  0.951699  0.531340  0.108445  1
  Cu  Cu22  1  0.968660  0.548301  0.391555  1
  Cu  Cu23  1  0.968660  0.951699  0.608445  1
  F  F24  1  0.013150  0.013150  0.750000  1
  F  F25  1  0.013150  0.486850  0.250000  1
  F  F26  1  0.055427  0.396160  0.037882  1
  F  F27  1  0.055427  0.103841  0.962118  1
  F  F28  1  0.103841  0.055427  0.537882  1
  F  F29  1  0.103841  0.444573  0.462118  1
  F  F30  1  0.131076  0.196803  0.359658  1
  F  F31  1  0.131076  0.303197  0.640342  1
  F  F32  1  0.196803  0.131076  0.140342  1
  F  F33  1  0.196803  0.368924  0.859658  1
  F  F34  1  0.303197  0.131076  0.859658  1
  F  F35  1  0.303197  0.368924  0.140342  1
  F  F36  1  0.368924  0.196803  0.640342  1
  F  F37  1  0.368924  0.303197  0.359658  1
  F  F38  1  0.396160  0.055427  0.462118  1
  F  F39  1  0.396160  0.444573  0.537882  1
  F  F40  1  0.444573  0.103841  0.037882  1
  F  F41  1  0.444573  0.396160  0.962118  1
  F  F42  1  0.486850  0.013150  0.250000  1
  F  F43  1  0.486850  0.486850  0.750000  1
  F  F44  1  0.513150  0.513150  0.250000  1
  F  F45  1  0.513150  0.986850  0.750000  1
  F  F46  1  0.555427  0.603840  0.037882  1
  F  F47  1  0.555427  0.896160  0.962118  1
  F  F48  1  0.603840  0.555427  0.462118  1
  F  F49  1  0.603840  0.944573  0.537882  1
  F  F50  1  0.631076  0.696803  0.640342  1
  F  F51  1  0.631076  0.803197  0.359658  1
  F  F52  1  0.696803  0.631076  0.859658  1
  F  F53  1  0.696803  0.868924  0.140342  1
  F  F54  1  0.803197  0.631076  0.140342  1
  F  F55  1  0.803197  0.868924  0.859658  1
  F  F56  1  0.868924  0.696803  0.359658  1
  F  F57  1  0.868924  0.803197  0.640342  1
  F  F58  1  0.896160  0.555427  0.537882  1
  F  F59  1  0.896160  0.944573  0.462118  1
  F  F60  1  0.944573  0.603840  0.962118  1
  F  F61  1  0.944573  0.896160  0.037882  1
  F  F62  1  0.986850  0.513150  0.750000  1
  F  F63  1  0.986850  0.986850  0.250000  1
