# generated using pymatgen
data_Na5P3H2O11
_symmetry_space_group_name_H-M   'P 1'
_cell_length_a   10.93786709
_cell_length_b   8.74858114
_cell_length_c   7.02558341
_cell_angle_alpha   128.03419962
_cell_angle_beta   98.37272783
_cell_angle_gamma   89.00339782
_symmetry_Int_Tables_number   1
_chemical_formula_structural   Na5P3H2O11
_chemical_formula_sum   'Na10 P6 H4 O22'
_cell_volume   521.61477735
_cell_formula_units_Z   2
loop_
 _symmetry_equiv_pos_site_id
 _symmetry_equiv_pos_as_xyz
  1  'x, y, z'
loop_
 _atom_site_type_symbol
 _atom_site_label
 _atom_site_symmetry_multiplicity
 _atom_site_fract_x
 _atom_site_fract_y
 _atom_site_fract_z
 _atom_site_occupancy
  Na  Na0  1  0.242773  0.002382  0.074153  1
  Na  Na1  1  0.757227  0.997618  0.925847  1
  Na  Na2  1  0.254943  0.578807  0.537399  1
  Na  Na3  1  0.745057  0.421193  0.462601  1
  Na  Na4  1  0.249434  0.565532  0.016351  1
  Na  Na5  1  0.750566  0.434468  0.983649  1
  Na  Na6  1  0.498986  0.782802  0.463196  1
  Na  Na7  1  0.501014  0.217198  0.536804  1
  Na  Na8  1  0.999321  0.805447  0.507687  1
  Na  Na9  1  0.000679  0.194553  0.492313  1
  P  P10  1  0.716728  0.943980  0.371552  1
  P  P11  1  0.283272  0.056020  0.628448  1
  P  P12  1  0.534788  0.690116  0.893935  1
  P  P13  1  0.465212  0.309884  0.106065  1
  P  P14  1  0.974701  0.680677  0.875460  1
  P  P15  1  0.025299  0.319323  0.124540  1
  H  H16  1  0.500000  0.000000  0.000000  1
  H  H17  1  0.000000  0.500000  0.000000  1
  H  H18  1  0.989500  0.994415  0.942746  1
  H  H19  1  0.010500  0.005585  0.057254  1
  O  O20  1  0.581663  0.816238  0.189175  1
  O  O21  1  0.418337  0.183762  0.810825  1
  O  O22  1  0.322861  0.956317  0.378803  1
  O  O23  1  0.677139  0.043684  0.621197  1
  O  O24  1  0.248031  0.916625  0.676906  1
  O  O25  1  0.751969  0.083375  0.323094  1
  O  O26  1  0.620418  0.530044  0.760125  1
  O  O27  1  0.379582  0.469956  0.239875  1
  O  O28  1  0.545411  0.847431  0.852483  1
  O  O29  1  0.454589  0.152569  0.147517  1
  O  O30  1  0.400738  0.617074  0.847762  1
  O  O31  1  0.599262  0.382926  0.152238  1
  O  O32  1  0.807653  0.790424  0.310523  1
  O  O33  1  0.192347  0.209576  0.689477  1
  O  O34  1  0.876458  0.705584  0.720521  1
  O  O35  1  0.123542  0.294416  0.279479  1
  O  O36  1  0.107868  0.682211  0.824580  1
  O  O37  1  0.892132  0.317789  0.175420  1
  O  O38  1  0.061435  0.515193  0.171158  1
  O  O39  1  0.938565  0.484807  0.828842  1
  O  O40  1  0.991355  0.842756  0.162138  1
  O  O41  1  0.008645  0.157244  0.837862  1
