# generated using pymatgen
data_Li6Mn5Fe(BO3)6
_symmetry_space_group_name_H-M   'P 1'
_cell_length_a   8.27513054
_cell_length_b   8.27647025
_cell_length_c   12.73968713
_cell_angle_alpha   90.00000000
_cell_angle_beta   90.00000000
_cell_angle_gamma   120.08751619
_symmetry_Int_Tables_number   1
_chemical_formula_structural   Li6Mn5Fe(BO3)6
_chemical_formula_sum   'Li12 Mn10 Fe2 B12 O36'
_cell_volume   754.96312225
_cell_formula_units_Z   2
loop_
 _symmetry_equiv_pos_site_id
 _symmetry_equiv_pos_as_xyz
  1  'x, y, z'
loop_
 _atom_site_type_symbol
 _atom_site_label
 _atom_site_symmetry_multiplicity
 _atom_site_fract_x
 _atom_site_fract_y
 _atom_site_fract_z
 _atom_site_occupancy
  Li  Li0  1  0.283766  0.982427  0.125000  1
  Li  Li1  1  0.283544  0.982085  0.874830  1
  Li  Li2  1  0.283787  0.981783  0.625000  1
  Li  Li3  1  0.283544  0.982085  0.375170  1
  Li  Li4  1  0.017249  0.301386  0.125000  1
  Li  Li5  1  0.017281  0.301047  0.375193  1
  Li  Li6  1  0.017647  0.301594  0.625000  1
  Li  Li7  1  0.017281  0.301047  0.874807  1
  Li  Li8  1  0.698952  0.715524  0.375167  1
  Li  Li9  1  0.698856  0.715032  0.625000  1
  Li  Li10  1  0.698975  0.716097  0.125000  1
  Li  Li11  1  0.698952  0.715524  0.874833  1
  Mn  Mn12  1  0.371313  0.359346  0.000071  1
  Mn  Mn13  1  0.372024  0.360190  0.499953  1
  Mn  Mn14  1  0.371313  0.359346  0.249929  1
  Mn  Mn15  1  0.372024  0.360190  0.750047  1
  Mn  Mn16  1  0.640165  0.011954  0.500000  1
  Mn  Mn17  1  0.640642  0.011733  0.999961  1
  Mn  Mn18  1  0.640642  0.011733  0.250039  1
  Mn  Mn19  1  0.640165  0.011954  0.750000  1
  Mn  Mn20  1  0.988055  0.628866  0.998805  1
  Mn  Mn21  1  0.988055  0.628866  0.251195  1
  Fe  Fe22  1  0.992074  0.632667  0.500652  1
  Fe  Fe23  1  0.992074  0.632667  0.749348  1
  B  B24  1  0.000059  0.000150  0.999956  1
  B  B25  1  0.000059  0.000150  0.250044  1
  B  B26  1  0.998294  0.997839  0.500147  1
  B  B27  1  0.998294  0.997839  0.749853  1
  B  B28  1  0.332178  0.666584  0.873755  1
  B  B29  1  0.333151  0.666623  0.125000  1
  B  B30  1  0.332178  0.666584  0.376245  1
  B  B31  1  0.331620  0.667103  0.625000  1
  B  B32  1  0.666879  0.333528  0.125000  1
  B  B33  1  0.667904  0.334338  0.375734  1
  B  B34  1  0.669777  0.335608  0.625000  1
  B  B35  1  0.667904  0.334338  0.874266  1
  O  O36  1  0.115806  0.922502  0.250117  1
  O  O37  1  0.115806  0.922502  0.999883  1
  O  O38  1  0.111525  0.916662  0.500541  1
  O  O39  1  0.111525  0.916662  0.749459  1
  O  O40  1  0.138360  0.580525  0.871819  1
  O  O41  1  0.139516  0.580468  0.125000  1
  O  O42  1  0.138360  0.580525  0.378181  1
  O  O43  1  0.137962  0.581886  0.625000  1
  O  O44  1  0.077896  0.193748  0.999938  1
  O  O45  1  0.078855  0.191420  0.500041  1
  O  O46  1  0.078855  0.191420  0.749959  1
  O  O47  1  0.077896  0.193748  0.250062  1
  O  O48  1  0.439927  0.860085  0.875127  1
  O  O49  1  0.440336  0.860582  0.625000  1
  O  O50  1  0.440605  0.860240  0.125000  1
  O  O51  1  0.439927  0.860085  0.374873  1
  O  O52  1  0.418220  0.559223  0.874977  1
  O  O53  1  0.419535  0.559530  0.125000  1
  O  O54  1  0.416911  0.558921  0.625000  1
  O  O55  1  0.418220  0.559223  0.375023  1
  O  O56  1  0.472961  0.250615  0.125000  1
  O  O57  1  0.475373  0.253291  0.625000  1
  O  O58  1  0.473785  0.251586  0.375111  1
  O  O59  1  0.473785  0.251586  0.874889  1
  O  O60  1  0.806410  0.884289  0.999896  1
  O  O61  1  0.806410  0.884289  0.250104  1
  O  O62  1  0.804893  0.883833  0.500075  1
  O  O63  1  0.804893  0.883833  0.749925  1
  O  O64  1  0.778027  0.527268  0.125000  1
  O  O65  1  0.779891  0.527791  0.376457  1
  O  O66  1  0.782712  0.528855  0.625000  1
  O  O67  1  0.779891  0.527791  0.873543  1
  O  O68  1  0.749482  0.222300  0.375235  1
  O  O69  1  0.749353  0.222401  0.125000  1
  O  O70  1  0.749923  0.222183  0.625000  1
  O  O71  1  0.749482  0.222300  0.874765  1
