# generated using pymatgen
data_Sr3GeO5
_symmetry_space_group_name_H-M   'P 1'
_cell_length_a   7.51798593
_cell_length_b   6.97737308
_cell_length_c   11.35273636
_cell_angle_alpha   90.09290523
_cell_angle_beta   41.02397588
_cell_angle_gamma   62.43829708
_symmetry_Int_Tables_number   1
_chemical_formula_structural   Sr3GeO5
_chemical_formula_sum   'Sr6 Ge2 O10'
_cell_volume   276.51387689
_cell_formula_units_Z   2
loop_
 _symmetry_equiv_pos_site_id
 _symmetry_equiv_pos_as_xyz
  1  'x, y, z'
loop_
 _atom_site_type_symbol
 _atom_site_label
 _atom_site_symmetry_multiplicity
 _atom_site_fract_x
 _atom_site_fract_y
 _atom_site_fract_z
 _atom_site_occupancy
  Sr  Sr0  1  0.994977  0.504265  0.998361  1
  Sr  Sr1  1  0.997517  0.501673  0.492478  1
  Sr  Sr2  1  0.370096  0.994253  0.065038  1
  Sr  Sr3  1  0.365612  0.633510  0.568180  1
  Sr  Sr4  1  0.629616  0.004470  0.436732  1
  Sr  Sr5  1  0.633864  0.364229  0.932529  1
  Ge  Ge6  1  0.998651  0.001612  0.002326  1
  Ge  Ge7  1  0.004003  0.997362  0.500556  1
  O  O8  1  0.002223  0.500433  0.257246  1
  O  O9  1  0.998868  0.500498  0.756506  1
  O  O10  1  0.282647  0.998908  0.763909  1
  O  O11  1  0.286719  0.717718  0.261366  1
  O  O12  1  0.285799  0.995301  0.457450  1
  O  O13  1  0.276402  0.723263  0.961627  1
  O  O14  1  0.726635  0.994008  0.040507  1
  O  O15  1  0.722706  0.278340  0.544352  1
  O  O16  1  0.723311  0.998514  0.738364  1
  O  O17  1  0.715631  0.284082  0.240034  1
