# generated using pymatgen
data_Li4Cr3Ni3(TeO8)2
_symmetry_space_group_name_H-M   'P 1'
_cell_length_a   5.92117009
_cell_length_b   5.91706886
_cell_length_c   9.62855938
_cell_angle_alpha   89.99980037
_cell_angle_beta   90.79890405
_cell_angle_gamma   119.98084855
_symmetry_Int_Tables_number   1
_chemical_formula_structural   Li4Cr3Ni3(TeO8)2
_chemical_formula_sum   'Li4 Cr3 Ni3 Te2 O16'
_cell_volume   292.16865746
_cell_formula_units_Z   1
loop_
 _symmetry_equiv_pos_site_id
 _symmetry_equiv_pos_as_xyz
  1  'x, y, z'
loop_
 _atom_site_type_symbol
 _atom_site_label
 _atom_site_symmetry_multiplicity
 _atom_site_fract_x
 _atom_site_fract_y
 _atom_site_fract_z
 _atom_site_occupancy
  Li  Li0  1  0.329228  0.664587  0.908903  1
  Li  Li1  1  0.992305  0.996190  0.984992  1
  Li  Li2  1  0.997605  0.998817  0.489878  1
  Li  Li3  1  0.666601  0.333325  0.410537  1
  Cr  Cr4  1  0.172582  0.831769  0.212853  1
  Cr  Cr5  1  0.172577  0.340857  0.212860  1
  Cr  Cr6  1  0.343905  0.172098  0.713983  1
  Ni  Ni7  1  0.659893  0.829955  0.212719  1
  Ni  Ni8  1  0.831657  0.659626  0.712624  1
  Ni  Ni9  1  0.831626  0.171993  0.712610  1
  Te  Te10  1  0.339693  0.669883  0.485307  1
  Te  Te11  1  0.670050  0.335023  0.983421  1
  O  O12  1  0.176211  0.832503  0.590234  1
  O  O13  1  0.037420  0.518734  0.344512  1
  O  O14  1  0.324767  0.662409  0.108658  1
  O  O15  1  0.007405  0.003721  0.303218  1
  O  O16  1  0.007583  0.003820  0.798687  1
  O  O17  1  0.176240  0.343761  0.590247  1
  O  O18  1  0.476597  0.964449  0.350088  1
  O  O19  1  0.476583  0.512201  0.350107  1
  O  O20  1  0.340074  0.170062  0.094343  1
  O  O21  1  0.665849  0.832964  0.589173  1
  O  O22  1  0.507573  0.474386  0.852121  1
  O  O23  1  0.507501  0.033107  0.852137  1
  O  O24  1  0.659882  0.329834  0.610195  1
  O  O25  1  0.833258  0.662265  0.090440  1
  O  O26  1  0.962106  0.480971  0.852544  1
  O  O27  1  0.833227  0.170992  0.090447  1
