# generated using pymatgen
data_Rb5(WO3)18
_symmetry_space_group_name_H-M   'P 1'
_cell_length_a   7.52343666
_cell_length_b   7.52343690
_cell_length_c   46.50293935
_cell_angle_alpha   90.00000000
_cell_angle_beta   90.00000000
_cell_angle_gamma   119.99999894
_symmetry_Int_Tables_number   1
_chemical_formula_structural   Rb5(WO3)18
_chemical_formula_sum   'Rb10 W36 O108'
_cell_volume   2279.52097553
_cell_formula_units_Z   2
loop_
 _symmetry_equiv_pos_site_id
 _symmetry_equiv_pos_as_xyz
  1  'x, y, z'
loop_
 _atom_site_type_symbol
 _atom_site_label
 _atom_site_symmetry_multiplicity
 _atom_site_fract_x
 _atom_site_fract_y
 _atom_site_fract_z
 _atom_site_occupancy
  Rb  Rb0  1  0.000000  0.000000  0.583276  1
  Rb  Rb1  1  0.000000  0.000000  0.245728  1
  Rb  Rb2  1  0.000000  0.000000  0.332991  1
  Rb  Rb3  1  0.000000  0.000000  0.416648  1
  Rb  Rb4  1  0.000000  0.000000  0.499796  1
  Rb  Rb5  1  0.000000  0.000000  0.666775  1
  Rb  Rb6  1  0.000000  0.000000  0.750064  1
  Rb  Rb7  1  0.000000  0.000000  0.833743  1
  Rb  Rb8  1  0.000000  0.000000  0.920977  1
  Rb  Rb9  1  0.000000  0.000000  0.083350  1
  W  W10  1  0.000000  0.497331  0.041659  1
  W  W11  1  0.000000  0.497856  0.208040  1
  W  W12  1  0.000000  0.500609  0.375041  1
  W  W13  1  0.000000  0.500112  0.541653  1
  W  W14  1  0.000000  0.500477  0.708375  1
  W  W15  1  0.000000  0.499820  0.875147  1
  W  W16  1  0.497331  0.000000  0.041659  1
  W  W17  1  0.502444  0.000000  0.125034  1
  W  W18  1  0.499328  0.000000  0.458268  1
  W  W19  1  0.499894  0.000000  0.624974  1
  W  W20  1  0.497556  0.497556  0.125034  1
  W  W21  1  0.499764  0.499764  0.291513  1
  W  W22  1  0.500672  0.500672  0.458268  1
  W  W23  1  0.500106  0.500106  0.624974  1
  W  W24  1  0.500580  0.500580  0.791673  1
  W  W25  1  0.497832  0.497832  0.958616  1
  W  W26  1  0.502669  0.502669  0.041659  1
  W  W27  1  0.502144  0.502144  0.208040  1
  W  W28  1  0.499391  0.499391  0.375041  1
  W  W29  1  0.499888  0.499888  0.541653  1
  W  W30  1  0.500180  0.500180  0.875147  1
  W  W31  1  0.499523  0.499523  0.708375  1
  W  W32  1  0.497856  0.000000  0.208040  1
  W  W33  1  0.500609  0.000000  0.375041  1
  W  W34  1  0.500112  0.000000  0.541653  1
  W  W35  1  0.500477  0.000000  0.708375  1
  W  W36  1  0.499820  0.000000  0.875147  1
  W  W37  1  0.500236  0.000000  0.291513  1
  W  W38  1  0.499420  0.000000  0.791673  1
  W  W39  1  0.502168  0.000000  0.958616  1
  W  W40  1  1.000000  0.502444  0.125034  1
  W  W41  1  1.000000  0.500236  0.291513  1
  W  W42  1  1.000000  0.499328  0.458268  1
  W  W43  1  1.000000  0.499894  0.624974  1
  W  W44  1  1.000000  0.499420  0.791673  1
  W  W45  1  1.000000  0.502168  0.958616  1
  O  O46  1  1.000000  0.500056  -0.000006  1
  O  O47  1  0.000000  0.500096  0.333061  1
  O  O48  1  0.000000  0.499924  0.166683  1
  O  O49  1  1.000000  0.499999  0.666518  1
  O  O50  1  0.211643  0.787236  0.041987  1
  O  O51  1  0.211437  0.787477  0.208635  1
  O  O52  1  0.210337  0.790111  0.374772  1
  O  O53  1  0.210077  0.790048  0.541774  1
  O  O54  1  0.210250  0.790118  0.708282  1
  O  O55  1  0.210404  0.789701  0.875112  1
  O  O56  1  0.212709  0.788283  0.124715  1
  O  O57  1  0.210291  0.789615  0.291535  1
  O  O58  1  0.209775  0.789704  0.458381  1
  O  O59  1  0.209989  0.789899  0.624946  1
  O  O60  1  0.209947  0.789611  0.791836  1
  O  O61  1  0.212520  0.788572  0.958023  1
  O  O62  1  0.211717  0.424426  0.124715  1
  O  O63  1  0.210385  0.420676  0.291535  1
  O  O64  1  0.210296  0.420070  0.458381  1
  O  O65  1  0.210101  0.420090  0.624946  1
  O  O66  1  0.210389  0.420336  0.791836  1
  O  O67  1  0.211428  0.423948  0.958023  1
  O  O68  1  0.499990  0.000000  0.083343  1
  O  O69  1  0.500044  0.000000  0.583368  1
  O  O70  1  0.212764  0.424407  0.041987  1
  O  O71  1  0.212523  0.423960  0.208635  1
  O  O72  1  0.209889  0.420226  0.374772  1
  O  O73  1  0.209952  0.420029  0.541774  1
  O  O74  1  0.209882  0.420133  0.708282  1
  O  O75  1  0.210299  0.420703  0.875112  1
  O  O76  1  0.575593  0.788357  0.041987  1
  O  O77  1  0.576040  0.788563  0.208635  1
  O  O78  1  0.579774  0.789663  0.374772  1
  O  O79  1  0.579971  0.789923  0.541774  1
  O  O80  1  0.579867  0.789750  0.708282  1
  O  O81  1  0.579297  0.789596  0.875112  1
  O  O82  1  0.575574  0.787291  0.124715  1
  O  O83  1  0.579324  0.789709  0.291535  1
  O  O84  1  0.579930  0.790225  0.458381  1
  O  O85  1  0.579910  0.790011  0.624946  1
  O  O86  1  0.579664  0.790053  0.791836  1
  O  O87  1  0.576052  0.787480  0.958023  1
  O  O88  1  0.500010  0.500010  0.083343  1
  O  O89  1  0.500684  0.500684  0.250042  1
  O  O90  1  0.499956  0.499956  0.583368  1
  O  O91  1  0.500143  0.500143  0.416490  1
  O  O92  1  0.499903  0.499903  0.750100  1
  O  O93  1  0.499367  0.499367  0.916630  1
  O  O94  1  0.499944  0.499944  -0.000006  1
  O  O95  1  0.500076  0.500076  0.166683  1
  O  O96  1  0.499904  0.499904  0.333061  1
  O  O97  1  0.500030  0.500030  0.500199  1
  O  O98  1  0.500001  0.500001  0.666518  1
  O  O99  1  0.500105  0.500105  0.833578  1
  O  O100  1  0.424407  0.212764  0.041987  1
  O  O101  1  0.423960  0.212523  0.208635  1
  O  O102  1  0.420226  0.209889  0.374772  1
  O  O103  1  0.420029  0.209952  0.541774  1
  O  O104  1  0.420133  0.209882  0.708282  1
  O  O105  1  0.420703  0.210299  0.875112  1
  O  O106  1  0.424426  0.211717  0.124715  1
  O  O107  1  0.420676  0.210385  0.291535  1
  O  O108  1  0.420070  0.210296  0.458381  1
  O  O109  1  0.420090  0.210101  0.624946  1
  O  O110  1  0.420336  0.210389  0.791836  1
  O  O111  1  0.423948  0.211428  0.958023  1
  O  O112  1  0.787291  0.575574  0.124715  1
  O  O113  1  0.789709  0.579324  0.291535  1
  O  O114  1  0.790225  0.579930  0.458381  1
  O  O115  1  0.790011  0.579910  0.624946  1
  O  O116  1  0.790053  0.579664  0.791836  1
  O  O117  1  0.787480  0.576052  0.958023  1
  O  O118  1  0.500056  0.000000  -0.000006  1
  O  O119  1  0.499924  0.000000  0.166683  1
  O  O120  1  0.500096  0.000000  0.333061  1
  O  O121  1  0.499970  0.000000  0.500199  1
  O  O122  1  0.499999  0.000000  0.666518  1
  O  O123  1  0.499895  0.000000  0.833578  1
  O  O124  1  0.499857  0.000000  0.416490  1
  O  O125  1  0.499316  0.000000  0.250042  1
  O  O126  1  0.500097  0.000000  0.750100  1
  O  O127  1  0.500633  0.000000  0.916630  1
  O  O128  1  0.788357  0.575593  0.041987  1
  O  O129  1  0.788563  0.576040  0.208635  1
  O  O130  1  0.789663  0.579774  0.374772  1
  O  O131  1  0.789923  0.579971  0.541774  1
  O  O132  1  0.789750  0.579867  0.708282  1
  O  O133  1  0.789596  0.579297  0.875112  1
  O  O134  1  0.787236  0.211643  0.041987  1
  O  O135  1  0.787477  0.211437  0.208635  1
  O  O136  1  0.790111  0.210337  0.374772  1
  O  O137  1  0.790048  0.210077  0.541774  1
  O  O138  1  0.790118  0.210250  0.708282  1
  O  O139  1  0.789701  0.210404  0.875112  1
  O  O140  1  0.788283  0.212709  0.124715  1
  O  O141  1  0.789615  0.210291  0.291535  1
  O  O142  1  0.789704  0.209775  0.458381  1
  O  O143  1  0.789899  0.209989  0.624946  1
  O  O144  1  0.789611  0.209947  0.791836  1
  O  O145  1  0.788572  0.212520  0.958023  1
  O  O146  1  0.000000  0.499990  0.083343  1
  O  O147  1  1.000000  0.499316  0.250042  1
  O  O148  1  1.000000  0.499857  0.416490  1
  O  O149  1  0.000000  0.500097  0.750100  1
  O  O150  1  0.000000  0.500044  0.583368  1
  O  O151  1  1.000000  0.500633  0.916630  1
  O  O152  1  1.000000  0.499970  0.500199  1
  O  O153  1  1.000000  0.499895  0.833578  1
