# generated using pymatgen
data_Y2Ge2O7
_symmetry_space_group_name_H-M   'P 1'
_cell_length_a   12.40636927
_cell_length_b   6.86897767
_cell_length_c   6.84745221
_cell_angle_alpha   92.61606128
_cell_angle_beta   92.96792060
_cell_angle_gamma   93.85185924
_symmetry_Int_Tables_number   1
_chemical_formula_structural   Y2Ge2O7
_chemical_formula_sum   'Y8 Ge8 O28'
_cell_volume   580.72746338
_cell_formula_units_Z   4
loop_
 _symmetry_equiv_pos_site_id
 _symmetry_equiv_pos_as_xyz
  1  'x, y, z'
loop_
 _atom_site_type_symbol
 _atom_site_label
 _atom_site_symmetry_multiplicity
 _atom_site_fract_x
 _atom_site_fract_y
 _atom_site_fract_z
 _atom_site_occupancy
  Y  Y0  1  0.118866  0.831626  0.314746  1
  Y  Y1  1  0.112642  0.331882  0.045557  1
  Y  Y2  1  0.369347  0.769965  0.633656  1
  Y  Y3  1  0.356433  0.080832  0.110963  1
  Y  Y4  1  0.643567  0.919168  0.889037  1
  Y  Y5  1  0.630653  0.230035  0.366344  1
  Y  Y6  1  0.887358  0.668118  0.954443  1
  Y  Y7  1  0.881134  0.168374  0.685254  1
  Ge  Ge8  1  0.113570  0.853038  0.831459  1
  Ge  Ge9  1  0.163835  0.332344  0.513993  1
  Ge  Ge10  1  0.377667  0.614193  0.144712  1
  Ge  Ge11  1  0.397250  0.264899  0.610134  1
  Ge  Ge12  1  0.602750  0.735101  0.389866  1
  Ge  Ge13  1  0.622333  0.385807  0.855288  1
  Ge  Ge14  1  0.836165  0.667656  0.486007  1
  Ge  Ge15  1  0.886430  0.146962  0.168541  1
  O  O16  1  0.018183  0.096494  0.244629  1
  O  O17  1  0.082421  0.663650  0.999011  1
  O  O18  1  0.081487  0.283244  0.708544  1
  O  O19  1  0.117403  0.492232  0.341064  1
  O  O20  1  0.187749  0.788702  0.633588  1
  O  O21  1  0.183270  0.020260  0.008111  1
  O  O22  1  0.223251  0.131186  0.399416  1
  O  O23  1  0.299388  0.446146  0.609063  1
  O  O24  1  0.311308  0.786799  0.293595  1
  O  O25  1  0.303311  0.395843  0.070398  1
  O  O26  1  0.377524  0.080983  0.774861  1
  O  O27  1  0.417725  0.775034  0.961448  1
  O  O28  1  0.450961  0.163549  0.397444  1
  O  O29  1  0.492991  0.559569  0.295654  1
  O  O30  1  0.507009  0.440431  0.704346  1
  O  O31  1  0.549039  0.836451  0.602556  1
  O  O32  1  0.582275  0.224966  0.038552  1
  O  O33  1  0.622476  0.919017  0.225139  1
  O  O34  1  0.696689  0.604157  0.929602  1
  O  O35  1  0.688692  0.213201  0.706405  1
  O  O36  1  0.700612  0.553854  0.390937  1
  O  O37  1  0.776749  0.868814  0.600584  1
  O  O38  1  0.816730  0.979740  0.991889  1
  O  O39  1  0.812251  0.211298  0.366412  1
  O  O40  1  0.882597  0.507768  0.658936  1
  O  O41  1  0.918513  0.716756  0.291456  1
  O  O42  1  0.917579  0.336350  0.000989  1
  O  O43  1  0.981817  0.903506  0.755371  1
