# generated using pymatgen
data_Ba2P6O17
_symmetry_space_group_name_H-M   'P 1'
_cell_length_a   7.52322371
_cell_length_b   7.47999477
_cell_length_c   13.71854258
_cell_angle_alpha   90.00000000
_cell_angle_beta   90.00000000
_cell_angle_gamma   105.08078265
_symmetry_Int_Tables_number   1
_chemical_formula_structural   Ba2P6O17
_chemical_formula_sum   'Ba4 P12 O34'
_cell_volume   745.40532368
_cell_formula_units_Z   2
loop_
 _symmetry_equiv_pos_site_id
 _symmetry_equiv_pos_as_xyz
  1  'x, y, z'
loop_
 _atom_site_type_symbol
 _atom_site_label
 _atom_site_symmetry_multiplicity
 _atom_site_fract_x
 _atom_site_fract_y
 _atom_site_fract_z
 _atom_site_occupancy
  Ba  Ba0  1  0.202204  0.879964  0.718218  1
  Ba  Ba1  1  0.216666  0.168828  0.006568  1
  Ba  Ba2  1  0.783334  0.831172  0.506568  1
  Ba  Ba3  1  0.797796  0.120036  0.218218  1
  P  P4  1  0.004882  0.603896  0.938563  1
  P  P5  1  0.251251  0.940665  0.228388  1
  P  P6  1  0.242298  0.525719  0.260025  1
  P  P7  1  0.336666  0.385720  0.748841  1
  P  P8  1  0.338717  0.383676  0.535607  1
  P  P9  1  0.319269  0.006486  0.446092  1
  P  P10  1  0.680731  0.993514  0.946092  1
  P  P11  1  0.661283  0.616324  0.035607  1
  P  P12  1  0.663334  0.614280  0.248841  1
  P  P13  1  0.757702  0.474281  0.760025  1
  P  P14  1  0.748749  0.059335  0.728388  1
  P  P15  1  0.995118  0.396104  0.438563  1
  O  O16  1  0.084981  0.957011  0.172665  1
  O  O17  1  0.068673  0.797768  0.900421  1
  O  O18  1  0.176628  0.921705  0.520916  1
  O  O19  1  0.211688  0.968840  0.342221  1
  O  O20  1  0.151751  0.525852  0.363738  1
  O  O21  1  0.130195  0.391196  0.531772  1
  O  O22  1  0.134207  0.494871  0.967897  1
  O  O23  1  0.147212  0.372016  0.194984  1
  O  O24  1  0.256102  0.723438  0.218305  1
  O  O25  1  0.243371  0.536515  0.739013  1
  O  O26  1  0.263250  0.219306  0.811372  1
  O  O27  1  0.501864  0.965969  0.439487  1
  O  O28  1  0.355782  0.293182  0.639814  1
  O  O29  1  0.360609  0.235570  0.457518  1
  O  O30  1  0.564458  0.944496  0.696492  1
  O  O31  1  0.448900  0.521965  0.279980  1
  O  O32  1  0.470034  0.565639  0.522712  1
  O  O33  1  0.529966  0.434361  0.022712  1
  O  O34  1  0.551100  0.478035  0.779980  1
  O  O35  1  0.435542  0.055504  0.196492  1
  O  O36  1  0.639391  0.764430  0.957518  1
  O  O37  1  0.644218  0.706818  0.139814  1
  O  O38  1  0.498136  0.034031  0.939487  1
  O  O39  1  0.736749  0.780694  0.311372  1
  O  O40  1  0.756629  0.463485  0.239013  1
  O  O41  1  0.743898  0.276562  0.718305  1
  O  O42  1  0.852788  0.627984  0.694984  1
  O  O43  1  0.865793  0.505129  0.467897  1
  O  O44  1  0.869805  0.608804  0.031772  1
  O  O45  1  0.848249  0.474148  0.863738  1
  O  O46  1  0.788312  0.031160  0.842221  1
  O  O47  1  0.823372  0.078295  0.020916  1
  O  O48  1  0.931327  0.202232  0.400421  1
  O  O49  1  0.915019  0.042989  0.672665  1
