# generated using pymatgen
data_Mn6O5F7
_symmetry_space_group_name_H-M   'P 1'
_cell_length_a   5.76398284
_cell_length_b   5.15234956
_cell_length_c   14.60615944
_cell_angle_alpha   94.59800443
_cell_angle_beta   89.90844171
_cell_angle_gamma   89.90569418
_symmetry_Int_Tables_number   1
_chemical_formula_structural   Mn6O5F7
_chemical_formula_sum   'Mn12 O10 F14'
_cell_volume   432.37725292
_cell_formula_units_Z   2
loop_
 _symmetry_equiv_pos_site_id
 _symmetry_equiv_pos_as_xyz
  1  'x, y, z'
loop_
 _atom_site_type_symbol
 _atom_site_label
 _atom_site_symmetry_multiplicity
 _atom_site_fract_x
 _atom_site_fract_y
 _atom_site_fract_z
 _atom_site_occupancy
  Mn  Mn0  1  0.117438  0.964092  0.005901  1
  Mn  Mn1  1  0.858561  0.501999  0.164626  1
  Mn  Mn2  1  0.114731  0.048273  0.326459  1
  Mn  Mn3  1  0.112038  0.452796  0.504826  1
  Mn  Mn4  1  0.900792  0.009607  0.666287  1
  Mn  Mn5  1  0.094565  0.525858  0.836171  1
  Mn  Mn6  1  0.561941  0.998511  0.164311  1
  Mn  Mn7  1  0.424197  0.464142  0.005802  1
  Mn  Mn8  1  0.547387  0.482414  0.664031  1
  Mn  Mn9  1  0.467169  0.959802  0.502191  1
  Mn  Mn10  1  0.420524  0.535975  0.320858  1
  Mn  Mn11  1  0.411920  0.055062  0.838628  1
  O  O12  1  0.191564  0.269608  0.921425  1
  O  O13  1  0.361088  0.154273  0.074794  1
  O  O14  1  0.363804  0.850855  0.257929  1
  O  O15  1  0.366721  0.632455  0.570223  1
  O  O16  1  0.346054  0.771627  0.927828  1
  O  O17  1  0.333237  0.338449  0.762404  1
  O  O18  1  0.344501  0.247510  0.402872  1
  O  O19  1  0.637636  0.168836  0.596949  1
  O  O20  1  0.621206  0.332137  0.231322  1
  O  O21  1  0.620900  0.664600  0.095181  1
  F  F22  1  0.104864  0.377563  0.247432  1
  F  F23  1  0.108301  0.640494  0.087963  1
  F  F24  1  0.153586  0.131793  0.576873  1
  F  F25  1  0.169509  0.739155  0.412516  1
  F  F26  1  0.108075  0.837094  0.760171  1
  F  F27  1  0.656182  0.263659  0.916739  1
  F  F28  1  0.640712  0.725608  0.407959  1
  F  F29  1  0.596215  0.834720  0.743259  1
  F  F30  1  0.900653  0.237322  0.418219  1
  F  F31  1  0.872143  0.134764  0.084759  1
  F  F32  1  0.832515  0.368563  0.745790  1
  F  F33  1  0.868931  0.655240  0.586498  1
  F  F34  1  0.899751  0.754572  0.923922  1
  F  F35  1  0.870589  0.870571  0.246884  1
