# generated using pymatgen
data_Li7V3P8O29
_symmetry_space_group_name_H-M   'P 1'
_cell_length_a   9.84889911
_cell_length_b   9.85125328
_cell_length_c   13.90963846
_cell_angle_alpha   90.12087588
_cell_angle_beta   89.99364487
_cell_angle_gamma   60.00671525
_symmetry_Int_Tables_number   1
_chemical_formula_structural   Li7V3P8O29
_chemical_formula_sum   'Li14 V6 P16 O58'
_cell_volume   1168.83624650
_cell_formula_units_Z   2
loop_
 _symmetry_equiv_pos_site_id
 _symmetry_equiv_pos_as_xyz
  1  'x, y, z'
loop_
 _atom_site_type_symbol
 _atom_site_label
 _atom_site_symmetry_multiplicity
 _atom_site_fract_x
 _atom_site_fract_y
 _atom_site_fract_z
 _atom_site_occupancy
  Li  Li0  1  0.903258  0.762526  0.060821  1
  Li  Li1  1  0.768415  0.902410  0.563131  1
  Li  Li2  1  0.902178  0.333333  0.561338  1
  Li  Li3  1  0.671293  0.667504  0.883735  1
  Li  Li4  1  0.765857  0.327256  0.061575  1
  Li  Li5  1  0.325017  0.903435  0.064163  1
  Li  Li6  1  0.676893  0.233952  0.435693  1
  Li  Li7  1  0.345401  0.758343  0.558965  1
  Li  Li8  1  0.327207  0.327971  0.612110  1
  Li  Li9  1  0.349417  0.329667  0.113329  1
  Li  Li10  1  0.094428  0.674651  0.438120  1
  Li  Li11  1  0.091336  0.230475  0.936066  1
  Li  Li12  1  0.982367  0.965880  0.996417  1
  Li  Li13  1  0.050781  0.011739  0.490960  1
  V  V14  1  0.563735  0.437734  0.247782  1
  V  V15  1  0.432744  0.565544  0.754659  1
  V  V16  1  0.562166  0.001414  0.749991  1
  V  V17  1  0.433730  0.999166  0.253411  1
  V  V18  1  0.999483  0.563748  0.250889  1
  V  V19  1  0.999139  0.435641  0.748754  1
  P  P20  1  0.904592  0.777226  0.842848  1
  P  P21  1  0.769993  0.916276  0.345572  1
  P  P22  1  0.914106  0.311771  0.344896  1
  P  P23  1  0.670117  0.666194  0.125742  1
  P  P24  1  0.660744  0.667909  0.626441  1
  P  P25  1  0.773173  0.314379  0.845626  1
  P  P26  1  0.682422  0.227932  0.658065  1
  P  P27  1  0.316864  0.911090  0.845080  1
  P  P28  1  0.692927  0.086341  0.158603  1
  P  P29  1  0.312608  0.772654  0.342296  1
  P  P30  1  0.217344  0.690735  0.156742  1
  P  P31  1  0.334364  0.333386  0.370531  1
  P  P32  1  0.333888  0.331121  0.872934  1
  P  P33  1  0.092900  0.681407  0.658462  1
  P  P34  1  0.222583  0.084978  0.657021  1
  P  P35  1  0.091472  0.226671  0.159409  1
  O  O36  1  0.999182  0.766649  0.569941  1
  O  O37  1  0.916440  0.750791  0.341001  1
  O  O38  1  0.801823  0.984650  0.080485  1
  O  O39  1  0.741855  0.922376  0.833425  1
  O  O40  1  0.887691  0.630257  0.831585  1
  O  O41  1  0.817916  0.668708  0.170462  1
  O  O42  1  0.916958  0.466264  0.332924  1
  O  O43  1  0.000892  0.236575  0.069394  1
  O  O44  1  0.920322  0.330321  0.839970  1
  O  O45  1  0.663380  0.816486  0.668756  1
  O  O46  1  0.620182  0.909571  0.328318  1
  O  O47  1  0.811155  0.517519  0.659836  1
  O  O48  1  0.681987  0.667369  0.017654  1
  O  O49  1  0.638854  0.680190  0.519965  1
  O  O50  1  0.676142  0.514613  0.160887  1
  O  O51  1  0.482250  0.892676  0.830941  1
  O  O52  1  0.518584  0.814174  0.163000  1
  O  O53  1  0.747593  0.336615  0.340032  1
  O  O54  1  0.782563  0.211015  0.752696  1
  O  O55  1  0.771373  0.231872  0.570155  1
  O  O56  1  0.773760  0.230816  0.935737  1
  O  O57  1  0.626121  0.480295  0.832421  1
  O  O58  1  0.515410  0.666383  0.675474  1
  O  O59  1  0.664385  0.254237  0.153586  1
  O  O60  1  0.468062  0.623029  0.332146  1
  O  O61  1  0.334173  0.918361  0.333014  1
  O  O62  1  0.783350  0.016636  0.259586  1
  O  O63  1  0.769265  0.998779  0.437929  1
  O  O64  1  0.218306  0.981793  0.578755  1
  O  O65  1  0.662922  0.082028  0.655366  1
  O  O66  1  0.519070  0.376358  0.668760  1
  O  O67  1  0.334333  0.748350  0.840571  1
  O  O68  1  0.487243  0.325541  0.334558  1
  O  O69  1  0.366803  0.527783  0.162391  1
  O  O70  1  0.207027  0.797308  0.076959  1
  O  O71  1  0.224614  0.781252  0.434066  1
  O  O72  1  0.196501  0.785604  0.256835  1
  O  O73  1  0.255602  0.668496  0.657965  1
  O  O74  1  0.472597  0.183980  0.821406  1
  O  O75  1  0.530992  0.094865  0.167598  1
  O  O76  1  0.341276  0.474341  0.827674  1
  O  O77  1  0.349750  0.324515  0.979738  1
  O  O78  1  0.326049  0.343116  0.478480  1
  O  O79  1  0.185675  0.488861  0.329921  1
  O  O80  1  0.374159  0.095781  0.662395  1
  O  O81  1  0.325503  0.192544  0.326477  1
  O  O82  1  0.075334  0.663256  0.156604  1
  O  O83  1  0.004710  0.783547  0.751893  1
  O  O84  1  0.984564  0.782601  0.933701  1
  O  O85  1  0.116634  0.515028  0.669230  1
  O  O86  1  0.182396  0.333882  0.840791  1
  O  O87  1  0.110198  0.373200  0.173088  1
  O  O88  1  0.257973  0.081756  0.158259  1
  O  O89  1  0.236294  0.999388  0.936120  1
  O  O90  1  0.206920  0.013645  0.758350  1
  O  O91  1  0.080403  0.251025  0.653430  1
  O  O92  1  0.993635  0.222223  0.434593  1
  O  O93  1  0.003465  0.207083  0.250368  1
