# generated using pymatgen
data_Li9Ti5(SiO8)2
_symmetry_space_group_name_H-M   'P 1'
_cell_length_a   5.17681155
_cell_length_b   11.20385030
_cell_length_c   5.00222829
_cell_angle_alpha   94.27111941
_cell_angle_beta   80.47730319
_cell_angle_gamma   99.93686488
_symmetry_Int_Tables_number   1
_chemical_formula_structural   Li9Ti5(SiO8)2
_chemical_formula_sum   'Li9 Ti5 Si2 O16'
_cell_volume   281.52481078
_cell_formula_units_Z   1
loop_
 _symmetry_equiv_pos_site_id
 _symmetry_equiv_pos_as_xyz
  1  'x, y, z'
loop_
 _atom_site_type_symbol
 _atom_site_label
 _atom_site_symmetry_multiplicity
 _atom_site_fract_x
 _atom_site_fract_y
 _atom_site_fract_z
 _atom_site_occupancy
  Li  Li0  1  0.008994  0.995701  0.001977  1
  Li  Li1  1  0.120762  0.117584  0.501577  1
  Li  Li2  1  0.261374  0.247156  0.998184  1
  Li  Li3  1  0.374896  0.377541  0.496742  1
  Li  Li4  1  0.500104  0.497459  0.003258  1
  Li  Li5  1  0.613626  0.627844  0.501816  1
  Li  Li6  1  0.754238  0.757416  0.998423  1
  Li  Li7  1  0.866006  0.879299  0.498023  1
  Li  Li8  1  0.437500  0.937500  0.250000  1
  Ti  Ti9  1  0.687947  0.184434  0.249778  1
  Ti  Ti10  1  0.822681  0.320456  0.747813  1
  Ti  Ti11  1  0.937500  0.437500  0.250000  1
  Ti  Ti12  1  0.052319  0.554544  0.752187  1
  Ti  Ti13  1  0.187053  0.690566  0.250222  1
  Si  Si14  1  0.556271  0.054974  0.751174  1
  Si  Si15  1  0.318729  0.820026  0.748826  1
  O  O16  1  0.380855  0.091571  0.084961  1
  O  O17  1  0.754357  0.037742  0.415466  1
  O  O18  1  0.025905  0.277730  0.370429  1
  O  O19  1  0.858112  0.142415  0.868614  1
  O  O20  1  0.484120  0.196156  0.630775  1
  O  O21  1  0.164773  0.403127  0.878460  1
  O  O22  1  0.600010  0.339719  0.128996  1
  O  O23  1  0.710227  0.471873  0.621540  1
  O  O24  1  0.274990  0.535281  0.371004  1
  O  O25  1  0.390880  0.678844  0.869225  1
  O  O26  1  0.849095  0.597270  0.129571  1
  O  O27  1  0.494145  0.783429  0.415039  1
  O  O28  1  0.120643  0.837258  0.084534  1
  O  O29  1  0.016888  0.732585  0.631386  1
  O  O30  1  0.259482  0.963701  0.648035  1
  O  O31  1  0.615518  0.911299  0.851965  1
