# generated using pymatgen
data_La3Ti2N3O4
_symmetry_space_group_name_H-M   'P 1'
_cell_length_a   4.00753954
_cell_length_b   10.73670482
_cell_length_c   3.90489850
_cell_angle_alpha   79.53019787
_cell_angle_beta   90.01238890
_cell_angle_gamma   100.80664837
_symmetry_Int_Tables_number   1
_chemical_formula_structural   La3Ti2N3O4
_chemical_formula_sum   'La3 Ti2 N3 O4'
_cell_volume   162.19185029
_cell_formula_units_Z   1
loop_
 _symmetry_equiv_pos_site_id
 _symmetry_equiv_pos_as_xyz
  1  'x, y, z'
loop_
 _atom_site_type_symbol
 _atom_site_label
 _atom_site_symmetry_multiplicity
 _atom_site_fract_x
 _atom_site_fract_y
 _atom_site_fract_z
 _atom_site_occupancy
  La  La0  1  0.504126  0.000654  0.487263  1
  La  La1  1  0.682310  0.363875  0.319052  1
  La  La2  1  0.317504  0.635886  0.676438  1
  Ti  Ti3  1  0.906341  0.814030  0.088800  1
  Ti  Ti4  1  0.098384  0.187030  0.903586  1
  N  N5  1  0.996180  0.999725  0.002387  1
  N  N6  1  0.397330  0.796670  0.099907  1
  N  N7  1  0.597744  0.200972  0.901435  1
  O  O8  1  0.098890  0.204689  0.396907  1
  O  O9  1  0.792052  0.589259  0.207767  1
  O  O10  1  0.203142  0.407890  0.791522  1
  O  O11  1  0.896740  0.794206  0.600363  1
