# generated using pymatgen
data_Ba2P6O17
_symmetry_space_group_name_H-M   'P 1'
_cell_length_a   8.33053499
_cell_length_b   6.16920068
_cell_length_c   19.13228592
_cell_angle_alpha   90.00000000
_cell_angle_beta   90.00000000
_cell_angle_gamma   113.48494453
_symmetry_Int_Tables_number   1
_chemical_formula_structural   Ba2P6O17
_chemical_formula_sum   'Ba4 P12 O34'
_cell_volume   901.81206536
_cell_formula_units_Z   2
loop_
 _symmetry_equiv_pos_site_id
 _symmetry_equiv_pos_as_xyz
  1  'x, y, z'
loop_
 _atom_site_type_symbol
 _atom_site_label
 _atom_site_symmetry_multiplicity
 _atom_site_fract_x
 _atom_site_fract_y
 _atom_site_fract_z
 _atom_site_occupancy
  Ba  Ba0  1  0.150104  0.249034  0.077460  1
  Ba  Ba1  1  0.349896  0.250966  0.577460  1
  Ba  Ba2  1  0.650104  0.749034  0.422540  1
  Ba  Ba3  1  0.849896  0.750966  0.922540  1
  P  P4  1  0.089904  0.810375  0.328636  1
  P  P5  1  0.030336  0.326997  0.815434  1
  P  P6  1  0.179653  0.679618  0.466163  1
  P  P7  1  0.320347  0.820382  0.966163  1
  P  P8  1  0.410096  0.689625  0.828636  1
  P  P9  1  0.530336  0.826997  0.684566  1
  P  P10  1  0.469664  0.173003  0.315433  1
  P  P11  1  0.589904  0.310375  0.171364  1
  P  P12  1  0.679653  0.179618  0.033837  1
  P  P13  1  0.820347  0.320382  0.533837  1
  P  P14  1  0.969664  0.673003  0.184566  1
  P  P15  1  0.910096  0.189625  0.671364  1
  O  O16  1  0.004863  0.926181  0.173355  1
  O  O17  1  0.000000  0.500000  0.500000  1
  O  O18  1  0.036985  0.638430  0.263063  1
  O  O19  1  0.036083  0.539615  0.135696  1
  O  O20  1  0.182846  0.914915  0.980827  1
  O  O21  1  0.205318  0.926137  0.484537  1
  O  O22  1  0.142486  0.647642  0.380959  1
  O  O23  1  0.049329  0.118580  0.645188  1
  O  O24  1  0.357514  0.852358  0.880959  1
  O  O25  1  0.242036  0.470378  0.805103  1
  O  O26  1  0.294682  0.573863  0.984537  1
  O  O27  1  0.317154  0.585085  0.480827  1
  O  O28  1  0.463917  0.960385  0.635696  1
  O  O29  1  0.257964  0.029622  0.305103  1
  O  O30  1  0.463015  0.861570  0.763063  1
  O  O31  1  0.450671  0.381420  0.145188  1
  O  O32  1  0.495137  0.573819  0.673355  1
  O  O33  1  0.504863  0.426181  0.326645  1
  O  O34  1  0.549329  0.618580  0.854812  1
  O  O35  1  0.500000  0.000000  0.000000  1
  O  O36  1  0.536985  0.138430  0.236937  1
  O  O37  1  0.742036  0.970378  0.694897  1
  O  O38  1  0.536083  0.039615  0.364304  1
  O  O39  1  0.682846  0.414915  0.519173  1
  O  O40  1  0.705318  0.426137  0.015463  1
  O  O41  1  0.757964  0.529622  0.194897  1
  O  O42  1  0.642486  0.147642  0.119041  1
  O  O43  1  0.950671  0.881420  0.354812  1
  O  O44  1  0.857514  0.352358  0.619041  1
  O  O45  1  0.794682  0.073863  0.515463  1
  O  O46  1  0.817154  0.085085  0.019173  1
  O  O47  1  0.963917  0.460385  0.864304  1
  O  O48  1  0.963015  0.361570  0.736937  1
  O  O49  1  0.995137  0.073819  0.826645  1
