# generated using pymatgen
data_Li2Fe2S3
_symmetry_space_group_name_H-M   'P 1'
_cell_length_a   9.84661108
_cell_length_b   9.84661108
_cell_length_c   6.28236697
_cell_angle_alpha   65.81217217
_cell_angle_beta   65.81217217
_cell_angle_gamma   78.92806461
_symmetry_Int_Tables_number   1
_chemical_formula_structural   Li2Fe2S3
_chemical_formula_sum   'Li8 Fe8 S12'
_cell_volume   506.64139002
_cell_formula_units_Z   4
loop_
 _symmetry_equiv_pos_site_id
 _symmetry_equiv_pos_as_xyz
  1  'x, y, z'
loop_
 _atom_site_type_symbol
 _atom_site_label
 _atom_site_symmetry_multiplicity
 _atom_site_fract_x
 _atom_site_fract_y
 _atom_site_fract_z
 _atom_site_occupancy
  Li  Li0  1  0.628521  0.772406  0.387279  1
  Li  Li1  1  0.923395  0.421831  0.408777  1
  Li  Li2  1  0.772406  0.628521  0.887279  1
  Li  Li3  1  0.421831  0.923395  0.908777  1
  Li  Li4  1  0.578169  0.076605  0.091223  1
  Li  Li5  1  0.227594  0.371479  0.112721  1
  Li  Li6  1  0.076605  0.578169  0.591223  1
  Li  Li7  1  0.371479  0.227594  0.612721  1
  Fe  Fe8  1  0.024180  0.841652  0.979431  1
  Fe  Fe9  1  0.841652  0.024180  0.479431  1
  Fe  Fe10  1  0.682890  0.317110  0.250000  1
  Fe  Fe11  1  0.484007  0.515993  0.250000  1
  Fe  Fe12  1  0.515993  0.484007  0.750000  1
  Fe  Fe13  1  0.317110  0.682890  0.750000  1
  Fe  Fe14  1  0.158348  0.975820  0.520569  1
  Fe  Fe15  1  0.975820  0.158348  0.020569  1
  S  S16  1  0.694265  0.529605  0.340942  1
  S  S17  1  0.386402  0.872255  0.345408  1
  S  S18  1  0.529605  0.694265  0.840942  1
  S  S19  1  0.872255  0.386402  0.845408  1
  S  S20  1  0.808129  0.963210  0.177483  1
  S  S21  1  0.191871  0.036790  0.822517  1
  S  S22  1  0.127745  0.613598  0.154592  1
  S  S23  1  0.470395  0.305735  0.159058  1
  S  S24  1  0.963210  0.808129  0.677483  1
  S  S25  1  0.613598  0.127745  0.654592  1
  S  S26  1  0.305735  0.470395  0.659058  1
  S  S27  1  0.036790  0.191871  0.322517  1
