# generated using pymatgen
data_Li4Ni2(PO4)3
_symmetry_space_group_name_H-M   'P 1'
_cell_length_a   9.13206812
_cell_length_b   8.47089959
_cell_length_c   8.31128296
_cell_angle_alpha   60.12179360
_cell_angle_beta   63.34722508
_cell_angle_gamma   62.44350640
_symmetry_Int_Tables_number   1
_chemical_formula_structural   Li4Ni2(PO4)3
_chemical_formula_sum   'Li8 Ni4 P6 O24'
_cell_volume   473.92273132
_cell_formula_units_Z   2
loop_
 _symmetry_equiv_pos_site_id
 _symmetry_equiv_pos_as_xyz
  1  'x, y, z'
loop_
 _atom_site_type_symbol
 _atom_site_label
 _atom_site_symmetry_multiplicity
 _atom_site_fract_x
 _atom_site_fract_y
 _atom_site_fract_z
 _atom_site_occupancy
  Li  Li0  1  0.142545  0.668713  0.269720  1
  Li  Li1  1  0.136904  0.270988  0.922561  1
  Li  Li2  1  0.097079  0.940345  0.690040  1
  Li  Li3  1  0.588891  0.206828  0.466622  1
  Li  Li4  1  0.411109  0.793172  0.533378  1
  Li  Li5  1  0.902921  0.059655  0.309960  1
  Li  Li6  1  0.863096  0.729012  0.077439  1
  Li  Li7  1  0.857455  0.331287  0.730280  1
  Ni  Ni8  1  0.038425  0.649422  0.659118  1
  Ni  Ni9  1  0.566588  0.144448  0.141495  1
  Ni  Ni10  1  0.433412  0.855553  0.858505  1
  Ni  Ni11  1  0.961575  0.350578  0.340882  1
  P  P12  1  0.239943  0.253246  0.546713  1
  P  P13  1  0.252773  0.956333  0.256786  1
  P  P14  1  0.248115  0.547396  0.950870  1
  P  P15  1  0.751885  0.452604  0.049130  1
  P  P16  1  0.747227  0.043667  0.743214  1
  P  P17  1  0.760057  0.746754  0.453287  1
  O  O18  1  0.104540  0.152991  0.204681  1
  O  O19  1  0.098212  0.557184  0.140388  1
  O  O20  1  0.091851  0.211876  0.539370  1
  O  O21  1  0.191690  0.467288  0.508417  1
  O  O22  1  0.253543  0.125075  0.755984  1
  O  O23  1  0.413040  0.197636  0.401407  1
  O  O24  1  0.264844  0.857290  0.134730  1
  O  O25  1  0.196533  0.835965  0.478039  1
  O  O26  1  0.198689  0.498571  0.827842  1
  O  O27  1  0.583741  0.605011  0.008959  1
  O  O28  1  0.727474  0.249932  0.168421  1
  O  O29  1  0.577644  0.021934  0.778719  1
  O  O30  1  0.422356  0.978066  0.221281  1
  O  O31  1  0.272526  0.750068  0.831579  1
  O  O32  1  0.416259  0.394989  0.991041  1
  O  O33  1  0.801311  0.501429  0.172158  1
  O  O34  1  0.803467  0.164035  0.521961  1
  O  O35  1  0.735156  0.142710  0.865270  1
  O  O36  1  0.586960  0.802364  0.598593  1
  O  O37  1  0.746457  0.874925  0.244016  1
  O  O38  1  0.808310  0.532712  0.491583  1
  O  O39  1  0.908149  0.788124  0.460630  1
  O  O40  1  0.901788  0.442816  0.859612  1
  O  O41  1  0.895460  0.847009  0.795319  1
