# generated using pymatgen
data_MnP2(H4O5)2
_symmetry_space_group_name_H-M   'P 1'
_cell_length_a   5.46906316
_cell_length_b   10.24036230
_cell_length_c   7.38685977
_cell_angle_alpha   90.00000000
_cell_angle_beta   95.39623225
_cell_angle_gamma   90.00000000
_symmetry_Int_Tables_number   1
_chemical_formula_structural   MnP2(H4O5)2
_chemical_formula_sum   'Mn2 P4 H16 O20'
_cell_volume   411.86900495
_cell_formula_units_Z   2
loop_
 _symmetry_equiv_pos_site_id
 _symmetry_equiv_pos_as_xyz
  1  'x, y, z'
loop_
 _atom_site_type_symbol
 _atom_site_label
 _atom_site_symmetry_multiplicity
 _atom_site_fract_x
 _atom_site_fract_y
 _atom_site_fract_z
 _atom_site_occupancy
  Mn  Mn0  1  0.000000  0.000000  0.000000  1
  Mn  Mn1  1  0.500000  0.500000  0.500000  1
  P  P2  1  0.256796  0.716454  0.168748  1
  P  P3  1  0.756796  0.783546  0.668748  1
  P  P4  1  0.743204  0.283546  0.831252  1
  P  P5  1  0.243204  0.216454  0.331252  1
  H  H6  1  0.422579  0.079820  0.831703  1
  H  H7  1  0.922579  0.420180  0.331703  1
  H  H8  1  0.577421  0.920180  0.168297  1
  H  H9  1  0.077421  0.579820  0.668297  1
  H  H10  1  0.894933  0.718354  0.015014  1
  H  H11  1  0.394933  0.781646  0.515014  1
  H  H12  1  0.105067  0.281646  0.984986  1
  H  H13  1  0.605067  0.218354  0.484986  1
  H  H14  1  0.311267  0.958454  0.726264  1
  H  H15  1  0.811267  0.541546  0.226264  1
  H  H16  1  0.688733  0.041546  0.273736  1
  H  H17  1  0.188733  0.458454  0.773736  1
  H  H18  1  0.360230  0.619056  0.915706  1
  H  H19  1  0.860230  0.880944  0.415706  1
  H  H20  1  0.639770  0.380944  0.084294  1
  H  H21  1  0.139770  0.119056  0.584294  1
  O  O22  1  0.268861  0.864202  0.140357  1
  O  O23  1  0.768861  0.635798  0.640357  1
  O  O24  1  0.731139  0.135798  0.859643  1
  O  O25  1  0.231139  0.364202  0.359643  1
  O  O26  1  0.338863  0.672155  0.361605  1
  O  O27  1  0.838863  0.827845  0.861605  1
  O  O28  1  0.661137  0.327845  0.638395  1
  O  O29  1  0.161137  0.172155  0.138395  1
  O  O30  1  0.983024  0.665502  0.118604  1
  O  O31  1  0.483024  0.834498  0.618604  1
  O  O32  1  0.016976  0.334498  0.881396  1
  O  O33  1  0.516976  0.165502  0.381396  1
  O  O34  1  0.429881  0.643398  0.041268  1
  O  O35  1  0.929881  0.856602  0.541268  1
  O  O36  1  0.570119  0.356602  0.958732  1
  O  O37  1  0.070119  0.143398  0.458732  1
  O  O38  1  0.261591  0.039365  0.786930  1
  O  O39  1  0.761591  0.460635  0.286930  1
  O  O40  1  0.738409  0.960635  0.213069  1
  O  O41  1  0.238409  0.539365  0.713070  1
