# generated using pymatgen
data_LiFePO4
_symmetry_space_group_name_H-M   'P 1'
_cell_length_a   8.51297751
_cell_length_b   5.30991655
_cell_length_c   8.16069815
_cell_angle_alpha   90.00000000
_cell_angle_beta   104.90193847
_cell_angle_gamma   90.00000000
_symmetry_Int_Tables_number   1
_chemical_formula_structural   LiFePO4
_chemical_formula_sum   'Li4 Fe4 P4 O16'
_cell_volume   356.48294560
_cell_formula_units_Z   4
loop_
 _symmetry_equiv_pos_site_id
 _symmetry_equiv_pos_as_xyz
  1  'x, y, z'
loop_
 _atom_site_type_symbol
 _atom_site_label
 _atom_site_symmetry_multiplicity
 _atom_site_fract_x
 _atom_site_fract_y
 _atom_site_fract_z
 _atom_site_occupancy
  Li  Li0  1  0.212466  0.340156  0.870087  1
  Li  Li1  1  0.383906  0.824814  0.365762  1
  Li  Li2  1  0.712466  0.659844  0.870087  1
  Li  Li3  1  0.883906  0.175186  0.365762  1
  Fe  Fe4  1  0.074787  0.845636  0.965993  1
  Fe  Fe5  1  0.261719  0.324662  0.487250  1
  Fe  Fe6  1  0.574787  0.154364  0.965993  1
  Fe  Fe7  1  0.761719  0.675338  0.487250  1
  P  P8  1  0.007979  0.675604  0.251176  1
  P  P9  1  0.333506  0.825263  0.738452  1
  P  P10  1  0.507979  0.324396  0.251176  1
  P  P11  1  0.833506  0.174737  0.738452  1
  O  O12  1  0.001857  0.188170  0.871634  1
  O  O13  1  0.048211  0.401281  0.318026  1
  O  O14  1  0.201678  0.701813  0.814220  1
  O  O15  1  0.294465  0.111386  0.702466  1
  O  O16  1  0.165046  0.805702  0.227616  1
  O  O17  1  0.341898  0.681284  0.576881  1
  O  O18  1  0.501857  0.811830  0.871634  1
  O  O19  1  0.434215  0.180819  0.379393  1
  O  O20  1  0.392066  0.315634  0.069844  1
  O  O21  1  0.548211  0.598719  0.318026  1
  O  O22  1  0.701678  0.298187  0.814220  1
  O  O23  1  0.794465  0.888614  0.702466  1
  O  O24  1  0.665046  0.194298  0.227616  1
  O  O25  1  0.841898  0.318716  0.576881  1
  O  O26  1  0.934215  0.819181  0.379393  1
  O  O27  1  0.892066  0.684366  0.069844  1
