# generated using pymatgen
data_Li4Ti3V3(CuO8)2
_symmetry_space_group_name_H-M   'P 1'
_cell_length_a   5.95497038
_cell_length_b   5.87382660
_cell_length_c   9.81199789
_cell_angle_alpha   91.15023807
_cell_angle_beta   86.50239360
_cell_angle_gamma   120.85425211
_symmetry_Int_Tables_number   1
_chemical_formula_structural   Li4Ti3V3(CuO8)2
_chemical_formula_sum   'Li4 Ti3 V3 Cu2 O16'
_cell_volume   294.06190976
_cell_formula_units_Z   1
loop_
 _symmetry_equiv_pos_site_id
 _symmetry_equiv_pos_as_xyz
  1  'x, y, z'
loop_
 _atom_site_type_symbol
 _atom_site_label
 _atom_site_symmetry_multiplicity
 _atom_site_fract_x
 _atom_site_fract_y
 _atom_site_fract_z
 _atom_site_occupancy
  Li  Li0  1  0.321517  0.660545  0.896099  1
  Li  Li1  1  0.021766  -0.000170  0.995199  1
  Li  Li2  1  0.020171  0.013518  0.496646  1
  Li  Li3  1  0.653597  0.331497  0.396006  1
  Ti  Ti4  1  0.192307  0.845692  0.219575  1
  Ti  Ti5  1  0.155992  0.336810  0.220256  1
  Ti  Ti6  1  0.343759  0.152396  0.720055  1
  V  V7  1  0.669238  0.817794  0.205897  1
  V  V8  1  0.850297  0.191233  0.707853  1
  V  V9  1  0.818673  0.668837  0.715060  1
  Cu  Cu10  1  0.333313  0.666449  0.493545  1
  Cu  Cu11  1  0.667530  0.338432  0.994044  1
  O  O12  1  0.155574  0.835572  0.607632  1
  O  O13  1  0.007744  0.500271  0.317382  1
  O  O14  1  0.341051  0.662316  0.104827  1
  O  O15  1  0.991542  0.988143  0.313942  1
  O  O16  1  0.997192  0.008498  0.812682  1
  O  O17  1  0.173216  0.337847  0.604694  1
  O  O18  1  0.462809  0.954134  0.336823  1
  O  O19  1  0.469934  0.517756  0.330397  1
  O  O20  1  0.331891  0.160836  0.105582  1
  O  O21  1  0.705192  0.869972  0.611742  1
  O  O22  1  0.513917  0.496548  0.817554  1
  O  O23  1  0.497357  0.032524  0.832245  1
  O  O24  1  0.673113  0.335944  0.603123  1
  O  O25  1  0.843610  0.673177  0.103735  1
  O  O26  1  0.946196  0.468887  0.834945  1
  O  O27  1  0.841501  0.134840  0.110300  1
