# generated using pymatgen
data_BaSi2(H3O4)2
_symmetry_space_group_name_H-M   'P 1'
_cell_length_a   7.93030359
_cell_length_b   10.71225458
_cell_length_c   8.57420627
_cell_angle_alpha   90.00000000
_cell_angle_beta   94.82196775
_cell_angle_gamma   90.00000000
_symmetry_Int_Tables_number   1
_chemical_formula_structural   BaSi2(H3O4)2
_chemical_formula_sum   'Ba4 Si8 H24 O32'
_cell_volume   725.81309992
_cell_formula_units_Z   4
loop_
 _symmetry_equiv_pos_site_id
 _symmetry_equiv_pos_as_xyz
  1  'x, y, z'
loop_
 _atom_site_type_symbol
 _atom_site_label
 _atom_site_symmetry_multiplicity
 _atom_site_fract_x
 _atom_site_fract_y
 _atom_site_fract_z
 _atom_site_occupancy
  Ba  Ba0  1  0.204041  0.352813  0.628197  1
  Ba  Ba1  1  0.795959  0.852813  0.871803  1
  Ba  Ba2  1  0.795959  0.647187  0.371803  1
  Ba  Ba3  1  0.204041  0.147187  0.128197  1
  Si  Si4  1  0.489905  0.117180  0.773953  1
  Si  Si5  1  0.510095  0.617180  0.726047  1
  Si  Si6  1  0.510095  0.882820  0.226047  1
  Si  Si7  1  0.489905  0.382820  0.273953  1
  Si  Si8  1  0.701076  0.253785  0.031833  1
  Si  Si9  1  0.298924  0.753785  0.468167  1
  Si  Si10  1  0.298924  0.746215  0.968167  1
  Si  Si11  1  0.701076  0.246215  0.531833  1
  H  H12  1  0.119192  0.089100  0.808639  1
  H  H13  1  0.880808  0.589100  0.691361  1
  H  H14  1  0.880808  0.910900  0.191361  1
  H  H15  1  0.119192  0.410900  0.308639  1
  H  H16  1  0.936467  0.141561  0.770727  1
  H  H17  1  0.063533  0.641561  0.729273  1
  H  H18  1  0.063533  0.858439  0.229273  1
  H  H19  1  0.936467  0.358439  0.270727  1
  H  H20  1  0.996567  0.385173  0.952417  1
  H  H21  1  0.003433  0.885173  0.547583  1
  H  H22  1  0.003433  0.614827  0.047583  1
  H  H23  1  0.996567  0.114827  0.452417  1
  H  H24  1  0.163459  0.465045  0.996403  1
  H  H25  1  0.836541  0.965045  0.503597  1
  H  H26  1  0.836541  0.534955  0.003597  1
  H  H27  1  0.163459  0.034955  0.496403  1
  H  H28  1  0.817106  0.327782  0.764859  1
  H  H29  1  0.182894  0.827782  0.735141  1
  H  H30  1  0.182894  0.672218  0.235141  1
  H  H31  1  0.817106  0.172218  0.264859  1
  H  H32  1  0.587406  0.433113  0.841099  1
  H  H33  1  0.412594  0.933113  0.658901  1
  H  H34  1  0.412594  0.566887  0.158901  1
  H  H35  1  0.587406  0.066887  0.341099  1
  O  O36  1  0.535358  0.211060  0.628533  1
  O  O37  1  0.464642  0.711060  0.871467  1
  O  O38  1  0.464642  0.788940  0.371467  1
  O  O39  1  0.535358  0.288940  0.128533  1
  O  O40  1  0.514994  0.971201  0.718948  1
  O  O41  1  0.485006  0.471201  0.781052  1
  O  O42  1  0.485006  0.028799  0.281052  1
  O  O43  1  0.514994  0.528799  0.218948  1
  O  O44  1  0.306372  0.152709  0.822953  1
  O  O45  1  0.693628  0.652709  0.677047  1
  O  O46  1  0.693628  0.847291  0.177047  1
  O  O47  1  0.306372  0.347291  0.322953  1
  O  O48  1  0.641829  0.133086  0.918737  1
  O  O49  1  0.358171  0.633086  0.581263  1
  O  O50  1  0.358171  0.866914  0.081263  1
  O  O51  1  0.641829  0.366914  0.418737  1
  O  O52  1  0.767291  0.368344  0.929955  1
  O  O53  1  0.232709  0.868344  0.570045  1
  O  O54  1  0.232709  0.631656  0.070045  1
  O  O55  1  0.767291  0.131656  0.429955  1
  O  O56  1  0.855736  0.210014  0.162995  1
  O  O57  1  0.144264  0.710014  0.337005  1
  O  O58  1  0.144264  0.789986  0.837005  1
  O  O59  1  0.855736  0.289986  0.662995  1
  O  O60  1  0.122338  0.382529  0.957525  1
  O  O61  1  0.877662  0.882529  0.542475  1
  O  O62  1  0.877662  0.617471  0.042475  1
  O  O63  1  0.122338  0.117471  0.457525  1
  O  O64  1  0.997793  0.076041  0.832786  1
  O  O65  1  0.002207  0.576041  0.667214  1
  O  O66  1  0.002207  0.923959  0.167214  1
  O  O67  1  0.997793  0.423959  0.332786  1
