# generated using pymatgen
data_Li2MnVP2(O4F)2
_symmetry_space_group_name_H-M   'P 1'
_cell_length_a   5.23900348
_cell_length_b   14.74787960
_cell_length_c   7.50051326
_cell_angle_alpha   86.69340560
_cell_angle_beta   105.27385047
_cell_angle_gamma   85.78371405
_symmetry_Int_Tables_number   1
_chemical_formula_structural   Li2MnVP2(O4F)2
_chemical_formula_sum   'Li6 Mn3 V3 P6 O24 F6'
_cell_volume   555.74732303
_cell_formula_units_Z   3
loop_
 _symmetry_equiv_pos_site_id
 _symmetry_equiv_pos_as_xyz
  1  'x, y, z'
loop_
 _atom_site_type_symbol
 _atom_site_label
 _atom_site_symmetry_multiplicity
 _atom_site_fract_x
 _atom_site_fract_y
 _atom_site_fract_z
 _atom_site_occupancy
  Li  Li0  1  0.060051  0.857302  0.330774  1
  Li  Li1  1  0.391607  0.522919  0.666419  1
  Li  Li2  1  0.728408  0.191526  0.995188  1
  Li  Li3  1  0.273592  0.810220  0.001679  1
  Li  Li4  1  0.605264  0.474283  0.335893  1
  Li  Li5  1  0.937795  0.143209  0.667435  1
  Mn  Mn6  1  0.995700  0.499587  0.996943  1
  Mn  Mn7  1  0.665358  0.333258  0.665806  1
  Mn  Mn8  1  0.668622  0.833730  0.669008  1
  V  V9  1  0.004066  0.000497  0.002575  1
  V  V10  1  0.334310  0.166141  0.332804  1
  V  V11  1  0.333426  0.666688  0.333350  1
  P  P12  1  0.262663  0.293220  0.941234  1
  P  P13  1  0.069457  0.373164  0.388922  1
  P  P14  1  0.405904  0.039788  0.724077  1
  P  P15  1  0.597289  0.959044  0.278759  1
  P  P16  1  0.927686  0.628107  0.611328  1
  P  P17  1  0.738801  0.706511  0.056075  1
  O  O18  1  0.084176  0.560562  0.779202  1
  O  O19  1  0.231000  0.053718  0.860287  1
  O  O20  1  0.241542  0.392117  0.992440  1
  O  O21  1  0.089499  0.274660  0.338823  1
  O  O22  1  0.100724  0.616081  0.473262  1
  O  O23  1  0.251407  0.104878  0.553659  1
  O  O24  1  0.017699  0.739125  0.144110  1
  O  O25  1  0.437878  0.278558  0.804445  1
  O  O26  1  0.350259  0.406497  0.476797  1
  O  O27  1  0.425332  0.940796  0.673221  1
  O  O28  1  0.582818  0.773796  0.888220  1
  O  O29  1  0.686282  0.072529  0.814724  1
  O  O30  1  0.316655  0.926559  0.189249  1
  O  O31  1  0.415133  0.227826  0.111563  1
  O  O32  1  0.575912  0.057898  0.327691  1
  O  O33  1  0.649257  0.595427  0.522774  1
  O  O34  1  0.565259  0.718491  0.193653  1
  O  O35  1  0.981263  0.259684  0.853014  1
  O  O36  1  0.751101  0.892771  0.448086  1
  O  O37  1  0.892353  0.386628  0.525038  1
  O  O38  1  0.911437  0.726844  0.663695  1
  O  O39  1  0.756370  0.607410  0.004988  1
  O  O40  1  0.772770  0.946626  0.142957  1
  O  O41  1  0.916750  0.440175  0.220018  1
  F  F42  1  0.024354  0.112573  0.151417  1
  F  F43  1  0.343889  0.774811  0.476149  1
  F  F44  1  0.323163  0.558463  0.190892  1
  F  F45  1  0.673062  0.447552  0.816782  1
  F  F46  1  0.643368  0.216488  0.507491  1
  F  F47  1  0.989287  0.891265  0.857086  1
