# generated using pymatgen
data_LiMn(PO3)4
_symmetry_space_group_name_H-M   'P 1'
_cell_length_a   7.32682537
_cell_length_b   7.32682537
_cell_length_c   9.65685145
_cell_angle_alpha   69.68064779
_cell_angle_beta   82.74916792
_cell_angle_gamma   112.08402466
_symmetry_Int_Tables_number   1
_chemical_formula_structural   LiMn(PO3)4
_chemical_formula_sum   'Li2 Mn2 P8 O24'
_cell_volume   430.36164611
_cell_formula_units_Z   2
loop_
 _symmetry_equiv_pos_site_id
 _symmetry_equiv_pos_as_xyz
  1  'x, y, z'
loop_
 _atom_site_type_symbol
 _atom_site_label
 _atom_site_symmetry_multiplicity
 _atom_site_fract_x
 _atom_site_fract_y
 _atom_site_fract_z
 _atom_site_occupancy
  Li  Li0  1  0.000000  0.000000  0.000000  1
  Li  Li1  1  0.500000  0.000000  0.500000  1
  Mn  Mn2  1  0.053851  0.803851  0.750000  1
  Mn  Mn3  1  0.946149  0.196149  0.250000  1
  P  P4  1  0.270247  0.727149  0.021330  1
  P  P5  1  0.691620  0.990988  0.801356  1
  P  P6  1  0.292344  0.492976  0.698644  1
  P  P7  1  0.248478  0.291577  0.478671  1
  P  P8  1  0.751522  0.708423  0.521329  1
  P  P9  1  0.707656  0.507024  0.301356  1
  P  P10  1  0.308380  0.009012  0.198644  1
  P  P11  1  0.729753  0.272851  0.978671  1
  O  O12  1  0.189275  0.857673  0.907855  1
  O  O13  1  0.350611  0.960127  0.348957  1
  O  O14  1  0.278233  0.699843  0.677272  1
  O  O15  1  0.300923  0.813179  0.150714  1
  O  O16  1  0.496620  0.775877  0.940683  1
  O  O17  1  0.148040  0.483399  0.096419  1
  O  O18  1  0.216560  0.437303  0.559317  1
  O  O19  1  0.190916  0.300432  0.848957  1
  O  O20  1  0.734472  0.902870  0.407855  1
  O  O21  1  0.079816  0.244458  0.403581  1
  O  O22  1  0.877114  0.955506  0.822728  1
  O  O23  1  0.536108  0.548364  0.650714  1
  O  O24  1  0.463892  0.451636  0.349286  1
  O  O25  1  0.122886  0.044494  0.177272  1
  O  O26  1  0.920184  0.755542  0.596419  1
  O  O27  1  0.265528  0.097130  0.592145  1
  O  O28  1  0.809084  0.699568  0.151043  1
  O  O29  1  0.783440  0.562697  0.440683  1
  O  O30  1  0.851960  0.516601  0.903581  1
  O  O31  1  0.503380  0.224123  0.059317  1
  O  O32  1  0.699077  0.186822  0.849286  1
  O  O33  1  0.721767  0.300157  0.322728  1
  O  O34  1  0.649389  0.039873  0.651043  1
  O  O35  1  0.810725  0.142327  0.092145  1
