# generated using pymatgen
data_Li3V3P8O29
_symmetry_space_group_name_H-M   'P 1'
_cell_length_a   9.76330784
_cell_length_b   9.71733169
_cell_length_c   14.37435822
_cell_angle_alpha   89.99221256
_cell_angle_beta   90.55265034
_cell_angle_gamma   60.15189875
_symmetry_Int_Tables_number   1
_chemical_formula_structural   Li3V3P8O29
_chemical_formula_sum   'Li6 V6 P16 O58'
_cell_volume   1182.76531420
_cell_formula_units_Z   2
loop_
 _symmetry_equiv_pos_site_id
 _symmetry_equiv_pos_as_xyz
  1  'x, y, z'
loop_
 _atom_site_type_symbol
 _atom_site_label
 _atom_site_symmetry_multiplicity
 _atom_site_fract_x
 _atom_site_fract_y
 _atom_site_fract_z
 _atom_site_occupancy
  Li  Li0  1  0.324152  0.903643  0.057613  1
  Li  Li1  1  0.324122  0.772235  0.557577  1
  Li  Li2  1  0.088926  0.677666  0.441467  1
  Li  Li3  1  0.088839  0.233338  0.941462  1
  Li  Li4  1  0.937597  0.983139  0.992502  1
  Li  Li5  1  0.937512  0.078918  0.492359  1
  V  V6  1  0.567469  0.432854  0.247359  1
  V  V7  1  0.439893  0.557837  0.757617  1
  V  V8  1  0.567479  0.999634  0.747258  1
  V  V9  1  0.439879  0.002293  0.257659  1
  V  V10  1  0.998312  0.564896  0.245608  1
  V  V11  1  0.998381  0.436813  0.745564  1
  P  P12  1  0.916323  0.779708  0.835590  1
  P  P13  1  0.785326  0.914624  0.343492  1
  P  P14  1  0.916338  0.303882  0.335652  1
  P  P15  1  0.661168  0.669702  0.133770  1
  P  P16  1  0.661157  0.669118  0.633728  1
  P  P17  1  0.785412  0.299983  0.843385  1
  P  P18  1  0.692746  0.224357  0.660357  1
  P  P19  1  0.318145  0.911534  0.842572  1
  P  P20  1  0.692728  0.082912  0.160383  1
  P  P21  1  0.318071  0.770375  0.342591  1
  P  P22  1  0.220343  0.695640  0.161886  1
  P  P23  1  0.331747  0.340668  0.366398  1
  P  P24  1  0.331832  0.327486  0.866345  1
  P  P25  1  0.093394  0.685164  0.657353  1
  P  P26  1  0.220361  0.084059  0.661879  1
  P  P27  1  0.093416  0.221529  0.157390  1
  O  O28  1  0.024374  0.758020  0.565456  1
  O  O29  1  0.918377  0.737257  0.336244  1
  O  O30  1  0.780197  0.003935  0.075771  1
  O  O31  1  0.741282  0.914985  0.827505  1
  O  O32  1  0.922309  0.617720  0.824313  1
  O  O33  1  0.813492  0.665197  0.178155  1
  O  O34  1  0.922196  0.459981  0.324375  1
  O  O35  1  0.024387  0.217906  0.065509  1
  O  O36  1  0.918356  0.344456  0.836218  1
  O  O37  1  0.665668  0.814668  0.677597  1
  O  O38  1  0.622259  0.919874  0.331811  1
  O  O39  1  0.813487  0.521391  0.678139  1
  O  O40  1  0.655528  0.673699  0.030736  1
  O  O41  1  0.655589  0.670656  0.530680  1
  O  O42  1  0.665790  0.519642  0.177747  1
  O  O43  1  0.474167  0.910282  0.826040  1
  O  O44  1  0.515028  0.816245  0.178178  1
  O  O45  1  0.741226  0.343734  0.327561  1
  O  O46  1  0.801625  0.201333  0.750530  1
  O  O47  1  0.780346  0.215578  0.575601  1
  O  O48  1  0.808430  0.200771  0.926480  1
  O  O49  1  0.622320  0.457798  0.831726  1
  O  O50  1  0.514971  0.668885  0.678170  1
  O  O51  1  0.651959  0.258842  0.168657  1
  O  O52  1  0.474046  0.615516  0.326100  1
  O  O53  1  0.348365  0.912569  0.334542  1
  O  O54  1  0.801455  0.997282  0.250698  1
  O  O55  1  0.808200  0.990697  0.426673  1
  O  O56  1  0.202430  0.996075  0.582317  1
  O  O57  1  0.651901  0.089295  0.668624  1
  O  O58  1  0.537029  0.383914  0.676763  1
  O  O59  1  0.348368  0.739070  0.834517  1
  O  O60  1  0.476147  0.339148  0.319057  1
  O  O61  1  0.380750  0.540299  0.170081  1
  O  O62  1  0.202253  0.801583  0.082315  1
  O  O63  1  0.238675  0.770811  0.431720  1
  O  O64  1  0.199796  0.791861  0.258397  1
  O  O65  1  0.264904  0.655580  0.667064  1
  O  O66  1  0.476221  0.184559  0.819091  1
  O  O67  1  0.536837  0.079313  0.176849  1
  O  O68  1  0.333392  0.477374  0.822082  1
  O  O69  1  0.330755  0.325369  0.969350  1
  O  O70  1  0.330851  0.343890  0.469395  1
  O  O71  1  0.181448  0.490664  0.325368  1
  O  O72  1  0.380752  0.079001  0.670044  1
  O  O73  1  0.333270  0.189239  0.322177  1
  O  O74  1  0.083894  0.656715  0.166913  1
  O  O75  1  0.996953  0.799387  0.741394  1
  O  O76  1  0.995235  0.799136  0.918623  1
  O  O77  1  0.093125  0.526481  0.675152  1
  O  O78  1  0.181555  0.327874  0.825236  1
  O  O79  1  0.093177  0.380444  0.175303  1
  O  O80  1  0.264921  0.079547  0.167084  1
  O  O81  1  0.238787  0.990550  0.931704  1
  O  O82  1  0.199817  0.008431  0.758409  1
  O  O83  1  0.083875  0.259393  0.666867  1
  O  O84  1  0.995063  0.205481  0.418628  1
  O  O85  1  0.996999  0.203641  0.241438  1
