# generated using pymatgen
data_CrP3H18C6(SO)6
_symmetry_space_group_name_H-M   'P 1'
_cell_length_a   9.20620961
_cell_length_b   9.20620961
_cell_length_c   13.23259354
_cell_angle_alpha   83.91734912
_cell_angle_beta   96.08265088
_cell_angle_gamma   103.99557916
_symmetry_Int_Tables_number   1
_chemical_formula_structural   CrP3H18C6(SO)6
_chemical_formula_sum   'Cr2 P6 H36 C12 S12 O12'
_cell_volume   1078.34208188
_cell_formula_units_Z   2
loop_
 _symmetry_equiv_pos_site_id
 _symmetry_equiv_pos_as_xyz
  1  'x, y, z'
loop_
 _atom_site_type_symbol
 _atom_site_label
 _atom_site_symmetry_multiplicity
 _atom_site_fract_x
 _atom_site_fract_y
 _atom_site_fract_z
 _atom_site_occupancy
  Cr  Cr0  1  0.339405  0.339405  0.750000  1
  Cr  Cr1  1  0.660595  0.660595  0.250000  1
  P  P2  1  0.069135  0.069135  0.750000  1
  P  P3  1  0.930865  0.930865  0.250000  1
  P  P4  1  0.292803  0.642717  0.650639  1
  P  P5  1  0.642717  0.292803  0.849361  1
  P  P6  1  0.707197  0.357283  0.349361  1
  P  P7  1  0.357283  0.707197  0.150639  1
  H  H8  1  0.148664  0.990364  0.963513  1
  H  H9  1  0.990364  0.148664  0.536487  1
  H  H10  1  0.851336  0.009636  0.036487  1
  H  H11  1  0.009636  0.851336  0.463513  1
  H  H12  1  0.234325  0.887840  0.887773  1
  H  H13  1  0.887840  0.234325  0.612227  1
  H  H14  1  0.765675  0.112160  0.112227  1
  H  H15  1  0.112160  0.765675  0.387773  1
  H  H16  1  0.075722  0.792857  0.956321  1
  H  H17  1  0.792857  0.075722  0.543679  1
  H  H18  1  0.924278  0.207143  0.043679  1
  H  H19  1  0.207143  0.924278  0.456321  1
  H  H20  1  0.021104  0.592797  0.756671  1
  H  H21  1  0.592797  0.021104  0.743329  1
  H  H22  1  0.978896  0.407203  0.243329  1
  H  H23  1  0.407203  0.978896  0.256671  1
  H  H24  1  0.969268  0.519703  0.633667  1
  H  H25  1  0.519703  0.969268  0.866333  1
  H  H26  1  0.030732  0.480297  0.366333  1
  H  H27  1  0.480297  0.030732  0.133667  1
  H  H28  1  0.924734  0.691634  0.657682  1
  H  H29  1  0.691634  0.924734  0.842318  1
  H  H30  1  0.075266  0.308366  0.342318  1
  H  H31  1  0.308366  0.075266  0.157682  1
  H  H32  1  0.600340  0.887775  0.536963  1
  H  H33  1  0.887775  0.600340  0.963037  1
  H  H34  1  0.399660  0.112225  0.463037  1
  H  H35  1  0.112225  0.399660  0.036963  1
  H  H36  1  0.548023  0.688624  0.529042  1
  H  H37  1  0.688624  0.548023  0.970958  1
  H  H38  1  0.451977  0.311376  0.470958  1
  H  H39  1  0.311376  0.451977  0.029042  1
  H  H40  1  0.614901  0.763725  0.650157  1
  H  H41  1  0.763725  0.614901  0.849843  1
  H  H42  1  0.385099  0.236275  0.349843  1
  H  H43  1  0.236275  0.385099  0.150157  1
  C  C44  1  0.128684  0.898030  0.914043  1
  C  C45  1  0.898030  0.128684  0.585957  1
  C  C46  1  0.871316  0.101970  0.085957  1
  C  C47  1  0.101970  0.871316  0.414043  1
  C  C48  1  0.006806  0.621610  0.674201  1
  C  C49  1  0.621610  0.006806  0.825799  1
  C  C50  1  0.993194  0.378390  0.325799  1
  C  C51  1  0.378390  0.993194  0.174201  1
  C  C52  1  0.550273  0.779580  0.576896  1
  C  C53  1  0.779580  0.550273  0.923104  1
  C  C54  1  0.449727  0.220420  0.423104  1
  C  C55  1  0.220420  0.449727  0.076896  1
  S  S56  1  0.261936  0.089388  0.686326  1
  S  S57  1  0.089388  0.261936  0.813674  1
  S  S58  1  0.738064  0.910612  0.313674  1
  S  S59  1  0.910612  0.738064  0.186326  1
  S  S60  1  0.264383  0.452723  0.581975  1
  S  S61  1  0.452723  0.264383  0.918025  1
  S  S62  1  0.735617  0.547277  0.418025  1
  S  S63  1  0.547277  0.735617  0.081975  1
  S  S64  1  0.366807  0.598489  0.796006  1
  S  S65  1  0.598489  0.366807  0.703994  1
  S  S66  1  0.633193  0.401511  0.203994  1
  S  S67  1  0.401511  0.633193  0.296006  1
  O  O68  1  0.024287  0.921746  0.827173  1
  O  O69  1  0.921746  0.024287  0.672827  1
  O  O70  1  0.975713  0.078254  0.172827  1
  O  O71  1  0.078254  0.975713  0.327173  1
  O  O72  1  0.146858  0.711132  0.637827  1
  O  O73  1  0.711132  0.146858  0.862173  1
  O  O74  1  0.853142  0.288868  0.362173  1
  O  O75  1  0.288868  0.853142  0.137827  1
  O  O76  1  0.398607  0.785619  0.593334  1
  O  O77  1  0.785619  0.398607  0.906666  1
  O  O78  1  0.601393  0.214381  0.406666  1
  O  O79  1  0.214381  0.601393  0.093334  1
