# generated using pymatgen
data_Fe4C14O13
_symmetry_space_group_name_H-M   'P 1'
_cell_length_a   9.53535559
_cell_length_b   9.66618138
_cell_length_c   22.48634844
_cell_angle_alpha   90.00000000
_cell_angle_beta   90.00000000
_cell_angle_gamma   99.83415859
_symmetry_Int_Tables_number   1
_chemical_formula_structural   Fe4C14O13
_chemical_formula_sum   'Fe16 C56 O52'
_cell_volume   2042.12351444
_cell_formula_units_Z   4
loop_
 _symmetry_equiv_pos_site_id
 _symmetry_equiv_pos_as_xyz
  1  'x, y, z'
loop_
 _atom_site_type_symbol
 _atom_site_label
 _atom_site_symmetry_multiplicity
 _atom_site_fract_x
 _atom_site_fract_y
 _atom_site_fract_z
 _atom_site_occupancy
  Fe  Fe0  1  0.308871  0.620751  0.156245  1
  Fe  Fe1  1  0.191129  0.879249  0.656245  1
  Fe  Fe2  1  0.808871  0.120751  0.343755  1
  Fe  Fe3  1  0.229302  0.631100  0.623123  1
  Fe  Fe4  1  0.541818  0.210244  0.333641  1
  Fe  Fe5  1  0.769713  0.181929  0.464895  1
  Fe  Fe6  1  0.270698  0.868900  0.123123  1
  Fe  Fe7  1  0.041818  0.710244  0.166359  1
  Fe  Fe8  1  0.958182  0.289756  0.833641  1
  Fe  Fe9  1  0.691129  0.379249  0.843755  1
  Fe  Fe10  1  0.269713  0.681929  0.035105  1
  Fe  Fe11  1  0.458182  0.789756  0.666359  1
  Fe  Fe12  1  0.729302  0.131100  0.876877  1
  Fe  Fe13  1  0.230287  0.818071  0.535105  1
  Fe  Fe14  1  0.770698  0.368900  0.376877  1
  Fe  Fe15  1  0.730287  0.318071  0.964895  1
  C  C16  1  0.529697  0.246115  0.253289  1
  C  C17  1  0.526027  0.420147  0.869428  1
  C  C18  1  0.049097  0.796944  0.504443  1
  C  C19  1  0.772617  0.026258  0.815051  1
  C  C20  1  0.683483  0.472709  0.425650  1
  C  C21  1  0.816517  0.027291  0.925650  1
  C  C22  1  0.316517  0.527291  0.574350  1
  C  C23  1  0.450903  0.703056  0.004443  1
  C  C24  1  0.086981  0.710147  0.684819  1
  C  C25  1  0.727383  0.473742  0.315051  1
  C  C26  1  0.029697  0.746115  0.246711  1
  C  C27  1  0.722155  0.943623  0.358508  1
  C  C28  1  0.562701  0.045968  0.907931  1
  C  C29  1  0.062701  0.545968  0.592069  1
  C  C30  1  0.585450  0.717923  0.644721  1
  C  C31  1  0.800336  0.490917  0.991705  1
  C  C32  1  0.272617  0.526258  0.684949  1
  C  C33  1  0.414550  0.282077  0.355279  1
  C  C34  1  0.200155  0.745534  0.980235  1
  C  C35  1  0.665967  0.188309  0.395297  1
  C  C36  1  0.834033  0.311690  0.895297  1
  C  C37  1  0.568019  0.959033  0.663202  1
  C  C38  1  0.413019  0.789853  0.184819  1
  C  C39  1  0.165967  0.688310  0.104703  1
  C  C40  1  0.913019  0.289853  0.315181  1
  C  C41  1  0.937299  0.454032  0.407931  1
  C  C42  1  0.068019  0.459033  0.836798  1
  C  C43  1  0.283054  0.588528  0.233249  1
  C  C44  1  0.473973  0.579853  0.130572  1
  C  C45  1  0.470303  0.753885  0.746711  1
  C  C46  1  0.699664  0.009083  0.491705  1
  C  C47  1  0.431981  0.040967  0.336798  1
  C  C48  1  0.931981  0.540967  0.163202  1
  C  C49  1  0.299845  0.754466  0.480235  1
  C  C50  1  0.227383  0.973742  0.184949  1
  C  C51  1  0.973973  0.079853  0.369428  1
  C  C52  1  0.437299  0.954032  0.092069  1
  C  C53  1  0.277845  0.056377  0.641492  1
  C  C54  1  0.549097  0.296944  0.995557  1
  C  C55  1  0.222155  0.443623  0.141492  1
  C  C56  1  0.914550  0.782077  0.144721  1
  C  C57  1  0.950903  0.203056  0.495557  1
  C  C58  1  0.216946  0.911472  0.733249  1
  C  C59  1  0.700155  0.245534  0.519765  1
  C  C60  1  0.300336  0.990917  0.508295  1
  C  C61  1  0.586981  0.210147  0.815181  1
  C  C62  1  0.085450  0.217923  0.855279  1
  C  C63  1  0.716946  0.411472  0.766751  1
  C  C64  1  0.183483  0.972709  0.074350  1
  C  C65  1  0.970303  0.253885  0.753289  1
  C  C66  1  0.334033  0.811690  0.604703  1
  C  C67  1  0.777845  0.556377  0.858508  1
  C  C68  1  0.799845  0.254466  0.019765  1
  C  C69  1  0.783054  0.088528  0.266751  1
  C  C70  1  0.026027  0.920147  0.630572  1
  C  C71  1  0.199664  0.509083  0.008295  1
  O  O72  1  0.486748  0.736681  0.796827  1
  O  O73  1  0.083597  0.048819  0.380713  1
  O  O74  1  0.677252  0.441556  0.606605  1
  O  O75  1  0.060593  0.212024  0.518274  1
  O  O76  1  0.322748  0.558444  0.393395  1
  O  O77  1  0.298051  0.448414  0.721117  1
  O  O78  1  0.828847  0.673003  0.864945  1
  O  O79  1  0.498953  0.149846  0.783716  1
  O  O80  1  0.560593  0.712024  0.981726  1
  O  O81  1  0.671153  0.826997  0.364945  1
  O  O82  1  0.364506  0.450156  0.544994  1
  O  O83  1  0.152157  0.400727  0.988796  1
  O  O84  1  0.939407  0.787976  0.481726  1
  O  O85  1  0.171153  0.326997  0.135055  1
  O  O86  1  0.142158  0.019772  0.931536  1
  O  O87  1  0.041624  0.511747  0.428990  1
  O  O88  1  0.347843  0.099273  0.488796  1
  O  O89  1  0.822748  0.058444  0.106605  1
  O  O90  1  0.998953  0.649846  0.716284  1
  O  O91  1  0.858618  0.433108  0.160513  1
  O  O92  1  0.001047  0.350154  0.283716  1
  O  O93  1  0.458376  0.988253  0.928990  1
  O  O94  1  0.701949  0.551586  0.278883  1
  O  O95  1  0.916403  0.951181  0.619287  1
  O  O96  1  0.177252  0.941556  0.893395  1
  O  O97  1  0.501047  0.850154  0.216284  1
  O  O98  1  0.357842  0.480228  0.431536  1
  O  O99  1  0.857842  0.980228  0.068464  1
  O  O100  1  0.641382  0.066892  0.660513  1
  O  O101  1  0.718205  0.435483  0.716258  1
  O  O102  1  0.135494  0.049844  0.044994  1
  O  O103  1  0.847843  0.599273  0.011204  1
  O  O104  1  0.358618  0.933108  0.339487  1
  O  O105  1  0.513252  0.263319  0.203173  1
  O  O106  1  0.986748  0.236681  0.703173  1
  O  O107  1  0.583597  0.548819  0.119287  1
  O  O108  1  0.781795  0.064517  0.216258  1
  O  O109  1  0.635494  0.549844  0.455006  1
  O  O110  1  0.642158  0.519772  0.568464  1
  O  O111  1  0.864506  0.950156  0.955006  1
  O  O112  1  0.013252  0.763319  0.296827  1
  O  O113  1  0.218205  0.935483  0.783742  1
  O  O114  1  0.416403  0.451181  0.880713  1
  O  O115  1  0.958376  0.488253  0.571010  1
  O  O116  1  0.201949  0.051586  0.221117  1
  O  O117  1  0.541624  0.011747  0.071010  1
  O  O118  1  0.141382  0.566892  0.839487  1
  O  O119  1  0.328847  0.173003  0.635055  1
  O  O120  1  0.798051  0.948414  0.778883  1
  O  O121  1  0.652157  0.900727  0.511204  1
  O  O122  1  0.439407  0.287976  0.018274  1
  O  O123  1  0.281795  0.564517  0.283742  1
