# generated using pymatgen
data_VH7(CO2)4
_symmetry_space_group_name_H-M   'P 1'
_cell_length_a   7.66733561
_cell_length_b   7.68819467
_cell_length_c   8.29587643
_cell_angle_alpha   107.09044944
_cell_angle_beta   94.64031245
_cell_angle_gamma   114.53301707
_symmetry_Int_Tables_number   1
_chemical_formula_structural   VH7(CO2)4
_chemical_formula_sum   'V2 H14 C8 O16'
_cell_volume   413.49082674
_cell_formula_units_Z   2
loop_
 _symmetry_equiv_pos_site_id
 _symmetry_equiv_pos_as_xyz
  1  'x, y, z'
loop_
 _atom_site_type_symbol
 _atom_site_label
 _atom_site_symmetry_multiplicity
 _atom_site_fract_x
 _atom_site_fract_y
 _atom_site_fract_z
 _atom_site_occupancy
  V  V0  1  0.188790  0.193573  0.104540  1
  V  V1  1  0.811210  0.806427  0.895460  1
  H  H2  1  0.361421  0.604660  0.263668  1
  H  H3  1  0.638579  0.395340  0.736332  1
  H  H4  1  0.283324  0.548305  0.055306  1
  H  H5  1  0.716676  0.451695  0.944694  1
  H  H6  1  0.082927  0.846988  0.148702  1
  H  H7  1  0.917073  0.153012  0.851298  1
  H  H8  1  0.571886  0.300176  0.209030  1
  H  H9  1  0.428114  0.699824  0.790970  1
  H  H10  1  0.460543  0.235137  0.363270  1
  H  H11  1  0.539457  0.764863  0.636730  1
  H  H12  1  0.118006  0.484788  0.787430  1
  H  H13  1  0.881994  0.515212  0.212570  1
  H  H14  1  0.177343  0.712941  0.913423  1
  H  H15  1  0.822657  0.287059  0.086577  1
  C  C16  1  0.253663  0.068305  0.742942  1
  C  C17  1  0.746337  0.931695  0.257058  1
  C  C18  1  0.325856  0.076489  0.585842  1
  C  C19  1  0.674144  0.923511  0.414158  1
  C  C20  1  0.145687  0.882390  0.481702  1
  C  C21  1  0.854313  0.117610  0.518298  1
  C  C22  1  0.074209  0.881184  0.641465  1
  C  C23  1  0.925791  0.118816  0.358535  1
  O  O24  1  0.321730  0.188269  0.900371  1
  O  O25  1  0.678270  0.811731  0.099629  1
  O  O26  1  0.474665  0.206353  0.556440  1
  O  O27  1  0.525335  0.793647  0.443560  1
  O  O28  1  0.075501  0.771163  0.323769  1
  O  O29  1  0.924499  0.228837  0.676231  1
  O  O30  1  0.913633  0.769056  0.671249  1
  O  O31  1  0.086367  0.230944  0.328751  1
  O  O32  1  0.271683  0.493841  0.151054  1
  O  O33  1  0.728317  0.506159  0.848946  1
  O  O34  1  0.077961  0.885273  0.043564  1
  O  O35  1  0.922039  0.114727  0.956436  1
  O  O36  1  0.444564  0.248743  0.247204  1
  O  O37  1  0.555436  0.751257  0.752796  1
  O  O38  1  0.230150  0.614603  0.869858  1
  O  O39  1  0.769850  0.385397  0.130142  1
