# generated using pymatgen
data_Zn4P3H10C2NO13
_symmetry_space_group_name_H-M   'P 1'
_cell_length_a   5.34898828
_cell_length_b   15.41399988
_cell_length_c   17.68874919
_cell_angle_alpha   90.00000000
_cell_angle_beta   92.37239613
_cell_angle_gamma   90.00000000
_symmetry_Int_Tables_number   1
_chemical_formula_structural   Zn4P3H10C2NO13
_chemical_formula_sum   'Zn16 P12 H40 C8 N4 O52'
_cell_volume   1457.17503973
_cell_formula_units_Z   4
loop_
 _symmetry_equiv_pos_site_id
 _symmetry_equiv_pos_as_xyz
  1  'x, y, z'
loop_
 _atom_site_type_symbol
 _atom_site_label
 _atom_site_symmetry_multiplicity
 _atom_site_fract_x
 _atom_site_fract_y
 _atom_site_fract_z
 _atom_site_occupancy
  Zn  Zn0  1  0.299133  0.902992  0.041225  1
  Zn  Zn1  1  0.799133  0.597008  0.541225  1
  Zn  Zn2  1  0.700867  0.097008  0.958775  1
  Zn  Zn3  1  0.200867  0.402992  0.458775  1
  Zn  Zn4  1  0.383971  0.757409  0.317719  1
  Zn  Zn5  1  0.883971  0.742591  0.817720  1
  Zn  Zn6  1  0.616029  0.242591  0.682280  1
  Zn  Zn7  1  0.116029  0.257409  0.182281  1
  Zn  Zn8  1  0.209976  0.599013  0.009874  1
  Zn  Zn9  1  0.709976  0.900987  0.509874  1
  Zn  Zn10  1  0.790024  0.400987  0.990126  1
  Zn  Zn11  1  0.290024  0.099013  0.490126  1
  Zn  Zn12  1  0.708733  0.729832  0.050877  1
  Zn  Zn13  1  0.208733  0.770168  0.550877  1
  Zn  Zn14  1  0.291267  0.270168  0.949123  1
  Zn  Zn15  1  0.791267  0.229832  0.449123  1
  P  P16  1  0.223108  0.741014  0.141965  1
  P  P17  1  0.723108  0.758986  0.641965  1
  P  P18  1  0.776892  0.258986  0.858035  1
  P  P19  1  0.276892  0.241014  0.358035  1
  P  P20  1  0.223892  0.113731  0.057646  1
  P  P21  1  0.723892  0.386269  0.557646  1
  P  P22  1  0.776108  0.886269  0.942354  1
  P  P23  1  0.276108  0.613731  0.442354  1
  P  P24  1  0.221499  0.910799  0.416263  1
  P  P25  1  0.721499  0.589201  0.916263  1
  P  P26  1  0.778501  0.089201  0.583737  1
  P  P27  1  0.278501  0.410799  0.083737  1
  H  H28  1  0.121399  0.529492  0.308993  1
  H  H29  1  0.621399  0.970508  0.808993  1
  H  H30  1  0.878601  0.470508  0.691007  1
  H  H31  1  0.378601  0.029492  0.191007  1
  H  H32  1  0.138292  0.589175  0.230458  1
  H  H33  1  0.638292  0.910825  0.730458  1
  H  H34  1  0.861708  0.410825  0.769542  1
  H  H35  1  0.361708  0.089175  0.269542  1
  H  H36  1  0.139264  0.478998  0.223532  1
  H  H37  1  0.639264  0.021002  0.723532  1
  H  H38  1  0.860736  0.521002  0.776468  1
  H  H39  1  0.360736  0.978998  0.276468  1
  H  H40  1  0.882213  0.721898  0.359734  1
  H  H41  1  0.382213  0.778102  0.859734  1
  H  H42  1  0.117787  0.278102  0.640266  1
  H  H43  1  0.617787  0.221898  0.140266  1
  H  H44  1  0.840544  0.766026  0.279891  1
  H  H45  1  0.340544  0.733974  0.779891  1
  H  H46  1  0.159456  0.233974  0.720109  1
  H  H47  1  0.659456  0.266026  0.220109  1
  H  H48  1  0.707932  0.589573  0.258361  1
  H  H49  1  0.207932  0.910427  0.758361  1
  H  H50  1  0.292068  0.410427  0.741639  1
  H  H51  1  0.792068  0.089573  0.241639  1
  H  H52  1  0.739011  0.516943  0.182521  1
  H  H53  1  0.239011  0.983057  0.682521  1
  H  H54  1  0.260989  0.483057  0.817479  1
  H  H55  1  0.760989  0.016943  0.317479  1
  H  H56  1  0.511042  0.426793  0.272912  1
  H  H57  1  0.011042  0.073207  0.772912  1
  H  H58  1  0.488958  0.573207  0.727088  1
  H  H59  1  0.988958  0.926793  0.227088  1
  H  H60  1  0.682675  0.472639  0.351121  1
  H  H61  1  0.182675  0.027361  0.851121  1
  H  H62  1  0.317325  0.527361  0.648879  1
  H  H63  1  0.817325  0.972639  0.148879  1
  H  H64  1  0.826042  0.398485  0.291230  1
  H  H65  1  0.326042  0.101515  0.791230  1
  H  H66  1  0.173958  0.601515  0.708770  1
  H  H67  1  0.673958  0.898485  0.208770  1
  C  C68  1  0.784927  0.526633  0.242841  1
  C  C69  1  0.284927  0.973367  0.742841  1
  C  C70  1  0.215073  0.473367  0.757159  1
  C  C71  1  0.715073  0.026633  0.257159  1
  C  C72  1  0.693713  0.452880  0.291858  1
  C  C73  1  0.193713  0.047120  0.791858  1
  C  C74  1  0.306287  0.547120  0.708142  1
  C  C75  1  0.806287  0.952880  0.208142  1
  N  N76  1  0.066229  0.531885  0.252000  1
  N  N77  1  0.566229  0.968115  0.752000  1
  N  N78  1  0.933771  0.468115  0.748000  1
  N  N79  1  0.433771  0.031885  0.248000  1
  O  O80  1  0.267876  0.839081  0.135980  1
  O  O81  1  0.767876  0.660919  0.635980  1
  O  O82  1  0.732124  0.160919  0.864020  1
  O  O83  1  0.232124  0.339081  0.364020  1
  O  O84  1  0.322582  0.022320  0.077949  1
  O  O85  1  0.822582  0.477680  0.577949  1
  O  O86  1  0.677418  0.977680  0.922051  1
  O  O87  1  0.177418  0.522320  0.422051  1
  O  O88  1  0.938530  0.117960  0.043177  1
  O  O89  1  0.438530  0.382040  0.543177  1
  O  O90  1  0.061470  0.882040  0.956823  1
  O  O91  1  0.561470  0.617960  0.456823  1
  O  O92  1  0.360836  0.147930  0.985591  1
  O  O93  1  0.860836  0.352070  0.485591  1
  O  O94  1  0.639164  0.852070  0.014409  1
  O  O95  1  0.139164  0.647930  0.514409  1
  O  O96  1  0.330167  0.704477  0.217939  1
  O  O97  1  0.830167  0.795523  0.717939  1
  O  O98  1  0.669833  0.295523  0.782061  1
  O  O99  1  0.169833  0.204477  0.282061  1
  O  O100  1  0.282205  0.876617  0.336200  1
  O  O101  1  0.782205  0.623383  0.836200  1
  O  O102  1  0.717795  0.123383  0.663800  1
  O  O103  1  0.217795  0.376617  0.163800  1
  O  O104  1  0.306044  0.173826  0.124647  1
  O  O105  1  0.806044  0.326174  0.624647  1
  O  O106  1  0.693956  0.826174  0.875353  1
  O  O107  1  0.193956  0.673826  0.375353  1
  O  O108  1  0.327409  0.003511  0.421157  1
  O  O109  1  0.827409  0.496489  0.921157  1
  O  O110  1  0.672591  0.996489  0.578843  1
  O  O111  1  0.172591  0.503511  0.078843  1
  O  O112  1  0.369636  0.852806  0.478308  1
  O  O113  1  0.869636  0.647194  0.978308  1
  O  O114  1  0.630364  0.147194  0.521692  1
  O  O115  1  0.130364  0.352806  0.021692  1
  O  O116  1  0.941452  0.904677  0.429255  1
  O  O117  1  0.441452  0.595323  0.929255  1
  O  O118  1  0.058548  0.095323  0.570745  1
  O  O119  1  0.558548  0.404677  0.070745  1
  O  O120  1  0.362589  0.694754  0.074973  1
  O  O121  1  0.862589  0.805246  0.574973  1
  O  O122  1  0.637411  0.305246  0.925027  1
  O  O123  1  0.137411  0.194754  0.425027  1
  O  O124  1  0.943213  0.716110  0.135781  1
  O  O125  1  0.443213  0.783890  0.635781  1
  O  O126  1  0.056787  0.283890  0.864219  1
  O  O127  1  0.556787  0.216110  0.364219  1
  O  O128  1  0.761237  0.755663  0.327849  1
  O  O129  1  0.261237  0.744337  0.827849  1
  O  O130  1  0.238763  0.244337  0.672151  1
  O  O131  1  0.738763  0.255663  0.172151  1
