# generated using pymatgen
data_Na3Li3Mn2P2(CO7)2
_symmetry_space_group_name_H-M   'P 1'
_cell_length_a   8.77430368
_cell_length_b   6.77261374
_cell_length_c   10.18378500
_cell_angle_alpha   90.20391138
_cell_angle_beta   89.07586040
_cell_angle_gamma   88.83500057
_symmetry_Int_Tables_number   1
_chemical_formula_structural   Na3Li3Mn2P2(CO7)2
_chemical_formula_sum   'Na6 Li6 Mn4 P4 C4 O28'
_cell_volume   604.96274631
_cell_formula_units_Z   2
loop_
 _symmetry_equiv_pos_site_id
 _symmetry_equiv_pos_as_xyz
  1  'x, y, z'
loop_
 _atom_site_type_symbol
 _atom_site_label
 _atom_site_symmetry_multiplicity
 _atom_site_fract_x
 _atom_site_fract_y
 _atom_site_fract_z
 _atom_site_occupancy
  Na  Na0  1  0.082665  0.240480  0.877224  1
  Na  Na1  1  0.253835  0.501259  0.623940  1
  Na  Na2  1  0.253790  0.997835  0.126374  1
  Na  Na3  1  0.255567  0.501329  0.124961  1
  Na  Na4  1  0.746320  0.500814  0.875327  1
  Na  Na5  1  0.746197  0.499562  0.375975  1
  Li  Li6  1  0.084114  0.234725  0.375320  1
  Li  Li7  1  0.273461  0.024880  0.612916  1
  Li  Li8  1  0.726898  0.974909  0.887806  1
  Li  Li9  1  0.731683  0.983305  0.383295  1
  Li  Li10  1  0.912016  0.773798  0.626552  1
  Li  Li11  1  0.907627  0.763264  0.127506  1
  Mn  Mn12  1  0.361818  0.750371  0.884424  1
  Mn  Mn13  1  0.358700  0.753845  0.389769  1
  Mn  Mn14  1  0.646804  0.245486  0.612165  1
  Mn  Mn15  1  0.642473  0.243833  0.111431  1
  P  P16  1  0.415115  0.239159  0.849857  1
  P  P17  1  0.408864  0.246469  0.355122  1
  P  P18  1  0.594277  0.758863  0.645238  1
  P  P19  1  0.596401  0.752173  0.146117  1
  C  C20  1  0.044761  0.760881  0.865738  1
  C  C21  1  0.044220  0.760573  0.367062  1
  C  C22  1  0.956559  0.238817  0.626717  1
  C  C23  1  0.940161  0.246286  0.142960  1
  O  O24  1  0.101244  0.222557  0.647461  1
  O  O25  1  0.085207  0.255334  0.164928  1
  O  O26  1  0.083042  0.753781  0.989193  1
  O  O27  1  0.084118  0.752226  0.489401  1
  O  O28  1  0.149635  0.751582  0.773827  1
  O  O29  1  0.148940  0.754286  0.274022  1
  O  O30  1  0.318334  0.064922  0.900038  1
  O  O31  1  0.327646  0.432611  0.890183  1
  O  O32  1  0.304880  0.073700  0.400179  1
  O  O33  1  0.321191  0.438912  0.396276  1
  O  O34  1  0.426883  0.228362  0.696498  1
  O  O35  1  0.429108  0.770831  0.590454  1
  O  O36  1  0.427362  0.241797  0.202402  1
  O  O37  1  0.435461  0.746801  0.085177  1
  O  O38  1  0.579762  0.231815  0.905010  1
  O  O39  1  0.580096  0.775171  0.798323  1
  O  O40  1  0.570887  0.231164  0.413808  1
  O  O41  1  0.575408  0.774897  0.298441  1
  O  O42  1  0.679380  0.563233  0.608202  1
  O  O43  1  0.696879  0.926628  0.591893  1
  O  O44  1  0.692327  0.562404  0.114253  1
  O  O45  1  0.693331  0.924794  0.091944  1
  O  O46  1  0.860364  0.246049  0.726041  1
  O  O47  1  0.845270  0.234042  0.241362  1
  O  O48  1  0.905489  0.248570  0.507358  1
  O  O49  1  0.887969  0.248930  0.023818  1
  O  O50  1  0.902973  0.776618  0.832052  1
  O  O51  1  0.902487  0.775065  0.333662  1
