# generated using pymatgen
data_Na5LiMn2P2(CO7)2
_symmetry_space_group_name_H-M   'P 1'
_cell_length_a   8.94920336
_cell_length_b   6.83672751
_cell_length_c   5.16333568
_cell_angle_alpha   90.00000000
_cell_angle_beta   89.10277264
_cell_angle_gamma   90.00000000
_symmetry_Int_Tables_number   1
_chemical_formula_structural   Na5LiMn2P2(CO7)2
_chemical_formula_sum   'Na5 Li1 Mn2 P2 C2 O14'
_cell_volume   315.87100063
_cell_formula_units_Z   1
loop_
 _symmetry_equiv_pos_site_id
 _symmetry_equiv_pos_as_xyz
  1  'x, y, z'
loop_
 _atom_site_type_symbol
 _atom_site_label
 _atom_site_symmetry_multiplicity
 _atom_site_fract_x
 _atom_site_fract_y
 _atom_site_fract_z
 _atom_site_occupancy
  Na  Na0  1  0.257674  0.001973  0.247307  1
  Na  Na1  1  0.257674  0.498027  0.247307  1
  Na  Na2  1  0.740938  0.500532  0.750860  1
  Na  Na3  1  0.740938  0.999468  0.750860  1
  Na  Na4  1  0.916958  0.750000  0.241538  1
  Li  Li5  1  0.095011  0.250000  0.745245  1
  Mn  Mn6  1  0.357027  0.750000  0.776813  1
  Mn  Mn7  1  0.637690  0.250000  0.223341  1
  P  P8  1  0.403298  0.250000  0.704771  1
  P  P9  1  0.589667  0.750000  0.293989  1
  C  C10  1  0.057467  0.750000  0.734103  1
  C  C11  1  0.950724  0.250000  0.270088  1
  O  O12  1  0.087298  0.250000  0.348232  1
  O  O13  1  0.119190  0.750000  0.960948  1
  O  O14  1  0.143338  0.750000  0.527556  1
  O  O15  1  0.307276  0.068851  0.783260  1
  O  O16  1  0.307276  0.431149  0.783260  1
  O  O17  1  0.427835  0.250000  0.404493  1
  O  O18  1  0.432023  0.750000  0.173171  1
  O  O19  1  0.559946  0.250000  0.832063  1
  O  O20  1  0.570125  0.750000  0.595897  1
  O  O21  1  0.682484  0.566872  0.211314  1
  O  O22  1  0.682484  0.933128  0.211314  1
  O  O23  1  0.842752  0.250000  0.444703  1
  O  O24  1  0.919329  0.250000  0.024080  1
  O  O25  1  0.913579  0.750000  0.713491  1
