# generated using pymatgen
data_NaNiBO3
_symmetry_space_group_name_H-M   'P 1'
_cell_length_a   5.05293239
_cell_length_b   8.77593111
_cell_length_c   5.59756352
_cell_angle_alpha   90.01773340
_cell_angle_beta   95.49120921
_cell_angle_gamma   29.67852016
_symmetry_Int_Tables_number   1
_chemical_formula_structural   NaNiBO3
_chemical_formula_sum   'Na2 Ni2 B2 O6'
_cell_volume   120.59756641
_cell_formula_units_Z   2
loop_
 _symmetry_equiv_pos_site_id
 _symmetry_equiv_pos_as_xyz
  1  'x, y, z'
loop_
 _atom_site_type_symbol
 _atom_site_label
 _atom_site_symmetry_multiplicity
 _atom_site_fract_x
 _atom_site_fract_y
 _atom_site_fract_z
 _atom_site_occupancy
  Na  Na0  1  0.999743  0.664718  0.749886  1
  Na  Na1  1  0.997033  0.336056  0.247231  1
  Ni  Ni2  1  0.001290  0.998127  0.498436  1
  Ni  Ni3  1  0.998765  0.998801  0.998366  1
  B  B4  1  0.000513  0.329755  0.747797  1
  B  B5  1  0.999520  0.666891  0.248682  1
  O  O6  1  0.995428  0.174831  0.748428  1
  O  O7  1  0.009201  0.819851  0.250138  1
  O  O8  1  0.449705  0.181779  0.699630  1
  O  O9  1  0.556842  0.631177  0.796223  1
  O  O10  1  0.440405  0.366483  0.199938  1
  O  O11  1  0.546944  0.817536  0.295482  1
