# generated using pymatgen
data_VOF
_symmetry_space_group_name_H-M   'P 1'
_cell_length_a   4.71697177
_cell_length_b   4.73074508
_cell_length_c   9.39317705
_cell_angle_alpha   90.00000000
_cell_angle_beta   90.00000000
_cell_angle_gamma   90.00000000
_symmetry_Int_Tables_number   1
_chemical_formula_structural   VOF
_chemical_formula_sum   'V6 O6 F6'
_cell_volume   209.60678263
_cell_formula_units_Z   6
loop_
 _symmetry_equiv_pos_site_id
 _symmetry_equiv_pos_as_xyz
  1  'x, y, z'
loop_
 _atom_site_type_symbol
 _atom_site_label
 _atom_site_symmetry_multiplicity
 _atom_site_fract_x
 _atom_site_fract_y
 _atom_site_fract_z
 _atom_site_occupancy
  V  V0  1  0.978601  0.970754  0.999218  1
  V  V1  1  0.978601  0.970754  0.334115  1
  V  V2  1  0.046126  0.022169  0.666667  1
  V  V3  1  0.546126  0.477831  0.166667  1
  V  V4  1  0.478601  0.529246  0.834115  1
  V  V5  1  0.478601  0.529246  0.499218  1
  O  O6  1  0.193375  0.818120  0.498345  1
  O  O7  1  0.193375  0.818120  0.834989  1
  O  O8  1  0.315556  0.325614  0.666667  1
  O  O9  1  0.693375  0.681880  0.998345  1
  O  O10  1  0.693375  0.681880  0.334989  1
  O  O11  1  0.815556  0.174386  0.166667  1
  F  F12  1  0.200477  0.771061  0.166667  1
  F  F13  1  0.296945  0.293775  0.001244  1
  F  F14  1  0.296945  0.293775  0.332089  1
  F  F15  1  0.700477  0.728939  0.666667  1
  F  F16  1  0.796945  0.206225  0.832089  1
  F  F17  1  0.796945  0.206225  0.501244  1
