# generated using pymatgen
data_Co3(O2F)2
_symmetry_space_group_name_H-M   'P 1'
_cell_length_a   6.81921150
_cell_length_b   5.44007014
_cell_length_c   5.45362832
_cell_angle_alpha   77.30492253
_cell_angle_beta   74.83508386
_cell_angle_gamma   74.57289959
_symmetry_Int_Tables_number   1
_chemical_formula_structural   Co3(O2F)2
_chemical_formula_sum   'Co6 O8 F4'
_cell_volume   185.76429685
_cell_formula_units_Z   2
loop_
 _symmetry_equiv_pos_site_id
 _symmetry_equiv_pos_as_xyz
  1  'x, y, z'
loop_
 _atom_site_type_symbol
 _atom_site_label
 _atom_site_symmetry_multiplicity
 _atom_site_fract_x
 _atom_site_fract_y
 _atom_site_fract_z
 _atom_site_occupancy
  Co  Co0  1  0.833333  0.666667  0.666667  1
  Co  Co1  1  0.333333  0.666667  0.666667  1
  Co  Co2  1  0.665553  0.369790  0.293147  1
  Co  Co3  1  0.161015  0.344619  0.334425  1
  Co  Co4  1  0.505652  0.988714  -0.001092  1
  Co  Co5  1  0.001114  0.963543  0.040186  1
  O  O6  1  0.631522  0.573580  0.553008  1
  O  O7  1  0.296931  0.885017  0.908474  1
  O  O8  1  0.960269  0.236076  0.232436  1
  O  O9  1  0.369736  0.448317  0.424860  1
  O  O10  1  0.035145  0.759753  0.780325  1
  O  O11  1  0.706398  0.097257  0.100897  1
  O  O12  1  0.670183  0.648092  0.005725  1
  O  O13  1  0.996484  0.685241  0.327608  1
  F  F14  1  0.343563  0.345970  0.966488  1
  F  F15  1  0.667985  0.037210  0.622958  1
  F  F16  1  0.323104  0.987364  0.366845  1
  F  F17  1  0.998682  0.296123  0.710376  1
