# generated using pymatgen
data_LiV2OF5
_symmetry_space_group_name_H-M   'P 1'
_cell_length_a   5.24806896
_cell_length_b   5.24783245
_cell_length_c   13.75690843
_cell_angle_alpha   89.99218731
_cell_angle_beta   90.00347115
_cell_angle_gamma   119.99926775
_symmetry_Int_Tables_number   1
_chemical_formula_structural   LiV2OF5
_chemical_formula_sum   'Li3 V6 O3 F15'
_cell_volume   328.12111052
_cell_formula_units_Z   3
loop_
 _symmetry_equiv_pos_site_id
 _symmetry_equiv_pos_as_xyz
  1  'x, y, z'
loop_
 _atom_site_type_symbol
 _atom_site_label
 _atom_site_symmetry_multiplicity
 _atom_site_fract_x
 _atom_site_fract_y
 _atom_site_fract_z
 _atom_site_occupancy
  Li  Li0  1  0.999614  0.020506  0.670911  1
  Li  Li1  1  0.979526  0.979123  0.004238  1
  Li  Li2  1  0.020906  0.000439  0.337574  1
  V  V3  1  0.331798  0.683489  0.496227  1
  V  V4  1  0.351695  0.668207  0.162878  1
  V  V5  1  0.316541  0.648338  0.829553  1
  V  V6  1  0.648961  0.316893  0.496300  1
  V  V7  1  0.667947  0.351039  0.162944  1
  V  V8  1  0.683047  0.332044  0.829635  1
  O  O9  1  0.999767  0.351951  0.759654  1
  O  O10  1  0.352248  0.000274  0.426345  1
  O  O11  1  0.647994  0.647803  0.093013  1
  F  F12  1  0.006564  0.652436  0.243128  1
  F  F13  1  0.992599  0.647619  0.575493  1
  F  F14  1  0.000934  0.659908  0.913375  1
  F  F15  1  0.004487  0.349921  0.088733  1
  F  F16  1  0.995642  0.345176  0.422859  1
  F  F17  1  0.347441  0.354007  0.576479  1
  F  F18  1  0.340069  0.340980  0.246734  1
  F  F19  1  0.352356  0.344941  0.908800  1
  F  F20  1  0.345478  0.995551  0.755351  1
  F  F21  1  0.349522  0.004384  0.089495  1
  F  F22  1  0.650111  0.654568  0.422075  1
  F  F23  1  0.654878  0.650568  0.756152  1
  F  F24  1  0.645829  0.993387  0.909802  1
  F  F25  1  0.655058  0.007382  0.242169  1
  F  F26  1  0.658956  0.999068  0.580089  1
