# generated using pymatgen
data_LiCuPO4
_symmetry_space_group_name_H-M   'P 1'
_cell_length_a   9.82199238
_cell_length_b   9.82199311
_cell_length_c   21.61957605
_cell_angle_alpha   90.00000000
_cell_angle_beta   90.00000000
_cell_angle_gamma   119.99999942
_symmetry_Int_Tables_number   1
_chemical_formula_structural   LiCuPO4
_chemical_formula_sum   'Li24 Cu24 P24 O96'
_cell_volume   1806.24652966
_cell_formula_units_Z   24
loop_
 _symmetry_equiv_pos_site_id
 _symmetry_equiv_pos_as_xyz
  1  'x, y, z'
loop_
 _atom_site_type_symbol
 _atom_site_label
 _atom_site_symmetry_multiplicity
 _atom_site_fract_x
 _atom_site_fract_y
 _atom_site_fract_z
 _atom_site_occupancy
  Li  Li0  1  0.145821  0.828560  0.673811  1
  Li  Li1  1  0.189129  0.881435  0.009392  1
  Li  Li2  1  0.180138  0.790412  0.374383  1
  Li  Li3  1  0.118565  0.307694  0.676059  1
  Li  Li4  1  0.331379  0.686740  0.823082  1
  Li  Li5  1  0.313260  0.644639  0.489749  1
  Li  Li6  1  0.355361  0.668621  0.156415  1
  Li  Li7  1  0.171440  0.317260  0.340478  1
  Li  Li8  1  0.209588  0.389727  0.041050  1
  Li  Li9  1  0.610273  0.819862  0.707716  1
  Li  Li10  1  0.307694  0.189129  0.842725  1
  Li  Li11  1  0.317260  0.145821  0.507144  1
  Li  Li12  1  0.682740  0.854179  0.007144  1
  Li  Li13  1  0.692306  0.810871  0.342725  1
  Li  Li14  1  0.389727  0.180138  0.207717  1
  Li  Li15  1  0.790412  0.610273  0.541050  1
  Li  Li16  1  0.828560  0.682740  0.840478  1
  Li  Li17  1  0.644639  0.331379  0.656415  1
  Li  Li18  1  0.686740  0.355361  0.989749  1
  Li  Li19  1  0.668621  0.313260  0.323082  1
  Li  Li20  1  0.881435  0.692306  0.176059  1
  Li  Li21  1  0.819862  0.209588  0.874383  1
  Li  Li22  1  0.810871  0.118565  0.509392  1
  Li  Li23  1  0.854179  0.171440  0.173811  1
  Cu  Cu24  1  0.997967  0.956538  0.427671  1
  Cu  Cu25  1  0.047626  0.558106  0.909267  1
  Cu  Cu26  1  0.044182  0.515790  0.245237  1
  Cu  Cu27  1  0.979163  0.458552  0.583746  1
  Cu  Cu28  1  0.479389  0.020837  0.917080  1
  Cu  Cu29  1  0.471609  0.955818  0.578570  1
  Cu  Cu30  1  0.043462  0.041428  0.094337  1
  Cu  Cu31  1  0.510480  0.952374  0.242600  1
  Cu  Cu32  1  0.041428  0.997967  0.261004  1
  Cu  Cu33  1  0.441894  0.489520  0.575933  1
  Cu  Cu34  1  0.484210  0.528391  0.911903  1
  Cu  Cu35  1  0.541448  0.520611  0.250413  1
  Cu  Cu36  1  0.458552  0.479389  0.750413  1
  Cu  Cu37  1  0.515790  0.471609  0.411903  1
  Cu  Cu38  1  0.558106  0.510480  0.075933  1
  Cu  Cu39  1  0.958572  0.002033  0.761004  1
  Cu  Cu40  1  0.489520  0.047626  0.742600  1
  Cu  Cu41  1  0.956538  0.958572  0.594337  1
  Cu  Cu42  1  0.528391  0.044182  0.078570  1
  Cu  Cu43  1  0.520611  0.979163  0.417080  1
  Cu  Cu44  1  0.020837  0.541448  0.083746  1
  Cu  Cu45  1  0.955818  0.484210  0.745237  1
  Cu  Cu46  1  0.952374  0.441894  0.409267  1
  Cu  Cu47  1  0.002033  0.043462  0.927671  1
  P  P48  1  0.173633  0.863459  0.814274  1
  P  P49  1  0.125853  0.767419  0.506512  1
  P  P50  1  0.217263  0.875388  0.152390  1
  P  P51  1  0.124612  0.341875  0.819057  1
  P  P52  1  0.330274  0.693213  0.009381  1
  P  P53  1  0.136541  0.310174  0.480941  1
  P  P54  1  0.306787  0.637061  0.676048  1
  P  P55  1  0.362939  0.669726  0.342714  1
  P  P56  1  0.232581  0.358435  0.173179  1
  P  P57  1  0.641565  0.874147  0.839845  1
  P  P58  1  0.341875  0.217263  0.985723  1
  P  P59  1  0.310174  0.173633  0.647607  1
  P  P60  1  0.689826  0.826367  0.147608  1
  P  P61  1  0.658125  0.782737  0.485723  1
  P  P62  1  0.358435  0.125853  0.339845  1
  P  P63  1  0.767419  0.641565  0.673179  1
  P  P64  1  0.637061  0.330274  0.842714  1
  P  P65  1  0.693213  0.362939  0.176048  1
  P  P66  1  0.863459  0.689826  0.980941  1
  P  P67  1  0.669726  0.306787  0.509381  1
  P  P68  1  0.875388  0.658125  0.319057  1
  P  P69  1  0.782737  0.124612  0.652390  1
  P  P70  1  0.874147  0.232581  0.006512  1
  P  P71  1  0.826367  0.136541  0.314274  1
  O  O72  1  0.026098  0.704757  0.799525  1
  O  O73  1  0.119450  0.983452  0.834827  1
  O  O74  1  0.009111  0.665332  0.558690  1
  O  O75  1  0.119462  0.921662  0.495301  1
  O  O76  1  0.176085  0.986699  0.188909  1
  O  O77  1  0.063068  0.725216  0.132761  1
  O  O78  1  0.081882  0.667345  0.447316  1
  O  O79  1  0.267082  0.923915  0.752124  1
  O  O80  1  0.302953  0.959467  0.091397  1
  O  O81  1  0.140614  0.620534  0.680670  1
  O  O82  1  0.203508  0.706221  0.971834  1
  O  O83  1  0.285705  0.849496  0.860706  1
  O  O84  1  0.199827  0.631865  0.316742  1
  O  O85  1  0.295224  0.814236  0.525885  1
  O  O86  1  0.040533  0.343487  0.758063  1
  O  O87  1  0.324910  0.833366  0.190554  1
  O  O88  1  0.166634  0.491545  0.857221  1
  O  O89  1  0.013301  0.189386  0.855575  1
  O  O90  1  0.076085  0.343167  0.418790  1
  O  O91  1  0.016548  0.135999  0.501494  1
  O  O92  1  0.258277  0.632531  0.074856  1
  O  O93  1  0.078338  0.197800  0.161968  1
  O  O94  1  0.150504  0.436209  0.527373  1
  O  O95  1  0.185764  0.480987  0.192552  1
  O  O96  1  0.374254  0.741723  0.408189  1
  O  O97  1  0.293779  0.497288  0.638501  1
  O  O98  1  0.367469  0.625746  0.741522  1
  O  O99  1  0.368135  0.567961  0.983408  1
  O  O100  1  0.432039  0.800173  0.650075  1
  O  O101  1  0.479920  0.859386  0.014003  1
  O  O102  1  0.379466  0.520080  0.347337  1
  O  O103  1  0.135999  0.119450  0.668160  1
  O  O104  1  0.189386  0.176085  0.022242  1
  O  O105  1  0.274784  0.337852  0.799427  1
  O  O106  1  0.332655  0.414537  0.113982  1
  O  O107  1  0.502712  0.796492  0.305168  1
  O  O108  1  0.197800  0.119462  0.328634  1
  O  O109  1  0.295243  0.321341  0.466192  1
  O  O110  1  0.334668  0.343779  0.225357  1
  O  O111  1  0.519013  0.704776  0.859218  1
  O  O112  1  0.585463  0.918118  0.780649  1
  O  O113  1  0.563791  0.714295  0.194039  1
  O  O114  1  0.343487  0.302953  0.924730  1
  O  O115  1  0.656221  0.990889  0.892024  1
  O  O116  1  0.508455  0.675090  0.523887  1
  O  O117  1  0.343167  0.267082  0.585457  1
  O  O118  1  0.662148  0.936932  0.466094  1
  O  O119  1  0.678659  0.973902  0.132858  1
  O  O120  1  0.321341  0.026098  0.632858  1
  O  O121  1  0.337852  0.063068  0.966094  1
  O  O122  1  0.656833  0.732918  0.085457  1
  O  O123  1  0.491545  0.324910  0.023887  1
  O  O124  1  0.343779  0.009111  0.392024  1
  O  O125  1  0.656513  0.697047  0.424730  1
  O  O126  1  0.436209  0.285705  0.694039  1
  O  O127  1  0.414537  0.081882  0.280649  1
  O  O128  1  0.480987  0.295224  0.359218  1
  O  O129  1  0.665332  0.656221  0.725357  1
  O  O130  1  0.704757  0.678659  0.966192  1
  O  O131  1  0.802200  0.880538  0.828634  1
  O  O132  1  0.497288  0.203508  0.805168  1
  O  O133  1  0.667345  0.585463  0.613982  1
  O  O134  1  0.725216  0.662148  0.299427  1
  O  O135  1  0.810614  0.823915  0.522242  1
  O  O136  1  0.864001  0.880550  0.168160  1
  O  O137  1  0.620534  0.479920  0.847337  1
  O  O138  1  0.520080  0.140614  0.514003  1
  O  O139  1  0.567961  0.199827  0.150075  1
  O  O140  1  0.631865  0.432039  0.483408  1
  O  O141  1  0.632531  0.374254  0.241522  1
  O  O142  1  0.706221  0.502712  0.138501  1
  O  O143  1  0.625746  0.258277  0.908189  1
  O  O144  1  0.814236  0.519013  0.692552  1
  O  O145  1  0.849496  0.563791  0.027373  1
  O  O146  1  0.921662  0.802200  0.661968  1
  O  O147  1  0.741723  0.367469  0.574856  1
  O  O148  1  0.983452  0.864001  0.001494  1
  O  O149  1  0.923915  0.656833  0.918790  1
  O  O150  1  0.986699  0.810614  0.355575  1
  O  O151  1  0.833366  0.508455  0.357221  1
  O  O152  1  0.675090  0.166634  0.690554  1
  O  O153  1  0.959467  0.656513  0.258063  1
  O  O154  1  0.704776  0.185764  0.025885  1
  O  O155  1  0.800173  0.368135  0.816742  1
  O  O156  1  0.714295  0.150504  0.360706  1
  O  O157  1  0.796492  0.293779  0.471834  1
  O  O158  1  0.859386  0.379466  0.180670  1
  O  O159  1  0.697047  0.040533  0.591397  1
  O  O160  1  0.732918  0.076085  0.252124  1
  O  O161  1  0.918118  0.332655  0.947316  1
  O  O162  1  0.936932  0.274784  0.632761  1
  O  O163  1  0.823915  0.013301  0.688909  1
  O  O164  1  0.880538  0.078338  0.995301  1
  O  O165  1  0.990889  0.334668  0.058690  1
  O  O166  1  0.880550  0.016548  0.334827  1
  O  O167  1  0.973902  0.295243  0.299525  1
