# generated using pymatgen
data_LiFePO4
_symmetry_space_group_name_H-M   'P 1'
_cell_length_a   8.07826281
_cell_length_b   16.99989414
_cell_length_c   4.87846509
_cell_angle_alpha   90.00000000
_cell_angle_beta   90.00000000
_cell_angle_gamma   90.00000000
_symmetry_Int_Tables_number   1
_chemical_formula_structural   LiFePO4
_chemical_formula_sum   'Li8 Fe8 P8 O32'
_cell_volume   669.95772092
_cell_formula_units_Z   8
loop_
 _symmetry_equiv_pos_site_id
 _symmetry_equiv_pos_as_xyz
  1  'x, y, z'
loop_
 _atom_site_type_symbol
 _atom_site_label
 _atom_site_symmetry_multiplicity
 _atom_site_fract_x
 _atom_site_fract_y
 _atom_site_fract_z
 _atom_site_occupancy
  Li  Li0  1  0.033876  0.942886  0.941916  1
  Li  Li1  1  0.129186  0.365327  0.471210  1
  Li  Li2  1  0.370814  0.865327  0.971210  1
  Li  Li3  1  0.466124  0.442887  0.441916  1
  Li  Li4  1  0.533876  0.557114  0.941916  1
  Li  Li5  1  0.629186  0.134673  0.471210  1
  Li  Li6  1  0.870814  0.634673  0.971210  1
  Li  Li7  1  0.966124  0.057113  0.441916  1
  Fe  Fe8  1  0.068653  0.782718  0.600792  1
  Fe  Fe9  1  0.154161  0.556096  0.482283  1
  Fe  Fe10  1  0.345840  0.056096  0.982283  1
  Fe  Fe11  1  0.431347  0.282718  0.100792  1
  Fe  Fe12  1  0.568653  0.717282  0.600792  1
  Fe  Fe13  1  0.654161  0.943904  0.482283  1
  Fe  Fe14  1  0.845839  0.443904  0.982283  1
  Fe  Fe15  1  0.931347  0.217282  0.100792  1
  P  P16  1  0.246405  0.679277  0.944240  1
  P  P17  1  0.252133  0.938865  0.429587  1
  P  P18  1  0.247867  0.438865  0.929587  1
  P  P19  1  0.253595  0.179277  0.444240  1
  P  P20  1  0.746405  0.820723  0.944240  1
  P  P21  1  0.752133  0.561135  0.429587  1
  P  P22  1  0.747867  0.061135  0.929587  1
  P  P23  1  0.753595  0.320723  0.444240  1
  O  O24  1  0.092858  0.648110  0.774303  1
  O  O25  1  0.122526  0.989068  0.277632  1
  O  O26  1  0.079073  0.458526  0.785861  1
  O  O27  1  0.088144  0.149696  0.316659  1
  O  O28  1  0.232276  0.654944  0.246917  1
  O  O29  1  0.255738  0.955151  0.744173  1
  O  O30  1  0.243866  0.769521  0.899532  1
  O  O31  1  0.282473  0.350486  0.876066  1
  O  O32  1  0.217527  0.850486  0.376066  1
  O  O33  1  0.256134  0.269520  0.399532  1
  O  O34  1  0.244262  0.455151  0.244173  1
  O  O35  1  0.267724  0.154944  0.746917  1
  O  O36  1  0.411856  0.649696  0.816659  1
  O  O37  1  0.420927  0.958526  0.285861  1
  O  O38  1  0.377474  0.489068  0.777632  1
  O  O39  1  0.407142  0.148110  0.274303  1
  O  O40  1  0.592858  0.851890  0.774303  1
  O  O41  1  0.622526  0.510932  0.277632  1
  O  O42  1  0.579073  0.041474  0.785861  1
  O  O43  1  0.588144  0.350304  0.316659  1
  O  O44  1  0.732276  0.845056  0.246917  1
  O  O45  1  0.755738  0.544849  0.744173  1
  O  O46  1  0.743866  0.730479  0.899532  1
  O  O47  1  0.782473  0.149514  0.876066  1
  O  O48  1  0.717527  0.649514  0.376066  1
  O  O49  1  0.756134  0.230480  0.399532  1
  O  O50  1  0.744262  0.044849  0.244173  1
  O  O51  1  0.767724  0.345056  0.746917  1
  O  O52  1  0.911856  0.850304  0.816659  1
  O  O53  1  0.920927  0.541474  0.285861  1
  O  O54  1  0.877474  0.010932  0.777632  1
  O  O55  1  0.907142  0.351890  0.274303  1
