# generated using pymatgen
data_Li2Co2P2O9
_symmetry_space_group_name_H-M   'P 1'
_cell_length_a   7.97410825
_cell_length_b   5.53008784
_cell_length_c   14.72518998
_cell_angle_alpha   89.99820508
_cell_angle_beta   89.96772810
_cell_angle_gamma   90.00429761
_symmetry_Int_Tables_number   1
_chemical_formula_structural   Li2Co2P2O9
_chemical_formula_sum   'Li8 Co8 P8 O36'
_cell_volume   649.34424123
_cell_formula_units_Z   4
loop_
 _symmetry_equiv_pos_site_id
 _symmetry_equiv_pos_as_xyz
  1  'x, y, z'
loop_
 _atom_site_type_symbol
 _atom_site_label
 _atom_site_symmetry_multiplicity
 _atom_site_fract_x
 _atom_site_fract_y
 _atom_site_fract_z
 _atom_site_occupancy
  Li  Li0  1  0.066124  0.249993  0.752708  1
  Li  Li1  1  0.046786  0.250006  0.125733  1
  Li  Li2  1  0.453544  0.749984  0.625517  1
  Li  Li3  1  0.432732  0.749999  0.253542  1
  Li  Li4  1  0.567078  0.250003  0.746646  1
  Li  Li5  1  0.546273  0.250010  0.374442  1
  Li  Li6  1  0.953251  0.749993  0.874274  1
  Li  Li7  1  0.933987  0.750008  0.247318  1
  Co  Co8  1  0.000021  -0.000013  0.500016  1
  Co  Co9  1  0.000022  0.500010  0.500016  1
  Co  Co10  1  0.214234  0.250002  0.935427  1
  Co  Co11  1  0.285833  0.749995  0.435657  1
  Co  Co12  1  0.500025  -0.000017  0.999974  1
  Co  Co13  1  0.500025  0.500018  0.999974  1
  Co  Co14  1  0.714203  0.250004  0.564346  1
  Co  Co15  1  0.785786  0.750002  0.064546  1
  P  P16  1  0.180198  0.750007  0.076351  1
  P  P17  1  0.198462  0.250008  0.336813  1
  P  P18  1  0.301516  0.750005  0.836969  1
  P  P19  1  0.319714  0.249990  0.576382  1
  P  P20  1  0.680256  0.750006  0.423685  1
  P  P21  1  0.698447  0.249999  0.162996  1
  P  P22  1  0.801542  0.749993  0.663209  1
  P  P23  1  0.819806  0.249992  0.923582  1
  O  O24  1  0.989457  0.250008  0.974177  1
  O  O25  1  0.057504  0.250003  0.415297  1
  O  O26  1  0.057895  0.750003  0.420688  1
  O  O27  1  0.107001  0.250004  0.248865  1
  O  O28  1  0.167175  0.750000  0.178731  1
  O  O29  1  0.183442  0.525577  0.851526  1
  O  O30  1  0.183455  0.974415  0.851521  1
  O  O31  1  0.228560  0.011255  0.542675  1
  O  O32  1  0.228567  0.488715  0.542676  1
  O  O33  1  0.271367  0.511278  0.042669  1
  O  O34  1  0.271373  0.988747  0.042660  1
  O  O35  1  0.316652  0.025459  0.351522  1
  O  O36  1  0.316666  0.474576  0.351516  1
  O  O37  1  0.332561  0.249989  0.678676  1
  O  O38  1  0.393347  0.750011  0.748607  1
  O  O39  1  0.442253  0.250004  0.920644  1
  O  O40  1  0.442622  0.750014  0.915174  1
  O  O41  1  0.510507  0.749990  0.474470  1
  O  O42  1  0.489462  0.250004  0.525625  1
  O  O43  1  0.557402  0.249988  0.084756  1
  O  O44  1  0.557764  0.749996  0.079275  1
  O  O45  1  0.606629  0.249996  0.251344  1
  O  O46  1  0.667252  0.750011  0.321401  1
  O  O47  1  0.683399  0.525388  0.648518  1
  O  O48  1  0.683413  0.974582  0.648512  1
  O  O49  1  0.728653  0.011259  0.957295  1
  O  O50  1  0.728657  0.488713  0.957284  1
  O  O51  1  0.771449  0.511290  0.457355  1
  O  O52  1  0.771455  0.988732  0.457357  1
  O  O53  1  0.816549  0.025628  0.148467  1
  O  O54  1  0.816560  0.474392  0.148460  1
  O  O55  1  0.832763  0.249993  0.821199  1
  O  O56  1  0.893120  0.749998  0.751147  1
  O  O57  1  0.942161  0.249994  0.579322  1
  O  O58  1  0.942510  0.749995  0.584721  1
  O  O59  1  0.010534  0.749997  0.025744  1
