# generated using pymatgen
data_Li2Ti3MnO8
_symmetry_space_group_name_H-M   'P 1'
_cell_length_a   8.56237405
_cell_length_b   8.56246176
_cell_length_c   8.56276990
_cell_angle_alpha   89.99983961
_cell_angle_beta   90.00020288
_cell_angle_gamma   89.99989414
_symmetry_Int_Tables_number   1
_chemical_formula_structural   Li2Ti3MnO8
_chemical_formula_sum   'Li8 Ti12 Mn4 O32'
_cell_volume   627.77947845
_cell_formula_units_Z   4
loop_
 _symmetry_equiv_pos_site_id
 _symmetry_equiv_pos_as_xyz
  1  'x, y, z'
loop_
 _atom_site_type_symbol
 _atom_site_label
 _atom_site_symmetry_multiplicity
 _atom_site_fract_x
 _atom_site_fract_y
 _atom_site_fract_z
 _atom_site_occupancy
  Li  Li0  1  0.001383  0.001380  0.001398  1
  Li  Li1  1  0.248635  0.248658  0.248639  1
  Li  Li2  1  0.251354  0.751372  0.748650  1
  Li  Li3  1  0.498623  0.998645  0.501391  1
  Li  Li4  1  0.501364  0.498655  0.998627  1
  Li  Li5  1  0.748640  0.251370  0.751375  1
  Li  Li6  1  0.751362  0.748657  0.251374  1
  Li  Li7  1  0.998619  0.501374  0.498623  1
  Ti  Ti8  1  0.122148  0.127907  0.624987  1
  Ti  Ti9  1  0.124920  0.377861  0.872137  1
  Ti  Ti10  1  0.127847  0.624942  0.122129  1
  Ti  Ti11  1  0.372073  0.375117  0.622141  1
  Ti  Ti12  1  0.375042  0.622119  0.372056  1
  Ti  Ti13  1  0.377853  0.872120  0.124919  1
  Ti  Ti14  1  0.622106  0.372061  0.375052  1
  Ti  Ti15  1  0.624944  0.122082  0.127925  1
  Ti  Ti16  1  0.627882  0.875028  0.877849  1
  Ti  Ti17  1  0.872152  0.124925  0.377890  1
  Ti  Ti18  1  0.875045  0.877883  0.627896  1
  Ti  Ti19  1  0.877859  0.627913  0.875048  1
  Mn  Mn20  1  0.125238  0.874903  0.375016  1
  Mn  Mn21  1  0.375193  0.125171  0.874918  1
  Mn  Mn22  1  0.625030  0.624912  0.624802  1
  Mn  Mn23  1  0.874805  0.374854  0.125079  1
  O  O24  1  0.097388  0.129871  0.392829  1
  O  O25  1  0.107190  0.902632  0.629886  1
  O  O26  1  0.114658  0.614692  0.885386  1
  O  O27  1  0.120130  0.152654  0.857169  1
  O  O28  1  0.129823  0.392824  0.097379  1
  O  O29  1  0.135301  0.364716  0.635338  1
  O  O30  1  0.142855  0.620102  0.347376  1
  O  O31  1  0.152636  0.857154  0.120144  1
  O  O32  1  0.347351  0.142870  0.620132  1
  O  O33  1  0.357146  0.379935  0.847374  1
  O  O34  1  0.364692  0.635305  0.135339  1
  O  O35  1  0.370130  0.607193  0.597375  1
  O  O36  1  0.379936  0.847346  0.357164  1
  O  O37  1  0.385324  0.385342  0.385387  1
  O  O38  1  0.392812  0.097380  0.129870  1
  O  O39  1  0.402607  0.870164  0.892834  1
  O  O40  1  0.597375  0.370116  0.607188  1
  O  O41  1  0.607179  0.597372  0.370097  1
  O  O42  1  0.614662  0.885339  0.114638  1
  O  O43  1  0.620050  0.347346  0.142864  1
  O  O44  1  0.629897  0.107203  0.902640  1
  O  O45  1  0.635293  0.135310  0.364678  1
  O  O46  1  0.642847  0.879892  0.652637  1
  O  O47  1  0.652635  0.642871  0.879839  1
  O  O48  1  0.847335  0.357155  0.379890  1
  O  O49  1  0.857140  0.120089  0.152641  1
  O  O50  1  0.864694  0.864712  0.864685  1
  O  O51  1  0.870174  0.892829  0.402633  1
  O  O52  1  0.879889  0.652655  0.642846  1
  O  O53  1  0.885334  0.114684  0.614628  1
  O  O54  1  0.892803  0.402627  0.870144  1
  O  O55  1  0.902599  0.629855  0.107191  1
