# generated using pymatgen
data_CoH16C4(NO)7
_symmetry_space_group_name_H-M   'P 1'
_cell_length_a   14.04321535
_cell_length_b   9.75639603
_cell_length_c   9.26487398
_cell_angle_alpha   90.00000000
_cell_angle_beta   105.69807545
_cell_angle_gamma   90.00000000
_symmetry_Int_Tables_number   1
_chemical_formula_structural   CoH16C4(NO)7
_chemical_formula_sum   'Co4 H64 C16 N28 O28'
_cell_volume   1222.04399540
_cell_formula_units_Z   4
loop_
 _symmetry_equiv_pos_site_id
 _symmetry_equiv_pos_as_xyz
  1  'x, y, z'
loop_
 _atom_site_type_symbol
 _atom_site_label
 _atom_site_symmetry_multiplicity
 _atom_site_fract_x
 _atom_site_fract_y
 _atom_site_fract_z
 _atom_site_occupancy
  Co  Co0  1  0.629809  0.240288  0.254393  1
  Co  Co1  1  0.870191  0.740288  0.745607  1
  Co  Co2  1  0.370191  0.759712  0.745607  1
  Co  Co3  1  0.129809  0.259712  0.254393  1
  H  H4  1  0.524806  0.409676  0.335277  1
  H  H5  1  0.975194  0.909676  0.664723  1
  H  H6  1  0.475194  0.590324  0.664723  1
  H  H7  1  0.024806  0.090324  0.335277  1
  H  H8  1  0.639844  0.463683  0.393750  1
  H  H9  1  0.860156  0.963683  0.606250  1
  H  H10  1  0.360156  0.536317  0.606250  1
  H  H11  1  0.139844  0.036317  0.393750  1
  H  H12  1  0.560229  0.374564  0.599271  1
  H  H13  1  0.939771  0.874564  0.400729  1
  H  H14  1  0.439771  0.625436  0.400729  1
  H  H15  1  0.060229  0.125436  0.599271  1
  H  H16  1  0.682277  0.320764  0.601652  1
  H  H17  1  0.817723  0.820764  0.398348  1
  H  H18  1  0.317723  0.679236  0.398348  1
  H  H19  1  0.182277  0.179236  0.601652  1
  H  H20  1  0.488889  0.166410  0.458987  1
  H  H21  1  0.011111  0.666410  0.541013  1
  H  H22  1  0.511111  0.833590  0.541013  1
  H  H23  1  0.988889  0.333590  0.458987  1
  H  H24  1  0.584685  0.112827  0.618411  1
  H  H25  1  0.915315  0.612827  0.381589  1
  H  H26  1  0.415315  0.887173  0.381589  1
  H  H27  1  0.084685  0.387173  0.618411  1
  H  H28  1  0.585908  0.018976  0.360235  1
  H  H29  1  0.914092  0.518976  0.639765  1
  H  H30  1  0.414092  0.981024  0.639765  1
  H  H31  1  0.085908  0.481024  0.360235  1
  H  H32  1  0.690664  0.078654  0.468351  1
  H  H33  1  0.809336  0.578654  0.531649  1
  H  H34  1  0.309336  0.921346  0.531649  1
  H  H35  1  0.190664  0.421346  0.468351  1
  H  H36  1  0.567120  0.402151  0.044287  1
  H  H37  1  0.932880  0.902151  0.955713  1
  H  H38  1  0.432880  0.597849  0.955713  1
  H  H39  1  0.067120  0.097849  0.044287  1
  H  H40  1  0.671299  0.464413  0.154718  1
  H  H41  1  0.828701  0.964413  0.845282  1
  H  H42  1  0.328701  0.535587  0.845282  1
  H  H43  1  0.171299  0.035587  0.154718  1
  H  H44  1  0.673684  0.373056  0.892242  1
  H  H45  1  0.826316  0.873056  0.107758  1
  H  H46  1  0.326316  0.626944  0.107758  1
  H  H47  1  0.173684  0.126944  0.892242  1
  H  H48  1  0.771287  0.324019  0.050506  1
  H  H49  1  0.728713  0.824019  0.949494  1
  H  H50  1  0.228713  0.675981  0.949494  1
  H  H51  1  0.271287  0.175981  0.050506  1
  H  H52  1  0.581596  0.162862  0.904606  1
  H  H53  1  0.918404  0.662862  0.095394  1
  H  H54  1  0.418404  0.837138  0.095394  1
  H  H55  1  0.081596  0.337138  0.904606  1
  H  H56  1  0.704496  0.112773  0.911755  1
  H  H57  1  0.795504  0.612773  0.088245  1
  H  H58  1  0.295505  0.887227  0.088245  1
  H  H59  1  0.204495  0.387227  0.911755  1
  H  H60  1  0.617790  0.020065  0.104829  1
  H  H61  1  0.882210  0.520065  0.895171  1
  H  H62  1  0.382210  0.979935  0.895171  1
  H  H63  1  0.117790  0.479935  0.104829  1
  H  H64  1  0.733952  0.070078  0.171912  1
  H  H65  1  0.766048  0.570078  0.828088  1
  H  H66  1  0.266048  0.929922  0.828088  1
  H  H67  1  0.233952  0.429922  0.171912  1
  C  C68  1  0.604064  0.317613  0.537368  1
  C  C69  1  0.895936  0.817613  0.462632  1
  C  C70  1  0.395936  0.682387  0.462632  1
  C  C71  1  0.104064  0.182387  0.537368  1
  C  C72  1  0.568847  0.170075  0.512403  1
  C  C73  1  0.931153  0.670075  0.487597  1
  C  C74  1  0.431153  0.829925  0.487597  1
  C  C75  1  0.068847  0.329925  0.512403  1
  C  C76  1  0.691282  0.316498  0.998760  1
  C  C77  1  0.808718  0.816498  0.001240  1
  C  C78  1  0.308718  0.683502  0.001240  1
  C  C79  1  0.191282  0.183502  0.998760  1
  C  C80  1  0.658820  0.168054  0.971852  1
  C  C81  1  0.841180  0.668054  0.028148  1
  C  C82  1  0.341180  0.831946  0.028148  1
  C  C83  1  0.158820  0.331946  0.971852  1
  N  N84  1  0.770449  0.261080  0.350879  1
  N  N85  1  0.729551  0.761080  0.649121  1
  N  N86  1  0.229551  0.738920  0.649121  1
  N  N87  1  0.270449  0.238921  0.350879  1
  N  N88  1  0.490062  0.216614  0.156259  1
  N  N89  1  0.009938  0.716614  0.843741  1
  N  N90  1  0.509938  0.783386  0.843741  1
  N  N91  1  0.990062  0.283386  0.156259  1
  N  N92  1  0.595703  0.378727  0.387436  1
  N  N93  1  0.904297  0.878727  0.612564  1
  N  N94  1  0.404297  0.621273  0.612564  1
  N  N95  1  0.095703  0.121273  0.387436  1
  N  N96  1  0.620640  0.106678  0.408948  1
  N  N97  1  0.879360  0.606678  0.591052  1
  N  N98  1  0.379360  0.893322  0.591052  1
  N  N99  1  0.120640  0.393322  0.408948  1
  N  N100  1  0.638124  0.376508  0.102047  1
  N  N101  1  0.861876  0.876508  0.897953  1
  N  N102  1  0.361876  0.623492  0.897953  1
  N  N103  1  0.138124  0.123492  0.102047  1
  N  N104  1  0.663898  0.103633  0.119261  1
  N  N105  1  0.836102  0.603633  0.880739  1
  N  N106  1  0.336102  0.896367  0.880739  1
  N  N107  1  0.163898  0.396367  0.119261  1
  N  N108  1  0.884420  0.207972  0.755828  1
  N  N109  1  0.615580  0.707972  0.244172  1
  N  N110  1  0.115580  0.792028  0.244172  1
  N  N111  1  0.384420  0.292028  0.755828  1
  O  O112  1  0.807796  0.377644  0.376309  1
  O  O113  1  0.692204  0.877644  0.623691  1
  O  O114  1  0.192204  0.622356  0.623691  1
  O  O115  1  0.307796  0.122356  0.376309  1
  O  O116  1  0.823127  0.155621  0.384386  1
  O  O117  1  0.676873  0.655621  0.615614  1
  O  O118  1  0.176873  0.844379  0.615614  1
  O  O119  1  0.323127  0.344379  0.384386  1
  O  O120  1  0.455444  0.098543  0.129623  1
  O  O121  1  0.044556  0.598543  0.870377  1
  O  O122  1  0.544556  0.901457  0.870377  1
  O  O123  1  0.955444  0.401457  0.129623  1
  O  O124  1  0.435966  0.320141  0.120682  1
  O  O125  1  0.064034  0.820141  0.879318  1
  O  O126  1  0.564034  0.679859  0.879318  1
  O  O127  1  0.935966  0.179859  0.120682  1
  O  O128  1  0.879983  0.337264  0.751131  1
  O  O129  1  0.620017  0.837264  0.248869  1
  O  O130  1  0.120017  0.662736  0.248869  1
  O  O131  1  0.379983  0.162736  0.751131  1
  O  O132  1  0.966873  0.146416  0.790990  1
  O  O133  1  0.533127  0.646416  0.209010  1
  O  O134  1  0.033127  0.853584  0.209010  1
  O  O135  1  0.466873  0.353584  0.790990  1
  O  O136  1  0.804466  0.137668  0.724080  1
  O  O137  1  0.695534  0.637668  0.275920  1
  O  O138  1  0.195534  0.862332  0.275920  1
  O  O139  1  0.304466  0.362332  0.724080  1
