# generated using pymatgen
data_KFePCO7
_symmetry_space_group_name_H-M   'P 1'
_cell_length_a   10.03121988
_cell_length_b   6.43915623
_cell_length_c   5.44588633
_cell_angle_alpha   90.00000000
_cell_angle_beta   88.73850556
_cell_angle_gamma   90.00000000
_symmetry_Int_Tables_number   1
_chemical_formula_structural   KFePCO7
_chemical_formula_sum   'K2 Fe2 P2 C2 O14'
_cell_volume   351.67865651
_cell_formula_units_Z   2
loop_
 _symmetry_equiv_pos_site_id
 _symmetry_equiv_pos_as_xyz
  1  'x, y, z'
loop_
 _atom_site_type_symbol
 _atom_site_label
 _atom_site_symmetry_multiplicity
 _atom_site_fract_x
 _atom_site_fract_y
 _atom_site_fract_z
 _atom_site_occupancy
  K  K0  1  0.241529  0.420396  0.247079  1
  K  K1  1  0.758471  0.920396  0.752921  1
  Fe  Fe2  1  0.362431  0.773230  0.780292  1
  Fe  Fe3  1  0.637569  0.273230  0.219708  1
  P  P4  1  0.439760  0.266579  0.726984  1
  P  P5  1  0.560240  0.766579  0.273016  1
  C  C6  1  0.110110  0.743891  0.720381  1
  C  C7  1  0.889890  0.243891  0.279619  1
  O  O8  1  0.012137  0.219209  0.315903  1
  O  O9  1  0.160506  0.752054  0.937066  1
  O  O10  1  0.197378  0.760381  0.541387  1
  O  O11  1  0.349324  0.076537  0.778112  1
  O  O12  1  0.350590  0.459077  0.774923  1
  O  O13  1  0.437085  0.761023  0.106996  1
  O  O14  1  0.487347  0.265474  0.452851  1
  O  O15  1  0.512653  0.765474  0.547149  1
  O  O16  1  0.562915  0.261023  0.893004  1
  O  O17  1  0.649410  0.959077  0.225077  1
  O  O18  1  0.650676  0.576537  0.221888  1
  O  O19  1  0.802622  0.260381  0.458613  1
  O  O20  1  0.839494  0.252054  0.062934  1
  O  O21  1  0.987863  0.719209  0.684097  1
