# generated using pymatgen
data_Ba2YI7
_symmetry_space_group_name_H-M   'P 1'
_cell_length_a   8.38660183
_cell_length_b   18.83387489
_cell_length_c   13.67234418
_cell_angle_alpha   90.00000000
_cell_angle_beta   86.76103246
_cell_angle_gamma   90.00000000
_symmetry_Int_Tables_number   1
_chemical_formula_structural   Ba2YI7
_chemical_formula_sum   'Ba8 Y4 I28'
_cell_volume   2156.12719655
_cell_formula_units_Z   4
loop_
 _symmetry_equiv_pos_site_id
 _symmetry_equiv_pos_as_xyz
  1  'x, y, z'
loop_
 _atom_site_type_symbol
 _atom_site_label
 _atom_site_symmetry_multiplicity
 _atom_site_fract_x
 _atom_site_fract_y
 _atom_site_fract_z
 _atom_site_occupancy
  Ba  Ba0  1  0.178111  0.525625  0.813242  1
  Ba  Ba1  1  0.242972  0.770013  0.967718  1
  Ba  Ba2  1  0.257028  0.270013  0.532282  1
  Ba  Ba3  1  0.321889  0.025625  0.686758  1
  Ba  Ba4  1  0.678111  0.974375  0.313242  1
  Ba  Ba5  1  0.742972  0.729987  0.467718  1
  Ba  Ba6  1  0.757028  0.229987  0.032282  1
  Ba  Ba7  1  0.821889  0.474375  0.186758  1
  Y  Y8  1  0.230765  0.840682  0.351243  1
  Y  Y9  1  0.269235  0.340682  0.148757  1
  Y  Y10  1  0.730765  0.659318  0.851243  1
  Y  Y11  1  0.769235  0.159318  0.648757  1
  I  I12  1  0.048086  0.710243  0.757456  1
  I  I13  1  0.154466  0.698614  0.441143  1
  I  I14  1  0.059635  0.103591  0.525041  1
  I  I15  1  0.211120  0.485399  0.238298  1
  I  I16  1  0.023421  0.810840  0.183761  1
  I  I17  1  0.053722  0.384012  0.978902  1
  I  I18  1  0.188069  0.932920  0.880608  1
  I  I19  1  0.311931  0.432920  0.619392  1
  I  I20  1  0.446278  0.884012  0.521098  1
  I  I21  1  0.476579  0.310840  0.316239  1
  I  I22  1  0.440365  0.603591  0.974959  1
  I  I23  1  0.288880  0.985399  0.261702  1
  I  I24  1  0.451914  0.210243  0.742544  1
  I  I25  1  0.345534  0.198614  0.058857  1
  I  I26  1  0.654466  0.801386  0.941143  1
  I  I27  1  0.548086  0.789757  0.257456  1
  I  I28  1  0.711120  0.014601  0.738298  1
  I  I29  1  0.559635  0.396409  0.025041  1
  I  I30  1  0.523421  0.689160  0.683761  1
  I  I31  1  0.553722  0.115988  0.478902  1
  I  I32  1  0.688069  0.567080  0.380608  1
  I  I33  1  0.811931  0.067080  0.119392  1
  I  I34  1  0.946278  0.615988  0.021098  1
  I  I35  1  0.976579  0.189160  0.816239  1
  I  I36  1  0.788880  0.514601  0.761702  1
  I  I37  1  0.940365  0.896409  0.474959  1
  I  I38  1  0.845534  0.301386  0.558857  1
  I  I39  1  0.951914  0.289757  0.242544  1
