# generated using pymatgen
data_MgCdH4(N2O5)2
_symmetry_space_group_name_H-M   'P 1'
_cell_length_a   6.78675430
_cell_length_b   6.78675430
_cell_length_c   12.22924944
_cell_angle_alpha   88.62148922
_cell_angle_beta   91.37851078
_cell_angle_gamma   117.00999540
_symmetry_Int_Tables_number   1
_chemical_formula_structural   MgCdH4(N2O5)2
_chemical_formula_sum   'Mg2 Cd2 H8 N8 O20'
_cell_volume   501.64144616
_cell_formula_units_Z   2
loop_
 _symmetry_equiv_pos_site_id
 _symmetry_equiv_pos_as_xyz
  1  'x, y, z'
loop_
 _atom_site_type_symbol
 _atom_site_label
 _atom_site_symmetry_multiplicity
 _atom_site_fract_x
 _atom_site_fract_y
 _atom_site_fract_z
 _atom_site_occupancy
  Mg  Mg0  1  0.000000  0.500000  0.500000  1
  Mg  Mg1  1  0.500000  0.000000  0.000000  1
  Cd  Cd2  1  0.986276  0.986276  0.750000  1
  Cd  Cd3  1  0.013724  0.013724  0.250000  1
  H  H4  1  0.225363  0.591151  0.938461  1
  H  H5  1  0.591151  0.225363  0.561539  1
  H  H6  1  0.774637  0.408849  0.061539  1
  H  H7  1  0.408849  0.774637  0.438461  1
  H  H8  1  0.229594  0.579442  0.067168  1
  H  H9  1  0.579442  0.229594  0.432832  1
  H  H10  1  0.770406  0.420558  0.932832  1
  H  H11  1  0.420558  0.770406  0.567168  1
  N  N12  1  0.267079  0.286057  0.579280  1
  N  N13  1  0.286057  0.267079  0.920720  1
  N  N14  1  0.732921  0.713943  0.420720  1
  N  N15  1  0.713943  0.732921  0.079280  1
  N  N16  1  0.867358  0.510567  0.728754  1
  N  N17  1  0.510567  0.867358  0.771246  1
  N  N18  1  0.132642  0.489433  0.271246  1
  N  N19  1  0.489433  0.132642  0.228754  1
  O  O20  1  0.315258  0.159911  0.639011  1
  O  O21  1  0.159911  0.315258  0.860989  1
  O  O22  1  0.684742  0.840089  0.360989  1
  O  O23  1  0.840089  0.684742  0.139011  1
  O  O24  1  0.075657  0.271729  0.598235  1
  O  O25  1  0.271729  0.075657  0.901765  1
  O  O26  1  0.924343  0.728271  0.401765  1
  O  O27  1  0.728271  0.924343  0.098235  1
  O  O28  1  0.853449  0.606928  0.813285  1
  O  O29  1  0.606928  0.853449  0.686715  1
  O  O30  1  0.146551  0.393072  0.186715  1
  O  O31  1  0.393072  0.146551  0.313285  1
  O  O32  1  0.950226  0.642048  0.647296  1
  O  O33  1  0.642048  0.950226  0.852704  1
  O  O34  1  0.049774  0.357952  0.352704  1
  O  O35  1  0.357952  0.049774  0.147296  1
  O  O36  1  0.253998  0.681769  0.004210  1
  O  O37  1  0.681769  0.253998  0.495790  1
  O  O38  1  0.746002  0.318231  0.995790  1
  O  O39  1  0.318231  0.746002  0.504210  1
