# generated using pymatgen
data_Mn4OF6
_symmetry_space_group_name_H-M   'P 1'
_cell_length_a   7.28538126
_cell_length_b   7.28538126
_cell_length_c   5.25067744
_cell_angle_alpha   90.00000000
_cell_angle_beta   90.00000000
_cell_angle_gamma   90.00000000
_symmetry_Int_Tables_number   1
_chemical_formula_structural   Mn4OF6
_chemical_formula_sum   'Mn8 O2 F12'
_cell_volume   278.68905188
_cell_formula_units_Z   2
loop_
 _symmetry_equiv_pos_site_id
 _symmetry_equiv_pos_as_xyz
  1  'x, y, z'
loop_
 _atom_site_type_symbol
 _atom_site_label
 _atom_site_symmetry_multiplicity
 _atom_site_fract_x
 _atom_site_fract_y
 _atom_site_fract_z
 _atom_site_occupancy
  Mn  Mn0  1  0.000759  0.250000  0.553019  1
  Mn  Mn1  1  0.250000  0.000759  0.053019  1
  Mn  Mn2  1  0.250000  0.499241  0.053019  1
  Mn  Mn3  1  0.499241  0.250000  0.553019  1
  Mn  Mn4  1  0.500759  0.750000  0.446981  1
  Mn  Mn5  1  0.750000  0.500759  0.946981  1
  Mn  Mn6  1  0.750000  0.999241  0.946981  1
  Mn  Mn7  1  0.999241  0.750000  0.446981  1
  O  O8  1  0.250000  0.750000  0.250000  1
  O  O9  1  0.750000  0.250000  0.750000  1
  F  F10  1  0.040294  0.959706  0.750000  1
  F  F11  1  0.040294  0.540294  0.750000  1
  F  F12  1  0.250000  0.250000  0.832542  1
  F  F13  1  0.250000  0.250000  0.332542  1
  F  F14  1  0.459706  0.540294  0.750000  1
  F  F15  1  0.459706  0.959706  0.750000  1
  F  F16  1  0.540294  0.040294  0.250000  1
  F  F17  1  0.540294  0.459706  0.250000  1
  F  F18  1  0.750000  0.750000  0.167458  1
  F  F19  1  0.750000  0.750000  0.667458  1
  F  F20  1  0.959706  0.040294  0.250000  1
  F  F21  1  0.959706  0.459706  0.250000  1
