# generated using pymatgen
data_Lu2P4O13
_symmetry_space_group_name_H-M   'P 1'
_cell_length_a   8.59448856
_cell_length_b   9.65963533
_cell_length_c   13.94710712
_cell_angle_alpha   90.00000000
_cell_angle_beta   104.83151279
_cell_angle_gamma   90.00000000
_symmetry_Int_Tables_number   1
_chemical_formula_structural   Lu2P4O13
_chemical_formula_sum   'Lu8 P16 O52'
_cell_volume   1119.30610716
_cell_formula_units_Z   4
loop_
 _symmetry_equiv_pos_site_id
 _symmetry_equiv_pos_as_xyz
  1  'x, y, z'
loop_
 _atom_site_type_symbol
 _atom_site_label
 _atom_site_symmetry_multiplicity
 _atom_site_fract_x
 _atom_site_fract_y
 _atom_site_fract_z
 _atom_site_occupancy
  Lu  Lu0  1  0.285062  0.000719  0.988153  1
  Lu  Lu1  1  0.211615  0.003232  0.512009  1
  Lu  Lu2  1  0.285062  0.499281  0.488153  1
  Lu  Lu3  1  0.211615  0.496768  0.012009  1
  Lu  Lu4  1  0.788385  0.503232  0.987991  1
  Lu  Lu5  1  0.714938  0.500719  0.511847  1
  Lu  Lu6  1  0.788385  0.996768  0.487991  1
  Lu  Lu7  1  0.714938  0.999281  0.011847  1
  P  P8  1  0.031049  0.281597  0.594950  1
  P  P9  1  0.116288  0.245161  0.815071  1
  P  P10  1  0.237744  0.730655  0.682678  1
  P  P11  1  0.031049  0.218403  0.094950  1
  P  P12  1  0.116288  0.254839  0.315071  1
  P  P13  1  0.460086  0.718204  0.901517  1
  P  P14  1  0.237744  0.769345  0.182678  1
  P  P15  1  0.539914  0.218204  0.598483  1
  P  P16  1  0.460086  0.781796  0.401517  1
  P  P17  1  0.762256  0.230655  0.817322  1
  P  P18  1  0.539914  0.281796  0.098483  1
  P  P19  1  0.883712  0.745161  0.684929  1
  P  P20  1  0.968951  0.781597  0.905050  1
  P  P21  1  0.762256  0.269345  0.317322  1
  P  P22  1  0.883712  0.754839  0.184929  1
  P  P23  1  0.968951  0.718403  0.405050  1
  O  O24  1  0.067694  0.689429  0.705251  1
  O  O25  1  0.126715  0.849290  0.902003  1
  O  O26  1  0.010768  0.129044  0.558230  1
  O  O27  1  0.140735  0.376009  0.875043  1
  O  O28  1  0.140143  0.277692  0.708006  1
  O  O29  1  0.127026  0.363679  0.537536  1
  O  O30  1  0.228574  0.127104  0.855331  1
  O  O31  1  0.067694  0.810571  0.205251  1
  O  O32  1  0.126715  0.650710  0.402003  1
  O  O33  1  0.010768  0.370956  0.058230  1
  O  O34  1  0.360025  0.631671  0.954061  1
  O  O35  1  0.228543  0.874783  0.641536  1
  O  O36  1  0.140735  0.123991  0.375043  1
  O  O37  1  0.140143  0.222308  0.208006  1
  O  O38  1  0.283825  0.618069  0.620537  1
  O  O39  1  0.363465  0.728713  0.786889  1
  O  O40  1  0.127026  0.136321  0.037536  1
  O  O41  1  0.379580  0.151292  0.596369  1
  O  O42  1  0.482646  0.870738  0.941290  1
  O  O43  1  0.228574  0.372896  0.355331  1
  O  O44  1  0.360025  0.868329  0.454061  1
  O  O45  1  0.228543  0.625217  0.141536  1
  O  O46  1  0.283825  0.881931  0.120537  1
  O  O47  1  0.363465  0.771287  0.286889  1
  O  O48  1  0.517354  0.370738  0.558710  1
  O  O49  1  0.620420  0.651292  0.903631  1
  O  O50  1  0.379580  0.348708  0.096369  1
  O  O51  1  0.482646  0.629262  0.441290  1
  O  O52  1  0.636535  0.228713  0.713111  1
  O  O53  1  0.716175  0.118069  0.879463  1
  O  O54  1  0.771457  0.374783  0.858464  1
  O  O55  1  0.639975  0.131670  0.545939  1
  O  O56  1  0.771426  0.627104  0.644669  1
  O  O57  1  0.517354  0.129262  0.058710  1
  O  O58  1  0.620420  0.848708  0.403631  1
  O  O59  1  0.872974  0.863679  0.962464  1
  O  O60  1  0.636535  0.271287  0.213111  1
  O  O61  1  0.716175  0.381931  0.379463  1
  O  O62  1  0.859857  0.777692  0.791994  1
  O  O63  1  0.859265  0.876009  0.624957  1
  O  O64  1  0.771457  0.125217  0.358464  1
  O  O65  1  0.639975  0.368329  0.045939  1
  O  O66  1  0.989232  0.629044  0.941770  1
  O  O67  1  0.873285  0.349290  0.597997  1
  O  O68  1  0.932306  0.189429  0.794749  1
  O  O69  1  0.771426  0.872896  0.144669  1
  O  O70  1  0.872974  0.636321  0.462464  1
  O  O71  1  0.859857  0.722308  0.291994  1
  O  O72  1  0.859265  0.623991  0.124957  1
  O  O73  1  0.989232  0.870956  0.441770  1
  O  O74  1  0.873285  0.150710  0.097997  1
  O  O75  1  0.932306  0.310571  0.294749  1
