# generated using pymatgen
data_Li2Fe3SnO8
_symmetry_space_group_name_H-M   'P 1'
_cell_length_a   5.98031022
_cell_length_b   5.99769184
_cell_length_c   9.84830303
_cell_angle_alpha   89.89176251
_cell_angle_beta   90.05428022
_cell_angle_gamma   120.09619223
_symmetry_Int_Tables_number   1
_chemical_formula_structural   Li2Fe3SnO8
_chemical_formula_sum   'Li4 Fe6 Sn2 O16'
_cell_volume   305.61688465
_cell_formula_units_Z   2
loop_
 _symmetry_equiv_pos_site_id
 _symmetry_equiv_pos_as_xyz
  1  'x, y, z'
loop_
 _atom_site_type_symbol
 _atom_site_label
 _atom_site_symmetry_multiplicity
 _atom_site_fract_x
 _atom_site_fract_y
 _atom_site_fract_z
 _atom_site_occupancy
  Li  Li0  1  0.336255  0.663127  0.897629  1
  Li  Li1  1  0.001187  0.005755  0.993404  1
  Li  Li2  1  0.998813  0.004569  0.493404  1
  Li  Li3  1  0.663745  0.326872  0.397629  1
  Fe  Fe4  1  0.169695  0.831383  0.213373  1
  Fe  Fe5  1  0.169974  0.339538  0.214461  1
  Fe  Fe6  1  0.661328  0.828898  0.214718  1
  Fe  Fe7  1  0.338672  0.167570  0.714718  1
  Fe  Fe8  1  0.830305  0.661688  0.713373  1
  Fe  Fe9  1  0.830026  0.169565  0.714461  1
  Sn  Sn10  1  0.330718  0.665762  0.489560  1
  Sn  Sn11  1  0.669282  0.335045  0.989560  1
  O  O12  1  0.159046  0.839049  0.598407  1
  O  O13  1  0.031375  0.515823  0.338638  1
  O  O14  1  0.334962  0.666277  0.107116  1
  O  O15  1  0.000079  0.000789  0.307712  1
  O  O16  1  -0.000079  0.000711  0.807712  1
  O  O17  1  0.161524  0.323277  0.600831  1
  O  O18  1  0.481866  0.964726  0.338848  1
  O  O19  1  0.483413  0.515573  0.339468  1
  O  O20  1  0.324962  0.163364  0.099752  1
  O  O21  1  0.675038  0.838402  0.599752  1
  O  O22  1  0.518134  0.482860  0.838848  1
  O  O23  1  0.516587  0.032160  0.839468  1
  O  O24  1  0.665038  0.331315  0.607116  1
  O  O25  1  0.840954  0.680004  0.098407  1
  O  O26  1  0.968625  0.484447  0.838638  1
  O  O27  1  0.838476  0.161755  0.100831  1
