# generated using pymatgen
data_RbMn4O8
_symmetry_space_group_name_H-M   'P 1'
_cell_length_a   7.30049154
_cell_length_b   7.19340344
_cell_length_c   7.30049154
_cell_angle_alpha   91.84320198
_cell_angle_beta   156.24670121
_cell_angle_gamma   93.08448490
_symmetry_Int_Tables_number   1
_chemical_formula_structural   RbMn4O8
_chemical_formula_sum   'Rb1 Mn4 O8'
_cell_volume   151.01269483
_cell_formula_units_Z   1
loop_
 _symmetry_equiv_pos_site_id
 _symmetry_equiv_pos_as_xyz
  1  'x, y, z'
loop_
 _atom_site_type_symbol
 _atom_site_label
 _atom_site_symmetry_multiplicity
 _atom_site_fract_x
 _atom_site_fract_y
 _atom_site_fract_z
 _atom_site_occupancy
  Rb  Rb0  1  0.500000  0.000000  0.500000  1
  Mn  Mn1  1  0.833418  0.183448  0.350031  1
  Mn  Mn2  1  0.347250  0.509991  0.162740  1
  Mn  Mn3  1  0.652750  0.490009  0.837260  1
  Mn  Mn4  1  0.166582  0.816552  0.649969  1
  O  O5  1  0.823528  0.365462  0.541934  1
  O  O6  1  0.799300  0.957941  0.158640  1
  O  O7  1  0.541594  0.699127  0.157533  1
  O  O8  1  0.150995  0.359370  0.208375  1
  O  O9  1  0.849005  0.640630  0.791625  1
  O  O10  1  0.458406  0.300873  0.842467  1
  O  O11  1  0.200700  0.042059  0.841360  1
  O  O12  1  0.176472  0.634538  0.458066  1
