# generated using pymatgen
data_LiCrSiO4
_symmetry_space_group_name_H-M   'P 1'
_cell_length_a   4.77272067
_cell_length_b   5.77062930
_cell_length_c   10.19351545
_cell_angle_alpha   90.00000000
_cell_angle_beta   89.99994092
_cell_angle_gamma   90.00000000
_symmetry_Int_Tables_number   1
_chemical_formula_structural   LiCrSiO4
_chemical_formula_sum   'Li4 Cr4 Si4 O16'
_cell_volume   280.74574284
_cell_formula_units_Z   4
loop_
 _symmetry_equiv_pos_site_id
 _symmetry_equiv_pos_as_xyz
  1  'x, y, z'
loop_
 _atom_site_type_symbol
 _atom_site_label
 _atom_site_symmetry_multiplicity
 _atom_site_fract_x
 _atom_site_fract_y
 _atom_site_fract_z
 _atom_site_occupancy
  Li  Li0  1  0.000538  0.255859  0.500059  1
  Li  Li1  1  0.499462  0.255860  0.000059  1
  Li  Li2  1  0.500538  0.755860  0.999941  1
  Li  Li3  1  0.999462  0.755859  0.499941  1
  Cr  Cr4  1  0.999675  0.006743  0.231207  1
  Cr  Cr5  1  0.500345  0.006753  0.731205  1
  Cr  Cr6  1  0.499655  0.506753  0.268795  1
  Cr  Cr7  1  0.000325  0.506743  0.768793  1
  Si  Si8  1  0.057632  0.506670  0.092306  1
  Si  Si9  1  0.442374  0.506673  0.592305  1
  Si  Si10  1  0.557626  0.006673  0.407695  1
  Si  Si11  1  0.942368  0.006670  0.907694  1
  O  O12  1  0.188497  0.506672  0.944405  1
  O  O13  1  0.219648  0.289175  0.171550  1
  O  O14  1  0.219407  0.724280  0.171532  1
  O  O15  1  0.218675  0.006293  0.400448  1
  O  O16  1  0.281323  0.006297  0.900458  1
  O  O17  1  0.280590  0.724282  0.671539  1
  O  O18  1  0.280345  0.289172  0.671555  1
  O  O19  1  0.311512  0.506671  0.444397  1
  O  O20  1  0.688488  0.006671  0.555603  1
  O  O21  1  0.719655  0.789172  0.328445  1
  O  O22  1  0.719410  0.224282  0.328461  1
  O  O23  1  0.718677  0.506297  0.099542  1
  O  O24  1  0.781325  0.506293  0.599552  1
  O  O25  1  0.780593  0.224280  0.828468  1
  O  O26  1  0.780352  0.789175  0.828450  1
  O  O27  1  0.811503  0.006672  0.055595  1
