# generated using pymatgen
data_Li4CrFe3O8
_symmetry_space_group_name_H-M   'P 1'
_cell_length_a   5.17951989
_cell_length_b   5.95163945
_cell_length_c   5.16054434
_cell_angle_alpha   89.99997350
_cell_angle_beta   70.53890219
_cell_angle_gamma   89.99997502
_symmetry_Int_Tables_number   1
_chemical_formula_structural   Li4CrFe3O8
_chemical_formula_sum   'Li4 Cr1 Fe3 O8'
_cell_volume   149.99351853
_cell_formula_units_Z   1
loop_
 _symmetry_equiv_pos_site_id
 _symmetry_equiv_pos_as_xyz
  1  'x, y, z'
loop_
 _atom_site_type_symbol
 _atom_site_label
 _atom_site_symmetry_multiplicity
 _atom_site_fract_x
 _atom_site_fract_y
 _atom_site_fract_z
 _atom_site_occupancy
  Li  Li0  1  0.000000  0.000785  1.000000  1
  Li  Li1  1  0.000000  0.499215  0.000000  1
  Li  Li2  1  0.000000  0.250000  0.500000  1
  Li  Li3  1  0.000000  0.750000  0.500000  1
  Cr  Cr4  1  0.500000  0.250001  0.000000  1
  Fe  Fe5  1  0.500000  0.750000  0.000000  1
  Fe  Fe6  1  0.500000  -0.000051  0.500000  1
  Fe  Fe7  1  0.500000  0.500051  0.500000  1
  O  O8  1  0.272523  0.001117  0.241796  1
  O  O9  1  0.272522  0.498884  0.241796  1
  O  O10  1  0.726650  0.250000  0.255459  1
  O  O11  1  0.273349  0.250000  0.744541  1
  O  O12  1  0.729399  0.749999  0.258166  1
  O  O13  1  0.727477  0.001116  0.758203  1
  O  O14  1  0.270602  0.750000  0.741835  1
  O  O15  1  0.727477  0.498884  0.758205  1
