# generated using pymatgen
data_Li3Fe8(BO3)8
_symmetry_space_group_name_H-M   'P 1'
_cell_length_a   5.23908573
_cell_length_b   9.05579093
_cell_length_c   10.15837284
_cell_angle_alpha   90.22192208
_cell_angle_beta   90.24232449
_cell_angle_gamma   89.57173050
_symmetry_Int_Tables_number   1
_chemical_formula_structural   Li3Fe8(BO3)8
_chemical_formula_sum   'Li3 Fe8 B8 O24'
_cell_volume   481.93317099
_cell_formula_units_Z   1
loop_
 _symmetry_equiv_pos_site_id
 _symmetry_equiv_pos_as_xyz
  1  'x, y, z'
loop_
 _atom_site_type_symbol
 _atom_site_label
 _atom_site_symmetry_multiplicity
 _atom_site_fract_x
 _atom_site_fract_y
 _atom_site_fract_z
 _atom_site_occupancy
  Li  Li0  1  0.663612  0.676347  0.898246  1
  Li  Li1  1  0.343910  0.321142  0.664217  1
  Li  Li2  1  0.310391  0.329823  0.166516  1
  Fe  Fe3  1  0.849406  0.152658  0.628103  1
  Fe  Fe4  1  0.817760  0.512850  0.135710  1
  Fe  Fe5  1  0.677273  0.014454  0.877163  1
  Fe  Fe6  1  0.679508  0.336289  0.383908  1
  Fe  Fe7  1  0.328390  0.666633  0.629241  1
  Fe  Fe8  1  0.325913  0.989547  0.125742  1
  Fe  Fe9  1  0.163087  0.836342  0.376262  1
  Fe  Fe10  1  0.172925  0.496216  0.886001  1
  B  B11  1  0.826367  0.497021  0.628645  1
  B  B12  1  0.826379  0.169985  0.129412  1
  B  B13  1  0.661117  0.999358  0.372416  1
  B  B14  1  0.676657  0.337783  0.873061  1
  B  B15  1  0.349187  0.002635  0.627867  1
  B  B16  1  0.331470  0.666231  0.125063  1
  B  B17  1  0.169790  0.503832  0.379806  1
  B  B18  1  0.168748  0.834303  0.878332  1
  O  O19  1  0.913206  0.495953  0.347142  1
  O  O20  1  0.910959  0.846812  0.879044  1
  O  O21  1  0.816391  0.208781  0.842974  1
  O  O22  1  0.742219  0.132681  0.423178  1
  O  O23  1  0.815991  0.879828  0.372160  1
  O  O24  1  0.799707  0.463194  0.919274  1
  O  O25  1  0.677875  0.617945  0.651131  1
  O  O26  1  0.672182  0.059271  0.076595  1
  O  O27  1  0.711931  0.366616  0.582476  1
  O  O28  1  0.699498  0.295360  0.178756  1
  O  O29  1  0.583068  0.679928  0.097559  1
  O  O30  1  0.588109  0.995856  0.688056  1
  O  O31  1  0.409323  0.991063  0.322377  1
  O  O32  1  0.418646  0.336749  0.852055  1
  O  O33  1  0.292012  0.707571  0.828417  1
  O  O34  1  0.265095  0.636654  0.429947  1
  O  O35  1  0.328174  0.386345  0.359246  1
  O  O36  1  0.325762  0.943756  0.931300  1
  O  O37  1  0.200744  0.535303  0.098983  1
  O  O38  1  0.218828  0.130008  0.618926  1
  O  O39  1  0.251782  0.870198  0.573971  1
  O  O40  1  0.193611  0.790672  0.173709  1
  O  O41  1  0.086771  0.155335  0.133592  1
  O  O42  1  0.090488  0.496188  0.654826  1
