# generated using pymatgen
data_Na3Cu5O4
_symmetry_space_group_name_H-M   'P 1'
_cell_length_a   8.50109424
_cell_length_b   7.02690188
_cell_length_c   13.34021139
_cell_angle_alpha   90.00000000
_cell_angle_beta   106.81183673
_cell_angle_gamma   90.00000000
_symmetry_Int_Tables_number   1
_chemical_formula_structural   Na3Cu5O4
_chemical_formula_sum   'Na12 Cu20 O16'
_cell_volume   762.83610029
_cell_formula_units_Z   4
loop_
 _symmetry_equiv_pos_site_id
 _symmetry_equiv_pos_as_xyz
  1  'x, y, z'
loop_
 _atom_site_type_symbol
 _atom_site_label
 _atom_site_symmetry_multiplicity
 _atom_site_fract_x
 _atom_site_fract_y
 _atom_site_fract_z
 _atom_site_occupancy
  Na  Na0  1  0.089695  0.358452  0.581940  1
  Na  Na1  1  0.337009  0.079150  0.907473  1
  Na  Na2  1  0.261370  0.751034  0.573185  1
  Na  Na3  1  0.089695  0.141548  0.081940  1
  Na  Na4  1  0.337009  0.420850  0.407473  1
  Na  Na5  1  0.261370  0.748966  0.073185  1
  Na  Na6  1  0.738630  0.251034  0.926815  1
  Na  Na7  1  0.662991  0.579150  0.592527  1
  Na  Na8  1  0.910305  0.858452  0.918060  1
  Na  Na9  1  0.738630  0.248966  0.426815  1
  Na  Na10  1  0.662991  0.920850  0.092527  1
  Na  Na11  1  0.910305  0.641548  0.418060  1
  Cu  Cu12  1  0.049590  0.417258  0.898606  1
  Cu  Cu13  1  0.059961  0.664543  0.745301  1
  Cu  Cu14  1  0.049590  0.082742  0.398606  1
  Cu  Cu15  1  0.314118  0.541989  0.885648  1
  Cu  Cu16  1  0.059961  0.835457  0.245301  1
  Cu  Cu17  1  0.442146  0.449255  0.732462  1
  Cu  Cu18  1  0.314118  0.958011  0.385648  1
  Cu  Cu19  1  0.581924  0.687281  0.898669  1
  Cu  Cu20  1  0.418076  0.187281  0.601331  1
  Cu  Cu21  1  0.557854  0.949255  0.767538  1
  Cu  Cu22  1  0.442146  0.050745  0.232462  1
  Cu  Cu23  1  0.581924  0.812719  0.398669  1
  Cu  Cu24  1  0.418076  0.312719  0.101331  1
  Cu  Cu25  1  0.685882  0.041989  0.614352  1
  Cu  Cu26  1  0.557854  0.550745  0.267538  1
  Cu  Cu27  1  0.940039  0.164543  0.754699  1
  Cu  Cu28  1  0.685882  0.458011  0.114352  1
  Cu  Cu29  1  0.950410  0.917258  0.601394  1
  Cu  Cu30  1  0.940039  0.335457  0.254699  1
  Cu  Cu31  1  0.950410  0.582742  0.101394  1
  O  O32  1  0.993877  0.165349  0.898682  1
  O  O33  1  0.121077  0.667888  0.892482  1
  O  O34  1  0.993877  0.334651  0.398682  1
  O  O35  1  0.121077  0.832112  0.392482  1
  O  O36  1  0.510833  0.434341  0.877241  1
  O  O37  1  0.375608  0.445924  0.587425  1
  O  O38  1  0.624392  0.945924  0.912575  1
  O  O39  1  0.489167  0.934341  0.622759  1
  O  O40  1  0.510833  0.065659  0.377241  1
  O  O41  1  0.375608  0.054076  0.087425  1
  O  O42  1  0.624392  0.554076  0.412575  1
  O  O43  1  0.489167  0.565659  0.122759  1
  O  O44  1  0.878923  0.167888  0.607518  1
  O  O45  1  0.006123  0.665349  0.601318  1
  O  O46  1  0.878923  0.332112  0.107518  1
  O  O47  1  0.006123  0.834651  0.101318  1
