# generated using pymatgen
data_Li2Fe(Si2O5)2
_symmetry_space_group_name_H-M   'P 1'
_cell_length_a   6.90632039
_cell_length_b   7.86522692
_cell_length_c   9.78956546
_cell_angle_alpha   101.09164973
_cell_angle_beta   76.49535644
_cell_angle_gamma   62.78448410
_symmetry_Int_Tables_number   1
_chemical_formula_structural   Li2Fe(Si2O5)2
_chemical_formula_sum   'Li4 Fe2 Si8 O20'
_cell_volume   431.42203747
_cell_formula_units_Z   2
loop_
 _symmetry_equiv_pos_site_id
 _symmetry_equiv_pos_as_xyz
  1  'x, y, z'
loop_
 _atom_site_type_symbol
 _atom_site_label
 _atom_site_symmetry_multiplicity
 _atom_site_fract_x
 _atom_site_fract_y
 _atom_site_fract_z
 _atom_site_occupancy
  Li  Li0  1  0.234477  0.296202  0.414890  1
  Li  Li1  1  0.345877  0.832007  0.049526  1
  Li  Li2  1  0.654123  0.167993  0.950474  1
  Li  Li3  1  0.765523  0.703798  0.585110  1
  Fe  Fe4  1  0.242353  0.703346  0.582136  1
  Fe  Fe5  1  0.757647  0.296654  0.417864  1
  Si  Si6  1  0.111207  0.278343  0.131653  1
  Si  Si7  1  0.264366  0.058007  0.794085  1
  Si  Si8  1  0.183195  0.615957  0.247671  1
  Si  Si9  1  0.391071  0.370427  0.741205  1
  Si  Si10  1  0.608929  0.629573  0.258795  1
  Si  Si11  1  0.816805  0.384043  0.752329  1
  Si  Si12  1  0.735634  0.941993  0.205915  1
  Si  Si13  1  0.888793  0.721657  0.868347  1
  O  O14  1  0.095765  0.187378  0.264142  1
  O  O15  1  0.998312  0.202420  0.799830  1
  O  O16  1  0.269077  0.387186  0.131322  1
  O  O17  1  0.249542  0.082906  0.971073  1
  O  O18  1  0.094368  0.634047  0.420328  1
  O  O19  1  0.138834  0.553245  0.871706  1
  O  O20  1  0.421725  0.147293  0.724403  1
  O  O21  1  0.422175  0.407415  0.584878  1
  O  O22  1  0.412038  0.638206  0.187453  1
  O  O23  1  0.617178  0.177213  0.296560  1
  O  O24  1  0.382822  0.822787  0.703440  1
  O  O25  1  0.587962  0.361794  0.812547  1
  O  O26  1  0.577825  0.592585  0.415122  1
  O  O27  1  0.578275  0.852707  0.275597  1
  O  O28  1  0.861166  0.446755  0.128295  1
  O  O29  1  0.905632  0.365953  0.579672  1
  O  O30  1  0.750458  0.917094  0.028927  1
  O  O31  1  0.730923  0.612814  0.868678  1
  O  O32  1  0.001688  0.797580  0.200170  1
  O  O33  1  0.904235  0.812622  0.735858  1
