# generated using pymatgen
data_TiSn(PO4)2
_symmetry_space_group_name_H-M   'P 1'
_cell_length_a   10.93358721
_cell_length_b   6.23760957
_cell_length_c   5.07113933
_cell_angle_alpha   90.00000000
_cell_angle_beta   88.31572842
_cell_angle_gamma   90.00000000
_symmetry_Int_Tables_number   1
_chemical_formula_structural   TiSn(PO4)2
_chemical_formula_sum   'Ti2 Sn2 P4 O16'
_cell_volume   345.69948593
_cell_formula_units_Z   2
loop_
 _symmetry_equiv_pos_site_id
 _symmetry_equiv_pos_as_xyz
  1  'x, y, z'
loop_
 _atom_site_type_symbol
 _atom_site_label
 _atom_site_symmetry_multiplicity
 _atom_site_fract_x
 _atom_site_fract_y
 _atom_site_fract_z
 _atom_site_occupancy
  Ti  Ti0  1  0.204725  0.750000  0.432821  1
  Ti  Ti1  1  0.795275  0.250000  0.567179  1
  Sn  Sn2  1  0.275274  0.250000  0.963818  1
  Sn  Sn3  1  0.724726  0.750000  0.036182  1
  P  P4  1  0.088027  0.250000  0.448650  1
  P  P5  1  0.368239  0.750000  0.836669  1
  P  P6  1  0.631761  0.250000  0.163331  1
  P  P7  1  0.911973  0.750000  0.551350  1
  O  O8  1  0.050276  0.750000  0.620718  1
  O  O9  1  0.101752  0.250000  0.745850  1
  O  O10  1  0.151144  0.051069  0.308539  1
  O  O11  1  0.151144  0.448931  0.308539  1
  O  O12  1  0.304727  0.936398  0.675625  1
  O  O13  1  0.304727  0.563602  0.675625  1
  O  O14  1  0.310183  0.750000  0.124759  1
  O  O15  1  0.495886  0.250000  0.167401  1
  O  O16  1  0.504114  0.750000  0.832599  1
  O  O17  1  0.689817  0.250000  0.875241  1
  O  O18  1  0.695273  0.063602  0.324375  1
  O  O19  1  0.695273  0.436398  0.324375  1
  O  O20  1  0.848856  0.551069  0.691461  1
  O  O21  1  0.848856  0.948931  0.691461  1
  O  O22  1  0.898248  0.750000  0.254150  1
  O  O23  1  0.949724  0.250000  0.379282  1
