# generated using pymatgen
data_Ca2VFe4BiO12
_symmetry_space_group_name_H-M   'P 1'
_cell_length_a   10.94159353
_cell_length_b   10.96047217
_cell_length_c   10.92554307
_cell_angle_alpha   109.56931744
_cell_angle_beta   109.33630496
_cell_angle_gamma   109.41723838
_symmetry_Int_Tables_number   1
_chemical_formula_structural   Ca2VFe4BiO12
_chemical_formula_sum   'Ca8 V4 Fe16 Bi4 O48'
_cell_volume   1009.75337804
_cell_formula_units_Z   4
loop_
 _symmetry_equiv_pos_site_id
 _symmetry_equiv_pos_as_xyz
  1  'x, y, z'
loop_
 _atom_site_type_symbol
 _atom_site_label
 _atom_site_symmetry_multiplicity
 _atom_site_fract_x
 _atom_site_fract_y
 _atom_site_fract_z
 _atom_site_occupancy
  Ca  Ca0  1  0.251277  0.875762  0.624770  1
  Ca  Ca1  1  0.128477  0.374060  0.752400  1
  Ca  Ca2  1  0.122895  0.247396  0.371751  1
  Ca  Ca3  1  0.248209  0.372644  0.122550  1
  Ca  Ca4  1  0.751791  0.627356  0.877450  1
  Ca  Ca5  1  0.877105  0.752604  0.628249  1
  Ca  Ca6  1  0.871523  0.625940  0.247600  1
  Ca  Ca7  1  0.748723  0.124238  0.375230  1
  V  V8  1  0.000000  0.000000  0.500000  1
  V  V9  1  0.000000  0.500000  0.500000  1
  V  V10  1  0.000000  0.500000  0.000000  1
  V  V11  1  0.500000  0.500000  0.500000  1
  Fe  Fe12  1  0.119552  0.747807  0.872969  1
  Fe  Fe13  1  0.121705  0.871951  0.249036  1
  Fe  Fe14  1  0.250826  0.624994  0.376160  1
  Fe  Fe15  1  0.371866  0.623043  0.748018  1
  Fe  Fe16  1  0.251653  0.128615  0.874777  1
  Fe  Fe17  1  0.500000  0.000000  0.500000  1
  Fe  Fe18  1  0.000000  0.000000  0.000000  1
  Fe  Fe19  1  0.371441  0.249199  0.621553  1
  Fe  Fe20  1  0.628559  0.750801  0.378447  1
  Fe  Fe21  1  0.500000  0.500000  0.000000  1
  Fe  Fe22  1  0.749174  0.375006  0.623840  1
  Fe  Fe23  1  0.628134  0.376957  0.251982  1
  Fe  Fe24  1  0.748347  0.871385  0.125223  1
  Fe  Fe25  1  0.500000  0.000000  0.000000  1
  Fe  Fe26  1  0.878295  0.128049  0.750964  1
  Fe  Fe27  1  0.880448  0.252193  0.127031  1
  Bi  Bi28  1  0.630874  0.881834  0.759393  1
  Bi  Bi29  1  0.387165  0.752461  0.125065  1
  Bi  Bi30  1  0.612835  0.247539  0.874935  1
  Bi  Bi31  1  0.369126  0.118166  0.240607  1
  O  O32  1  0.095083  0.984120  0.670879  1
  O  O33  1  0.109430  0.593523  0.921383  1
  O  O34  1  0.017790  0.330178  0.904551  1
  O  O35  1  0.077073  0.689139  0.670898  1
  O  O36  1  0.075890  0.885612  0.405054  1
  O  O37  1  0.094134  0.610192  0.422176  1
  O  O38  1  0.169993  0.480540  0.593660  1
  O  O39  1  0.419541  0.821048  0.799557  1
  O  O40  1  0.296114  0.323506  0.918656  1
  O  O41  1  0.376431  0.582840  0.903592  1
  O  O42  1  0.028089  0.205147  0.125015  1
  O  O43  1  0.320796  0.920318  0.297852  1
  O  O44  1  0.169781  0.189378  0.574002  1
  O  O45  1  0.188423  0.576444  0.172644  1
  O  O46  1  0.400293  0.820962  0.522378  1
  O  O47  1  0.313698  0.485275  0.389284  1
  O  O48  1  0.318633  0.905424  0.023720  1
  O  O49  1  0.120599  0.022766  0.203196  1
  O  O50  1  0.407199  0.084667  0.876829  1
  O  O51  1  0.515332  0.609174  0.688466  1
  O  O52  1  0.522252  0.401396  0.819177  1
  O  O53  1  0.384890  0.310766  0.480457  1
  O  O54  1  0.206582  0.120666  0.026566  1
  O  O55  1  0.580507  0.900721  0.377431  1
  O  O56  1  0.419493  0.099279  0.622569  1
  O  O57  1  0.793418  0.879334  0.973434  1
  O  O58  1  0.615110  0.689234  0.519543  1
  O  O59  1  0.477748  0.598604  0.180823  1
  O  O60  1  0.484667  0.390826  0.311534  1
  O  O61  1  0.592801  0.915333  0.123171  1
  O  O62  1  0.879401  0.977234  0.796804  1
  O  O63  1  0.681367  0.094576  0.976280  1
  O  O64  1  0.686302  0.514725  0.610716  1
  O  O65  1  0.599707  0.179038  0.477622  1
  O  O66  1  0.811577  0.423556  0.827356  1
  O  O67  1  0.830219  0.810622  0.425998  1
  O  O68  1  0.679204  0.079682  0.702148  1
  O  O69  1  0.971911  0.794853  0.874985  1
  O  O70  1  0.623569  0.417160  0.096408  1
  O  O71  1  0.703886  0.676494  0.081344  1
  O  O72  1  0.580459  0.178952  0.200443  1
  O  O73  1  0.830007  0.519460  0.406340  1
  O  O74  1  0.905866  0.389808  0.577824  1
  O  O75  1  0.924110  0.114388  0.594946  1
  O  O76  1  0.922927  0.310861  0.329102  1
  O  O77  1  0.982210  0.669822  0.095449  1
  O  O78  1  0.890570  0.406477  0.078617  1
  O  O79  1  0.904917  0.015880  0.329121  1
