# generated using pymatgen
data_Fe3OF5
_symmetry_space_group_name_H-M   'P 1'
_cell_length_a   7.46106661
_cell_length_b   5.76696303
_cell_length_c   5.76696303
_cell_angle_alpha   74.34783574
_cell_angle_beta   72.92382587
_cell_angle_gamma   72.92382587
_symmetry_Int_Tables_number   1
_chemical_formula_structural   Fe3OF5
_chemical_formula_sum   'Fe6 O2 F10'
_cell_volume   222.12050114
_cell_formula_units_Z   2
loop_
 _symmetry_equiv_pos_site_id
 _symmetry_equiv_pos_as_xyz
  1  'x, y, z'
loop_
 _atom_site_type_symbol
 _atom_site_label
 _atom_site_symmetry_multiplicity
 _atom_site_fract_x
 _atom_site_fract_y
 _atom_site_fract_z
 _atom_site_occupancy
  Fe  Fe0  1  0.843646  0.678403  0.678403  1
  Fe  Fe1  1  0.685542  0.333807  0.333807  1
  Fe  Fe2  1  0.314458  0.666193  0.666193  1
  Fe  Fe3  1  0.156354  0.321597  0.321597  1
  Fe  Fe4  1  0.500000  0.000000  0.000000  1
  Fe  Fe5  1  0.000000  0.000000  0.000000  1
  O  O6  1  0.969201  0.223391  0.223391  1
  O  O7  1  0.030799  0.776609  0.776609  1
  F  F8  1  0.661557  0.030569  0.633020  1
  F  F9  1  0.338443  0.366980  0.969431  1
  F  F10  1  0.304864  0.894458  0.894458  1
  F  F11  1  0.630266  0.568732  0.568732  1
  F  F12  1  0.369734  0.431268  0.431268  1
  F  F13  1  0.695136  0.105542  0.105542  1
  F  F14  1  0.338443  0.969431  0.366980  1
  F  F15  1  0.661557  0.633020  0.030569  1
  F  F16  1  0.000000  0.308092  0.691908  1
  F  F17  1  0.000000  0.691908  0.308092  1
