# generated using pymatgen
data_Li3Fe9O5F11
_symmetry_space_group_name_H-M   'P 1'
_cell_length_a   6.22139593
_cell_length_b   6.16170929
_cell_length_c   10.85289004
_cell_angle_alpha   107.67937896
_cell_angle_beta   73.76341041
_cell_angle_gamma   118.32047095
_symmetry_Int_Tables_number   1
_chemical_formula_structural   Li3Fe9O5F11
_chemical_formula_sum   'Li3 Fe9 O5 F11'
_cell_volume   344.35943051
_cell_formula_units_Z   1
loop_
 _symmetry_equiv_pos_site_id
 _symmetry_equiv_pos_as_xyz
  1  'x, y, z'
loop_
 _atom_site_type_symbol
 _atom_site_label
 _atom_site_symmetry_multiplicity
 _atom_site_fract_x
 _atom_site_fract_y
 _atom_site_fract_z
 _atom_site_occupancy
  Li  Li0  1  0.046521  0.414418  0.804027  1
  Li  Li1  1  0.561902  0.410601  0.805391  1
  Li  Li2  1  0.792858  0.213010  0.574745  1
  Fe  Fe3  1  0.299404  0.696462  0.063383  1
  Fe  Fe4  1  0.076805  0.941070  0.308844  1
  Fe  Fe5  1  0.983489  0.023486  0.023563  1
  Fe  Fe6  1  0.562268  0.947645  0.309678  1
  Fe  Fe7  1  0.058546  0.446718  0.310339  1
  Fe  Fe8  1  0.170949  0.870933  0.609309  1
  Fe  Fe9  1  0.658572  0.344449  0.122210  1
  Fe  Fe10  1  0.487717  0.548354  0.518867  1
  Fe  Fe11  1  0.552391  0.929756  0.798959  1
  O  O12  1  0.211181  0.806006  0.414369  1
  O  O13  1  0.964750  0.577385  0.184415  1
  O  O14  1  0.428799  0.037175  0.181536  1
  O  O15  1  0.924085  0.075393  0.217000  1
  O  O16  1  0.467611  0.063386  0.687491  1
  F  F17  1  0.436563  0.561061  0.176321  1
  F  F18  1  0.158920  0.311774  0.453321  1
  F  F19  1  0.710345  0.853276  0.443125  1
  F  F20  1  0.405443  0.529986  0.708846  1
  F  F21  1  0.182381  0.800919  0.927637  1
  F  F22  1  0.688382  0.337860  0.441117  1
  F  F23  1  0.661757  0.797335  0.926911  1
  F  F24  1  0.197821  0.327902  0.937809  1
  F  F25  1  0.933549  0.542577  0.690819  1
  F  F26  1  0.918596  0.036065  0.692972  1
  F  F27  1  0.708392  0.304996  0.916999  1
