# generated using pymatgen
data_CrFe4P2(CO)18
_symmetry_space_group_name_H-M   'P 1'
_cell_length_a   9.38909203
_cell_length_b   14.46491665
_cell_length_c   23.00913735
_cell_angle_alpha   90.00000000
_cell_angle_beta   90.00000000
_cell_angle_gamma   105.49657315
_symmetry_Int_Tables_number   1
_chemical_formula_structural   CrFe4P2(CO)18
_chemical_formula_sum   'Cr4 Fe16 P8 C72 O72'
_cell_volume   3011.32470587
_cell_formula_units_Z   4
loop_
 _symmetry_equiv_pos_site_id
 _symmetry_equiv_pos_as_xyz
  1  'x, y, z'
loop_
 _atom_site_type_symbol
 _atom_site_label
 _atom_site_symmetry_multiplicity
 _atom_site_fract_x
 _atom_site_fract_y
 _atom_site_fract_z
 _atom_site_occupancy
  Cr  Cr0  1  0.686189  0.765664  0.524366  1
  Cr  Cr1  1  0.813811  0.734336  0.024366  1
  Cr  Cr2  1  0.186189  0.265664  0.975634  1
  Cr  Cr3  1  0.313811  0.234336  0.475634  1
  Fe  Fe4  1  0.631187  0.886700  0.358571  1
  Fe  Fe5  1  0.856772  0.299166  0.102971  1
  Fe  Fe6  1  0.459062  0.299273  0.657277  1
  Fe  Fe7  1  0.040938  0.200727  0.157277  1
  Fe  Fe8  1  0.959062  0.799273  0.842723  1
  Fe  Fe9  1  0.540938  0.700727  0.342723  1
  Fe  Fe10  1  0.145935  0.651108  0.718066  1
  Fe  Fe11  1  0.131187  0.386700  0.141429  1
  Fe  Fe12  1  0.868813  0.613300  0.858571  1
  Fe  Fe13  1  0.368813  0.113300  0.641429  1
  Fe  Fe14  1  0.643228  0.200834  0.602971  1
  Fe  Fe15  1  0.354065  0.848892  0.218066  1
  Fe  Fe16  1  0.356772  0.799166  0.397029  1
  Fe  Fe17  1  0.854065  0.348892  0.281934  1
  Fe  Fe18  1  0.143228  0.700834  0.897029  1
  Fe  Fe19  1  0.645935  0.151108  0.781934  1
  P  P20  1  0.951034  0.324746  0.197599  1
  P  P21  1  0.048966  0.675254  0.802401  1
  P  P22  1  0.066289  0.273938  0.070709  1
  P  P23  1  0.548966  0.175254  0.697599  1
  P  P24  1  0.566289  0.773938  0.429291  1
  P  P25  1  0.451034  0.824746  0.302401  1
  P  P26  1  0.933711  0.726062  0.929291  1
  P  P27  1  0.433711  0.226062  0.570709  1
  C  C28  1  0.183106  0.761515  0.238737  1
  C  C29  1  0.815433  0.864479  0.994420  1
  C  C30  1  0.785278  0.630783  0.946270  1
  C  C31  1  0.769693  0.777049  0.100279  1
  C  C32  1  0.897255  0.794528  0.502393  1
  C  C33  1  0.226518  0.856031  0.366126  1
  C  C34  1  0.396945  0.995890  0.644417  1
  C  C35  1  0.448593  0.585443  0.371646  1
  C  C36  1  0.322433  0.444223  0.065684  1
  C  C37  1  0.214722  0.369217  0.053730  1
  C  C38  1  0.250368  0.566299  0.706153  1
  C  C39  1  0.486103  0.339518  0.731673  1
  C  C40  1  0.281955  0.809875  0.915661  1
  C  C41  1  0.896945  0.495890  0.855583  1
  C  C42  1  0.781955  0.309875  0.584339  1
  C  C43  1  0.230307  0.222950  0.899721  1
  C  C44  1  0.714722  0.869217  0.446270  1
  C  C45  1  0.750368  0.066299  0.793847  1
  C  C46  1  0.684567  0.635521  0.494420  1
  C  C47  1  0.249632  0.933701  0.206153  1
  C  C48  1  0.816894  0.238485  0.761263  1
  C  C49  1  0.720658  0.597024  0.807093  1
  C  C50  1  0.730307  0.722951  0.600279  1
  C  C51  1  0.220658  0.097024  0.692907  1
  C  C52  1  0.603055  0.004110  0.355583  1
  C  C53  1  0.718045  0.190125  0.084339  1
  C  C54  1  0.013897  0.160482  0.231673  1
  C  C55  1  0.476679  0.709262  0.545589  1
  C  C56  1  0.397255  0.294528  0.997607  1
  C  C57  1  0.677567  0.555777  0.934316  1
  C  C58  1  0.230096  0.198352  0.151962  1
  C  C59  1  0.976679  0.209262  0.954411  1
  C  C60  1  0.779342  0.902976  0.307093  1
  C  C61  1  0.773482  0.143969  0.633874  1
  C  C62  1  0.273482  0.643969  0.866126  1
  C  C63  1  0.602745  0.705472  0.002393  1
  C  C64  1  0.023321  0.790738  0.045589  1
  C  C65  1  0.377085  0.781691  0.154935  1
  C  C66  1  0.285278  0.130783  0.553730  1
  C  C67  1  0.177567  0.055777  0.565684  1
  C  C68  1  0.315433  0.364479  0.505580  1
  C  C69  1  0.269693  0.277050  0.399721  1
  C  C70  1  0.769904  0.801648  0.848038  1
  C  C71  1  0.103055  0.504110  0.144417  1
  C  C72  1  0.683106  0.261515  0.261263  1
  C  C73  1  0.134521  0.635457  0.963990  1
  C  C74  1  0.513897  0.660482  0.268327  1
  C  C75  1  0.986103  0.839518  0.768327  1
  C  C76  1  0.622915  0.218309  0.845065  1
  C  C77  1  0.122915  0.718309  0.654935  1
  C  C78  1  0.634521  0.135457  0.536010  1
  C  C79  1  0.269904  0.301648  0.651962  1
  C  C80  1  0.551407  0.414557  0.628354  1
  C  C81  1  0.877085  0.281691  0.345065  1
  C  C82  1  0.051407  0.914557  0.871646  1
  C  C83  1  0.865479  0.364543  0.036010  1
  C  C84  1  0.475918  0.057681  0.794380  1
  C  C85  1  0.975918  0.557681  0.705620  1
  C  C86  1  0.218045  0.690125  0.415661  1
  C  C87  1  0.726518  0.356031  0.133874  1
  C  C88  1  0.948593  0.085443  0.128354  1
  C  C89  1  0.730096  0.698352  0.348038  1
  C  C90  1  0.822433  0.944223  0.434316  1
  C  C91  1  0.316894  0.738485  0.738737  1
  C  C92  1  0.365479  0.864543  0.463990  1
  C  C93  1  0.524082  0.942319  0.205620  1
  C  C94  1  0.102745  0.205472  0.497607  1
  C  C95  1  0.279342  0.402976  0.192907  1
  C  C96  1  0.184567  0.135521  0.005580  1
  C  C97  1  0.523321  0.290738  0.454411  1
  C  C98  1  0.024082  0.442319  0.294380  1
  C  C99  1  0.749632  0.433701  0.293847  1
  O  O100  1  0.926346  0.424043  0.847795  1
  O  O101  1  0.243087  0.302125  0.354546  1
  O  O102  1  0.868880  0.496710  0.698465  1
  O  O103  1  0.361753  0.606262  0.851678  1
  O  O104  1  0.307721  0.118648  0.446924  1
  O  O105  1  0.484004  0.695116  0.985946  1
  O  O106  1  0.627108  0.121810  0.071652  1
  O  O107  1  0.573145  0.488478  0.929244  1
  O  O108  1  0.857872  0.167804  0.941928  1
  O  O109  1  0.686257  0.559755  0.479290  1
  O  O110  1  0.071739  0.709081  0.251987  1
  O  O111  1  0.860809  0.908680  0.268585  1
  O  O112  1  0.926855  0.011522  0.429244  1
  O  O113  1  0.426346  0.924043  0.652205  1
  O  O114  1  0.426855  0.511522  0.070756  1
  O  O115  1  0.320559  0.512900  0.696641  1
  O  O116  1  0.984004  0.195116  0.514054  1
  O  O117  1  0.368880  0.996710  0.801535  1
  O  O118  1  0.139191  0.091320  0.731415  1
  O  O119  1  0.179441  0.987100  0.196641  1
  O  O120  1  0.138247  0.893738  0.351678  1
  O  O121  1  0.389727  0.512429  0.392430  1
  O  O122  1  0.131120  0.503290  0.301535  1
  O  O123  1  0.861753  0.106262  0.648322  1
  O  O124  1  0.186257  0.059755  0.020710  1
  O  O125  1  0.631120  0.003290  0.198465  1
  O  O126  1  0.110273  0.987571  0.892430  1
  O  O127  1  0.127108  0.621810  0.428348  1
  O  O128  1  0.192278  0.381352  0.946924  1
  O  O129  1  0.571739  0.209081  0.248013  1
  O  O130  1  0.743087  0.802125  0.145454  1
  O  O131  1  0.756913  0.697875  0.645454  1
  O  O132  1  0.679441  0.487100  0.303359  1
  O  O133  1  0.573654  0.075957  0.347795  1
  O  O134  1  0.872892  0.378190  0.571652  1
  O  O135  1  0.994889  0.870057  0.721694  1
  O  O136  1  0.813743  0.940245  0.979290  1
  O  O137  1  0.515996  0.304884  0.014054  1
  O  O138  1  0.313743  0.440245  0.520710  1
  O  O139  1  0.357872  0.667804  0.558072  1
  O  O140  1  0.372892  0.878190  0.928348  1
  O  O141  1  0.370319  0.901948  0.508602  1
  O  O142  1  0.351017  0.195306  0.145085  1
  O  O143  1  0.692279  0.881352  0.553076  1
  O  O144  1  0.428261  0.790919  0.751987  1
  O  O145  1  0.648983  0.804694  0.854915  1
  O  O146  1  0.889727  0.012429  0.107570  1
  O  O147  1  0.494889  0.370057  0.778306  1
  O  O148  1  0.073145  0.988478  0.570756  1
  O  O149  1  0.870319  0.401948  0.991398  1
  O  O150  1  0.928261  0.290919  0.748013  1
  O  O151  1  0.142128  0.832196  0.058072  1
  O  O152  1  0.256913  0.197875  0.854546  1
  O  O153  1  0.110358  0.760742  0.613252  1
  O  O154  1  0.610273  0.487571  0.607570  1
  O  O155  1  0.639191  0.591320  0.768585  1
  O  O156  1  0.629681  0.098052  0.491398  1
  O  O157  1  0.851017  0.695306  0.354915  1
  O  O158  1  0.360809  0.408680  0.231415  1
  O  O159  1  0.005111  0.129943  0.278306  1
  O  O160  1  0.889642  0.239258  0.386748  1
  O  O161  1  0.148983  0.304694  0.645085  1
  O  O162  1  0.129681  0.598052  0.008602  1
  O  O163  1  0.807721  0.618648  0.053076  1
  O  O164  1  0.610358  0.260742  0.886748  1
  O  O165  1  0.073654  0.575957  0.152205  1
  O  O166  1  0.389642  0.739258  0.113252  1
  O  O167  1  0.505111  0.629943  0.221694  1
  O  O168  1  0.638247  0.393738  0.148322  1
  O  O169  1  0.015996  0.804884  0.485946  1
  O  O170  1  0.642128  0.332196  0.441928  1
  O  O171  1  0.820559  0.012900  0.803359  1
