# generated using pymatgen
data_Bi2(BO3)3
_symmetry_space_group_name_H-M   'P 1'
_cell_length_a   6.29797513
_cell_length_b   6.29666581
_cell_length_c   9.26350964
_cell_angle_alpha   90.00308685
_cell_angle_beta   89.99895616
_cell_angle_gamma   120.03512630
_symmetry_Int_Tables_number   1
_chemical_formula_structural   Bi2(BO3)3
_chemical_formula_sum   'Bi4 B6 O18'
_cell_volume   318.02696502
_cell_formula_units_Z   2
loop_
 _symmetry_equiv_pos_site_id
 _symmetry_equiv_pos_as_xyz
  1  'x, y, z'
loop_
 _atom_site_type_symbol
 _atom_site_label
 _atom_site_symmetry_multiplicity
 _atom_site_fract_x
 _atom_site_fract_y
 _atom_site_fract_z
 _atom_site_occupancy
  Bi  Bi0  1  0.333339  0.666627  0.008337  1
  Bi  Bi1  1  0.333357  0.666625  0.491491  1
  Bi  Bi2  1  0.666637  0.333298  0.507773  1
  Bi  Bi3  1  0.666618  0.333265  0.992588  1
  B  B4  1  0.005828  0.771560  0.749989  1
  B  B5  1  0.228914  0.234224  0.750020  1
  B  B6  1  0.766132  0.994735  0.749998  1
  B  B7  1  0.237978  0.013648  0.250044  1
  B  B8  1  0.775483  0.761823  0.250003  1
  B  B9  1  0.985874  0.224160  0.250018  1
  O  O10  1  0.012888  0.781734  0.249879  1
  O  O11  1  0.006159  0.636006  0.885281  1
  O  O12  1  0.006376  0.635886  0.614961  1
  O  O13  1  0.218592  0.231099  0.249898  1
  O  O14  1  0.629668  0.993704  0.614978  1
  O  O15  1  0.629859  0.993779  0.885221  1
  O  O16  1  0.364201  0.370497  0.614842  1
  O  O17  1  0.364197  0.370346  0.885341  1
  O  O18  1  0.227259  0.004596  0.750051  1
  O  O19  1  0.769115  0.987774  0.249871  1
  O  O20  1  0.640358  0.625240  0.384968  1
  O  O21  1  0.640309  0.625517  0.114857  1
  O  O22  1  0.374264  0.014759  0.114862  1
  O  O23  1  0.374666  0.015107  0.384953  1
  O  O24  1  0.777497  0.772503  0.750001  1
  O  O25  1  0.985209  0.359641  0.114852  1
  O  O26  1  0.984854  0.359780  0.384858  1
  O  O27  1  0.994263  0.222069  0.750064  1
