# generated using pymatgen
data_Y2(SeO4)3
_symmetry_space_group_name_H-M   'P 1'
_cell_length_a   13.50099383
_cell_length_b   9.71360524
_cell_length_c   9.80012430
_cell_angle_alpha   90.00000000
_cell_angle_beta   90.00000000
_cell_angle_gamma   90.00000000
_symmetry_Int_Tables_number   1
_chemical_formula_structural   Y2(SeO4)3
_chemical_formula_sum   'Y8 Se12 O48'
_cell_volume   1285.22088036
_cell_formula_units_Z   4
loop_
 _symmetry_equiv_pos_site_id
 _symmetry_equiv_pos_as_xyz
  1  'x, y, z'
loop_
 _atom_site_type_symbol
 _atom_site_label
 _atom_site_symmetry_multiplicity
 _atom_site_fract_x
 _atom_site_fract_y
 _atom_site_fract_z
 _atom_site_occupancy
  Y  Y0  1  0.117654  0.249832  0.962299  1
  Y  Y1  1  0.117654  0.750168  0.462299  1
  Y  Y2  1  0.382346  0.250168  0.462299  1
  Y  Y3  1  0.382346  0.749832  0.962299  1
  Y  Y4  1  0.617654  0.250168  0.037701  1
  Y  Y5  1  0.617654  0.749832  0.537701  1
  Y  Y6  1  0.882346  0.249832  0.537701  1
  Y  Y7  1  0.882346  0.750168  0.037701  1
  Se  Se8  1  0.000000  0.035138  0.250000  1
  Se  Se9  1  0.000000  0.964862  0.750000  1
  Se  Se10  1  0.146833  0.393948  0.611575  1
  Se  Se11  1  0.146833  0.606052  0.111575  1
  Se  Se12  1  0.353167  0.106052  0.111575  1
  Se  Se13  1  0.353167  0.893948  0.611575  1
  Se  Se14  1  0.500000  0.464862  0.750000  1
  Se  Se15  1  0.500000  0.535138  0.250000  1
  Se  Se16  1  0.646833  0.106052  0.388425  1
  Se  Se17  1  0.646833  0.893948  0.888425  1
  Se  Se18  1  0.853167  0.393948  0.888425  1
  Se  Se19  1  0.853167  0.606052  0.388425  1
  O  O20  1  0.034797  0.666779  0.074723  1
  O  O21  1  0.034797  0.333221  0.574723  1
  O  O22  1  0.064664  0.865296  0.645477  1
  O  O23  1  0.064664  0.134704  0.145477  1
  O  O24  1  0.080210  0.061651  0.835982  1
  O  O25  1  0.080210  0.938349  0.335982  1
  O  O26  1  0.148668  0.435865  0.094682  1
  O  O27  1  0.148668  0.564135  0.594682  1
  O  O28  1  0.176479  0.356298  0.772131  1
  O  O29  1  0.176479  0.643702  0.272131  1
  O  O30  1  0.226813  0.322724  0.503672  1
  O  O31  1  0.226813  0.677276  0.003672  1
  O  O32  1  0.273187  0.177276  0.003672  1
  O  O33  1  0.273187  0.822724  0.503672  1
  O  O34  1  0.323522  0.856298  0.772131  1
  O  O35  1  0.323522  0.143702  0.272131  1
  O  O36  1  0.351332  0.064135  0.594682  1
  O  O37  1  0.351332  0.935865  0.094682  1
  O  O38  1  0.419790  0.438349  0.335982  1
  O  O39  1  0.419790  0.561651  0.835982  1
  O  O40  1  0.435336  0.365296  0.645477  1
  O  O41  1  0.435336  0.634704  0.145477  1
  O  O42  1  0.465203  0.166779  0.074723  1
  O  O43  1  0.465203  0.833221  0.574723  1
  O  O44  1  0.534797  0.166779  0.425277  1
  O  O45  1  0.534797  0.833221  0.925277  1
  O  O46  1  0.564664  0.634704  0.354523  1
  O  O47  1  0.564664  0.365296  0.854523  1
  O  O48  1  0.580210  0.438349  0.164018  1
  O  O49  1  0.580210  0.561651  0.664018  1
  O  O50  1  0.648668  0.064135  0.905318  1
  O  O51  1  0.648668  0.935865  0.405318  1
  O  O52  1  0.676479  0.143702  0.227869  1
  O  O53  1  0.676479  0.856298  0.727869  1
  O  O54  1  0.726813  0.177276  0.496328  1
  O  O55  1  0.726813  0.822724  0.996328  1
  O  O56  1  0.773187  0.322724  0.996328  1
  O  O57  1  0.773187  0.677276  0.496328  1
  O  O58  1  0.823521  0.356298  0.727869  1
  O  O59  1  0.823521  0.643702  0.227869  1
  O  O60  1  0.851332  0.435865  0.405318  1
  O  O61  1  0.851332  0.564135  0.905318  1
  O  O62  1  0.919790  0.061651  0.664018  1
  O  O63  1  0.919790  0.938349  0.164018  1
  O  O64  1  0.935336  0.134704  0.354523  1
  O  O65  1  0.935336  0.865296  0.854523  1
  O  O66  1  0.965203  0.333221  0.925277  1
  O  O67  1  0.965203  0.666779  0.425277  1
