# generated using pymatgen
data_LiMnF4
_symmetry_space_group_name_H-M   'P 1'
_cell_length_a   5.61087625
_cell_length_b   6.35597940
_cell_length_c   6.41979048
_cell_angle_alpha   90.00446354
_cell_angle_beta   124.89192949
_cell_angle_gamma   124.53416748
_symmetry_Int_Tables_number   1
_chemical_formula_structural   LiMnF4
_chemical_formula_sum   'Li2 Mn2 F8'
_cell_volume   135.70906927
_cell_formula_units_Z   2
loop_
 _symmetry_equiv_pos_site_id
 _symmetry_equiv_pos_as_xyz
  1  'x, y, z'
loop_
 _atom_site_type_symbol
 _atom_site_label
 _atom_site_symmetry_multiplicity
 _atom_site_fract_x
 _atom_site_fract_y
 _atom_site_fract_z
 _atom_site_occupancy
  Li  Li0  1  0.499922  0.249022  0.012509  1
  Li  Li1  1  0.500095  0.749152  0.987507  1
  Mn  Mn2  1  0.502147  0.500766  0.501170  1
  Mn  Mn3  1  0.497857  0.998629  0.498844  1
  F  F4  1  0.889850  0.443341  0.697959  1
  F  F5  1  0.110574  0.056206  0.312043  1
  F  F6  1  0.493256  0.001807  0.209012  1
  F  F7  1  0.502200  0.995358  0.789019  1
  F  F8  1  0.497786  0.493157  0.211000  1
  F  F9  1  0.506781  0.508532  0.790976  1
  F  F10  1  0.110132  0.554544  0.302049  1
  F  F11  1  0.889400  0.944539  0.687913  1
