# generated using pymatgen
data_Li11V4F24
_symmetry_space_group_name_H-M   'P 1'
_cell_length_a   9.94380144
_cell_length_b   11.38667800
_cell_length_c   9.94380114
_cell_angle_alpha   64.11018168
_cell_angle_beta   89.99999902
_cell_angle_gamma   64.11018006
_symmetry_Int_Tables_number   1
_chemical_formula_structural   Li11V4F24
_chemical_formula_sum   'Li22 V8 F48'
_cell_volume   885.60005302
_cell_formula_units_Z   2
loop_
 _symmetry_equiv_pos_site_id
 _symmetry_equiv_pos_as_xyz
  1  'x, y, z'
loop_
 _atom_site_type_symbol
 _atom_site_label
 _atom_site_symmetry_multiplicity
 _atom_site_fract_x
 _atom_site_fract_y
 _atom_site_fract_z
 _atom_site_occupancy
  Li  Li0  1  0.125000  0.250000  0.875000  1
  Li  Li1  1  0.151109  0.197782  0.401109  1
  Li  Li2  1  0.362656  0.244536  0.635454  1
  Li  Li3  1  0.690663  0.111130  0.683466  1
  Li  Li4  1  0.598891  0.302218  0.848891  1
  Li  Li5  1  0.107192  0.755464  0.879991  1
  Li  Li6  1  0.205405  0.611130  0.690663  1
  Li  Li7  1  0.316534  0.388870  0.301792  1
  Li  Li8  1  0.698208  0.111130  0.205405  1
  Li  Li9  1  0.879991  0.255464  0.637344  1
  Li  Li10  1  0.364546  0.255464  0.107192  1
  Li  Li11  1  0.635454  0.744536  0.892808  1
  Li  Li12  1  0.120010  0.744536  0.362656  1
  Li  Li13  1  0.301792  0.888870  0.794595  1
  Li  Li14  1  0.683466  0.611130  0.698208  1
  Li  Li15  1  0.794595  0.388870  0.309337  1
  Li  Li16  1  0.892808  0.244536  0.120010  1
  Li  Li17  1  0.401109  0.697782  0.151109  1
  Li  Li18  1  0.309337  0.888870  0.316534  1
  Li  Li19  1  0.637344  0.755464  0.364546  1
  Li  Li20  1  0.848891  0.802218  0.598891  1
  Li  Li21  1  0.875000  0.750000  0.125000  1
  V  V22  1  0.000000  0.000000  0.500000  1
  V  V23  1  0.500000  0.000000  0.500000  1
  V  V24  1  0.000000  0.000000  0.000000  1
  V  V25  1  0.000000  0.500000  0.500000  1
  V  V26  1  0.500000  0.000000  0.000000  1
  V  V27  1  0.500000  0.500000  0.500000  1
  V  V28  1  0.000000  0.500000  0.000000  1
  V  V29  1  0.500000  0.500000  0.000000  1
  F  F30  1  0.167625  0.339330  0.983689  1
  F  F31  1  0.323020  0.160670  0.832375  1
  F  F32  1  0.337282  0.018654  0.610286  1
  F  F33  1  0.629664  0.002905  0.862118  1
  F  F34  1  0.144063  0.018654  0.371059  1
  F  F35  1  0.515878  0.149305  0.537421  1
  F  F36  1  0.036698  0.647447  0.820643  1
  F  F37  1  0.820643  0.147447  0.815856  1
  F  F38  1  0.016311  0.160670  0.006956  1
  F  F39  1  0.184144  0.352554  0.468089  1
  F  F40  1  0.389714  0.481346  0.855937  1
  F  F41  1  0.333173  0.176641  0.313035  1
  F  F42  1  0.134977  0.502905  0.629664  1
  F  F43  1  0.489676  0.323359  0.666827  1
  F  F44  1  0.313035  0.676641  0.990187  1
  F  F45  1  0.628941  0.481346  0.662718  1
  F  F46  1  0.531911  0.147447  0.036698  1
  F  F47  1  0.537421  0.649305  0.834816  1
  F  F48  1  0.006956  0.660670  0.323020  1
  F  F49  1  0.990187  0.176641  0.510324  1
  F  F50  1  0.867431  0.002905  0.134977  1
  F  F51  1  0.834816  0.149305  0.313273  1
  F  F52  1  0.686727  0.350695  0.484122  1
  F  F53  1  0.137882  0.497095  0.132569  1
  F  F54  1  0.862118  0.502905  0.867431  1
  F  F55  1  0.313273  0.649305  0.515878  1
  F  F56  1  0.165184  0.850695  0.686727  1
  F  F57  1  0.132569  0.997095  0.865023  1
  F  F58  1  0.009813  0.823359  0.489676  1
  F  F59  1  0.993044  0.339330  0.676980  1
  F  F60  1  0.462579  0.350695  0.165184  1
  F  F61  1  0.468089  0.852553  0.963302  1
  F  F62  1  0.371059  0.518654  0.337282  1
  F  F63  1  0.686965  0.323359  0.009813  1
  F  F64  1  0.510324  0.676641  0.333173  1
  F  F65  1  0.865023  0.497095  0.370336  1
  F  F66  1  0.666827  0.823359  0.686965  1
  F  F67  1  0.610286  0.518654  0.144063  1
  F  F68  1  0.815856  0.647447  0.531911  1
  F  F69  1  0.983689  0.839330  0.993044  1
  F  F70  1  0.179357  0.852553  0.184144  1
  F  F71  1  0.963302  0.352554  0.179357  1
  F  F72  1  0.484122  0.850695  0.462579  1
  F  F73  1  0.855937  0.981346  0.628941  1
  F  F74  1  0.370336  0.997095  0.137882  1
  F  F75  1  0.662718  0.981346  0.389714  1
  F  F76  1  0.676980  0.839330  0.167625  1
  F  F77  1  0.832375  0.660670  0.016311  1
