# generated using pymatgen
data_AlH11SO10
_symmetry_space_group_name_H-M   'P 1'
_cell_length_a   8.40405379
_cell_length_b   12.62794585
_cell_length_c   8.15689909
_cell_angle_alpha   90.00000000
_cell_angle_beta   101.50724181
_cell_angle_gamma   90.00000000
_symmetry_Int_Tables_number   1
_chemical_formula_structural   AlH11SO10
_chemical_formula_sum   'Al4 H44 S4 O40'
_cell_volume   848.25838080
_cell_formula_units_Z   4
loop_
 _symmetry_equiv_pos_site_id
 _symmetry_equiv_pos_as_xyz
  1  'x, y, z'
loop_
 _atom_site_type_symbol
 _atom_site_label
 _atom_site_symmetry_multiplicity
 _atom_site_fract_x
 _atom_site_fract_y
 _atom_site_fract_z
 _atom_site_occupancy
  Al  Al0  1  0.383633  0.008216  0.343797  1
  Al  Al1  1  0.883633  0.491784  0.843797  1
  Al  Al2  1  0.616367  0.991784  0.656203  1
  Al  Al3  1  0.116367  0.508216  0.156203  1
  H  H4  1  0.490749  0.833550  0.473762  1
  H  H5  1  0.990749  0.666450  0.973762  1
  H  H6  1  0.509251  0.166450  0.526238  1
  H  H7  1  0.009251  0.333550  0.026238  1
  H  H8  1  0.257540  0.897842  0.082849  1
  H  H9  1  0.757540  0.602158  0.582849  1
  H  H10  1  0.742460  0.102158  0.917151  1
  H  H11  1  0.242460  0.397842  0.417151  1
  H  H12  1  0.146122  0.879034  0.226735  1
  H  H13  1  0.646122  0.620966  0.726735  1
  H  H14  1  0.853878  0.120966  0.773265  1
  H  H15  1  0.353878  0.379034  0.273265  1
  H  H16  1  0.376751  0.192643  0.198800  1
  H  H17  1  0.876751  0.307357  0.698800  1
  H  H18  1  0.623249  0.807357  0.801200  1
  H  H19  1  0.123249  0.692643  0.301200  1
  H  H20  1  0.192897  0.145035  0.161746  1
  H  H21  1  0.692897  0.354965  0.661746  1
  H  H22  1  0.807103  0.854965  0.838254  1
  H  H23  1  0.307103  0.645035  0.338254  1
  H  H24  1  0.602967  0.030652  0.163090  1
  H  H25  1  0.102967  0.469348  0.663090  1
  H  H26  1  0.397033  0.969348  0.836910  1
  H  H27  1  0.897033  0.530652  0.336910  1
  H  H28  1  0.594737  0.906110  0.213513  1
  H  H29  1  0.094737  0.593890  0.713513  1
  H  H30  1  0.405263  0.093890  0.786487  1
  H  H31  1  0.905263  0.406110  0.286487  1
  H  H32  1  0.102907  0.065312  0.412601  1
  H  H33  1  0.602907  0.434688  0.912601  1
  H  H34  1  0.897093  0.934688  0.587399  1
  H  H35  1  0.397093  0.565312  0.087399  1
  H  H36  1  0.185913  0.975499  0.541309  1
  H  H37  1  0.685913  0.524501  0.041309  1
  H  H38  1  0.814087  0.024501  0.458691  1
  H  H39  1  0.314087  0.475499  0.958691  1
  H  H40  1  0.595438  0.296959  0.221225  1
  H  H41  1  0.095438  0.203041  0.721225  1
  H  H42  1  0.404562  0.703041  0.778775  1
  H  H43  1  0.904562  0.796959  0.278775  1
  H  H44  1  0.455633  0.321673  0.064570  1
  H  H45  1  0.955633  0.178327  0.564570  1
  H  H46  1  0.544367  0.678327  0.935430  1
  H  H47  1  0.044367  0.821673  0.435430  1
  S  S48  1  0.360750  0.315447  0.711363  1
  S  S49  1  0.860750  0.184553  0.211363  1
  S  S50  1  0.639250  0.684553  0.288637  1
  S  S51  1  0.139250  0.815447  0.788637  1
  O  O52  1  0.469319  0.906945  0.505495  1
  O  O53  1  0.969319  0.593055  0.005495  1
  O  O54  1  0.530681  0.093055  0.494505  1
  O  O55  1  0.030681  0.406945  0.994505  1
  O  O56  1  0.239425  0.918363  0.196680  1
  O  O57  1  0.739425  0.581637  0.696680  1
  O  O58  1  0.760575  0.081637  0.803320  1
  O  O59  1  0.260575  0.418363  0.303320  1
  O  O60  1  0.309279  0.126667  0.200909  1
  O  O61  1  0.809279  0.373333  0.700909  1
  O  O62  1  0.690721  0.873333  0.799091  1
  O  O63  1  0.190721  0.626667  0.299091  1
  O  O64  1  0.534840  0.974764  0.200774  1
  O  O65  1  0.034840  0.525236  0.700774  1
  O  O66  1  0.465160  0.025236  0.799226  1
  O  O67  1  0.965160  0.474764  0.299226  1
  O  O68  1  0.208534  0.030521  0.462419  1
  O  O69  1  0.708534  0.469479  0.962419  1
  O  O70  1  0.791466  0.969479  0.537581  1
  O  O71  1  0.291466  0.530521  0.037581  1
  O  O72  1  0.303995  0.212526  0.768183  1
  O  O73  1  0.803995  0.287474  0.268183  1
  O  O74  1  0.696005  0.787474  0.231817  1
  O  O75  1  0.196005  0.712526  0.731817  1
  O  O76  1  0.421947  0.383557  0.864135  1
  O  O77  1  0.921947  0.116443  0.364135  1
  O  O78  1  0.578053  0.616443  0.135865  1
  O  O79  1  0.078053  0.883557  0.635865  1
  O  O80  1  0.221028  0.370818  0.604215  1
  O  O81  1  0.721028  0.129182  0.104215  1
  O  O82  1  0.778972  0.629182  0.395785  1
  O  O83  1  0.278972  0.870818  0.895785  1
  O  O84  1  0.493933  0.299580  0.618300  1
  O  O85  1  0.993933  0.200420  0.118300  1
  O  O86  1  0.506067  0.700420  0.381700  1
  O  O87  1  0.006067  0.799580  0.881700  1
  O  O88  1  0.474867  0.302387  0.184677  1
  O  O89  1  0.974867  0.197613  0.684677  1
  O  O90  1  0.525133  0.697613  0.815323  1
  O  O91  1  0.025133  0.802387  0.315323  1
