# generated using pymatgen
data_Li5Mn5(SbO6)2
_symmetry_space_group_name_H-M   'P 1'
_cell_length_a   5.49690161
_cell_length_b   5.49690216
_cell_length_c   10.41466945
_cell_angle_alpha   84.08613215
_cell_angle_beta   95.91386253
_cell_angle_gamma   59.01897818
_symmetry_Int_Tables_number   1
_chemical_formula_structural   Li5Mn5(SbO6)2
_chemical_formula_sum   'Li5 Mn5 Sb2 O12'
_cell_volume   263.82634276
_cell_formula_units_Z   1
loop_
 _symmetry_equiv_pos_site_id
 _symmetry_equiv_pos_as_xyz
  1  'x, y, z'
loop_
 _atom_site_type_symbol
 _atom_site_label
 _atom_site_symmetry_multiplicity
 _atom_site_fract_x
 _atom_site_fract_y
 _atom_site_fract_z
 _atom_site_occupancy
  Li  Li0  1  0.160318  0.658187  0.502437  1
  Li  Li1  1  0.330143  0.846341  0.996149  1
  Li  Li2  1  0.658187  0.160318  0.997563  1
  Li  Li3  1  0.846341  0.330143  0.503851  1
  Li  Li4  1  0.920017  0.920017  0.750000  1
  Mn  Mn5  1  0.079009  0.079009  0.250000  1
  Mn  Mn6  1  0.995966  0.511416  0.994499  1
  Mn  Mn7  1  0.511416  0.995966  0.505501  1
  Mn  Mn8  1  0.418741  0.418741  0.250000  1
  Mn  Mn9  1  0.579276  0.579276  0.750000  1
  Sb  Sb10  1  0.250773  0.250773  0.750000  1
  Sb  Sb11  1  0.748199  0.748199  0.250000  1
  O  O12  1  0.990419  0.213881  0.865508  1
  O  O13  1  0.213881  0.990419  0.634492  1
  O  O14  1  0.123751  0.374858  0.370115  1
  O  O15  1  0.374858  0.123751  0.129885  1
  O  O16  1  0.292140  0.511056  0.864195  1
  O  O17  1  0.511056  0.292140  0.635805  1
  O  O18  1  0.473998  0.706214  0.374204  1
  O  O19  1  0.706214  0.473998  0.125796  1
  O  O20  1  0.600669  0.895475  0.867668  1
  O  O21  1  0.895475  0.600669  0.632332  1
  O  O22  1  0.793409  0.025739  0.375359  1
  O  O23  1  0.025739  0.793409  0.124641  1
