# generated using pymatgen
data_Li4Cu3SbO8
_symmetry_space_group_name_H-M   'P 1'
_cell_length_a   10.33378711
_cell_length_b   10.33242682
_cell_length_c   14.58339024
_cell_angle_alpha   19.69921956
_cell_angle_beta   19.70441527
_cell_angle_gamma   33.98391649
_symmetry_Int_Tables_number   1
_chemical_formula_structural   Li4Cu3SbO8
_chemical_formula_sum   'Li4 Cu3 Sb1 O8'
_cell_volume   152.96783212
_cell_formula_units_Z   1
loop_
 _symmetry_equiv_pos_site_id
 _symmetry_equiv_pos_as_xyz
  1  'x, y, z'
loop_
 _atom_site_type_symbol
 _atom_site_label
 _atom_site_symmetry_multiplicity
 _atom_site_fract_x
 _atom_site_fract_y
 _atom_site_fract_z
 _atom_site_occupancy
  Li  Li0  1  0.000000  0.000000  0.500000  1
  Li  Li1  1  0.000000  0.499997  0.500002  1
  Li  Li2  1  0.499997  0.000000  0.500002  1
  Li  Li3  1  0.500003  0.500003  0.499996  1
  Cu  Cu4  1  0.000000  0.499997  0.000002  1
  Cu  Cu5  1  0.499997  0.000000  0.000002  1
  Cu  Cu6  1  0.500002  0.500003  0.999997  1
  Sb  Sb7  1  0.000001  0.000002  0.999998  1
  O  O8  1  0.000153  0.000302  0.266689  1
  O  O9  1  0.998185  0.530872  0.233238  1
  O  O10  1  0.531189  0.998344  0.232959  1
  O  O11  1  0.999848  0.999700  0.733309  1
  O  O12  1  0.468579  0.468791  0.293813  1
  O  O13  1  0.001818  0.469126  0.766762  1
  O  O14  1  0.468810  0.001655  0.767042  1
  O  O15  1  0.531420  0.531209  0.706189  1
