# generated using pymatgen
data_Zr2N2O
_symmetry_space_group_name_H-M   'P 1'
_cell_length_a   8.87770151
_cell_length_b   8.87546078
_cell_length_c   8.86647702
_cell_angle_alpha   109.46636410
_cell_angle_beta   109.46045959
_cell_angle_gamma   109.45060705
_symmetry_Int_Tables_number   1
_chemical_formula_structural   Zr2N2O
_chemical_formula_sum   'Zr16 N16 O8'
_cell_volume   538.04014712
_cell_formula_units_Z   8
loop_
 _symmetry_equiv_pos_site_id
 _symmetry_equiv_pos_as_xyz
  1  'x, y, z'
loop_
 _atom_site_type_symbol
 _atom_site_label
 _atom_site_symmetry_multiplicity
 _atom_site_fract_x
 _atom_site_fract_y
 _atom_site_fract_z
 _atom_site_occupancy
  Zr  Zr0  1  0.490005  0.998526  0.988586  1
  Zr  Zr1  1  0.966054  0.248489  0.207744  1
  Zr  Zr2  1  0.714778  0.473775  0.252394  1
  Zr  Zr3  1  0.785685  0.038195  0.753565  1
  Zr  Zr4  1  0.746254  0.779947  0.028762  1
  Zr  Zr5  1  0.754603  0.289066  0.537062  1
  Zr  Zr6  1  0.543753  0.761455  0.296274  1
  Zr  Zr7  1  0.010712  0.507938  0.999656  1
  Zr  Zr8  1  0.002534  0.000401  0.499290  1
  Zr  Zr9  1  0.502680  0.507973  0.512138  1
  Zr  Zr10  1  0.452796  0.246822  0.719091  1
  Zr  Zr11  1  0.250154  0.214985  0.966667  1
  Zr  Zr12  1  0.256993  0.716444  0.468591  1
  Zr  Zr13  1  0.212884  0.953542  0.242938  1
  Zr  Zr14  1  0.281965  0.530443  0.741699  1
  Zr  Zr15  1  0.034118  0.742510  0.784145  1
  N  N16  1  0.761903  0.036858  0.488634  1
  N  N17  1  0.275452  0.015989  0.048997  1
  N  N18  1  0.771968  0.726566  0.259944  1
  N  N19  1  0.044999  0.273161  0.011701  1
  N  N20  1  0.770637  0.545287  0.529911  1
  N  N21  1  0.272436  0.734934  0.222887  1
  N  N22  1  0.225148  0.448841  0.461374  1
  N  N23  1  0.517216  0.241410  0.969119  1
  N  N24  1  0.543261  0.533348  0.771710  1
  N  N25  1  0.955925  0.728183  0.993575  1
  N  N26  1  0.535261  0.770736  0.545254  1
  N  N27  1  0.222782  0.269148  0.738836  1
  N  N28  1  0.727439  0.987657  0.957230  1
  N  N29  1  0.029905  0.485628  0.760712  1
  N  N30  1  0.235893  0.965764  0.508320  1
  N  N31  1  0.263117  0.773243  0.729454  1
  O  O32  1  0.743965  0.230547  0.275936  1
  O  O33  1  0.962532  0.505959  0.237148  1
  O  O34  1  0.470361  0.227563  0.458286  1
  O  O35  1  0.453797  0.464979  0.226176  1
  O  O36  1  0.725118  0.259653  0.769504  1
  O  O37  1  0.011284  0.048008  0.275407  1
  O  O38  1  0.486910  0.761617  0.035116  1
  O  O39  1  0.986726  0.954412  0.726167  1
