# generated using pymatgen
data_Y2Th5O13
_symmetry_space_group_name_H-M   'P 1'
_cell_length_a   3.92418850
_cell_length_b   3.92418850
_cell_length_c   22.82254976
_cell_angle_alpha   94.93190587
_cell_angle_beta   90.00000000
_cell_angle_gamma   120.00000000
_symmetry_Int_Tables_number   1
_chemical_formula_structural   Y2Th5O13
_chemical_formula_sum   'Y2 Th5 O13'
_cell_volume   302.86141543
_cell_formula_units_Z   1
loop_
 _symmetry_equiv_pos_site_id
 _symmetry_equiv_pos_as_xyz
  1  'x, y, z'
loop_
 _atom_site_type_symbol
 _atom_site_label
 _atom_site_symmetry_multiplicity
 _atom_site_fract_x
 _atom_site_fract_y
 _atom_site_fract_z
 _atom_site_occupancy
  Y  Y0  1  0.999358  0.998716  0.998074  1
  Y  Y1  1  0.716067  0.432135  0.148202  1
  Th  Th2  1  0.427342  0.854684  0.282026  1
  Th  Th3  1  0.142165  0.284331  0.426497  1
  Th  Th4  1  0.856701  0.713401  0.570102  1
  Th  Th5  1  0.285940  0.571881  0.857820  1
  Th  Th6  1  0.571299  0.142598  0.713897  1
  O  O7  1  0.392164  0.784329  0.176493  1
  O  O8  1  0.030451  0.060901  0.091352  1
  O  O9  1  0.106929  0.213860  0.320789  1
  O  O10  1  0.464196  0.928393  0.392589  1
  O  O11  1  0.749433  0.498867  0.248300  1
  O  O12  1  0.821621  0.643243  0.464864  1
  O  O13  1  0.178689  0.357380  0.536069  1
  O  O14  1  0.250815  0.501629  0.752444  1
  O  O15  1  0.536104  0.072209  0.608313  1
  O  O16  1  0.893221  0.786441  0.679661  1
  O  O17  1  0.607744  0.215488  0.823233  1
  O  O18  1  0.326357  0.652712  0.979069  1
  O  O19  1  0.964831  0.929660  0.894491  1
