# generated using pymatgen
data_Li8MgCo13O28
_symmetry_space_group_name_H-M   'P 1'
_cell_length_a   8.29792589
_cell_length_b   8.78748464
_cell_length_c   7.70716249
_cell_angle_alpha   104.31882622
_cell_angle_beta   104.77899730
_cell_angle_gamma   102.49231668
_symmetry_Int_Tables_number   1
_chemical_formula_structural   Li8MgCo13O28
_chemical_formula_sum   'Li8 Mg1 Co13 O28'
_cell_volume   502.55862243
_cell_formula_units_Z   1
loop_
 _symmetry_equiv_pos_site_id
 _symmetry_equiv_pos_as_xyz
  1  'x, y, z'
loop_
 _atom_site_type_symbol
 _atom_site_label
 _atom_site_symmetry_multiplicity
 _atom_site_fract_x
 _atom_site_fract_y
 _atom_site_fract_z
 _atom_site_occupancy
  Li  Li0  1  0.004394  0.494655  0.512771  1
  Li  Li1  1  0.150870  0.353194  0.220896  1
  Li  Li2  1  0.286584  0.217728  0.928018  1
  Li  Li3  1  0.427086  0.074557  0.641783  1
  Li  Li4  1  0.567832  0.928563  0.357589  1
  Li  Li5  1  0.707408  0.787958  0.064193  1
  Li  Li6  1  0.851240  0.643376  0.771281  1
  Li  Li7  1  0.926823  0.573764  0.144170  1
  Mg  Mg8  1  0.500643  0.501520  0.499632  1
  Co  Co9  1  0.137902  0.853016  0.706985  1
  Co  Co10  1  0.075782  0.935952  0.359807  1
  Co  Co11  1  0.003447  0.001732  0.008391  1
  Co  Co12  1  0.217815  0.789321  0.066830  1
  Co  Co13  1  0.281319  0.714190  0.423456  1
  Co  Co14  1  0.356759  0.638840  0.782292  1
  Co  Co15  1  0.427399  0.571683  0.140301  1
  Co  Co16  1  0.577000  0.430295  0.859088  1
  Co  Co17  1  0.638316  0.352278  0.216774  1
  Co  Co18  1  0.716592  0.286525  0.576708  1
  Co  Co19  1  0.785288  0.214236  0.930132  1
  Co  Co20  1  0.925954  0.066516  0.643117  1
  Co  Co21  1  0.859820  0.142254  0.289117  1
  O  O22  1  0.015280  0.189014  0.926909  1
  O  O23  1  0.222746  0.988699  0.998996  1
  O  O24  1  0.055271  0.719061  0.422425  1
  O  O25  1  0.113999  0.665397  0.784098  1
  O  O26  1  0.167834  0.048523  0.642701  1
  O  O27  1  0.084454  0.137764  0.286610  1
  O  O28  1  0.305242  0.907445  0.354782  1
  O  O29  1  0.355982  0.840937  0.687573  1
  O  O30  1  0.260907  0.529361  0.506215  1
  O  O31  1  0.200120  0.591803  0.158283  1
  O  O32  1  0.355258  0.445136  0.880053  1
  O  O33  1  0.448319  0.760660  0.059715  1
  O  O34  1  0.596327  0.618315  0.788942  1
  O  O35  1  0.498447  0.701161  0.397061  1
  O  O36  1  0.502152  0.301971  0.603313  1
  O  O37  1  0.403553  0.381446  0.208224  1
  O  O38  1  0.559034  0.238651  0.937444  1
  O  O39  1  0.653435  0.554768  0.122433  1
  O  O40  1  0.800908  0.419244  0.842462  1
  O  O41  1  0.739340  0.468141  0.489855  1
  O  O42  1  0.639423  0.156516  0.310739  1
  O  O43  1  0.696372  0.101529  0.661737  1
  O  O44  1  0.917428  0.866878  0.713887  1
  O  O45  1  0.837175  0.952769  0.359552  1
  O  O46  1  0.879038  0.331960  0.201211  1
  O  O47  1  0.933670  0.263105  0.551959  1
  O  O48  1  0.786388  0.015952  0.028604  1
  O  O49  1  0.974122  0.803140  0.073922  1
