# generated using pymatgen
data_LiMn2(BO3)2
_symmetry_space_group_name_H-M   'P 1'
_cell_length_a   5.79127256
_cell_length_b   9.16134575
_cell_length_c   12.45248149
_cell_angle_alpha   75.20887397
_cell_angle_beta   91.93687077
_cell_angle_gamma   103.95542741
_symmetry_Int_Tables_number   1
_chemical_formula_structural   LiMn2(BO3)2
_chemical_formula_sum   'Li5 Mn10 B10 O30'
_cell_volume   619.65794942
_cell_formula_units_Z   5
loop_
 _symmetry_equiv_pos_site_id
 _symmetry_equiv_pos_as_xyz
  1  'x, y, z'
loop_
 _atom_site_type_symbol
 _atom_site_label
 _atom_site_symmetry_multiplicity
 _atom_site_fract_x
 _atom_site_fract_y
 _atom_site_fract_z
 _atom_site_occupancy
  Li  Li0  1  0.964115  0.338007  0.708306  1
  Li  Li1  1  0.831288  0.055531  0.500118  1
  Li  Li2  1  0.234511  0.254419  0.097939  1
  Li  Li3  1  0.442100  0.856022  0.898554  1
  Li  Li4  1  0.037474  0.656886  0.297087  1
  Mn  Mn5  1  0.833282  0.437590  0.913325  1
  Mn  Mn6  1  0.752517  0.377963  0.497008  1
  Mn  Mn7  1  0.966455  0.972060  0.289803  1
  Mn  Mn8  1  0.439476  0.232740  0.314354  1
  Mn  Mn9  1  0.645802  0.832612  0.109268  1
  Mn  Mn10  1  0.369704  0.176734  0.885630  1
  Mn  Mn11  1  0.558039  0.744323  0.696334  1
  Mn  Mn12  1  0.038042  0.005870  0.714940  1
  Mn  Mn13  1  0.251607  0.633080  0.506484  1
  Mn  Mn14  1  0.157993  0.571971  0.095367  1
  B  B15  1  0.960786  0.314829  0.291345  1
  B  B16  1  0.838111  0.093423  0.904076  1
  B  B17  1  0.567655  0.099699  0.690368  1
  B  B18  1  0.773073  0.722157  0.484465  1
  B  B19  1  0.627909  0.488504  0.110486  1
  B  B20  1  0.359732  0.515240  0.895746  1
  B  B21  1  0.224717  0.287412  0.517357  1
  B  B22  1  0.436164  0.891013  0.305949  1
  B  B23  1  0.167442  0.918261  0.085696  1
  B  B24  1  0.037499  0.672261  0.711243  1
  O  O25  1  0.979626  0.517544  0.754942  1
  O  O26  1  0.795227  0.250842  0.381249  1
  O  O27  1  0.002367  0.850932  0.176373  1
  O  O28  1  0.669303  0.996851  0.656113  1
  O  O29  1  0.875075  0.620190  0.446723  1
  O  O30  1  0.711531  0.198540  0.920596  1
  O  O31  1  0.899362  0.769076  0.731769  1
  O  O32  1  0.833734  0.554217  0.041072  1
  O  O33  1  0.644838  0.258122  0.650214  1
  O  O34  1  0.840421  0.879980  0.443464  1
  O  O35  1  0.548979  0.333894  0.151060  1
  O  O36  1  0.762808  0.939004  0.945806  1
  O  O37  1  0.394259  0.041398  0.778021  1
  O  O38  1  0.601563  0.659167  0.569916  1
  O  O39  1  0.474488  0.415063  0.866773  1
  O  O40  1  0.500681  0.594434  0.125531  1
  O  O41  1  0.425216  0.353254  0.444569  1
  O  O42  1  0.642790  0.954656  0.237128  1
  O  O43  1  0.223364  0.075462  0.041596  1
  O  O44  1  0.422661  0.672938  0.849349  1
  O  O45  1  0.146558  0.132703  0.555779  1
  O  O46  1  0.357018  0.735676  0.345264  1
  O  O47  1  0.184109  0.451108  0.980824  1
  O  O48  1  0.068553  0.217224  0.252501  1
  O  O49  1  0.273834  0.818643  0.048637  1
  O  O50  1  0.098257  0.390976  0.542579  1
  O  O51  1  0.307092  0.994932  0.322958  1
  O  O52  1  0.037760  0.159702  0.827711  1
  O  O53  1  0.237526  0.743682  0.639361  1
  O  O54  1  0.022042  0.473228  0.248796  1
