# generated using pymatgen
data_Li6V3P8O29
_symmetry_space_group_name_H-M   'P 1'
_cell_length_a   9.78940744
_cell_length_b   9.80183183
_cell_length_c   13.96457948
_cell_angle_alpha   90.33880711
_cell_angle_beta   90.43878798
_cell_angle_gamma   60.24224392
_symmetry_Int_Tables_number   1
_chemical_formula_structural   Li6V3P8O29
_chemical_formula_sum   'Li12 V6 P16 O58'
_cell_volume   1163.22325123
_cell_formula_units_Z   2
loop_
 _symmetry_equiv_pos_site_id
 _symmetry_equiv_pos_as_xyz
  1  'x, y, z'
loop_
 _atom_site_type_symbol
 _atom_site_label
 _atom_site_symmetry_multiplicity
 _atom_site_fract_x
 _atom_site_fract_y
 _atom_site_fract_z
 _atom_site_occupancy
  Li  Li0  1  0.902039  0.333741  0.558454  1
  Li  Li1  1  0.671814  0.670518  0.889473  1
  Li  Li2  1  0.775127  0.308600  0.063424  1
  Li  Li3  1  0.309987  0.912632  0.063279  1
  Li  Li4  1  0.661361  0.234264  0.437942  1
  Li  Li5  1  0.331867  0.763165  0.559155  1
  Li  Li6  1  0.685976  0.088230  0.938596  1
  Li  Li7  1  0.223100  0.683261  0.945256  1
  Li  Li8  1  0.096950  0.663691  0.436846  1
  Li  Li9  1  0.234639  0.097896  0.439179  1
  Li  Li10  1  0.092303  0.224677  0.943647  1
  Li  Li11  1  0.968505  0.979464  0.500557  1
  V  V12  1  0.566115  0.433228  0.250613  1
  V  V13  1  0.435407  0.566207  0.750881  1
  V  V14  1  0.571261  0.998656  0.745237  1
  V  V15  1  0.437709  0.001387  0.251590  1
  V  V16  1  0.999545  0.569004  0.247221  1
  V  V17  1  0.001604  0.436895  0.748139  1
  P  P18  1  0.912395  0.773294  0.837990  1
  P  P19  1  0.779977  0.916224  0.338662  1
  P  P20  1  0.913755  0.316537  0.341867  1
  P  P21  1  0.663906  0.668281  0.130096  1
  P  P22  1  0.667513  0.663564  0.629931  1
  P  P23  1  0.772026  0.321288  0.843338  1
  P  P24  1  0.684976  0.229633  0.658489  1
  P  P25  1  0.322007  0.910531  0.843340  1
  P  P26  1  0.681460  0.087092  0.154410  1
  P  P27  1  0.314617  0.773794  0.343208  1
  P  P28  1  0.230781  0.679267  0.159741  1
  P  P29  1  0.333138  0.332816  0.372430  1
  P  P30  1  0.335687  0.332529  0.870216  1
  P  P31  1  0.084908  0.689554  0.653039  1
  P  P32  1  0.227813  0.084610  0.657625  1
  P  P33  1  0.088182  0.230834  0.158732  1
  O  O34  1  0.011855  0.774046  0.561005  1
  O  O35  1  0.921411  0.746646  0.339788  1
  O  O36  1  0.750366  0.009009  0.062029  1
  O  O37  1  0.745177  0.920907  0.840371  1
  O  O38  1  0.888331  0.627839  0.824415  1
  O  O39  1  0.809159  0.671084  0.173583  1
  O  O40  1  0.914122  0.471759  0.330285  1
  O  O41  1  0.996066  0.245789  0.068608  1
  O  O42  1  0.923716  0.331717  0.845814  1
  O  O43  1  0.677828  0.804080  0.673410  1
  O  O44  1  0.622754  0.916353  0.332606  1
  O  O45  1  0.813820  0.506846  0.671081  1
  O  O46  1  0.658661  0.669260  0.022673  1
  O  O47  1  0.663438  0.653948  0.523533  1
  O  O48  1  0.668102  0.515093  0.167387  1
  O  O49  1  0.487439  0.890161  0.825723  1
  O  O50  1  0.511335  0.816986  0.170297  1
  O  O51  1  0.743869  0.342683  0.341201  1
  O  O52  1  0.791362  0.211526  0.751868  1
  O  O53  1  0.776717  0.222046  0.569782  1
  O  O54  1  0.748951  0.248211  0.931689  1
  O  O55  1  0.631100  0.488961  0.825118  1
  O  O56  1  0.512143  0.672703  0.672523  1
  O  O57  1  0.665646  0.253507  0.161921  1
  O  O58  1  0.470997  0.621398  0.330352  1
  O  O59  1  0.335440  0.919144  0.343423  1
  O  O60  1  0.799826  0.990572  0.240627  1
  O  O61  1  0.793151  0.010459  0.419946  1
  O  O62  1  0.228748  0.995224  0.568704  1
  O  O63  1  0.658377  0.087462  0.662244  1
  O  O64  1  0.529403  0.384406  0.668285  1
  O  O65  1  0.337040  0.746382  0.846842  1
  O  O66  1  0.489169  0.321029  0.334169  1
  O  O67  1  0.380967  0.519062  0.179208  1
  O  O68  1  0.247006  0.754111  0.070507  1
  O  O69  1  0.223053  0.774988  0.430830  1
  O  O70  1  0.208255  0.793088  0.249198  1
  O  O71  1  0.252219  0.667024  0.662520  1
  O  O72  1  0.484162  0.185601  0.830251  1
  O  O73  1  0.519845  0.102071  0.176233  1
  O  O74  1  0.337408  0.482731  0.829133  1
  O  O75  1  0.325955  0.337703  0.976577  1
  O  O76  1  0.332423  0.325637  0.479370  1
  O  O77  1  0.189358  0.488096  0.332841  1
  O  O78  1  0.380807  0.089119  0.672728  1
  O  O79  1  0.322485  0.187281  0.329464  1
  O  O80  1  0.086997  0.656187  0.160367  1
  O  O81  1  0.985794  0.799706  0.741293  1
  O  O82  1  0.011302  0.760344  0.921867  1
  O  O83  1  0.086023  0.532729  0.665636  1
  O  O84  1  0.183558  0.337275  0.824501  1
  O  O85  1  0.104169  0.376505  0.178414  1
  O  O86  1  0.249977  0.080962  0.158882  1
  O  O87  1  0.245528  0.004960  0.932051  1
  O  O88  1  0.211392  0.996541  0.751435  1
  O  O89  1  0.082547  0.250028  0.657679  1
  O  O90  1  0.999709  0.225777  0.430677  1
  O  O91  1  0.995300  0.210379  0.248480  1
