# generated using pymatgen
data_Cu3OF5
_symmetry_space_group_name_H-M   'P 1'
_cell_length_a   7.51255873
_cell_length_b   4.59455399
_cell_length_c   5.91396887
_cell_angle_alpha   93.73918895
_cell_angle_beta   89.23723867
_cell_angle_gamma   89.29177704
_symmetry_Int_Tables_number   1
_chemical_formula_structural   Cu3OF5
_chemical_formula_sum   'Cu6 O2 F10'
_cell_volume   203.66111840
_cell_formula_units_Z   2
loop_
 _symmetry_equiv_pos_site_id
 _symmetry_equiv_pos_as_xyz
  1  'x, y, z'
loop_
 _atom_site_type_symbol
 _atom_site_label
 _atom_site_symmetry_multiplicity
 _atom_site_fract_x
 _atom_site_fract_y
 _atom_site_fract_z
 _atom_site_occupancy
  Cu  Cu0  1  0.007423  0.981642  0.990432  1
  Cu  Cu1  1  0.992853  0.530310  0.524358  1
  Cu  Cu2  1  0.330688  0.004929  0.331996  1
  Cu  Cu3  1  0.676879  0.513032  0.191625  1
  Cu  Cu4  1  0.324492  0.510956  0.835841  1
  Cu  Cu5  1  0.668715  0.986733  0.658802  1
  O  O6  1  0.106512  0.696170  0.799490  1
  O  O7  1  0.772394  0.698941  0.471968  1
  F  F8  1  0.223111  0.200300  0.011544  1
  F  F9  1  0.113748  0.798880  0.314171  1
  F  F10  1  0.444362  0.702124  0.146786  1
  F  F11  1  0.219502  0.303533  0.518797  1
  F  F12  1  0.551132  0.208020  0.346974  1
  F  F13  1  0.445183  0.795418  0.650301  1
  F  F14  1  0.901815  0.286295  0.187907  1
  F  F15  1  0.555997  0.297162  0.853430  1
  F  F16  1  0.882794  0.194814  0.680779  1
  F  F17  1  0.782400  0.790742  0.984799  1
