# generated using pymatgen
data_Li4Cu5F17
_symmetry_space_group_name_H-M   'P 1'
_cell_length_a   6.45307431
_cell_length_b   9.53467640
_cell_length_c   11.37776218
_cell_angle_alpha   73.20826950
_cell_angle_beta   85.06236797
_cell_angle_gamma   69.86969390
_symmetry_Int_Tables_number   1
_chemical_formula_structural   Li4Cu5F17
_chemical_formula_sum   'Li8 Cu10 F34'
_cell_volume   629.19088496
_cell_formula_units_Z   2
loop_
 _symmetry_equiv_pos_site_id
 _symmetry_equiv_pos_as_xyz
  1  'x, y, z'
loop_
 _atom_site_type_symbol
 _atom_site_label
 _atom_site_symmetry_multiplicity
 _atom_site_fract_x
 _atom_site_fract_y
 _atom_site_fract_z
 _atom_site_occupancy
  Li  Li0  1  0.021334  0.235030  0.031889  1
  Li  Li1  1  0.245648  0.068537  0.356848  1
  Li  Li2  1  0.208506  0.582542  0.324667  1
  Li  Li3  1  0.202306  0.720333  0.551649  1
  Li  Li4  1  0.797694  0.279667  0.448351  1
  Li  Li5  1  0.791494  0.417458  0.675333  1
  Li  Li6  1  0.754352  0.931463  0.643152  1
  Li  Li7  1  0.978666  0.764970  0.968111  1
  Cu  Cu8  1  0.185002  0.041738  0.656164  1
  Cu  Cu9  1  0.350748  0.314370  0.620664  1
  Cu  Cu10  1  0.301907  0.450567  0.840075  1
  Cu  Cu11  1  0.523665  0.285160  0.194266  1
  Cu  Cu12  1  0.594718  0.126078  0.985311  1
  Cu  Cu13  1  0.405282  0.873922  0.014689  1
  Cu  Cu14  1  0.476335  0.714840  0.805734  1
  Cu  Cu15  1  0.698093  0.549433  0.159925  1
  Cu  Cu16  1  0.649252  0.685630  0.379336  1
  Cu  Cu17  1  0.814998  0.958262  0.343836  1
  F  F18  1  0.070099  0.999173  0.280344  1
  F  F19  1  0.077929  0.130363  0.490164  1
  F  F20  1  0.085041  0.255207  0.678349  1
  F  F21  1  0.048303  0.405972  0.896392  1
  F  F22  1  0.318404  0.082828  0.034228  1
  F  F23  1  0.263220  0.245952  0.239261  1
  F  F24  1  0.248287  0.396372  0.457146  1
  F  F25  1  0.216724  0.515186  0.657150  1
  F  F26  1  0.146809  0.832604  0.055026  1
  F  F27  1  0.459365  0.097143  0.610255  1
  F  F28  1  0.444548  0.339175  0.008458  1
  F  F29  1  0.206791  0.661062  0.859341  1
  F  F30  1  0.440326  0.249855  0.801191  1
  F  F31  1  0.426720  0.495117  0.213703  1
  F  F32  1  0.670185  0.071185  0.178071  1
  F  F33  1  0.367051  0.665980  0.415586  1
  F  F34  1  0.678729  0.163190  0.370787  1
  F  F35  1  0.321271  0.836810  0.629213  1
  F  F36  1  0.632949  0.334020  0.584414  1
  F  F37  1  0.329815  0.928815  0.821929  1
  F  F38  1  0.573280  0.504883  0.786297  1
  F  F39  1  0.559674  0.750145  0.198809  1
  F  F40  1  0.793209  0.338938  0.140659  1
  F  F41  1  0.555452  0.660825  0.991542  1
  F  F42  1  0.540635  0.902857  0.389745  1
  F  F43  1  0.853191  0.167396  0.944974  1
  F  F44  1  0.783276  0.484814  0.342850  1
  F  F45  1  0.751713  0.603628  0.542854  1
  F  F46  1  0.736780  0.754048  0.760739  1
  F  F47  1  0.681596  0.917172  0.965772  1
  F  F48  1  0.951697  0.594028  0.103608  1
  F  F49  1  0.914959  0.744793  0.321651  1
  F  F50  1  0.922071  0.869637  0.509836  1
  F  F51  1  0.929901  0.000827  0.719656  1
