# generated using pymatgen
data_LiCoSiO4
_symmetry_space_group_name_H-M   'P 1'
_cell_length_a   5.38404225
_cell_length_b   5.54626337
_cell_length_c   6.19355988
_cell_angle_alpha   86.92051874
_cell_angle_beta   89.98931804
_cell_angle_gamma   89.99546936
_symmetry_Int_Tables_number   1
_chemical_formula_structural   LiCoSiO4
_chemical_formula_sum   'Li2 Co2 Si2 O8'
_cell_volume   184.68077707
_cell_formula_units_Z   2
loop_
 _symmetry_equiv_pos_site_id
 _symmetry_equiv_pos_as_xyz
  1  'x, y, z'
loop_
 _atom_site_type_symbol
 _atom_site_label
 _atom_site_symmetry_multiplicity
 _atom_site_fract_x
 _atom_site_fract_y
 _atom_site_fract_z
 _atom_site_occupancy
  Li  Li0  1  0.327225  0.326793  0.278304  1
  Li  Li1  1  0.672782  0.826795  0.778266  1
  Co  Co2  1  0.170776  0.994825  0.996338  1
  Co  Co3  1  0.829274  0.494712  0.496338  1
  Si  Si4  1  0.681382  0.996182  0.260153  1
  Si  Si5  1  0.318625  0.496247  0.760157  1
  O  O6  1  0.702073  0.285610  0.305602  1
  O  O7  1  0.212521  0.330419  0.966932  1
  O  O8  1  0.169783  0.439556  0.535781  1
  O  O9  1  0.618949  0.452935  0.735209  1
  O  O10  1  0.297921  0.785701  0.805524  1
  O  O11  1  0.787405  0.830324  0.466897  1
  O  O12  1  0.830235  0.939594  0.035696  1
  O  O13  1  0.381049  0.952994  0.235170  1
