# generated using pymatgen
data_MoO3
_symmetry_space_group_name_H-M   'P 1'
_cell_length_a   5.20367265
_cell_length_b   5.32089527
_cell_length_c   9.18954515
_cell_angle_alpha   73.78100607
_cell_angle_beta   90.00000000
_cell_angle_gamma   90.00000000
_symmetry_Int_Tables_number   1
_chemical_formula_structural   MoO3
_chemical_formula_sum   'Mo4 O12'
_cell_volume   244.31544056
_cell_formula_units_Z   4
loop_
 _symmetry_equiv_pos_site_id
 _symmetry_equiv_pos_as_xyz
  1  'x, y, z'
loop_
 _atom_site_type_symbol
 _atom_site_label
 _atom_site_symmetry_multiplicity
 _atom_site_fract_x
 _atom_site_fract_y
 _atom_site_fract_z
 _atom_site_occupancy
  Mo  Mo0  1  0.013845  0.981816  0.958047  1
  Mo  Mo1  1  0.486155  0.481816  0.958047  1
  Mo  Mo2  1  0.518398  0.706086  0.472936  1
  Mo  Mo3  1  0.981602  0.206086  0.472936  1
  O  O4  1  0.219986  0.940206  0.480823  1
  O  O5  1  0.280014  0.440206  0.480823  1
  O  O6  1  0.421533  0.572251  0.767465  1
  O  O7  1  0.078467  0.072251  0.767465  1
  O  O8  1  0.791577  0.471792  0.547357  1
  O  O9  1  0.708423  0.971792  0.547357  1
  O  O10  1  0.592730  0.808603  0.284442  1
  O  O11  1  0.907270  0.308603  0.284442  1
  O  O12  1  0.254108  0.718353  0.034265  1
  O  O13  1  0.245892  0.218353  0.034265  1
  O  O14  1  0.742060  0.749693  0.975466  1
  O  O15  1  0.757940  0.249693  0.975466  1
