# generated using pymatgen
data_Li24Ti7Cr5O36
_symmetry_space_group_name_H-M   'P 1'
_cell_length_a   5.08396469
_cell_length_b   13.38236543
_cell_length_c   9.80677905
_cell_angle_alpha   97.04844346
_cell_angle_beta   95.05397790
_cell_angle_gamma   100.71444559
_symmetry_Int_Tables_number   1
_chemical_formula_structural   Li24Ti7Cr5O36
_chemical_formula_sum   'Li24 Ti7 Cr5 O36'
_cell_volume   646.40055170
_cell_formula_units_Z   1
loop_
 _symmetry_equiv_pos_site_id
 _symmetry_equiv_pos_as_xyz
  1  'x, y, z'
loop_
 _atom_site_type_symbol
 _atom_site_label
 _atom_site_symmetry_multiplicity
 _atom_site_fract_x
 _atom_site_fract_y
 _atom_site_fract_z
 _atom_site_occupancy
  Li  Li0  1  0.838716  0.165024  0.999865  1
  Li  Li1  1  0.949438  0.388531  0.999183  1
  Li  Li2  1  0.999813  0.749686  0.250103  1
  Li  Li3  1  0.667158  0.084308  0.249990  1
  Li  Li4  1  0.951530  0.887230  0.499872  1
  Li  Li5  1  0.618097  0.220668  0.502621  1
  Li  Li6  1  0.836715  0.665197  0.499277  1
  Li  Li7  1  0.499510  0.999922  0.500451  1
  Li  Li8  1  0.711410  0.447676  0.500062  1
  Li  Li9  1  0.667023  0.583582  0.750142  1
  Li  Li10  1  0.506821  0.497801  0.999363  1
  Li  Li11  1  0.713023  0.946412  0.998889  1
  Li  Li12  1  0.380445  0.279440  0.998395  1
  Li  Li13  1  0.613917  0.719566  0.998151  1
  Li  Li14  1  0.290206  0.055458  0.001953  1
  Li  Li15  1  0.333837  0.417788  0.249878  1
  Li  Li16  1  0.282185  0.552902  0.499947  1
  Li  Li17  1  0.171398  0.331424  0.501694  1
  Li  Li18  1  0.386491  0.781551  0.501800  1
  Li  Li19  1  0.044073  0.113262  0.498561  1
  Li  Li20  1  0.332803  0.915574  0.750252  1
  Li  Li21  1  0.162301  0.834134  0.999556  1
  Li  Li22  1  0.001259  0.250640  0.749808  1
  Li  Li23  1  0.050503  0.613103  0.001947  1
  Ti  Ti24  1  0.888621  0.025087  0.750298  1
  Ti  Ti25  1  0.777452  0.303997  0.249670  1
  Ti  Ti26  1  0.440796  0.139277  0.748272  1
  Ti  Ti27  1  0.555605  0.860093  0.249840  1
  Ti  Ti28  1  0.442489  0.635501  0.249815  1
  Ti  Ti29  1  0.111010  0.475303  0.752237  1
  Ti  Ti30  1  0.109337  0.974132  0.249160  1
  Cr  Cr31  1  0.890600  0.527664  0.250623  1
  Cr  Cr32  1  0.774302  0.801217  0.749302  1
  Cr  Cr33  1  0.560050  0.361274  0.749511  1
  Cr  Cr34  1  0.226060  0.196878  0.250844  1
  Cr  Cr35  1  0.224751  0.697915  0.750369  1
  O  O36  1  0.999459  0.073719  0.138030  1
  O  O37  1  0.927698  0.215941  0.366789  1
  O  O38  1  0.002375  0.573366  0.637338  1
  O  O39  1  0.847307  0.356978  0.637525  1
  O  O40  1  0.735457  0.117678  0.634202  1
  O  O41  1  0.667640  0.406419  0.138618  1
  O  O42  1  0.923268  0.716712  0.864150  1
  O  O43  1  0.812555  0.478780  0.863309  1
  O  O44  1  0.597674  0.048310  0.866091  1
  O  O45  1  0.856236  0.856909  0.136065  1
  O  O46  1  0.741207  0.616159  0.135867  1
  O  O47  1  0.527168  0.190862  0.135924  1
  O  O48  1  0.670175  0.265654  0.862187  1
  O  O49  1  0.809913  0.977116  0.363252  1
  O  O50  1  0.592716  0.546948  0.366864  1
  O  O51  1  0.469102  0.308406  0.361810  1
  O  O52  1  0.667397  0.761446  0.363641  1
  O  O53  1  0.335082  0.098124  0.361553  1
  O  O54  1  0.664601  0.901771  0.637898  1
  O  O55  1  0.328455  0.237685  0.637269  1
  O  O56  1  0.531180  0.692017  0.637959  1
  O  O57  1  0.405245  0.451597  0.635553  1
  O  O58  1  0.190272  0.022770  0.635974  1
  O  O59  1  0.331115  0.736759  0.136155  1
  O  O60  1  0.467548  0.807290  0.861736  1
  O  O61  1  0.267920  0.381525  0.863507  1
  O  O62  1  0.143459  0.142865  0.863379  1
  O  O63  1  0.402246  0.951794  0.133724  1
  O  O64  1  0.192550  0.521656  0.136304  1
  O  O65  1  0.074826  0.283189  0.135294  1
  O  O66  1  0.333824  0.598015  0.862798  1
  O  O67  1  0.263748  0.882200  0.365928  1
  O  O68  1  0.136305  0.641014  0.361805  1
  O  O69  1  0.000125  0.430735  0.362401  1
  O  O70  1  0.075867  0.782537  0.635791  1
  O  O71  1  0.998542  0.925837  0.861606  1
