# generated using pymatgen
data_Li3Fe4(BO3)4
_symmetry_space_group_name_H-M   'P 1'
_cell_length_a   5.25119450
_cell_length_b   9.05982668
_cell_length_c   10.19564154
_cell_angle_alpha   89.85560322
_cell_angle_beta   91.55704166
_cell_angle_gamma   89.61375509
_symmetry_Int_Tables_number   1
_chemical_formula_structural   Li3Fe4(BO3)4
_chemical_formula_sum   'Li6 Fe8 B8 O24'
_cell_volume   484.86486049
_cell_formula_units_Z   2
loop_
 _symmetry_equiv_pos_site_id
 _symmetry_equiv_pos_as_xyz
  1  'x, y, z'
loop_
 _atom_site_type_symbol
 _atom_site_label
 _atom_site_symmetry_multiplicity
 _atom_site_fract_x
 _atom_site_fract_y
 _atom_site_fract_z
 _atom_site_occupancy
  Li  Li0  1  0.334467  0.006509  0.841918  1
  Li  Li1  1  0.662001  0.006521  0.090424  1
  Li  Li2  1  0.160932  0.503253  0.095022  1
  Li  Li3  1  0.844146  0.488562  0.337056  1
  Li  Li4  1  0.841824  0.512254  0.834163  1
  Li  Li5  1  0.648281  0.988955  0.581219  1
  Fe  Fe6  1  0.172778  0.158689  0.126262  1
  Fe  Fe7  1  0.841799  0.153244  0.364882  1
  Fe  Fe8  1  0.331380  0.339084  0.869979  1
  Fe  Fe9  1  0.658189  0.334299  0.617075  1
  Fe  Fe10  1  0.338763  0.673480  0.368994  1
  Fe  Fe11  1  0.155404  0.829544  0.618910  1
  Fe  Fe12  1  0.658412  0.664382  0.114933  1
  Fe  Fe13  1  0.837861  0.841610  0.872004  1
  B  B14  1  0.168986  0.166467  0.623754  1
  B  B15  1  0.335229  0.340726  0.372666  1
  B  B16  1  0.834734  0.170941  0.868645  1
  B  B17  1  0.663103  0.330811  0.123585  1
  B  B18  1  0.333680  0.668780  0.875084  1
  B  B19  1  0.657672  0.668599  0.620862  1
  B  B20  1  0.163806  0.834563  0.122722  1
  B  B21  1  0.824509  0.825623  0.373983  1
  O  O22  1  0.295149  0.034255  0.637165  1
  O  O23  1  0.093395  0.165157  0.900508  1
  O  O24  1  0.687579  0.046320  0.883472  1
  O  O25  1  0.208138  0.215052  0.337374  1
  O  O26  1  0.300084  0.297514  0.650741  1
  O  O27  1  0.781213  0.195768  0.153056  1
  O  O28  1  0.906428  0.171970  0.590175  1
  O  O29  1  0.407684  0.336372  0.083390  1
  O  O30  1  0.213358  0.476098  0.359605  1
  O  O31  1  0.596356  0.336208  0.416555  1
  O  O32  1  0.720452  0.304723  0.825063  1
  O  O33  1  0.187047  0.543375  0.892239  1
  O  O34  1  0.802966  0.459576  0.137263  1
  O  O35  1  0.274606  0.699001  0.164857  1
  O  O36  1  0.417865  0.677923  0.562620  1
  O  O37  1  0.773746  0.532268  0.642677  1
  O  O38  1  0.595247  0.662518  0.905124  1
  O  O39  1  0.081219  0.816859  0.407695  1
  O  O40  1  0.219914  0.800040  0.833544  1
  O  O41  1  0.703444  0.694038  0.332467  1
  O  O42  1  0.779358  0.797465  0.659794  1
  O  O43  1  0.313407  0.956621  0.112498  1
  O  O44  1  0.905418  0.838062  0.087210  1
  O  O45  1  0.693797  0.954702  0.387720  1
