# generated using pymatgen
data_Li2AsPCO7
_symmetry_space_group_name_H-M   'P 1'
_cell_length_a   8.94338738
_cell_length_b   6.54174130
_cell_length_c   5.09745307
_cell_angle_alpha   90.00000000
_cell_angle_beta   93.92856431
_cell_angle_gamma   90.00000000
_symmetry_Int_Tables_number   1
_chemical_formula_structural   Li2AsPCO7
_chemical_formula_sum   'Li4 As2 P2 C2 O14'
_cell_volume   297.52739390
_cell_formula_units_Z   2
loop_
 _symmetry_equiv_pos_site_id
 _symmetry_equiv_pos_as_xyz
  1  'x, y, z'
loop_
 _atom_site_type_symbol
 _atom_site_label
 _atom_site_symmetry_multiplicity
 _atom_site_fract_x
 _atom_site_fract_y
 _atom_site_fract_z
 _atom_site_occupancy
  Li  Li0  1  0.231552  0.457856  0.240376  1
  Li  Li1  1  0.231552  0.042144  0.240376  1
  Li  Li2  1  0.768448  0.542144  0.759624  1
  Li  Li3  1  0.768448  0.957856  0.759624  1
  As  As4  1  0.353089  0.750000  0.820402  1
  As  As5  1  0.646911  0.250000  0.179598  1
  P  P6  1  0.395565  0.250000  0.746021  1
  P  P7  1  0.604435  0.750000  0.253979  1
  C  C8  1  0.069678  0.750000  0.724568  1
  C  C9  1  0.930322  0.250000  0.275432  1
  O  O10  1  0.069170  0.250000  0.257779  1
  O  O11  1  0.160943  0.750000  0.953084  1
  O  O12  1  0.141417  0.750000  0.514066  1
  O  O13  1  0.328225  0.062972  0.884575  1
  O  O14  1  0.328225  0.437028  0.884575  1
  O  O15  1  0.426832  0.750000  0.189873  1
  O  O16  1  0.365458  0.250000  0.449046  1
  O  O17  1  0.634542  0.750000  0.550954  1
  O  O18  1  0.573168  0.250000  0.810127  1
  O  O19  1  0.671775  0.562972  0.115426  1
  O  O20  1  0.671775  0.937028  0.115426  1
  O  O21  1  0.858583  0.250000  0.485934  1
  O  O22  1  0.839057  0.250000  0.046916  1
  O  O23  1  0.930830  0.750000  0.742221  1
