# generated using pymatgen
data_H3ClO5
_symmetry_space_group_name_H-M   'P 1'
_cell_length_a   9.69612808
_cell_length_b   6.57576985
_cell_length_c   7.86737611
_cell_angle_alpha   90.00000000
_cell_angle_beta   90.00000000
_cell_angle_gamma   90.00000000
_symmetry_Int_Tables_number   1
_chemical_formula_structural   H3ClO5
_chemical_formula_sum   'H12 Cl4 O20'
_cell_volume   501.62001972
_cell_formula_units_Z   4
loop_
 _symmetry_equiv_pos_site_id
 _symmetry_equiv_pos_as_xyz
  1  'x, y, z'
loop_
 _atom_site_type_symbol
 _atom_site_label
 _atom_site_symmetry_multiplicity
 _atom_site_fract_x
 _atom_site_fract_y
 _atom_site_fract_z
 _atom_site_occupancy
  H  H0  1  0.091481  0.635169  0.217592  1
  H  H1  1  0.591481  0.864831  0.282408  1
  H  H2  1  0.908519  0.135169  0.782408  1
  H  H3  1  0.408519  0.364831  0.717592  1
  H  H4  1  0.908519  0.364831  0.782408  1
  H  H5  1  0.408519  0.135169  0.717592  1
  H  H6  1  0.091481  0.864831  0.217592  1
  H  H7  1  0.591481  0.635169  0.282408  1
  H  H8  1  0.384098  0.750000  0.832354  1
  H  H9  1  0.884098  0.750000  0.667646  1
  H  H10  1  0.615902  0.250000  0.167646  1
  H  H11  1  0.115902  0.250000  0.332354  1
  Cl  Cl12  1  0.904431  0.250000  0.252474  1
  Cl  Cl13  1  0.404431  0.250000  0.247526  1
  Cl  Cl14  1  0.095569  0.750000  0.747526  1
  Cl  Cl15  1  0.595569  0.750000  0.752474  1
  O  O16  1  0.783638  0.250000  0.357377  1
  O  O17  1  0.283638  0.250000  0.142623  1
  O  O18  1  0.216362  0.750000  0.642623  1
  O  O19  1  0.716362  0.750000  0.857377  1
  O  O20  1  0.029083  0.250000  0.399060  1
  O  O21  1  0.529083  0.250000  0.100940  1
  O  O22  1  0.970917  0.750000  0.600940  1
  O  O23  1  0.470917  0.750000  0.899060  1
  O  O24  1  0.923493  0.067464  0.157011  1
  O  O25  1  0.423493  0.432536  0.342989  1
  O  O26  1  0.076507  0.567464  0.842989  1
  O  O27  1  0.576507  0.932536  0.657011  1
  O  O28  1  0.076507  0.932536  0.842989  1
  O  O29  1  0.576507  0.567464  0.657011  1
  O  O30  1  0.923493  0.432536  0.157011  1
  O  O31  1  0.423493  0.067464  0.342989  1
  O  O32  1  0.153640  0.750000  0.228415  1
  O  O33  1  0.653640  0.750000  0.271585  1
  O  O34  1  0.846360  0.250000  0.771585  1
  O  O35  1  0.346360  0.250000  0.728415  1
