# generated using pymatgen
data_TmBiO3
_symmetry_space_group_name_H-M   'P 1'
_cell_length_a   5.94949497
_cell_length_b   6.09074771
_cell_length_c   5.94949510
_cell_angle_alpha   119.23575616
_cell_angle_beta   60.00000063
_cell_angle_gamma   119.23575597
_symmetry_Int_Tables_number   1
_chemical_formula_structural   TmBiO3
_chemical_formula_sum   'Tm2 Bi2 O6'
_cell_volume   154.18324430
_cell_formula_units_Z   2
loop_
 _symmetry_equiv_pos_site_id
 _symmetry_equiv_pos_as_xyz
  1  'x, y, z'
loop_
 _atom_site_type_symbol
 _atom_site_label
 _atom_site_symmetry_multiplicity
 _atom_site_fract_x
 _atom_site_fract_y
 _atom_site_fract_z
 _atom_site_occupancy
  Tm  Tm0  1  0.142997  0.428993  0.142997  1
  Tm  Tm1  1  0.857003  0.571007  0.857003  1
  Bi  Bi2  1  0.357923  0.073767  0.357923  1
  Bi  Bi3  1  0.642077  0.926233  0.642077  1
  O  O4  1  0.010712  0.250568  0.454302  1
  O  O5  1  0.545698  0.749432  0.214446  1
  O  O6  1  0.214446  0.749432  0.989288  1
  O  O7  1  0.785554  0.250568  0.010712  1
  O  O8  1  0.454302  0.250568  0.785554  1
  O  O9  1  0.989288  0.749432  0.545698  1
