# generated using pymatgen
data_Rb6Te3P6(H13O20)2
_symmetry_space_group_name_H-M   'P 1'
_cell_length_a   11.42432489
_cell_length_b   8.16624301
_cell_length_c   11.91156488
_cell_angle_alpha   111.21583417
_cell_angle_beta   104.91552149
_cell_angle_gamma   83.41388398
_symmetry_Int_Tables_number   1
_chemical_formula_structural   Rb6Te3P6(H13O20)2
_chemical_formula_sum   'Rb6 Te3 P6 H26 O40'
_cell_volume   1000.76568746
_cell_formula_units_Z   1
loop_
 _symmetry_equiv_pos_site_id
 _symmetry_equiv_pos_as_xyz
  1  'x, y, z'
loop_
 _atom_site_type_symbol
 _atom_site_label
 _atom_site_symmetry_multiplicity
 _atom_site_fract_x
 _atom_site_fract_y
 _atom_site_fract_z
 _atom_site_occupancy
  Rb  Rb0  1  0.903594  0.497695  0.798749  1
  Rb  Rb1  1  0.096406  0.502305  0.201251  1
  Rb  Rb2  1  0.718727  0.216759  0.195252  1
  Rb  Rb3  1  0.281273  0.783241  0.804748  1
  Rb  Rb4  1  0.693776  0.988146  0.602602  1
  Rb  Rb5  1  0.306224  0.011854  0.397398  1
  Te  Te6  1  0.000000  0.000000  0.000000  1
  Te  Te7  1  0.000000  0.000000  0.500000  1
  Te  Te8  1  0.500000  0.500000  0.500000  1
  P  P9  1  0.569275  0.839696  0.227678  1
  P  P10  1  0.430725  0.160304  0.772322  1
  P  P11  1  0.775990  0.618686  0.137831  1
  P  P12  1  0.224010  0.381314  0.862169  1
  P  P13  1  0.637354  0.398551  0.897030  1
  P  P14  1  0.362646  0.601449  0.102970  1
  H  H15  1  0.853471  0.227462  0.951522  1
  H  H16  1  0.146529  0.772538  0.048478  1
  H  H17  1  0.898744  0.842355  0.093342  1
  H  H18  1  0.101256  0.157645  0.906658  1
  H  H19  1  0.789789  0.892652  0.896753  1
  H  H20  1  0.210211  0.107348  0.103247  1
  H  H21  1  0.874725  0.727105  0.384935  1
  H  H22  1  0.125275  0.272895  0.615065  1
  H  H23  1  0.873060  0.251361  0.468413  1
  H  H24  1  0.126940  0.748639  0.531587  1
  H  H25  1  0.001459  0.933551  0.275593  1
  H  H26  1  0.998541  0.066449  0.724407  1
  H  H27  1  0.546848  0.186698  0.393211  1
  H  H28  1  0.453152  0.813302  0.606789  1
  H  H29  1  0.605829  0.567536  0.722732  1
  H  H30  1  0.394171  0.432464  0.277268  1
  H  H31  1  0.600565  0.612111  0.377508  1
  H  H32  1  0.399435  0.387889  0.622492  1
  H  H33  1  0.593295  0.930499  0.871925  1
  H  H34  1  0.406705  0.069501  0.128075  1
  H  H35  1  0.643885  0.798552  0.941229  1
  H  H36  1  0.356115  0.201448  0.058771  1
  H  H37  1  0.906732  0.579109  0.525576  1
  H  H38  1  0.093268  0.420891  0.474424  1
  H  H39  1  0.780648  0.508501  0.509331  1
  H  H40  1  0.219352  0.491499  0.490669  1
  O  O41  1  0.915686  0.228183  0.028319  1
  O  O42  1  0.084314  0.771817  0.971681  1
  O  O43  1  0.930797  0.966243  0.125851  1
  O  O44  1  0.069203  0.033757  0.874149  1
  O  O45  1  0.866524  0.880813  0.865391  1
  O  O46  1  0.133476  0.119187  0.134609  1
  O  O47  1  0.896673  0.808259  0.474660  1
  O  O48  1  0.103327  0.191741  0.525340  1
  O  O49  1  0.859578  0.122064  0.428572  1
  O  O50  1  0.140422  0.877936  0.571428  1
  O  O51  1  0.958749  0.120437  0.660916  1
  O  O52  1  0.041251  0.879563  0.339084  1
  O  O53  1  0.555622  0.257785  0.482799  1
  O  O54  1  0.444378  0.742215  0.517201  1
  O  O55  1  0.628343  0.581225  0.650289  1
  O  O56  1  0.371657  0.418775  0.349711  1
  O  O57  1  0.618698  0.509770  0.408615  1
  O  O58  1  0.381302  0.490230  0.591385  1
  O  O59  1  0.534831  0.029063  0.240557  1
  O  O60  1  0.465169  0.970937  0.759443  1
  O  O61  1  0.584570  0.789470  0.339473  1
  O  O62  1  0.415430  0.210530  0.660527  1
  O  O63  1  0.689045  0.794331  0.171577  1
  O  O64  1  0.310955  0.205669  0.828423  1
  O  O65  1  0.527240  0.283126  0.889398  1
  O  O66  1  0.472760  0.716874  0.110602  1
  O  O67  1  0.681506  0.464445  0.048224  1
  O  O68  1  0.318494  0.535555  0.951776  1
  O  O69  1  0.831574  0.573771  0.251653  1
  O  O70  1  0.168426  0.426229  0.748347  1
  O  O71  1  0.855345  0.648763  0.064379  1
  O  O72  1  0.144655  0.351237  0.935621  1
  O  O73  1  0.733107  0.278370  0.840934  1
  O  O74  1  0.266893  0.721630  0.159066  1
  O  O75  1  0.589846  0.552488  0.856483  1
  O  O76  1  0.410154  0.447512  0.143517  1
  O  O77  1  0.661641  0.911011  0.936997  1
  O  O78  1  0.338359  0.088989  0.063003  1
  O  O79  1  0.868101  0.489131  0.539803  1
  O  O80  1  0.131899  0.510869  0.460197  1
