# generated using pymatgen
data_Hf2N2O
_symmetry_space_group_name_H-M   'P 1'
_cell_length_a   10.19378889
_cell_length_b   5.43663384
_cell_length_c   5.47590760
_cell_angle_alpha   60.60288368
_cell_angle_beta   104.49645337
_cell_angle_gamma   104.98433299
_symmetry_Int_Tables_number   1
_chemical_formula_structural   Hf2N2O
_chemical_formula_sum   'Hf8 N8 O4'
_cell_volume   252.64738643
_cell_formula_units_Z   4
loop_
 _symmetry_equiv_pos_site_id
 _symmetry_equiv_pos_as_xyz
  1  'x, y, z'
loop_
 _atom_site_type_symbol
 _atom_site_label
 _atom_site_symmetry_multiplicity
 _atom_site_fract_x
 _atom_site_fract_y
 _atom_site_fract_z
 _atom_site_occupancy
  Hf  Hf0  1  0.963588  0.307783  0.313280  1
  Hf  Hf1  1  0.535658  0.169712  0.182117  1
  Hf  Hf2  1  0.714493  0.588754  0.559381  1
  Hf  Hf3  1  0.214298  0.080094  0.047609  1
  Hf  Hf4  1  0.785952  0.912579  0.933065  1
  Hf  Hf5  1  0.284916  0.432933  0.419811  1
  Hf  Hf6  1  0.465301  0.799579  0.832126  1
  Hf  Hf7  1  0.035653  0.680776  0.689456  1
  N  N8  1  0.873970  0.915841  0.324638  1
  N  N9  1  0.621810  0.581679  0.171652  1
  N  N10  1  0.874525  0.616080  0.925427  1
  N  N11  1  0.627817  0.887923  0.575630  1
  N  N12  1  0.376860  0.830169  0.132140  1
  N  N13  1  0.125372  0.378324  0.080099  1
  N  N14  1  0.370059  0.422200  0.826857  1
  N  N15  1  0.121324  0.079240  0.672389  1
  O  O16  1  0.875726  0.319295  0.626485  1
  O  O17  1  0.625924  0.188451  0.871192  1
  O  O18  1  0.379061  0.127241  0.436878  1
  O  O19  1  0.127693  0.681350  0.379766  1
