# generated using pymatgen
data_Li12VCo3P4(CO7)4
_symmetry_space_group_name_H-M   'P 1'
_cell_length_a   8.44785743
_cell_length_b   9.99893107
_cell_length_c   6.51585557
_cell_angle_alpha   90.00000000
_cell_angle_beta   90.00000000
_cell_angle_gamma   84.72730401
_symmetry_Int_Tables_number   1
_chemical_formula_structural   Li12VCo3P4(CO7)4
_chemical_formula_sum   'Li12 V1 Co3 P4 C4 O28'
_cell_volume   548.06242583
_cell_formula_units_Z   1
loop_
 _symmetry_equiv_pos_site_id
 _symmetry_equiv_pos_as_xyz
  1  'x, y, z'
loop_
 _atom_site_type_symbol
 _atom_site_label
 _atom_site_symmetry_multiplicity
 _atom_site_fract_x
 _atom_site_fract_y
 _atom_site_fract_z
 _atom_site_occupancy
  Li  Li0  1  0.097301  0.384956  0.250000  1
  Li  Li1  1  0.099515  0.884369  0.250000  1
  Li  Li2  1  0.276303  0.126016  0.020716  1
  Li  Li3  1  0.276303  0.126016  0.479284  1
  Li  Li4  1  0.276921  0.625515  0.018765  1
  Li  Li5  1  0.276921  0.625515  0.481235  1
  Li  Li6  1  0.722095  0.372196  0.523629  1
  Li  Li7  1  0.722095  0.372196  0.976371  1
  Li  Li8  1  0.722894  0.875900  0.522821  1
  Li  Li9  1  0.722894  0.875900  0.977179  1
  Li  Li10  1  0.901586  0.115786  0.750000  1
  Li  Li11  1  0.900293  0.615759  0.750000  1
  V  V12  1  0.671179  0.603942  0.250000  1
  Co  Co13  1  0.331715  0.394832  0.750000  1
  Co  Co14  1  0.331536  0.893921  0.750000  1
  Co  Co15  1  0.668248  0.105450  0.250000  1
  P  P16  1  0.411302  0.360721  0.250000  1
  P  P17  1  0.412423  0.861084  0.250000  1
  P  P18  1  0.586865  0.138622  0.750000  1
  P  P19  1  0.587834  0.638984  0.750000  1
  C  C20  1  0.036890  0.349260  0.750000  1
  C  C21  1  0.036962  0.849551  0.750000  1
  C  C22  1  0.962427  0.150782  0.250000  1
  C  C23  1  0.965690  0.652202  0.250000  1
  O  O24  1  0.072237  0.472565  0.750000  1
  O  O25  1  0.108475  0.181579  0.250000  1
  O  O26  1  0.072125  0.972651  0.750000  1
  O  O27  1  0.154041  0.254603  0.750000  1
  O  O28  1  0.111718  0.680204  0.250000  1
  O  O29  1  0.154218  0.754828  0.750000  1
  O  O30  1  0.307340  0.412718  0.063458  1
  O  O31  1  0.307340  0.412718  0.436542  1
  O  O32  1  0.308871  0.912520  0.062976  1
  O  O33  1  0.308871  0.912520  0.437024  1
  O  O34  1  0.420654  0.086428  0.750000  1
  O  O35  1  0.433310  0.203854  0.250000  1
  O  O36  1  0.421073  0.587078  0.750000  1
  O  O37  1  0.430991  0.704373  0.250000  1
  O  O38  1  0.565982  0.295810  0.750000  1
  O  O39  1  0.578185  0.411902  0.250000  1
  O  O40  1  0.565608  0.796145  0.750000  1
  O  O41  1  0.578778  0.913952  0.250000  1
  O  O42  1  0.691530  0.087492  0.936369  1
  O  O43  1  0.691530  0.087492  0.563631  1
  O  O44  1  0.693527  0.585685  0.566862  1
  O  O45  1  0.693527  0.585685  0.933138  1
  O  O46  1  0.845141  0.245678  0.250000  1
  O  O47  1  0.890982  0.318399  0.750000  1
  O  O48  1  0.850234  0.748209  0.250000  1
  O  O49  1  0.927183  0.027789  0.250000  1
  O  O50  1  0.890922  0.818675  0.750000  1
  O  O51  1  0.927418  0.528972  0.250000  1
