# generated using pymatgen
data_LiVCrP2(HO5)2
_symmetry_space_group_name_H-M   'P 1'
_cell_length_a   10.62580700
_cell_length_b   7.36767127
_cell_length_c   5.20819842
_cell_angle_alpha   109.77003178
_cell_angle_beta   98.15138944
_cell_angle_gamma   105.94629180
_symmetry_Int_Tables_number   1
_chemical_formula_structural   LiVCrP2(HO5)2
_chemical_formula_sum   'Li2 V2 Cr2 P4 H4 O20'
_cell_volume   356.30981230
_cell_formula_units_Z   2
loop_
 _symmetry_equiv_pos_site_id
 _symmetry_equiv_pos_as_xyz
  1  'x, y, z'
loop_
 _atom_site_type_symbol
 _atom_site_label
 _atom_site_symmetry_multiplicity
 _atom_site_fract_x
 _atom_site_fract_y
 _atom_site_fract_z
 _atom_site_occupancy
  Li  Li0  1  0.207596  0.855247  0.783215  1
  Li  Li1  1  0.792404  0.144753  0.216785  1
  V  V2  1  0.000000  0.500000  0.000000  1
  V  V3  1  0.500000  0.500000  0.000000  1
  Cr  Cr4  1  0.000000  0.000000  0.000000  1
  Cr  Cr5  1  0.500000  0.000000  0.000000  1
  P  P6  1  0.176525  0.222949  0.675280  1
  P  P7  1  0.324723  0.770625  0.321944  1
  P  P8  1  0.675277  0.229375  0.678056  1
  P  P9  1  0.823475  0.777051  0.324720  1
  H  H10  1  0.031909  0.346745  0.355141  1
  H  H11  1  0.486778  0.662351  0.651100  1
  H  H12  1  0.513222  0.337649  0.348900  1
  H  H13  1  0.968091  0.653255  0.644859  1
  O  O14  1  0.021646  0.718041  0.844524  1
  O  O15  1  0.096066  0.378148  0.733983  1
  O  O16  1  0.171605  0.653794  0.288312  1
  O  O17  1  0.121218  0.071760  0.368302  1
  O  O18  1  0.162957  0.108282  0.874213  1
  O  O19  1  0.333750  0.873259  0.109552  1
  O  O20  1  0.373650  0.928843  0.630363  1
  O  O21  1  0.327532  0.347995  0.727188  1
  O  O22  1  0.405908  0.621133  0.283333  1
  O  O23  1  0.515301  0.718847  0.859486  1
  O  O24  1  0.484699  0.281153  0.140514  1
  O  O25  1  0.594092  0.378867  0.716667  1
  O  O26  1  0.672468  0.652005  0.272812  1
  O  O27  1  0.626350  0.071157  0.369637  1
  O  O28  1  0.666250  0.126741  0.890448  1
  O  O29  1  0.837043  0.891718  0.125787  1
  O  O30  1  0.878782  0.928240  0.631698  1
  O  O31  1  0.828395  0.346206  0.711688  1
  O  O32  1  0.903933  0.621852  0.266017  1
  O  O33  1  0.978354  0.281959  0.155476  1
