# generated using pymatgen
data_VAsO4
_symmetry_space_group_name_H-M   'P 1'
_cell_length_a   7.85338434
_cell_length_b   6.14224006
_cell_length_c   6.53460422
_cell_angle_alpha   90.00000000
_cell_angle_beta   113.63613007
_cell_angle_gamma   90.00000000
_symmetry_Int_Tables_number   1
_chemical_formula_structural   VAsO4
_chemical_formula_sum   'V4 As4 O16'
_cell_volume   288.76901714
_cell_formula_units_Z   4
loop_
 _symmetry_equiv_pos_site_id
 _symmetry_equiv_pos_as_xyz
  1  'x, y, z'
loop_
 _atom_site_type_symbol
 _atom_site_label
 _atom_site_symmetry_multiplicity
 _atom_site_fract_x
 _atom_site_fract_y
 _atom_site_fract_z
 _atom_site_occupancy
  V  V0  1  0.289464  0.118807  0.418074  1
  V  V1  1  0.210536  0.618807  0.081926  1
  V  V2  1  0.789464  0.381193  0.918074  1
  V  V3  1  0.710536  0.881193  0.581926  1
  As  As4  1  0.146953  0.110451  0.850642  1
  As  As5  1  0.353047  0.610451  0.649358  1
  As  As6  1  0.646953  0.389549  0.350642  1
  As  As7  1  0.853047  0.889549  0.149358  1
  O  O8  1  0.939901  0.029428  0.650817  1
  O  O9  1  0.070277  0.330212  0.966900  1
  O  O10  1  0.200033  0.679720  0.762674  1
  O  O11  1  0.249319  0.457325  0.403822  1
  O  O12  1  0.299967  0.179720  0.737326  1
  O  O13  1  0.250681  0.957325  0.096178  1
  O  O14  1  0.429723  0.830212  0.533100  1
  O  O15  1  0.560099  0.529428  0.849183  1
  O  O16  1  0.439901  0.470572  0.150817  1
  O  O17  1  0.570277  0.169788  0.466900  1
  O  O18  1  0.749319  0.042675  0.903822  1
  O  O19  1  0.700033  0.820280  0.262674  1
  O  O20  1  0.750681  0.542675  0.596178  1
  O  O21  1  0.799967  0.320280  0.237326  1
  O  O22  1  0.929723  0.669788  0.033100  1
  O  O23  1  0.060099  0.970572  0.349183  1
