# generated using pymatgen
data_Sn2OF2
_symmetry_space_group_name_H-M   'P 1'
_cell_length_a   8.04110267
_cell_length_b   8.04110163
_cell_length_c   5.64574046
_cell_angle_alpha   89.99995289
_cell_angle_beta   89.99974305
_cell_angle_gamma   90.00000342
_symmetry_Int_Tables_number   1
_chemical_formula_structural   Sn2OF2
_chemical_formula_sum   'Sn8 O4 F8'
_cell_volume   365.04976042
_cell_formula_units_Z   4
loop_
 _symmetry_equiv_pos_site_id
 _symmetry_equiv_pos_as_xyz
  1  'x, y, z'
loop_
 _atom_site_type_symbol
 _atom_site_label
 _atom_site_symmetry_multiplicity
 _atom_site_fract_x
 _atom_site_fract_y
 _atom_site_fract_z
 _atom_site_occupancy
  Sn  Sn0  1  0.024862  0.250000  0.559086  1
  Sn  Sn1  1  0.250000  0.024860  0.059085  1
  Sn  Sn2  1  0.249998  0.475138  0.059084  1
  Sn  Sn3  1  0.475137  0.249997  0.559086  1
  Sn  Sn4  1  0.524860  0.749996  0.440914  1
  Sn  Sn5  1  0.749999  0.524858  0.940914  1
  Sn  Sn6  1  0.750000  0.975137  0.940915  1
  Sn  Sn7  1  0.975139  0.749998  0.440912  1
  O  O8  1  0.249997  0.249995  0.351738  1
  O  O9  1  0.249996  0.249998  0.851735  1
  O  O10  1  0.749996  0.749996  0.148264  1
  O  O11  1  0.749999  0.749997  0.648266  1
  F  F12  1  0.045959  0.545951  0.750001  1
  F  F13  1  0.045941  0.954060  0.750003  1
  F  F14  1  0.454057  0.545939  0.750002  1
  F  F15  1  0.454058  0.954064  0.749999  1
  F  F16  1  0.545936  0.045942  0.249999  1
  F  F17  1  0.545940  0.454055  0.250003  1
  F  F18  1  0.954044  0.045940  0.250003  1
  F  F19  1  0.954064  0.454061  0.249990  1
