# generated using pymatgen
data_La(ClO4)3
_symmetry_space_group_name_H-M   'P 1'
_cell_length_a   9.55596237
_cell_length_b   9.55614262
_cell_length_c   5.96292236
_cell_angle_alpha   90.00000000
_cell_angle_beta   90.00000000
_cell_angle_gamma   120.00094664
_symmetry_Int_Tables_number   1
_chemical_formula_structural   La(ClO4)3
_chemical_formula_sum   'La2 Cl6 O24'
_cell_volume   471.56623038
_cell_formula_units_Z   2
loop_
 _symmetry_equiv_pos_site_id
 _symmetry_equiv_pos_as_xyz
  1  'x, y, z'
loop_
 _atom_site_type_symbol
 _atom_site_label
 _atom_site_symmetry_multiplicity
 _atom_site_fract_x
 _atom_site_fract_y
 _atom_site_fract_z
 _atom_site_occupancy
  La  La0  1  0.333351  0.666675  0.750000  1
  La  La1  1  0.666669  0.333333  0.250000  1
  Cl  Cl2  1  0.091599  0.710043  0.250000  1
  Cl  Cl3  1  0.289976  0.381576  0.250000  1
  Cl  Cl4  1  0.618449  0.908403  0.250000  1
  Cl  Cl5  1  0.381559  0.091596  0.750000  1
  Cl  Cl6  1  0.710037  0.618427  0.750000  1
  Cl  Cl7  1  0.908403  0.289957  0.750000  1
  O  O8  1  0.019464  0.808752  0.250000  1
  O  O9  1  0.029128  0.463738  0.750000  1
  O  O10  1  0.194972  0.743265  0.051195  1
  O  O11  1  0.194972  0.743265  0.448805  1
  O  O12  1  0.434615  0.970877  0.750000  1
  O  O13  1  0.256741  0.451713  0.448804  1
  O  O14  1  0.256741  0.451713  0.051196  1
  O  O15  1  0.191242  0.210717  0.250000  1
  O  O16  1  0.548299  0.805026  0.051194  1
  O  O17  1  0.548299  0.805026  0.448806  1
  O  O18  1  0.210700  0.019455  0.750000  1
  O  O19  1  0.463738  0.434616  0.250000  1
  O  O20  1  0.536263  0.565383  0.750000  1
  O  O21  1  0.789304  0.980548  0.250000  1
  O  O22  1  0.451711  0.194973  0.551189  1
  O  O23  1  0.451711  0.194973  0.948811  1
  O  O24  1  0.808754  0.789282  0.750000  1
  O  O25  1  0.743265  0.548290  0.948804  1
  O  O26  1  0.743265  0.548290  0.551196  1
  O  O27  1  0.565384  0.029116  0.250000  1
  O  O28  1  0.805035  0.256734  0.948803  1
  O  O29  1  0.805035  0.256734  0.551197  1
  O  O30  1  0.970879  0.536262  0.250000  1
  O  O31  1  0.980539  0.191245  0.750000  1
