# generated using pymatgen
data_Na2LiFePCO7
_symmetry_space_group_name_H-M   'P 1'
_cell_length_a   8.85570565
_cell_length_b   6.66255578
_cell_length_c   10.31479975
_cell_angle_alpha   89.54361688
_cell_angle_beta   88.36064618
_cell_angle_gamma   89.40483912
_symmetry_Int_Tables_number   1
_chemical_formula_structural   Na2LiFePCO7
_chemical_formula_sum   'Na8 Li4 Fe4 P4 C4 O28'
_cell_volume   608.29021179
_cell_formula_units_Z   4
loop_
 _symmetry_equiv_pos_site_id
 _symmetry_equiv_pos_as_xyz
  1  'x, y, z'
loop_
 _atom_site_type_symbol
 _atom_site_label
 _atom_site_symmetry_multiplicity
 _atom_site_fract_x
 _atom_site_fract_y
 _atom_site_fract_z
 _atom_site_occupancy
  Na  Na0  1  0.081726  0.243273  0.880972  1
  Na  Na1  1  0.081605  0.245623  0.380037  1
  Na  Na2  1  0.260488  0.999549  0.625524  1
  Na  Na3  1  0.260054  0.500044  0.624640  1
  Na  Na4  1  0.259548  0.500802  0.126450  1
  Na  Na5  1  0.741375  0.503308  0.875541  1
  Na  Na6  1  0.738335  0.502875  0.377679  1
  Na  Na7  1  0.739397  0.996120  0.373930  1
  Li  Li8  1  0.275571  0.016019  0.118485  1
  Li  Li9  1  0.728830  0.985415  0.876512  1
  Li  Li10  1  0.906926  0.758639  0.626493  1
  Li  Li11  1  0.910898  0.763988  0.124891  1
  Fe  Fe12  1  0.350768  0.750380  0.892919  1
  Fe  Fe13  1  0.351911  0.752573  0.390155  1
  Fe  Fe14  1  0.648354  0.247509  0.612058  1
  Fe  Fe15  1  0.651124  0.247599  0.108822  1
  P  P16  1  0.416973  0.244070  0.854119  1
  P  P17  1  0.411682  0.246465  0.350851  1
  P  P18  1  0.595366  0.752759  0.650537  1
  P  P19  1  0.589002  0.755008  0.145817  1
  C  C20  1  0.045957  0.759104  0.864779  1
  C  C21  1  0.053287  0.752542  0.359786  1
  C  C22  1  0.939741  0.246371  0.638100  1
  C  C23  1  0.947368  0.240394  0.133693  1
  O  O24  1  0.084771  0.253280  0.646230  1
  O  O25  1  0.093111  0.226353  0.139589  1
  O  O26  1  0.088793  0.749182  0.984551  1
  O  O27  1  0.092689  0.751539  0.481331  1
  O  O28  1  0.148393  0.752937  0.770753  1
  O  O29  1  0.156850  0.759903  0.267714  1
  O  O30  1  0.315517  0.064803  0.899506  1
  O  O31  1  0.329152  0.438056  0.896363  1
  O  O32  1  0.315863  0.063925  0.398067  1
  O  O33  1  0.316553  0.437749  0.387209  1
  O  O34  1  0.434343  0.246127  0.702828  1
  O  O35  1  0.440579  0.747574  0.584360  1
  O  O36  1  0.432202  0.236000  0.199720  1
  O  O37  1  0.431246  0.771573  0.084707  1
  O  O38  1  0.575432  0.229441  0.912918  1
  O  O39  1  0.570160  0.767640  0.800867  1
  O  O40  1  0.567365  0.249813  0.414451  1
  O  O41  1  0.566266  0.757558  0.296220  1
  O  O42  1  0.692975  0.562696  0.617978  1
  O  O43  1  0.695154  0.930981  0.602114  1
  O  O44  1  0.677252  0.560754  0.106023  1
  O  O45  1  0.696008  0.929678  0.100835  1
  O  O46  1  0.853185  0.237392  0.741596  1
  O  O47  1  0.862807  0.245055  0.239311  1
  O  O48  1  0.877419  0.248376  0.524605  1
  O  O49  1  0.881481  0.250464  0.022743  1
  O  O50  1  0.905041  0.774501  0.835898  1
  O  O51  1  0.913108  0.746224  0.328721  1
