# generated using pymatgen
data_Li2V3CrO8
_symmetry_space_group_name_H-M   'P 1'
_cell_length_a   8.47753016
_cell_length_b   8.46114466
_cell_length_c   8.35828193
_cell_angle_alpha   90.03997090
_cell_angle_beta   90.37625378
_cell_angle_gamma   90.02213860
_symmetry_Int_Tables_number   1
_chemical_formula_structural   Li2V3CrO8
_chemical_formula_sum   'Li8 V12 Cr4 O32'
_cell_volume   599.52317678
_cell_formula_units_Z   4
loop_
 _symmetry_equiv_pos_site_id
 _symmetry_equiv_pos_as_xyz
  1  'x, y, z'
loop_
 _atom_site_type_symbol
 _atom_site_label
 _atom_site_symmetry_multiplicity
 _atom_site_fract_x
 _atom_site_fract_y
 _atom_site_fract_z
 _atom_site_occupancy
  Li  Li0  1  0.001756  0.004434  0.004913  1
  Li  Li1  1  0.245955  0.247603  0.247086  1
  Li  Li2  1  0.256240  0.757770  0.744780  1
  Li  Li3  1  0.494874  0.997637  0.505190  1
  Li  Li4  1  0.505183  0.497606  0.994187  1
  Li  Li5  1  0.743658  0.257581  0.754999  1
  Li  Li6  1  0.753770  0.748048  0.252326  1
  Li  Li7  1  0.997310  0.504002  0.494815  1
  V  V8  1  0.121397  0.128029  0.628439  1
  V  V9  1  0.124104  0.380834  0.867973  1
  V  V10  1  0.129370  0.621473  0.122839  1
  V  V11  1  0.371706  0.373011  0.621592  1
  V  V12  1  0.377888  0.626500  0.372358  1
  V  V13  1  0.378058  0.869693  0.125748  1
  V  V14  1  0.621333  0.369039  0.373742  1
  V  V15  1  0.621659  0.126841  0.129203  1
  V  V16  1  0.628407  0.874244  0.878747  1
  V  V17  1  0.871913  0.121456  0.377096  1
  V  V18  1  0.876055  0.880662  0.632299  1
  V  V19  1  0.878671  0.628265  0.872362  1
  Cr  Cr20  1  0.126028  0.875202  0.374251  1
  Cr  Cr21  1  0.377012  0.124256  0.874944  1
  Cr  Cr22  1  0.623227  0.624409  0.624898  1
  Cr  Cr23  1  0.874013  0.375007  0.125352  1
  O  O24  1  0.108723  0.114976  0.394020  1
  O  O25  1  0.110776  0.892720  0.614487  1
  O  O26  1  0.115836  0.619331  0.883077  1
  O  O27  1  0.135557  0.137789  0.855725  1
  O  O28  1  0.113998  0.397174  0.116415  1
  O  O29  1  0.137134  0.361340  0.624504  1
  O  O30  1  0.141254  0.636967  0.360477  1
  O  O31  1  0.139006  0.850730  0.131855  1
  O  O32  1  0.356564  0.139759  0.632560  1
  O  O33  1  0.365209  0.367167  0.849734  1
  O  O34  1  0.366290  0.621178  0.142640  1
  O  O35  1  0.383825  0.611746  0.604388  1
  O  O36  1  0.364723  0.857099  0.366441  1
  O  O37  1  0.383684  0.383922  0.391197  1
  O  O38  1  0.389648  0.113976  0.116254  1
  O  O39  1  0.393073  0.888423  0.887680  1
  O  O40  1  0.606961  0.388602  0.612282  1
  O  O41  1  0.609983  0.612175  0.383113  1
  O  O42  1  0.615830  0.885552  0.109541  1
  O  O43  1  0.635201  0.356563  0.132017  1
  O  O44  1  0.615615  0.111782  0.894756  1
  O  O45  1  0.634567  0.120740  0.358659  1
  O  O46  1  0.634973  0.866835  0.650238  1
  O  O47  1  0.643528  0.640294  0.867412  1
  O  O48  1  0.860213  0.350488  0.367840  1
  O  O49  1  0.859131  0.136529  0.140079  1
  O  O50  1  0.862806  0.861805  0.875877  1
  O  O51  1  0.885906  0.896845  0.384043  1
  O  O52  1  0.864409  0.637633  0.644674  1
  O  O53  1  0.884870  0.119131  0.616893  1
  O  O54  1  0.889538  0.392470  0.885341  1
  O  O55  1  0.891587  0.614795  0.105782  1
