# generated using pymatgen
data_Li6V3P8O29
_symmetry_space_group_name_H-M   'P 1'
_cell_length_a   9.80230917
_cell_length_b   9.79625241
_cell_length_c   13.98197824
_cell_angle_alpha   90.01042916
_cell_angle_beta   90.28571893
_cell_angle_gamma   60.39531147
_symmetry_Int_Tables_number   1
_chemical_formula_structural   Li6V3P8O29
_chemical_formula_sum   'Li12 V6 P16 O58'
_cell_volume   1167.33888651
_cell_formula_units_Z   2
loop_
 _symmetry_equiv_pos_site_id
 _symmetry_equiv_pos_as_xyz
  1  'x, y, z'
loop_
 _atom_site_type_symbol
 _atom_site_label
 _atom_site_symmetry_multiplicity
 _atom_site_fract_x
 _atom_site_fract_y
 _atom_site_fract_z
 _atom_site_occupancy
  Li  Li0  1  0.760742  0.906506  0.558193  1
  Li  Li1  1  0.900559  0.337245  0.561768  1
  Li  Li2  1  0.672531  0.666103  0.888695  1
  Li  Li3  1  0.768201  0.323187  0.061978  1
  Li  Li4  1  0.324661  0.908205  0.058802  1
  Li  Li5  1  0.331472  0.763920  0.562812  1
  Li  Li6  1  0.681496  0.088273  0.939372  1
  Li  Li7  1  0.322482  0.345091  0.109514  1
  Li  Li8  1  0.097002  0.665763  0.438045  1
  Li  Li9  1  0.234773  0.098786  0.440975  1
  Li  Li10  1  0.038096  0.940774  0.996448  1
  Li  Li11  1  0.944931  0.039585  0.493344  1
  V  V12  1  0.562599  0.436853  0.254562  1
  V  V13  1  0.438183  0.559448  0.749193  1
  V  V14  1  0.562850  0.000184  0.749459  1
  V  V15  1  0.436237  0.000640  0.249237  1
  V  V16  1  0.997975  0.566417  0.244478  1
  V  V17  1  0.001689  0.435893  0.754587  1
  P  P18  1  0.913687  0.781830  0.843479  1
  P  P19  1  0.776591  0.912677  0.340339  1
  P  P20  1  0.917626  0.311395  0.342784  1
  P  P21  1  0.661159  0.668100  0.129141  1
  P  P22  1  0.666514  0.666410  0.629170  1
  P  P23  1  0.773983  0.316223  0.843931  1
  P  P24  1  0.695523  0.221714  0.657974  1
  P  P25  1  0.315633  0.905368  0.842831  1
  P  P26  1  0.685336  0.092424  0.156756  1
  P  P27  1  0.313791  0.772306  0.345776  1
  P  P28  1  0.221457  0.690096  0.160293  1
  P  P29  1  0.329060  0.335915  0.369051  1
  P  P30  1  0.338116  0.328778  0.870245  1
  P  P31  1  0.082501  0.689995  0.656743  1
  P  P32  1  0.223931  0.088967  0.660490  1
  P  P33  1  0.088191  0.219282  0.157513  1
  O  O34  1  0.997612  0.774593  0.565905  1
  O  O35  1  0.917944  0.743947  0.335285  1
  O  O36  1  0.763921  0.010108  0.066578  1
  O  O37  1  0.743341  0.921912  0.840461  1
  O  O38  1  0.899559  0.630147  0.833257  1
  O  O39  1  0.806091  0.668429  0.172037  1
  O  O40  1  0.925548  0.463370  0.327225  1
  O  O41  1  0.989740  0.215273  0.077411  1
  O  O42  1  0.917531  0.340475  0.839646  1
  O  O43  1  0.671325  0.815178  0.670717  1
  O  O44  1  0.618619  0.915100  0.329658  1
  O  O45  1  0.811394  0.515634  0.671449  1
  O  O46  1  0.655619  0.666621  0.021694  1
  O  O47  1  0.667203  0.669295  0.522316  1
  O  O48  1  0.658847  0.519796  0.169471  1
  O  O49  1  0.478707  0.895845  0.829744  1
  O  O50  1  0.510391  0.818891  0.167389  1
  O  O51  1  0.749559  0.344313  0.337506  1
  O  O52  1  0.788675  0.201417  0.758444  1
  O  O53  1  0.805870  0.205606  0.578928  1
  O  O54  1  0.765210  0.237704  0.934520  1
  O  O55  1  0.627949  0.481408  0.828584  1
  O  O56  1  0.512699  0.674314  0.669022  1
  O  O57  1  0.664737  0.258704  0.160904  1
  O  O58  1  0.472464  0.623356  0.331112  1
  O  O59  1  0.331496  0.920003  0.341557  1
  O  O60  1  0.793731  0.002155  0.248527  1
  O  O61  1  0.789138  0.988733  0.431074  1
  O  O62  1  0.227480  0.000829  0.570559  1
  O  O63  1  0.662736  0.083262  0.656654  1
  O  O64  1  0.544756  0.381341  0.663200  1
  O  O65  1  0.344781  0.737348  0.834957  1
  O  O66  1  0.476954  0.335130  0.323139  1
  O  O67  1  0.374288  0.529826  0.166092  1
  O  O68  1  0.211175  0.795823  0.079986  1
  O  O69  1  0.231751  0.768597  0.436508  1
  O  O70  1  0.199703  0.786310  0.258339  1
  O  O71  1  0.251118  0.662133  0.658301  1
  O  O72  1  0.487975  0.177099  0.832404  1
  O  O73  1  0.519742  0.109341  0.172500  1
  O  O74  1  0.347060  0.469060  0.823128  1
  O  O75  1  0.346067  0.328313  0.977059  1
  O  O76  1  0.329228  0.330854  0.475477  1
  O  O77  1  0.185832  0.489409  0.328789  1
  O  O78  1  0.376977  0.094906  0.673515  1
  O  O79  1  0.324463  0.187902  0.326632  1
  O  O80  1  0.083870  0.654587  0.159115  1
  O  O81  1  0.991513  0.800640  0.745296  1
  O  O82  1  0.003045  0.792056  0.925911  1
  O  O83  1  0.080528  0.534735  0.671989  1
  O  O84  1  0.189636  0.332965  0.828527  1
  O  O85  1  0.103671  0.369340  0.166415  1
  O  O86  1  0.257384  0.077951  0.155840  1
  O  O87  1  0.232831  0.983888  0.933242  1
  O  O88  1  0.205275  0.000592  0.752336  1
  O  O89  1  0.079627  0.255098  0.661118  1
  O  O90  1  0.998237  0.226845  0.435251  1
  O  O91  1  0.016643  0.196280  0.257119  1
