# generated using pymatgen
data_LiFeOF2
_symmetry_space_group_name_H-M   'P 1'
_cell_length_a   5.29250271
_cell_length_b   8.81395212
_cell_length_c   9.53806050
_cell_angle_alpha   93.27956105
_cell_angle_beta   90.00000000
_cell_angle_gamma   90.00000000
_symmetry_Int_Tables_number   1
_chemical_formula_structural   LiFeOF2
_chemical_formula_sum   'Li8 Fe8 O8 F16'
_cell_volume   444.20149526
_cell_formula_units_Z   8
loop_
 _symmetry_equiv_pos_site_id
 _symmetry_equiv_pos_as_xyz
  1  'x, y, z'
loop_
 _atom_site_type_symbol
 _atom_site_label
 _atom_site_symmetry_multiplicity
 _atom_site_fract_x
 _atom_site_fract_y
 _atom_site_fract_z
 _atom_site_occupancy
  Li  Li0  1  0.180369  0.169012  0.996808  1
  Li  Li1  1  0.153048  0.831597  0.786705  1
  Li  Li2  1  0.346952  0.331597  0.286705  1
  Li  Li3  1  0.319631  0.669012  0.496808  1
  Li  Li4  1  0.674653  0.357558  0.993920  1
  Li  Li5  1  0.661295  0.652026  0.804501  1
  Li  Li6  1  0.838705  0.152026  0.304501  1
  Li  Li7  1  0.825347  0.857558  0.493920  1
  Fe  Fe8  1  0.177027  0.484092  0.809221  1
  Fe  Fe9  1  0.206796  0.137219  0.580605  1
  Fe  Fe10  1  0.293204  0.637219  0.080605  1
  Fe  Fe11  1  0.322973  0.984092  0.309221  1
  Fe  Fe12  1  0.641346  0.016101  0.801158  1
  Fe  Fe13  1  0.634037  0.333126  0.566954  1
  Fe  Fe14  1  0.865963  0.833126  0.066954  1
  Fe  Fe15  1  0.858654  0.516101  0.301158  1
  O  O16  1  0.041856  0.018085  0.434239  1
  O  O17  1  0.015711  0.674613  0.938388  1
  O  O18  1  0.172416  0.833015  0.172144  1
  O  O19  1  0.160253  0.497392  0.206200  1
  O  O20  1  0.339747  0.997392  0.706200  1
  O  O21  1  0.327584  0.333015  0.672144  1
  O  O22  1  0.484289  0.174613  0.438388  1
  O  O23  1  0.458144  0.518085  0.934239  1
  F  F24  1  0.008267  0.335107  0.923737  1
  F  F25  1  0.181756  0.154616  0.194811  1
  F  F26  1  0.318244  0.654616  0.694811  1
  F  F27  1  0.491733  0.835107  0.423737  1
  F  F28  1  0.526086  0.167721  0.941476  1
  F  F29  1  0.536164  0.499481  0.434243  1
  F  F30  1  0.552085  0.841342  0.934964  1
  F  F31  1  0.670133  0.667173  0.177085  1
  F  F32  1  0.678970  0.345806  0.197325  1
  F  F33  1  0.667365  0.984918  0.194297  1
  F  F34  1  0.832635  0.484918  0.694297  1
  F  F35  1  0.821030  0.845806  0.697325  1
  F  F36  1  0.829867  0.167173  0.677085  1
  F  F37  1  0.947915  0.341342  0.434964  1
  F  F38  1  0.963836  0.999481  0.934243  1
  F  F39  1  0.973914  0.667721  0.441476  1
