# generated using pymatgen
data_LiNiP2O7
_symmetry_space_group_name_H-M   'P 1'
_cell_length_a   6.31400467
_cell_length_b   6.31410385
_cell_length_c   13.64730772
_cell_angle_alpha   76.18642791
_cell_angle_beta   81.27908302
_cell_angle_gamma   99.14476792
_symmetry_Int_Tables_number   1
_chemical_formula_structural   LiNiP2O7
_chemical_formula_sum   'Li4 Ni4 P8 O28'
_cell_volume   511.33119013
_cell_formula_units_Z   4
loop_
 _symmetry_equiv_pos_site_id
 _symmetry_equiv_pos_as_xyz
  1  'x, y, z'
loop_
 _atom_site_type_symbol
 _atom_site_label
 _atom_site_symmetry_multiplicity
 _atom_site_fract_x
 _atom_site_fract_y
 _atom_site_fract_z
 _atom_site_occupancy
  Li  Li0  1  0.218927  0.609730  0.667547  1
  Li  Li1  1  0.777086  0.883536  0.833931  1
  Li  Li2  1  0.223243  0.114316  0.167018  1
  Li  Li3  1  0.784127  0.388947  0.333046  1
  Ni  Ni4  1  0.415751  0.998993  0.358648  1
  Ni  Ni5  1  0.142153  0.226357  0.859331  1
  Ni  Ni6  1  0.858261  0.772256  0.141348  1
  Ni  Ni7  1  0.587310  0.000597  0.641354  1
  P  P8  1  0.260477  0.759073  0.866264  1
  P  P9  1  0.352598  0.678529  0.086496  1
  P  P10  1  0.267991  0.438488  0.413487  1
  P  P11  1  0.876098  0.873319  0.366296  1
  P  P12  1  0.127077  0.126256  0.634086  1
  P  P13  1  0.735284  0.561055  0.586726  1
  P  P14  1  0.647816  0.319607  0.913874  1
  P  P15  1  0.740179  0.239762  0.133926  1
  O  O16  1  0.080515  0.891058  0.885243  1
  O  O17  1  0.191927  0.817174  0.120355  1
  O  O18  1  0.278254  0.965225  0.615308  1
  O  O19  1  0.473054  0.905772  0.797146  1
  O  O20  1  0.097114  0.454797  0.345535  1
  O  O21  1  0.176017  0.559993  0.827738  1
  O  O22  1  0.322859  0.653287  0.974564  1
  O  O23  1  0.366443  0.667393  0.422689  1
  O  O24  1  0.591060  0.786218  0.076460  1
  O  O25  1  0.301313  0.439934  0.154836  1
  O  O26  1  0.131412  0.298156  0.525872  1
  O  O27  1  0.562863  0.687667  0.620459  1
  O  O28  1  0.889499  0.003001  0.672379  1
  O  O29  1  0.203907  0.269049  0.703585  1
  O  O30  1  0.799090  0.729798  0.297127  1
  O  O31  1  0.113486  0.996692  0.327722  1
  O  O32  1  0.440192  0.311436  0.379720  1
  O  O33  1  0.873001  0.702761  0.474687  1
  O  O34  1  0.699024  0.558262  0.845247  1
  O  O35  1  0.409337  0.211892  0.924021  1
  O  O36  1  0.637767  0.332483  0.576853  1
  O  O37  1  0.677769  0.345811  0.025694  1
  O  O38  1  0.823774  0.438491  0.172853  1
  O  O39  1  0.905552  0.543969  0.655103  1
  O  O40  1  0.527870  0.092170  0.202967  1
  O  O41  1  0.724745  0.034374  0.384836  1
  O  O42  1  0.808348  0.180958  0.880225  1
  O  O43  1  0.920348  0.107963  0.114837  1
