# generated using pymatgen
data_Li6MnV3(PO4)6
_symmetry_space_group_name_H-M   'P 1'
_cell_length_a   8.60654380
_cell_length_b   8.67873184
_cell_length_c   12.71367000
_cell_angle_alpha   74.14704622
_cell_angle_beta   106.15287866
_cell_angle_gamma   85.40390438
_symmetry_Int_Tables_number   1
_chemical_formula_structural   Li6MnV3(PO4)6
_chemical_formula_sum   'Li12 Mn2 V6 P12 O48'
_cell_volume   864.83520681
_cell_formula_units_Z   2
loop_
 _symmetry_equiv_pos_site_id
 _symmetry_equiv_pos_as_xyz
  1  'x, y, z'
loop_
 _atom_site_type_symbol
 _atom_site_label
 _atom_site_symmetry_multiplicity
 _atom_site_fract_x
 _atom_site_fract_y
 _atom_site_fract_z
 _atom_site_occupancy
  Li  Li0  1  0.006044  0.995935  0.872099  1
  Li  Li1  1  0.003116  0.004140  0.375453  1
  Li  Li2  1  0.285795  0.290279  0.624841  1
  Li  Li3  1  0.500000  0.500000  0.750000  1
  Li  Li4  1  0.287409  0.292302  0.122384  1
  Li  Li5  1  0.503356  0.499322  0.500929  1
  Li  Li6  1  0.714205  0.709721  0.875159  1
  Li  Li7  1  0.500000  0.500000  0.250000  1
  Li  Li8  1  0.496644  0.500678  0.999071  1
  Li  Li9  1  0.712591  0.707698  0.377616  1
  Li  Li10  1  0.993956  0.004065  0.627901  1
  Li  Li11  1  0.996884  0.995860  0.124547  1
  Mn  Mn12  1  0.059477  0.629887  0.815279  1
  Mn  Mn13  1  0.940523  0.370113  0.684721  1
  V  V14  1  0.057784  0.620559  0.320441  1
  V  V15  1  0.378392  0.943972  0.568493  1
  V  V16  1  0.621608  0.056028  0.931507  1
  V  V17  1  0.379794  0.943815  0.069316  1
  V  V18  1  0.620206  0.056185  0.430684  1
  V  V19  1  0.942216  0.379441  0.179559  1
  P  P20  1  0.284628  0.289312  0.874820  1
  P  P21  1  0.140874  0.665163  0.568373  1
  P  P22  1  0.338526  0.869222  0.816742  1
  P  P23  1  0.287675  0.287245  0.374607  1
  P  P24  1  0.137778  0.661135  0.067050  1
  P  P25  1  0.338227  0.862370  0.317146  1
  P  P26  1  0.661474  0.130778  0.683258  1
  P  P27  1  0.859126  0.334837  0.931627  1
  P  P28  1  0.715372  0.710688  0.625180  1
  P  P29  1  0.661773  0.137630  0.182854  1
  P  P30  1  0.862222  0.338865  0.432950  1
  P  P31  1  0.712325  0.712755  0.125393  1
  O  O32  1  0.013591  0.663387  0.950003  1
  O  O33  1  0.054720  0.615323  0.663947  1
  O  O34  1  0.256394  0.171900  0.981587  1
  O  O35  1  0.014046  0.659259  0.455642  1
  O  O36  1  0.173089  0.267142  0.761520  1
  O  O37  1  0.152495  0.859824  0.801116  1
  O  O38  1  0.260786  0.463477  0.885725  1
  O  O39  1  0.161184  0.848396  0.546969  1
  O  O40  1  0.048768  0.602084  0.160929  1
  O  O41  1  0.260220  0.174225  0.483449  1
  O  O42  1  0.173002  0.260921  0.265315  1
  O  O43  1  0.154238  0.841362  0.301341  1
  O  O44  1  0.299043  0.545823  0.602065  1
  O  O45  1  0.402079  0.953999  0.912277  1
  O  O46  1  0.342353  0.990563  0.702359  1
  O  O47  1  0.462034  0.263646  0.868273  1
  O  O48  1  0.264477  0.462719  0.382944  1
  O  O49  1  0.450118  0.707721  0.850581  1
  O  O50  1  0.158364  0.842851  0.053786  1
  O  O51  1  0.296597  0.543013  0.101875  1
  O  O52  1  0.397015  0.950806  0.411287  1
  O  O53  1  0.549882  0.292279  0.649419  1
  O  O54  1  0.338873  0.986892  0.203272  1
  O  O55  1  0.464787  0.262800  0.367341  1
  O  O56  1  0.537966  0.736354  0.631727  1
  O  O57  1  0.657647  0.009437  0.797641  1
  O  O58  1  0.456716  0.704426  0.351987  1
  O  O59  1  0.597921  0.046001  0.587723  1
  O  O60  1  0.700957  0.454177  0.897935  1
  O  O61  1  0.838816  0.151604  0.953031  1
  O  O62  1  0.543284  0.295574  0.148013  1
  O  O63  1  0.739213  0.536523  0.614275  1
  O  O64  1  0.535213  0.737200  0.132659  1
  O  O65  1  0.661127  0.013108  0.296728  1
  O  O66  1  0.602985  0.049194  0.088713  1
  O  O67  1  0.703403  0.456987  0.398125  1
  O  O68  1  0.847505  0.140176  0.698884  1
  O  O69  1  0.826911  0.732858  0.738480  1
  O  O70  1  0.743606  0.828100  0.518413  1
  O  O71  1  0.945280  0.384677  0.836053  1
  O  O72  1  0.841636  0.157149  0.446214  1
  O  O73  1  0.735522  0.537281  0.117056  1
  O  O74  1  0.845762  0.158638  0.198659  1
  O  O75  1  0.826998  0.739079  0.234685  1
  O  O76  1  0.986409  0.336613  0.549997  1
  O  O77  1  0.739780  0.825775  0.016551  1
  O  O78  1  0.951232  0.397916  0.339071  1
  O  O79  1  0.985954  0.340741  0.044358  1
