# generated using pymatgen
data_Ca13Si10H12(O17F5)2
_symmetry_space_group_name_H-M   'P 1'
_cell_length_a   13.46760813
_cell_length_b   13.46733227
_cell_length_c   13.46697185
_cell_angle_alpha   41.15355895
_cell_angle_beta   41.15307041
_cell_angle_gamma   41.15129881
_symmetry_Int_Tables_number   1
_chemical_formula_structural   Ca13Si10H12(O17F5)2
_chemical_formula_sum   'Ca13 Si10 H12 O34 F10'
_cell_volume   955.20002923
_cell_formula_units_Z   1
loop_
 _symmetry_equiv_pos_site_id
 _symmetry_equiv_pos_as_xyz
  1  'x, y, z'
loop_
 _atom_site_type_symbol
 _atom_site_label
 _atom_site_symmetry_multiplicity
 _atom_site_fract_x
 _atom_site_fract_y
 _atom_site_fract_z
 _atom_site_occupancy
  Ca  Ca0  1  0.000000  0.000000  0.000000  1
  Ca  Ca1  1  0.702547  0.420933  0.837878  1
  Ca  Ca2  1  0.420927  0.837961  0.702564  1
  Ca  Ca3  1  0.837859  0.702569  0.421013  1
  Ca  Ca4  1  0.297453  0.579067  0.162122  1
  Ca  Ca5  1  0.579073  0.162039  0.297436  1
  Ca  Ca6  1  0.162141  0.297431  0.578987  1
  Ca  Ca7  1  0.800997  0.371004  0.541089  1
  Ca  Ca8  1  0.370987  0.541233  0.800896  1
  Ca  Ca9  1  0.541155  0.801032  0.370916  1
  Ca  Ca10  1  0.199003  0.628996  0.458911  1
  Ca  Ca11  1  0.629013  0.458767  0.199104  1
  Ca  Ca12  1  0.458845  0.198968  0.629084  1
  Si  Si13  1  0.883631  0.883655  0.883600  1
  Si  Si14  1  0.116369  0.116345  0.116400  1
  Si  Si15  1  0.625805  0.143145  0.012220  1
  Si  Si16  1  0.143094  0.012342  0.625743  1
  Si  Si17  1  0.012284  0.625862  0.143064  1
  Si  Si18  1  0.374195  0.856855  0.987780  1
  Si  Si19  1  0.856906  0.987658  0.374257  1
  Si  Si20  1  0.987716  0.374138  0.856936  1
  Si  Si21  1  0.267589  0.267581  0.267553  1
  Si  Si22  1  0.732411  0.732419  0.732447  1
  H  H23  1  0.814718  0.226672  0.448271  1
  H  H24  1  0.226760  0.448292  0.814649  1
  H  H25  1  0.448321  0.814677  0.226673  1
  H  H26  1  0.185282  0.773328  0.551729  1
  H  H27  1  0.773240  0.551708  0.185351  1
  H  H28  1  0.551679  0.185323  0.773327  1
  H  H29  1  0.988701  0.240716  0.292831  1
  H  H30  1  0.240713  0.292949  0.988634  1
  H  H31  1  0.292961  0.988712  0.240609  1
  H  H32  1  0.011299  0.759284  0.707169  1
  H  H33  1  0.759287  0.707051  0.011366  1
  H  H34  1  0.707039  0.011288  0.759391  1
  O  O35  1  0.840358  0.840161  0.840287  1
  O  O36  1  0.159642  0.159839  0.159713  1
  O  O37  1  0.957446  0.027073  0.717949  1
  O  O38  1  0.027060  0.718124  0.957361  1
  O  O39  1  0.717960  0.957510  0.026936  1
  O  O40  1  0.042554  0.972927  0.282051  1
  O  O41  1  0.972940  0.281876  0.042639  1
  O  O42  1  0.282040  0.042490  0.973064  1
  O  O43  1  0.144459  0.171594  0.438394  1
  O  O44  1  0.171511  0.438496  0.144471  1
  O  O45  1  0.438465  0.144505  0.171456  1
  O  O46  1  0.855541  0.828406  0.561606  1
  O  O47  1  0.828489  0.561504  0.855529  1
  O  O48  1  0.561535  0.855495  0.828545  1
  O  O49  1  0.614756  0.299241  0.836349  1
  O  O50  1  0.299150  0.836497  0.614640  1
  O  O51  1  0.836403  0.614799  0.299098  1
  O  O52  1  0.385244  0.700759  0.163651  1
  O  O53  1  0.700850  0.163503  0.385360  1
  O  O54  1  0.163597  0.385201  0.700902  1
  O  O55  1  0.311351  0.311274  0.311312  1
  O  O56  1  0.688649  0.688726  0.688688  1
  O  O57  1  0.145366  0.046936  0.716909  1
  O  O58  1  0.046919  0.716936  0.145395  1
  O  O59  1  0.716966  0.145307  0.046919  1
  O  O60  1  0.854634  0.953064  0.283091  1
  O  O61  1  0.953081  0.283064  0.854605  1
  O  O62  1  0.283034  0.854693  0.953081  1
  O  O63  1  0.873494  0.294276  0.371736  1
  O  O64  1  0.294336  0.371769  0.873449  1
  O  O65  1  0.371785  0.873520  0.294221  1
  O  O66  1  0.126506  0.705724  0.628264  1
  O  O67  1  0.705664  0.628232  0.126551  1
  O  O68  1  0.628215  0.126480  0.705779  1
  F  F69  1  0.921506  0.407944  0.578896  1
  F  F70  1  0.407905  0.578988  0.921469  1
  F  F71  1  0.578905  0.921482  0.407967  1
  F  F72  1  0.078494  0.592056  0.421104  1
  F  F73  1  0.592095  0.421012  0.078531  1
  F  F74  1  0.421095  0.078518  0.592033  1
  F  F75  1  0.614987  0.615002  0.614948  1
  F  F76  1  0.385013  0.384998  0.385052  1
  F  F77  1  0.543758  0.543783  0.543682  1
  F  F78  1  0.456242  0.456217  0.456318  1
