# generated using pymatgen
data_Mo5(O4F)3
_symmetry_space_group_name_H-M   'P 1'
_cell_length_a   19.98253564
_cell_length_b   8.85595134
_cell_length_c   5.59999648
_cell_angle_alpha   50.06429772
_cell_angle_beta   44.66643866
_cell_angle_gamma   25.49489694
_symmetry_Int_Tables_number   1
_chemical_formula_structural   Mo5(O4F)3
_chemical_formula_sum   'Mo5 O12 F3'
_cell_volume   299.86010574
_cell_formula_units_Z   1
loop_
 _symmetry_equiv_pos_site_id
 _symmetry_equiv_pos_as_xyz
  1  'x, y, z'
loop_
 _atom_site_type_symbol
 _atom_site_label
 _atom_site_symmetry_multiplicity
 _atom_site_fract_x
 _atom_site_fract_y
 _atom_site_fract_z
 _atom_site_occupancy
  Mo  Mo0  1  0.003952  0.004794  0.032671  1
  Mo  Mo1  1  0.195825  0.994537  0.047334  1
  Mo  Mo2  1  0.400773  0.004210  0.951544  1
  Mo  Mo3  1  0.593189  -0.000040  0.965748  1
  Mo  Mo4  1  0.801199  0.996697  0.999354  1
  O  O5  1  0.100014  0.999235  0.013995  1
  O  O6  1  0.103867  0.998372  0.508389  1
  O  O7  1  0.303931  0.996477  0.998259  1
  O  O8  1  0.202057  0.497574  0.999193  1
  O  O9  1  0.500910  0.992832  0.993146  1
  O  O10  1  0.498645  0.996611  0.494992  1
  O  O11  1  0.406491  0.481653  0.002211  1
  O  O12  1  0.601499  0.496125  0.000411  1
  O  O13  1  0.696254  0.995187  0.507310  1
  O  O14  1  0.904587  0.999719  0.493250  1
  O  O15  1  0.801212  0.496147  0.001356  1
  O  O16  1  0.996924  0.510190  0.000871  1
  F  F17  1  0.299717  0.997027  0.505965  1
  F  F18  1  0.701210  0.995759  0.990809  1
  F  F19  1  0.901307  0.999428  0.007606  1
