# generated using pymatgen
data_K3TbSi3(HO5)2
_symmetry_space_group_name_H-M   'P 1'
_cell_length_a   13.30964179
_cell_length_b   13.81363360
_cell_length_c   5.95958765
_cell_angle_alpha   90.00000000
_cell_angle_beta   90.00000000
_cell_angle_gamma   90.00000000
_symmetry_Int_Tables_number   1
_chemical_formula_structural   K3TbSi3(HO5)2
_chemical_formula_sum   'K12 Tb4 Si12 H8 O40'
_cell_volume   1095.69709720
_cell_formula_units_Z   4
loop_
 _symmetry_equiv_pos_site_id
 _symmetry_equiv_pos_as_xyz
  1  'x, y, z'
loop_
 _atom_site_type_symbol
 _atom_site_label
 _atom_site_symmetry_multiplicity
 _atom_site_fract_x
 _atom_site_fract_y
 _atom_site_fract_z
 _atom_site_occupancy
  Tb  Tb0  1  0.041482  0.250000  0.084815  1
  Tb  Tb1  1  0.458518  0.750000  0.584815  1
  Tb  Tb2  1  0.541482  0.250000  0.415185  1
  Tb  Tb3  1  0.958518  0.750000  0.915185  1
  K  K4  1  0.127685  0.750000  0.423739  1
  K  K5  1  0.137980  0.516197  0.085771  1
  K  K6  1  0.137980  0.983803  0.085771  1
  K  K7  1  0.362020  0.483803  0.585771  1
  K  K8  1  0.362020  0.016197  0.585771  1
  K  K9  1  0.372315  0.250000  0.923739  1
  K  K10  1  0.627685  0.750000  0.076261  1
  K  K11  1  0.637980  0.516197  0.414229  1
  K  K12  1  0.637980  0.983803  0.414229  1
  K  K13  1  0.862020  0.016197  0.914229  1
  K  K14  1  0.862020  0.483803  0.914229  1
  K  K15  1  0.872315  0.250000  0.576261  1
  Si  Si16  1  0.098706  0.104038  0.586896  1
  Si  Si17  1  0.098706  0.395962  0.586896  1
  Si  Si18  1  0.247392  0.750000  0.920098  1
  Si  Si19  1  0.252608  0.250000  0.420098  1
  Si  Si20  1  0.401294  0.604038  0.086896  1
  Si  Si21  1  0.401294  0.895962  0.086896  1
  Si  Si22  1  0.598706  0.104038  0.913104  1
  Si  Si23  1  0.598706  0.395962  0.913104  1
  Si  Si24  1  0.747392  0.750000  0.579902  1
  Si  Si25  1  0.752608  0.250000  0.079902  1
  Si  Si26  1  0.901294  0.604038  0.413104  1
  Si  Si27  1  0.901294  0.895962  0.413104  1
  H  H28  1  0.070372  0.558898  0.608478  1
  H  H29  1  0.070372  0.941102  0.608478  1
  H  H30  1  0.429628  0.058898  0.108478  1
  H  H31  1  0.429628  0.441102  0.108478  1
  H  H32  1  0.570372  0.941102  0.891522  1
  H  H33  1  0.570372  0.558898  0.891522  1
  H  H34  1  0.929628  0.058898  0.391522  1
  H  H35  1  0.929628  0.441102  0.391522  1
  O  O36  1  0.030659  0.129949  0.366681  1
  O  O37  1  0.030659  0.370051  0.366681  1
  O  O38  1  0.044417  0.129924  0.823023  1
  O  O39  1  0.044417  0.370076  0.823023  1
  O  O40  1  0.126660  0.750000  0.933536  1
  O  O41  1  0.130041  0.514339  0.584382  1
  O  O42  1  0.130041  0.985661  0.584382  1
  O  O43  1  0.205715  0.250000  0.170396  1
  O  O44  1  0.212398  0.153950  0.567842  1
  O  O45  1  0.212398  0.346050  0.567842  1
  O  O46  1  0.287602  0.653950  0.067842  1
  O  O47  1  0.287602  0.846050  0.067842  1
  O  O48  1  0.294285  0.750000  0.670396  1
  O  O49  1  0.369959  0.485661  0.084382  1
  O  O50  1  0.369959  0.014339  0.084382  1
  O  O51  1  0.373340  0.250000  0.433536  1
  O  O52  1  0.455583  0.629924  0.323023  1
  O  O53  1  0.455583  0.870076  0.323023  1
  O  O54  1  0.469341  0.629949  0.866681  1
  O  O55  1  0.469341  0.870051  0.866681  1
  O  O56  1  0.530659  0.129949  0.133319  1
  O  O57  1  0.530659  0.370051  0.133319  1
  O  O58  1  0.544417  0.129924  0.676977  1
  O  O59  1  0.544417  0.370076  0.676977  1
  O  O60  1  0.626660  0.750000  0.566464  1
  O  O61  1  0.630041  0.985661  0.915618  1
  O  O62  1  0.630041  0.514339  0.915618  1
  O  O63  1  0.705715  0.250000  0.329604  1
  O  O64  1  0.712398  0.153950  0.932158  1
  O  O65  1  0.712398  0.346050  0.932158  1
  O  O66  1  0.787602  0.653950  0.432158  1
  O  O67  1  0.787602  0.846050  0.432158  1
  O  O68  1  0.794285  0.750000  0.829604  1
  O  O69  1  0.869959  0.014339  0.415618  1
  O  O70  1  0.869959  0.485661  0.415618  1
  O  O71  1  0.873340  0.250000  0.066464  1
  O  O72  1  0.955583  0.629924  0.176977  1
  O  O73  1  0.955583  0.870076  0.176977  1
  O  O74  1  0.969341  0.629949  0.633319  1
  O  O75  1  0.969341  0.870051  0.633319  1
