# generated using pymatgen
data_KLi2FeO3
_symmetry_space_group_name_H-M   'P 1'
_cell_length_a   6.56978671
_cell_length_b   6.15100180
_cell_length_c   5.49820821
_cell_angle_alpha   90.18742737
_cell_angle_beta   53.23786333
_cell_angle_gamma   90.16593241
_symmetry_Int_Tables_number   1
_chemical_formula_structural   KLi2FeO3
_chemical_formula_sum   'K2 Li4 Fe2 O6'
_cell_volume   177.99880369
_cell_formula_units_Z   2
loop_
 _symmetry_equiv_pos_site_id
 _symmetry_equiv_pos_as_xyz
  1  'x, y, z'
loop_
 _atom_site_type_symbol
 _atom_site_label
 _atom_site_symmetry_multiplicity
 _atom_site_fract_x
 _atom_site_fract_y
 _atom_site_fract_z
 _atom_site_occupancy
  K  K0  1  0.672035  0.746326  0.014875  1
  K  K1  1  0.315470  0.249406  0.018119  1
  Li  Li2  1  0.218359  0.497510  0.560516  1
  Li  Li3  1  0.229578  0.996372  0.559084  1
  Li  Li4  1  0.760694  0.501367  0.478348  1
  Li  Li5  1  0.765748  0.001320  0.479383  1
  Fe  Fe6  1  0.177141  0.749720  0.019780  1
  Fe  Fe7  1  0.806480  0.248650  0.021395  1
  O  O8  1  0.991472  0.998979  0.020433  1
  O  O9  1  0.992565  0.499066  0.020196  1
  O  O10  1  0.826711  0.254583  0.667510  1
  O  O11  1  0.473834  0.250547  0.377663  1
  O  O12  1  0.153923  0.750539  0.375975  1
  O  O13  1  0.509690  0.753061  0.663472  1
