# generated using pymatgen
data_LiFePCO7
_symmetry_space_group_name_H-M   'P 1'
_cell_length_a   10.59116406
_cell_length_b   5.16647605
_cell_length_c   10.65512635
_cell_angle_alpha   85.87911161
_cell_angle_beta   74.76078841
_cell_angle_gamma   85.88470829
_symmetry_Int_Tables_number   1
_chemical_formula_structural   LiFePCO7
_chemical_formula_sum   'Li4 Fe4 P4 C4 O28'
_cell_volume   560.23445058
_cell_formula_units_Z   4
loop_
 _symmetry_equiv_pos_site_id
 _symmetry_equiv_pos_as_xyz
  1  'x, y, z'
loop_
 _atom_site_type_symbol
 _atom_site_label
 _atom_site_symmetry_multiplicity
 _atom_site_fract_x
 _atom_site_fract_y
 _atom_site_fract_z
 _atom_site_occupancy
  Li  Li0  1  0.067700  0.226776  0.820872  1
  Li  Li1  1  0.568467  0.227760  0.324505  1
  Li  Li2  1  0.929527  0.769458  0.182088  1
  Li  Li3  1  0.413928  0.247182  0.866342  1
  Fe  Fe4  1  0.289970  0.802055  0.046923  1
  Fe  Fe5  1  0.209325  0.200619  0.458747  1
  Fe  Fe6  1  0.789698  0.804700  0.542131  1
  Fe  Fe7  1  0.705989  0.197640  0.956696  1
  P  P8  1  0.086890  0.729144  0.339107  1
  P  P9  1  0.416550  0.274925  0.162182  1
  P  P10  1  0.583854  0.734831  0.836878  1
  P  P11  1  0.911833  0.274847  0.662423  1
  C  C12  1  0.348115  0.286775  0.606612  1
  C  C13  1  0.854495  0.293036  0.102635  1
  C  C14  1  0.154106  0.703428  0.892638  1
  C  C15  1  0.644951  0.704129  0.399416  1
  O  O16  1  0.126636  0.792758  0.188842  1
  O  O17  1  0.343075  0.138973  0.078933  1
  O  O18  1  0.115315  0.434962  0.366077  1
  O  O19  1  0.391637  0.570190  0.134575  1
  O  O20  1  0.160755  0.879084  0.413708  1
  O  O21  1  0.061469  0.208256  0.629186  1
  O  O22  1  0.376570  0.199957  0.309473  1
  O  O23  1  0.566291  0.200829  0.125221  1
  O  O24  1  0.790886  0.459064  0.039944  1
  O  O25  1  0.295771  0.467675  0.541540  1
  O  O26  1  0.084390  0.617370  0.827635  1
  O  O27  1  0.578055  0.620849  0.330581  1
  O  O28  1  0.327947  0.054461  0.578773  1
  O  O29  1  0.841692  0.050595  0.088640  1
  O  O30  1  0.161038  0.946105  0.913363  1
  O  O31  1  0.662428  0.945713  0.412115  1
  O  O32  1  0.922048  0.380543  0.170084  1
  O  O33  1  0.409561  0.333564  0.687333  1
  O  O34  1  0.224638  0.538130  0.950463  1
  O  O35  1  0.706516  0.536276  0.463133  1
  O  O36  1  0.438411  0.840839  0.878084  1
  O  O37  1  0.629528  0.799589  0.689608  1
  O  O38  1  0.936551  0.792492  0.373919  1
  O  O39  1  0.838722  0.128407  0.584893  1
  O  O40  1  0.591666  0.434240  0.870875  1
  O  O41  1  0.885867  0.569030  0.633486  1
  O  O42  1  0.666144  0.865641  0.913034  1
  O  O43  1  0.869080  0.211589  0.812389  1
