# generated using pymatgen
data_Li2MnPO4F
_symmetry_space_group_name_H-M   'P 1'
_cell_length_a   7.40265890
_cell_length_b   7.85191877
_cell_length_c   7.99345247
_cell_angle_alpha   91.35129341
_cell_angle_beta   91.67690703
_cell_angle_gamma   60.37924933
_symmetry_Int_Tables_number   1
_chemical_formula_structural   Li2MnPO4F
_chemical_formula_sum   'Li8 Mn4 P4 O16 F4'
_cell_volume   403.70641490
_cell_formula_units_Z   4
loop_
 _symmetry_equiv_pos_site_id
 _symmetry_equiv_pos_as_xyz
  1  'x, y, z'
loop_
 _atom_site_type_symbol
 _atom_site_label
 _atom_site_symmetry_multiplicity
 _atom_site_fract_x
 _atom_site_fract_y
 _atom_site_fract_z
 _atom_site_occupancy
  Li  Li0  1  0.552501  0.166295  0.848247  1
  Li  Li1  1  0.091609  0.584005  0.942008  1
  Li  Li2  1  0.226522  0.837774  0.670047  1
  Li  Li3  1  0.213199  0.174790  0.820379  1
  Li  Li4  1  0.727626  0.855985  0.174795  1
  Li  Li5  1  0.753694  0.496050  0.253894  1
  Li  Li6  1  0.420895  0.404807  0.553265  1
  Li  Li7  1  0.776213  0.138559  0.325307  1
  Mn  Mn8  1  0.497578  0.984028  0.492755  1
  Mn  Mn9  1  0.999471  0.507492  0.508320  1
  Mn  Mn10  1  0.501799  0.516755  0.996881  1
  Mn  Mn11  1  0.008281  0.007546  0.009580  1
  P  P12  1  0.708309  0.767943  0.855637  1
  P  P13  1  0.797098  0.230763  0.643238  1
  P  P14  1  0.221651  0.760229  0.348749  1
  P  P15  1  0.282732  0.236503  0.150612  1
  O  O16  1  0.763869  0.921432  0.938788  1
  O  O17  1  0.676232  0.666170  0.007771  1
  O  O18  1  0.897951  0.615157  0.757257  1
  O  O19  1  0.996009  0.119457  0.754664  1
  O  O20  1  0.508553  0.880632  0.745296  1
  O  O21  1  0.608174  0.368648  0.756189  1
  O  O22  1  0.822757  0.346771  0.500864  1
  O  O23  1  0.730116  0.089202  0.558109  1
  O  O24  1  0.260427  0.916134  0.439169  1
  O  O25  1  0.189389  0.648037  0.495315  1
  O  O26  1  0.409470  0.613974  0.245004  1
  O  O27  1  0.485058  0.131472  0.262352  1
  O  O28  1  0.017403  0.863321  0.237765  1
  O  O29  1  0.095908  0.390553  0.249076  1
  O  O30  1  0.328354  0.337784  0.998827  1
  O  O31  1  0.238033  0.084143  0.059329  1
  F  F32  1  0.217564  0.729260  0.881018  1
  F  F33  1  0.732916  0.725047  0.372240  1
  F  F34  1  0.287032  0.268756  0.628058  1
  F  F35  1  0.766511  0.272105  0.125810  1
