# generated using pymatgen
data_Li3Cr(CoO3)2
_symmetry_space_group_name_H-M   'P 1'
_cell_length_a   6.47374317
_cell_length_b   2.89027721
_cell_length_c   5.82105123
_cell_angle_alpha   89.80587625
_cell_angle_beta   103.85102454
_cell_angle_gamma   77.23386337
_symmetry_Int_Tables_number   1
_chemical_formula_structural   Li3Cr(CoO3)2
_chemical_formula_sum   'Li3 Cr1 Co2 O6'
_cell_volume   102.95352112
_cell_formula_units_Z   1
loop_
 _symmetry_equiv_pos_site_id
 _symmetry_equiv_pos_as_xyz
  1  'x, y, z'
loop_
 _atom_site_type_symbol
 _atom_site_label
 _atom_site_symmetry_multiplicity
 _atom_site_fract_x
 _atom_site_fract_y
 _atom_site_fract_z
 _atom_site_occupancy
  Li  Li0  1  0.992802  0.992959  0.500985  1
  Li  Li1  1  0.331176  0.335720  0.831868  1
  Li  Li2  1  0.671614  0.671476  0.167735  1
  Cr  Cr3  1  0.333093  0.329849  0.334544  1
  Co  Co4  1  0.998053  0.998321  0.999405  1
  Co  Co5  1  0.667880  0.664168  0.671557  1
  O  O6  1  0.005154  0.492650  0.229278  1
  O  O7  1  0.344997  0.822561  0.576651  1
  O  O8  1  0.682704  0.155533  0.898829  1
  O  O9  1  0.320866  0.837566  0.092691  1
  O  O10  1  0.660930  0.169240  0.441817  1
  O  O11  1  0.983197  0.507513  0.772297  1
