# generated using pymatgen
data_Fe3O5F
_symmetry_space_group_name_H-M   'P 1'
_cell_length_a   4.66287949
_cell_length_b   13.97035230
_cell_length_c   3.00245081
_cell_angle_alpha   90.00000000
_cell_angle_beta   90.00000000
_cell_angle_gamma   92.54026898
_symmetry_Int_Tables_number   1
_chemical_formula_structural   Fe3O5F
_chemical_formula_sum   'Fe6 O10 F2'
_cell_volume   195.39365982
_cell_formula_units_Z   2
loop_
 _symmetry_equiv_pos_site_id
 _symmetry_equiv_pos_as_xyz
  1  'x, y, z'
loop_
 _atom_site_type_symbol
 _atom_site_label
 _atom_site_symmetry_multiplicity
 _atom_site_fract_x
 _atom_site_fract_y
 _atom_site_fract_z
 _atom_site_occupancy
  Fe  Fe0  1  0.000000  0.000000  0.000000  1
  Fe  Fe1  1  0.978098  0.340653  0.000000  1
  Fe  Fe2  1  0.021902  0.659347  0.000000  1
  Fe  Fe3  1  0.518348  0.160688  0.500000  1
  Fe  Fe4  1  0.500000  0.500000  0.500000  1
  Fe  Fe5  1  0.481652  0.839312  0.500000  1
  O  O6  1  0.203755  0.603242  0.500000  1
  O  O7  1  0.179342  0.937859  0.500000  1
  O  O8  1  0.319844  0.101566  0.000000  1
  O  O9  1  0.303330  0.770815  0.000000  1
  O  O10  1  0.301093  0.435339  0.000000  1
  O  O11  1  0.696670  0.229185  0.000000  1
  O  O12  1  0.698907  0.564661  0.000000  1
  O  O13  1  0.680156  0.898434  0.000000  1
  O  O14  1  0.820658  0.062141  0.500000  1
  O  O15  1  0.796245  0.396758  0.500000  1
  F  F16  1  0.191415  0.266656  0.500000  1
  F  F17  1  0.808585  0.733344  0.500000  1
