# generated using pymatgen
data_Li2CrFeO4
_symmetry_space_group_name_H-M   'P 1'
_cell_length_a   5.16771366
_cell_length_b   5.95173682
_cell_length_c   7.87606873
_cell_angle_alpha   79.12060974
_cell_angle_beta   70.95480013
_cell_angle_gamma   89.93773012
_symmetry_Int_Tables_number   1
_chemical_formula_structural   Li2CrFeO4
_chemical_formula_sum   'Li6 Cr3 Fe3 O12'
_cell_volume   224.38946152
_cell_formula_units_Z   3
loop_
 _symmetry_equiv_pos_site_id
 _symmetry_equiv_pos_as_xyz
  1  'x, y, z'
loop_
 _atom_site_type_symbol
 _atom_site_label
 _atom_site_symmetry_multiplicity
 _atom_site_fract_x
 _atom_site_fract_y
 _atom_site_fract_z
 _atom_site_occupancy
  Li  Li0  1  0.002432  0.335021  0.665556  1
  Li  Li1  1  0.997591  0.831619  0.667823  1
  Li  Li2  1  0.001006  0.168218  0.332744  1
  Li  Li3  1  0.000168  0.666421  0.333238  1
  Li  Li4  1  0.998994  0.998536  0.000566  1
  Li  Li5  1  0.999832  0.500191  0.000097  1
  Cr  Cr6  1  0.499995  0.583352  0.666649  1
  Cr  Cr7  1  0.499509  0.417646  0.333883  1
  Cr  Cr8  1  0.500517  0.749011  0.999435  1
  Fe  Fe9  1  0.500013  0.083341  0.666667  1
  Fe  Fe10  1  0.499414  0.917557  0.332970  1
  Fe  Fe11  1  0.500544  0.249111  0.000362  1
  O  O12  1  0.729261  0.038193  0.839193  1
  O  O13  1  0.725533  0.540055  0.837917  1
  O  O14  1  0.271326  0.294171  0.828270  1
  O  O15  1  0.275471  0.792416  0.827827  1
  O  O16  1  0.724540  0.374251  0.505506  1
  O  O17  1  0.270764  0.128464  0.494146  1
  O  O18  1  0.728665  0.872483  0.505062  1
  O  O19  1  0.727996  0.208616  0.173076  1
  O  O20  1  0.274445  0.626600  0.495419  1
  O  O21  1  0.725441  0.706472  0.171197  1
  O  O22  1  0.274540  0.460194  0.162146  1
  O  O23  1  0.272007  0.958061  0.160251  1
