# generated using pymatgen
data_Na8Cu2O7
_symmetry_space_group_name_H-M   'P 1'
_cell_length_a   8.65766121
_cell_length_b   11.07455067
_cell_length_c   10.00838423
_cell_angle_alpha   90.00000000
_cell_angle_beta   106.15921265
_cell_angle_gamma   90.00000000
_symmetry_Int_Tables_number   1
_chemical_formula_structural   Na8Cu2O7
_chemical_formula_sum   'Na32 Cu8 O28'
_cell_volume   921.68908698
_cell_formula_units_Z   4
loop_
 _symmetry_equiv_pos_site_id
 _symmetry_equiv_pos_as_xyz
  1  'x, y, z'
loop_
 _atom_site_type_symbol
 _atom_site_label
 _atom_site_symmetry_multiplicity
 _atom_site_fract_x
 _atom_site_fract_y
 _atom_site_fract_z
 _atom_site_occupancy
  Na  Na0  1  0.120764  0.477839  0.920795  1
  Na  Na1  1  0.080082  0.460083  0.646107  1
  Na  Na2  1  0.109349  0.740641  0.533961  1
  Na  Na3  1  0.120764  0.022161  0.420795  1
  Na  Na4  1  0.259108  0.948172  0.714560  1
  Na  Na5  1  0.080082  0.039917  0.146107  1
  Na  Na6  1  0.288601  0.249386  0.570271  1
  Na  Na7  1  0.109349  0.759359  0.033961  1
  Na  Na8  1  0.430352  0.475207  0.857750  1
  Na  Na9  1  0.339739  0.503975  0.515602  1
  Na  Na10  1  0.259108  0.551828  0.214560  1
  Na  Na11  1  0.507586  0.232311  0.874764  1
  Na  Na12  1  0.288601  0.250614  0.070271  1
  Na  Na13  1  0.492414  0.732311  0.625236  1
  Na  Na14  1  0.430352  0.024793  0.357750  1
  Na  Na15  1  0.660261  0.003975  0.984398  1
  Na  Na16  1  0.339739  0.996025  0.015602  1
  Na  Na17  1  0.569648  0.975207  0.642250  1
  Na  Na18  1  0.507586  0.267689  0.374764  1
  Na  Na19  1  0.711399  0.749386  0.929729  1
  Na  Na20  1  0.492414  0.767689  0.125236  1
  Na  Na21  1  0.740892  0.448172  0.785440  1
  Na  Na22  1  0.660261  0.496025  0.484398  1
  Na  Na23  1  0.569648  0.524793  0.142250  1
  Na  Na24  1  0.890651  0.240641  0.966039  1
  Na  Na25  1  0.711399  0.750614  0.429729  1
  Na  Na26  1  0.919918  0.960083  0.853893  1
  Na  Na27  1  0.740892  0.051828  0.285440  1
  Na  Na28  1  0.879236  0.977839  0.579205  1
  Na  Na29  1  0.890651  0.259359  0.466039  1
  Na  Na30  1  0.919918  0.539917  0.353893  1
  Na  Na31  1  0.879236  0.522161  0.079205  1
  Cu  Cu32  1  0.092806  0.201322  0.774073  1
  Cu  Cu33  1  0.092806  0.298678  0.274073  1
  Cu  Cu34  1  0.309825  0.718661  0.846769  1
  Cu  Cu35  1  0.309825  0.781339  0.346769  1
  Cu  Cu36  1  0.690175  0.218661  0.653231  1
  Cu  Cu37  1  0.690175  0.281339  0.153231  1
  Cu  Cu38  1  0.907194  0.701322  0.725927  1
  Cu  Cu39  1  0.907194  0.798678  0.225927  1
  O  O40  1  0.109408  0.110844  0.935641  1
  O  O41  1  0.103389  0.806430  0.789768  1
  O  O42  1  0.100487  0.110342  0.619108  1
  O  O43  1  0.109408  0.389156  0.435641  1
  O  O44  1  0.252347  0.323139  0.819740  1
  O  O45  1  0.103389  0.693570  0.289768  1
  O  O46  1  0.100487  0.389658  0.119108  1
  O  O47  1  0.311730  0.612188  0.698502  1
  O  O48  1  0.252347  0.176861  0.319740  1
  O  O49  1  0.457776  0.855206  0.894707  1
  O  O50  1  0.332319  0.889908  0.505424  1
  O  O51  1  0.311730  0.887812  0.198502  1
  O  O52  1  0.457776  0.644794  0.394707  1
  O  O53  1  0.667681  0.389908  0.994576  1
  O  O54  1  0.332319  0.610092  0.005424  1
  O  O55  1  0.542224  0.355206  0.605293  1
  O  O56  1  0.688270  0.112188  0.801498  1
  O  O57  1  0.667681  0.110092  0.494576  1
  O  O58  1  0.542224  0.144794  0.105293  1
  O  O59  1  0.747653  0.823139  0.680260  1
  O  O60  1  0.688270  0.387812  0.301498  1
  O  O61  1  0.899513  0.610342  0.880892  1
  O  O62  1  0.896611  0.306430  0.710232  1
  O  O63  1  0.747653  0.676861  0.180260  1
  O  O64  1  0.890592  0.610844  0.564359  1
  O  O65  1  0.899513  0.889658  0.380892  1
  O  O66  1  0.896611  0.193570  0.210232  1
  O  O67  1  0.890592  0.889156  0.064359  1
