# generated using pymatgen
data_Li7VO5F
_symmetry_space_group_name_H-M   'P 1'
_cell_length_a   5.56891170
_cell_length_b   6.13729365
_cell_length_c   9.78315806
_cell_angle_alpha   90.85291866
_cell_angle_beta   69.39365026
_cell_angle_gamma   118.56417676
_symmetry_Int_Tables_number   1
_chemical_formula_structural   Li7VO5F
_chemical_formula_sum   'Li14 V2 O10 F2'
_cell_volume   270.05407834
_cell_formula_units_Z   2
loop_
 _symmetry_equiv_pos_site_id
 _symmetry_equiv_pos_as_xyz
  1  'x, y, z'
loop_
 _atom_site_type_symbol
 _atom_site_label
 _atom_site_symmetry_multiplicity
 _atom_site_fract_x
 _atom_site_fract_y
 _atom_site_fract_z
 _atom_site_occupancy
  Li  Li0  1  0.131200  0.126230  0.220678  1
  Li  Li1  1  0.085836  0.599674  0.758631  1
  Li  Li2  1  0.454758  0.853199  0.359865  1
  Li  Li3  1  0.545242  0.646801  0.140135  1
  Li  Li4  1  0.302405  0.238082  0.432761  1
  Li  Li5  1  0.218611  0.702503  0.979857  1
  Li  Li6  1  0.386446  0.389809  0.651838  1
  Li  Li7  1  0.697595  0.261918  0.067239  1
  Li  Li8  1  0.781389  0.797497  0.520143  1
  Li  Li9  1  0.515036  0.515678  0.881271  1
  Li  Li10  1  0.484964  0.984322  0.618729  1
  Li  Li11  1  0.868800  0.373770  0.279322  1
  Li  Li12  1  0.914164  0.900326  0.741369  1
  Li  Li13  1  0.613554  0.110191  0.848162  1
  V  V14  1  0.030393  0.068048  0.974030  1
  V  V15  1  0.969607  0.431952  0.525970  1
  O  O16  1  0.204814  0.457374  0.328573  1
  O  O17  1  0.206164  0.924077  0.828429  1
  O  O18  1  0.392705  0.228796  0.014389  1
  O  O19  1  0.361992  0.660086  0.555796  1
  O  O20  1  0.095855  0.368998  0.883908  1
  O  O21  1  0.607295  0.271204  0.485611  1
  O  O22  1  0.638008  0.839914  0.944204  1
  O  O23  1  0.793836  0.575923  0.671571  1
  O  O24  1  0.795186  0.042626  0.171427  1
  O  O25  1  0.904145  0.131002  0.616092  1
  F  F26  1  0.152782  0.934060  0.358968  1
  F  F27  1  0.847218  0.565940  0.141032  1
