# generated using pymatgen
data_Li3NbOF6
_symmetry_space_group_name_H-M   'P 1'
_cell_length_a   5.36050407
_cell_length_b   5.29868496
_cell_length_c   16.57990984
_cell_angle_alpha   90.00000000
_cell_angle_beta   90.00000000
_cell_angle_gamma   90.00000000
_symmetry_Int_Tables_number   1
_chemical_formula_structural   Li3NbOF6
_chemical_formula_sum   'Li12 Nb4 O4 F24'
_cell_volume   470.92949676
_cell_formula_units_Z   4
loop_
 _symmetry_equiv_pos_site_id
 _symmetry_equiv_pos_as_xyz
  1  'x, y, z'
loop_
 _atom_site_type_symbol
 _atom_site_label
 _atom_site_symmetry_multiplicity
 _atom_site_fract_x
 _atom_site_fract_y
 _atom_site_fract_z
 _atom_site_occupancy
  Li  Li0  1  0.216509  0.495689  0.996508  1
  Li  Li1  1  0.246314  0.989246  0.878269  1
  Li  Li2  1  0.233427  0.469305  0.258494  1
  Li  Li3  1  0.266573  0.530695  0.758494  1
  Li  Li4  1  0.253686  0.010754  0.378269  1
  Li  Li5  1  0.283491  0.504311  0.496508  1
  Li  Li6  1  0.716509  0.004311  0.003492  1
  Li  Li7  1  0.746314  0.510754  0.121731  1
  Li  Li8  1  0.733427  0.030695  0.741506  1
  Li  Li9  1  0.766573  0.969305  0.241506  1
  Li  Li10  1  0.753686  0.489246  0.621731  1
  Li  Li11  1  0.783491  0.995689  0.503492  1
  Nb  Nb12  1  0.252073  0.007382  0.624599  1
  Nb  Nb13  1  0.247927  0.992618  0.124599  1
  Nb  Nb14  1  0.752073  0.492618  0.375401  1
  Nb  Nb15  1  0.747927  0.507382  0.875401  1
  O  O16  1  0.038442  0.331958  0.391197  1
  O  O17  1  0.461558  0.668042  0.891197  1
  O  O18  1  0.538442  0.168042  0.608803  1
  O  O19  1  0.961558  0.831958  0.108803  1
  F  F20  1  0.045815  0.265148  0.556464  1
  F  F21  1  0.098967  0.320804  0.862709  1
  F  F22  1  0.077786  0.251361  0.702018  1
  F  F23  1  0.118637  0.352481  0.123100  1
  F  F24  1  0.131759  0.088215  0.241534  1
  F  F25  1  0.219010  0.873101  0.507285  1
  F  F26  1  0.280990  0.126899  0.007285  1
  F  F27  1  0.368241  0.911785  0.741534  1
  F  F28  1  0.381363  0.647519  0.623100  1
  F  F29  1  0.422214  0.748639  0.202018  1
  F  F30  1  0.401033  0.679196  0.362709  1
  F  F31  1  0.454185  0.734852  0.056464  1
  F  F32  1  0.545815  0.234852  0.443536  1
  F  F33  1  0.598967  0.179196  0.137291  1
  F  F34  1  0.577786  0.248639  0.297982  1
  F  F35  1  0.618637  0.147519  0.876900  1
  F  F36  1  0.631759  0.411785  0.758466  1
  F  F37  1  0.719010  0.626899  0.492715  1
  F  F38  1  0.780990  0.373101  0.992715  1
  F  F39  1  0.868241  0.588215  0.258466  1
  F  F40  1  0.881363  0.852481  0.376900  1
  F  F41  1  0.922214  0.751361  0.797982  1
  F  F42  1  0.901033  0.820804  0.637291  1
  F  F43  1  0.954185  0.765148  0.943536  1
