# generated using pymatgen
data_LiCoSiO4
_symmetry_space_group_name_H-M   'P 1'
_cell_length_a   5.68249534
_cell_length_b   5.68336874
_cell_length_c   8.02116553
_cell_angle_alpha   90.00842467
_cell_angle_beta   90.00003371
_cell_angle_gamma   90.00090245
_symmetry_Int_Tables_number   1
_chemical_formula_structural   LiCoSiO4
_chemical_formula_sum   'Li4 Co4 Si4 O16'
_cell_volume   259.04928402
_cell_formula_units_Z   4
loop_
 _symmetry_equiv_pos_site_id
 _symmetry_equiv_pos_as_xyz
  1  'x, y, z'
loop_
 _atom_site_type_symbol
 _atom_site_label
 _atom_site_symmetry_multiplicity
 _atom_site_fract_x
 _atom_site_fract_y
 _atom_site_fract_z
 _atom_site_occupancy
  Li  Li0  1  0.999964  0.226038  0.999944  1
  Li  Li1  1  0.999962  0.773981  0.500057  1
  Li  Li2  1  0.225986  0.000008  0.250012  1
  Li  Li3  1  0.774036  0.000005  0.749987  1
  Co  Co4  1  0.229197  0.499997  0.250011  1
  Co  Co5  1  0.500006  0.229211  0.000035  1
  Co  Co6  1  0.500004  0.770782  0.499966  1
  Co  Co7  1  0.770639  0.499994  0.749987  1
  Si  Si8  1  0.256753  0.256808  0.625017  1
  Si  Si9  1  0.256746  0.743188  0.874970  1
  Si  Si10  1  0.743268  0.256746  0.375043  1
  Si  Si11  1  0.743277  0.743253  0.124968  1
  O  O12  1  0.985379  0.260155  0.261639  1
  O  O13  1  0.985386  0.739843  0.238375  1
  O  O14  1  0.260168  0.985358  0.988306  1
  O  O15  1  0.260161  0.014626  0.511700  1
  O  O16  1  0.259997  0.504891  0.999638  1
  O  O17  1  0.259984  0.495112  0.500360  1
  O  O18  1  0.504910  0.260003  0.250369  1
  O  O19  1  0.504933  0.740004  0.249658  1
  O  O20  1  0.495155  0.260047  0.749637  1
  O  O21  1  0.495135  0.739960  0.750337  1
  O  O22  1  0.740026  0.495096  0.499674  1
  O  O23  1  0.740012  0.504910  0.000328  1
  O  O24  1  0.739857  0.014637  0.488369  1
  O  O25  1  0.739849  0.985350  0.011625  1
  O  O26  1  0.014607  0.260238  0.738366  1
  O  O27  1  0.014601  0.739759  0.761620  1
