# generated using pymatgen
data_Na4Ti7O16
_symmetry_space_group_name_H-M   'P 1'
_cell_length_a   5.51814459
_cell_length_b   9.58328649
_cell_length_c   6.03373390
_cell_angle_alpha   90.00000000
_cell_angle_beta   90.00000000
_cell_angle_gamma   88.77096240
_symmetry_Int_Tables_number   1
_chemical_formula_structural   Na4Ti7O16
_chemical_formula_sum   'Na4 Ti7 O16'
_cell_volume   319.00227186
_cell_formula_units_Z   1
loop_
 _symmetry_equiv_pos_site_id
 _symmetry_equiv_pos_as_xyz
  1  'x, y, z'
loop_
 _atom_site_type_symbol
 _atom_site_label
 _atom_site_symmetry_multiplicity
 _atom_site_fract_x
 _atom_site_fract_y
 _atom_site_fract_z
 _atom_site_occupancy
  Na  Na0  1  0.433530  0.039921  0.875000  1
  Na  Na1  1  0.473258  0.345334  0.875000  1
  Na  Na2  1  0.955526  0.455620  0.118394  1
  Na  Na3  1  0.955526  0.455620  0.631606  1
  Ti  Ti4  1  0.042328  0.864071  0.375000  1
  Ti  Ti5  1  0.005881  0.840579  0.875000  1
  Ti  Ti6  1  0.457464  0.349183  0.375000  1
  Ti  Ti7  1  0.518419  0.639500  0.126603  1
  Ti  Ti8  1  0.518419  0.639500  0.623397  1
  Ti  Ti9  1  0.951961  0.137691  0.122090  1
  Ti  Ti10  1  0.951961  0.137691  0.627910  1
  O  O11  1  0.174539  0.234123  0.375000  1
  O  O12  1  0.119627  0.225663  0.875000  1
  O  O13  1  0.171052  0.959362  0.121853  1
  O  O14  1  0.171052  0.959362  0.628147  1
  O  O15  1  0.338402  0.476104  0.599146  1
  O  O16  1  0.338402  0.476104  0.150854  1
  O  O17  1  0.314347  0.727503  0.875000  1
  O  O18  1  0.338091  0.736017  0.375000  1
  O  O19  1  0.694572  0.264474  0.157312  1
  O  O20  1  0.694572  0.264474  0.592688  1
  O  O21  1  0.696045  0.547583  0.375000  1
  O  O22  1  0.689018  0.560846  0.875000  1
  O  O23  1  0.815321  0.029885  0.875000  1
  O  O24  1  0.827860  0.030833  0.375000  1
  O  O25  1  0.839356  0.772043  0.126153  1
  O  O26  1  0.839356  0.772043  0.623847  1
