# generated using pymatgen
data_Dy2(SeO4)3
_symmetry_space_group_name_H-M   'P 1'
_cell_length_a   13.47649225
_cell_length_b   9.69624341
_cell_length_c   9.78577251
_cell_angle_alpha   90.00000000
_cell_angle_beta   90.00000000
_cell_angle_gamma   90.00000000
_symmetry_Int_Tables_number   1
_chemical_formula_structural   Dy2(SeO4)3
_chemical_formula_sum   'Dy8 Se12 O48'
_cell_volume   1278.72009654
_cell_formula_units_Z   4
loop_
 _symmetry_equiv_pos_site_id
 _symmetry_equiv_pos_as_xyz
  1  'x, y, z'
loop_
 _atom_site_type_symbol
 _atom_site_label
 _atom_site_symmetry_multiplicity
 _atom_site_fract_x
 _atom_site_fract_y
 _atom_site_fract_z
 _atom_site_occupancy
  Dy  Dy0  1  0.117765  0.249791  0.962360  1
  Dy  Dy1  1  0.117765  0.750209  0.462360  1
  Dy  Dy2  1  0.382234  0.250209  0.462360  1
  Dy  Dy3  1  0.382234  0.749791  0.962360  1
  Dy  Dy4  1  0.617765  0.250209  0.037640  1
  Dy  Dy5  1  0.617765  0.749791  0.537640  1
  Dy  Dy6  1  0.882235  0.249791  0.537640  1
  Dy  Dy7  1  0.882235  0.750209  0.037640  1
  Se  Se8  1  0.000000  0.035099  0.250000  1
  Se  Se9  1  0.000000  0.964901  0.750000  1
  Se  Se10  1  0.146660  0.393974  0.611514  1
  Se  Se11  1  0.146660  0.606026  0.111514  1
  Se  Se12  1  0.353340  0.106026  0.111514  1
  Se  Se13  1  0.353340  0.893974  0.611514  1
  Se  Se14  1  0.500000  0.464901  0.750000  1
  Se  Se15  1  0.500000  0.535099  0.250000  1
  Se  Se16  1  0.646660  0.106026  0.388486  1
  Se  Se17  1  0.646660  0.893974  0.888486  1
  Se  Se18  1  0.853340  0.393974  0.888486  1
  Se  Se19  1  0.853340  0.606026  0.388486  1
  O  O20  1  0.034679  0.666975  0.074347  1
  O  O21  1  0.034679  0.333025  0.574347  1
  O  O22  1  0.064575  0.865150  0.645198  1
  O  O23  1  0.064575  0.134850  0.145198  1
  O  O24  1  0.080255  0.061907  0.836210  1
  O  O25  1  0.080255  0.938093  0.336210  1
  O  O26  1  0.148486  0.435674  0.094472  1
  O  O27  1  0.148486  0.564326  0.594472  1
  O  O28  1  0.176355  0.356199  0.772443  1
  O  O29  1  0.176355  0.643801  0.272443  1
  O  O30  1  0.227050  0.322692  0.503786  1
  O  O31  1  0.227050  0.677308  0.003786  1
  O  O32  1  0.272950  0.177308  0.003786  1
  O  O33  1  0.272950  0.822692  0.503786  1
  O  O34  1  0.323645  0.856199  0.772443  1
  O  O35  1  0.323645  0.143801  0.272443  1
  O  O36  1  0.351514  0.064326  0.594472  1
  O  O37  1  0.351514  0.935674  0.094472  1
  O  O38  1  0.419745  0.438093  0.336210  1
  O  O39  1  0.419745  0.561907  0.836210  1
  O  O40  1  0.435425  0.365150  0.645198  1
  O  O41  1  0.435425  0.634850  0.145198  1
  O  O42  1  0.465321  0.166975  0.074347  1
  O  O43  1  0.465321  0.833025  0.574347  1
  O  O44  1  0.534679  0.166975  0.425653  1
  O  O45  1  0.534679  0.833025  0.925653  1
  O  O46  1  0.564575  0.634850  0.354802  1
  O  O47  1  0.564575  0.365150  0.854802  1
  O  O48  1  0.580255  0.438093  0.163790  1
  O  O49  1  0.580255  0.561907  0.663790  1
  O  O50  1  0.648486  0.064326  0.905528  1
  O  O51  1  0.648486  0.935674  0.405528  1
  O  O52  1  0.676355  0.143801  0.227557  1
  O  O53  1  0.676355  0.856199  0.727557  1
  O  O54  1  0.727050  0.177308  0.496214  1
  O  O55  1  0.727050  0.822692  0.996214  1
  O  O56  1  0.772950  0.322692  0.996214  1
  O  O57  1  0.772950  0.677308  0.496214  1
  O  O58  1  0.823645  0.356199  0.727557  1
  O  O59  1  0.823645  0.643801  0.227557  1
  O  O60  1  0.851514  0.435674  0.405528  1
  O  O61  1  0.851514  0.564326  0.905528  1
  O  O62  1  0.919745  0.061907  0.663790  1
  O  O63  1  0.919745  0.938093  0.163790  1
  O  O64  1  0.935425  0.134850  0.354802  1
  O  O65  1  0.935425  0.865150  0.854802  1
  O  O66  1  0.965321  0.333025  0.925653  1
  O  O67  1  0.965321  0.666975  0.425653  1
