# generated using pymatgen
data_Hf2N2O
_symmetry_space_group_name_H-M   'P 1'
_cell_length_a   8.74267978
_cell_length_b   8.72604012
_cell_length_c   8.74497788
_cell_angle_alpha   109.58463449
_cell_angle_beta   109.47106144
_cell_angle_gamma   109.47083676
_symmetry_Int_Tables_number   1
_chemical_formula_structural   Hf2N2O
_chemical_formula_sum   'Hf16 N16 O8'
_cell_volume   512.85162256
_cell_formula_units_Z   8
loop_
 _symmetry_equiv_pos_site_id
 _symmetry_equiv_pos_as_xyz
  1  'x, y, z'
loop_
 _atom_site_type_symbol
 _atom_site_label
 _atom_site_symmetry_multiplicity
 _atom_site_fract_x
 _atom_site_fract_y
 _atom_site_fract_z
 _atom_site_occupancy
  Hf  Hf0  1  0.508437  0.004437  0.996340  1
  Hf  Hf1  1  0.959270  0.249907  0.218710  1
  Hf  Hf2  1  0.781169  0.032075  0.753753  1
  Hf  Hf3  1  0.704695  0.462721  0.244453  1
  Hf  Hf4  1  0.749563  0.777674  0.030835  1
  Hf  Hf5  1  0.755550  0.286647  0.539373  1
  Hf  Hf6  1  0.531946  0.741228  0.285708  1
  Hf  Hf7  1  0.997629  0.504523  0.988352  1
  Hf  Hf8  1  0.490863  0.506044  0.502410  1
  Hf  Hf9  1  0.465288  0.251262  0.719825  1
  Hf  Hf10  1  0.007036  0.996571  0.508503  1
  Hf  Hf11  1  0.255034  0.718789  0.468097  1
  Hf  Hf12  1  0.252390  0.218494  0.959785  1
  Hf  Hf13  1  0.215494  0.955219  0.250937  1
  Hf  Hf14  1  0.282686  0.533146  0.743495  1
  Hf  Hf15  1  0.039720  0.753920  0.786298  1
  N  N16  1  0.740921  0.228758  0.276309  1
  N  N17  1  0.773800  0.727190  0.259974  1
  N  N18  1  0.453393  0.463336  0.229073  1
  N  N19  1  0.726653  0.257822  0.770330  1
  N  N20  1  0.225115  0.451688  0.462341  1
  N  N21  1  0.273150  0.736901  0.222904  1
  N  N22  1  0.986522  0.953277  0.727716  1
  N  N23  1  0.509560  0.236997  0.966317  1
  N  N24  1  0.545493  0.534081  0.771935  1
  N  N25  1  0.959916  0.733026  0.993395  1
  N  N26  1  0.535517  0.774052  0.544884  1
  N  N27  1  0.223026  0.273560  0.740593  1
  N  N28  1  0.030383  0.486875  0.757760  1
  N  N29  1  0.730159  0.988771  0.957910  1
  N  N30  1  0.236848  0.967946  0.506996  1
  N  N31  1  0.263564  0.777533  0.730565  1
  O  O32  1  0.761179  0.034513  0.485387  1
  O  O33  1  0.275796  0.012868  0.050126  1
  O  O34  1  0.964915  0.507868  0.235685  1
  O  O35  1  0.466688  0.226684  0.447794  1
  O  O36  1  0.047725  0.276631  0.017257  1
  O  O37  1  0.013806  0.050508  0.275722  1
  O  O38  1  0.487614  0.762958  0.035761  1
  O  O39  1  0.771487  0.543501  0.536393  1
