# generated using pymatgen
data_Li4Ti3Mn3(CuO8)2
_symmetry_space_group_name_H-M   'P 1'
_cell_length_a   5.88614764
_cell_length_b   5.82672345
_cell_length_c   9.70629905
_cell_angle_alpha   89.80562309
_cell_angle_beta   90.11648654
_cell_angle_gamma   119.65931429
_symmetry_Int_Tables_number   1
_chemical_formula_structural   Li4Ti3Mn3(CuO8)2
_chemical_formula_sum   'Li4 Ti3 Mn3 Cu2 O16'
_cell_volume   289.27974760
_cell_formula_units_Z   1
loop_
 _symmetry_equiv_pos_site_id
 _symmetry_equiv_pos_as_xyz
  1  'x, y, z'
loop_
 _atom_site_type_symbol
 _atom_site_label
 _atom_site_symmetry_multiplicity
 _atom_site_fract_x
 _atom_site_fract_y
 _atom_site_fract_z
 _atom_site_occupancy
  Li  Li0  1  0.352087  0.675324  0.890628  1
  Li  Li1  1  0.975262  0.988829  0.996043  1
  Li  Li2  1  0.001620  0.001558  0.498285  1
  Li  Li3  1  0.660707  0.330041  0.393845  1
  Ti  Ti4  1  0.147202  0.818739  0.213216  1
  Ti  Ti5  1  0.149622  0.328626  0.212948  1
  Ti  Ti6  1  0.358060  0.177369  0.713128  1
  Mn  Mn7  1  0.644638  0.822925  0.216566  1
  Mn  Mn8  1  0.850880  0.671710  0.714735  1
  Mn  Mn9  1  0.851472  0.179305  0.714299  1
  Cu  Cu10  1  0.337491  0.668682  0.491249  1
  Cu  Cu11  1  0.663847  0.331900  0.990100  1
  O  O12  1  0.175931  0.848611  0.603754  1
  O  O13  1  0.008864  0.504228  0.320316  1
  O  O14  1  0.326909  0.664289  0.105576  1
  O  O15  1  0.972564  0.986206  0.314835  1
  O  O16  1  0.016134  0.007525  0.812307  1
  O  O17  1  0.176438  0.328549  0.603632  1
  O  O18  1  0.467024  0.952880  0.336374  1
  O  O19  1  0.467131  0.513492  0.335753  1
  O  O20  1  0.294601  0.148121  0.108924  1
  O  O21  1  0.701337  0.850926  0.613705  1
  O  O22  1  0.540190  0.490257  0.834768  1
  O  O23  1  0.539541  0.047780  0.833635  1
  O  O24  1  0.686634  0.343864  0.606947  1
  O  O25  1  0.820138  0.672132  0.104798  1
  O  O26  1  0.993615  0.496230  0.822915  1
  O  O27  1  0.820060  0.150203  0.104560  1
