# generated using pymatgen
data_Na2SiBSbO7
_symmetry_space_group_name_H-M   'P 1'
_cell_length_a   9.38537877
_cell_length_b   6.63995129
_cell_length_c   5.44211229
_cell_angle_alpha   90.00000000
_cell_angle_beta   86.87609657
_cell_angle_gamma   90.00000000
_symmetry_Int_Tables_number   1
_chemical_formula_structural   Na2SiBSbO7
_chemical_formula_sum   'Na4 Si2 B2 Sb2 O14'
_cell_volume   338.64008491
_cell_formula_units_Z   2
loop_
 _symmetry_equiv_pos_site_id
 _symmetry_equiv_pos_as_xyz
  1  'x, y, z'
loop_
 _atom_site_type_symbol
 _atom_site_label
 _atom_site_symmetry_multiplicity
 _atom_site_fract_x
 _atom_site_fract_y
 _atom_site_fract_z
 _atom_site_occupancy
  Na  Na0  1  0.196011  0.994741  0.237886  1
  Na  Na1  1  0.196011  0.505259  0.237886  1
  Na  Na2  1  0.803989  0.494741  0.762114  1
  Na  Na3  1  0.803989  0.005259  0.762114  1
  Si  Si4  1  0.436125  0.250000  0.731221  1
  Si  Si5  1  0.563875  0.750000  0.268779  1
  B  B6  1  0.079009  0.750000  0.721334  1
  B  B7  1  0.920991  0.250000  0.278666  1
  Sb  Sb8  1  0.344652  0.750000  0.783101  1
  Sb  Sb9  1  0.655348  0.250000  0.216899  1
  O  O10  1  0.056668  0.250000  0.317661  1
  O  O11  1  0.146615  0.750000  0.951562  1
  O  O12  1  0.194869  0.750000  0.531653  1
  O  O13  1  0.338728  0.052498  0.806338  1
  O  O14  1  0.338728  0.447502  0.806338  1
  O  O15  1  0.414394  0.750000  0.123355  1
  O  O16  1  0.476509  0.250000  0.429022  1
  O  O17  1  0.523491  0.750000  0.570978  1
  O  O18  1  0.585606  0.250000  0.876645  1
  O  O19  1  0.661272  0.552498  0.193662  1
  O  O20  1  0.661272  0.947502  0.193662  1
  O  O21  1  0.805131  0.250000  0.468347  1
  O  O22  1  0.853385  0.250000  0.048438  1
  O  O23  1  0.943332  0.750000  0.682339  1
