# generated using pymatgen
data_Li8MnFe7(BO3)8
_symmetry_space_group_name_H-M   'P 1'
_cell_length_a   5.97356998
_cell_length_b   9.08444245
_cell_length_c   9.71304647
_cell_angle_alpha   98.60864771
_cell_angle_beta   79.05392216
_cell_angle_gamma   104.14787410
_symmetry_Int_Tables_number   1
_chemical_formula_structural   Li8MnFe7(BO3)8
_chemical_formula_sum   'Li8 Mn1 Fe7 B8 O24'
_cell_volume   498.84579715
_cell_formula_units_Z   1
loop_
 _symmetry_equiv_pos_site_id
 _symmetry_equiv_pos_as_xyz
  1  'x, y, z'
loop_
 _atom_site_type_symbol
 _atom_site_label
 _atom_site_symmetry_multiplicity
 _atom_site_fract_x
 _atom_site_fract_y
 _atom_site_fract_z
 _atom_site_occupancy
  Li  Li0  1  0.800628  0.689224  0.879308  1
  Li  Li1  1  0.702060  0.314496  0.622500  1
  Li  Li2  1  0.950396  0.812042  0.371586  1
  Li  Li3  1  0.550632  0.186659  0.126705  1
  Li  Li4  1  0.449078  0.812892  0.871491  1
  Li  Li5  1  0.050447  0.187311  0.628705  1
  Li  Li6  1  0.302172  0.688135  0.379492  1
  Li  Li7  1  0.196578  0.310279  0.120930  1
  Mn  Mn8  1  0.368446  0.375832  0.393327  1
  Fe  Fe9  1  0.870148  0.379007  0.898217  1
  Fe  Fe10  1  0.877423  0.116871  0.357609  1
  Fe  Fe11  1  0.383482  0.127074  0.851785  1
  Fe  Fe12  1  0.629819  0.625865  0.612318  1
  Fe  Fe13  1  0.618933  0.872583  0.138781  1
  Fe  Fe14  1  0.119008  0.870678  0.640934  1
  Fe  Fe15  1  0.132531  0.628861  0.110783  1
  B  B16  1  0.854865  0.040255  0.887047  1
  B  B17  1  0.898701  0.459824  0.362414  1
  B  B18  1  0.394403  0.460819  0.862307  1
  B  B19  1  0.647766  0.961233  0.611861  1
  B  B20  1  0.351172  0.037800  0.387612  1
  B  B21  1  0.602616  0.539253  0.136480  1
  B  B22  1  0.101782  0.539821  0.640082  1
  B  B23  1  0.148742  0.961003  0.110707  1
  O  O24  1  0.743884  0.159311  0.941410  1
  O  O25  1  0.989616  0.659009  0.696972  1
  O  O26  1  0.728134  0.104641  0.565471  1
  O  O27  1  0.982871  0.601857  0.312910  1
  O  O28  1  0.769389  0.898178  0.936218  1
  O  O29  1  0.708228  0.440099  0.472211  1
  O  O30  1  0.955916  0.936804  0.219848  1
  O  O31  1  0.505131  0.342131  0.805556  1
  O  O32  1  0.758595  0.842067  0.554716  1
  O  O33  1  0.542203  0.061196  0.277996  1
  O  O34  1  0.795504  0.564848  0.027638  1
  O  O35  1  0.480434  0.603161  0.814444  1
  O  O36  1  0.519235  0.396635  0.181557  1
  O  O37  1  0.204949  0.438932  0.972480  1
  O  O38  1  0.456451  0.936502  0.721474  1
  O  O39  1  0.237075  0.154762  0.443923  1
  O  O40  1  0.493643  0.659272  0.194289  1
  O  O41  1  0.045684  0.061220  0.777639  1
  O  O42  1  0.294077  0.566941  0.531979  1
  O  O43  1  0.232972  0.101716  0.062358  1
  O  O44  1  0.019324  0.397385  0.686776  1
  O  O45  1  0.269285  0.895347  0.435621  1
  O  O46  1  0.007959  0.340008  0.308448  1
  O  O47  1  0.257611  0.840162  0.055088  1
