# generated using pymatgen
data_Li6TeO6
_symmetry_space_group_name_H-M   'P 1'
_cell_length_a   5.31918751
_cell_length_b   5.31918760
_cell_length_c   5.31918685
_cell_angle_alpha   100.83481486
_cell_angle_beta   100.83481507
_cell_angle_gamma   100.83480946
_symmetry_Int_Tables_number   1
_chemical_formula_structural   Li6TeO6
_chemical_formula_sum   'Li6 Te1 O6'
_cell_volume   141.23808417
_cell_formula_units_Z   1
loop_
 _symmetry_equiv_pos_site_id
 _symmetry_equiv_pos_as_xyz
  1  'x, y, z'
loop_
 _atom_site_type_symbol
 _atom_site_label
 _atom_site_symmetry_multiplicity
 _atom_site_fract_x
 _atom_site_fract_y
 _atom_site_fract_z
 _atom_site_occupancy
  Li  Li0  1  0.340259  0.638472  0.019858  1
  Li  Li1  1  0.638472  0.019858  0.340259  1
  Li  Li2  1  0.019858  0.340259  0.638472  1
  Li  Li3  1  0.361528  0.980142  0.659741  1
  Li  Li4  1  0.980142  0.659741  0.361528  1
  Li  Li5  1  0.659741  0.361528  0.980142  1
  Te  Te6  1  0.000000  0.000000  0.000000  1
  O  O7  1  0.745611  0.084066  0.726567  1
  O  O8  1  0.915934  0.273433  0.254389  1
  O  O9  1  0.084066  0.726567  0.745611  1
  O  O10  1  0.254389  0.915934  0.273433  1
  O  O11  1  0.726567  0.745611  0.084066  1
  O  O12  1  0.273433  0.254389  0.915934  1
