# generated using pymatgen
data_LiVCrP2(HO5)2
_symmetry_space_group_name_H-M   'P 1'
_cell_length_a   10.19724647
_cell_length_b   7.36452715
_cell_length_c   5.19899056
_cell_angle_alpha   74.50976596
_cell_angle_beta   80.26182768
_cell_angle_gamma   103.09396726
_symmetry_Int_Tables_number   1
_chemical_formula_structural   LiVCrP2(HO5)2
_chemical_formula_sum   'Li2 V2 Cr2 P4 H4 O20'
_cell_volume   355.33035660
_cell_formula_units_Z   2
loop_
 _symmetry_equiv_pos_site_id
 _symmetry_equiv_pos_as_xyz
  1  'x, y, z'
loop_
 _atom_site_type_symbol
 _atom_site_label
 _atom_site_symmetry_multiplicity
 _atom_site_fract_x
 _atom_site_fract_y
 _atom_site_fract_z
 _atom_site_occupancy
  Li  Li0  1  0.279266  0.128903  0.648063  1
  Li  Li1  1  0.720734  0.871097  0.351937  1
  V  V2  1  0.248848  0.743201  0.255422  1
  V  V3  1  0.751152  0.256799  0.744578  1
  Cr  Cr4  1  0.000000  0.000000  0.000000  1
  Cr  Cr5  1  0.500000  0.500000  0.500000  1
  P  P6  1  0.063029  0.286047  0.386236  1
  P  P7  1  0.437384  0.207513  0.111142  1
  P  P8  1  0.562616  0.792487  0.888858  1
  P  P9  1  0.936971  0.713953  0.613764  1
  H  H10  1  0.142304  0.794992  0.851246  1
  H  H11  1  0.345508  0.682738  0.670009  1
  H  H12  1  0.654492  0.317262  0.329991  1
  H  H13  1  0.857696  0.205008  0.148754  1
  O  O14  1  0.088018  0.157429  0.209331  1
  O  O15  1  0.108408  0.219164  0.655229  1
  O  O16  1  0.093434  0.715962  0.560532  1
  O  O17  1  0.152984  0.502432  0.222631  1
  O  O18  1  0.342052  0.998939  0.290464  1
  O  O19  1  0.162520  0.881296  0.965158  1
  O  O20  1  0.396920  0.269306  0.836168  1
  O  O21  1  0.343777  0.625189  0.518990  1
  O  O22  1  0.411728  0.339547  0.288003  1
  O  O23  1  0.406143  0.789359  0.936948  1
  O  O24  1  0.593857  0.210641  0.063052  1
  O  O25  1  0.588272  0.660453  0.711997  1
  O  O26  1  0.656223  0.374811  0.481010  1
  O  O27  1  0.603080  0.730694  0.163832  1
  O  O28  1  0.837480  0.118704  0.034842  1
  O  O29  1  0.657948  0.001061  0.709536  1
  O  O30  1  0.847016  0.497568  0.777369  1
  O  O31  1  0.906566  0.284038  0.439468  1
  O  O32  1  0.891592  0.780836  0.344771  1
  O  O33  1  0.911982  0.842571  0.790669  1
