# generated using pymatgen
data_La2P4O13
_symmetry_space_group_name_H-M   'P 1'
_cell_length_a   7.34803024
_cell_length_b   9.84419403
_cell_length_c   8.91831731
_cell_angle_alpha   90.00000000
_cell_angle_beta   90.00000000
_cell_angle_gamma   68.08587566
_symmetry_Int_Tables_number   1
_chemical_formula_structural   La2P4O13
_chemical_formula_sum   'La4 P8 O26'
_cell_volume   598.49745040
_cell_formula_units_Z   2
loop_
 _symmetry_equiv_pos_site_id
 _symmetry_equiv_pos_as_xyz
  1  'x, y, z'
loop_
 _atom_site_type_symbol
 _atom_site_label
 _atom_site_symmetry_multiplicity
 _atom_site_fract_x
 _atom_site_fract_y
 _atom_site_fract_z
 _atom_site_occupancy
  La  La0  1  0.397955  0.706338  0.392497  1
  La  La1  1  0.895707  0.706338  0.607503  1
  La  La2  1  0.602045  0.293662  0.892497  1
  La  La3  1  0.104293  0.293662  0.107503  1
  P  P4  1  0.273647  0.882854  0.018169  1
  P  P5  1  0.843499  0.882854  0.981831  1
  P  P6  1  0.902954  0.683374  0.244675  1
  P  P7  1  0.413674  0.683374  0.755325  1
  P  P8  1  0.586326  0.316626  0.255325  1
  P  P9  1  0.097046  0.316626  0.744675  1
  P  P10  1  0.156501  0.117146  0.481831  1
  P  P11  1  0.726353  0.117146  0.518169  1
  O  O12  1  0.291458  0.961136  0.462068  1
  O  O13  1  0.747406  0.961136  0.537932  1
  O  O14  1  0.062170  0.875661  0.000000  1
  O  O15  1  0.796383  0.827779  0.140948  1
  O  O16  1  0.375838  0.827779  0.859052  1
  O  O17  1  0.378928  0.775595  0.139203  1
  O  O18  1  0.845477  0.775595  0.860797  1
  O  O19  1  0.060040  0.712061  0.341144  1
  O  O20  1  0.227900  0.712061  0.658856  1
  O  O21  1  0.577185  0.679864  0.645380  1
  O  O22  1  0.742953  0.679864  0.354620  1
  O  O23  1  0.980670  0.551207  0.142880  1
  O  O24  1  0.468123  0.551207  0.857120  1
  O  O25  1  0.531877  0.448793  0.357120  1
  O  O26  1  0.019330  0.448793  0.642880  1
  O  O27  1  0.422815  0.320136  0.145380  1
  O  O28  1  0.257047  0.320136  0.854620  1
  O  O29  1  0.939960  0.287939  0.841144  1
  O  O30  1  0.772100  0.287939  0.158856  1
  O  O31  1  0.154523  0.224405  0.360797  1
  O  O32  1  0.621072  0.224405  0.639203  1
  O  O33  1  0.624162  0.172221  0.359052  1
  O  O34  1  0.203617  0.172221  0.640948  1
  O  O35  1  0.937830  0.124339  0.500000  1
  O  O36  1  0.708542  0.038864  0.962068  1
  O  O37  1  0.252594  0.038864  0.037932  1
