# generated using pymatgen
data_Na2CuO2
_symmetry_space_group_name_H-M   'P 1'
_cell_length_a   5.38667329
_cell_length_b   5.38667329
_cell_length_c   8.24148555
_cell_angle_alpha   90.00000000
_cell_angle_beta   90.00000000
_cell_angle_gamma   31.77747500
_symmetry_Int_Tables_number   1
_chemical_formula_structural   Na2CuO2
_chemical_formula_sum   'Na4 Cu2 O4'
_cell_volume   125.93471587
_cell_formula_units_Z   2
loop_
 _symmetry_equiv_pos_site_id
 _symmetry_equiv_pos_as_xyz
  1  'x, y, z'
loop_
 _atom_site_type_symbol
 _atom_site_label
 _atom_site_symmetry_multiplicity
 _atom_site_fract_x
 _atom_site_fract_y
 _atom_site_fract_z
 _atom_site_occupancy
  Na  Na0  1  0.147191  0.147191  0.668121  1
  Na  Na1  1  0.393522  0.393522  0.848539  1
  Na  Na2  1  0.852809  0.852809  0.168121  1
  Na  Na3  1  0.606478  0.606478  0.348539  1
  Cu  Cu4  1  0.122310  0.122310  0.003432  1
  Cu  Cu5  1  0.877690  0.877690  0.503432  1
  O  O6  1  0.274920  0.274920  0.403357  1
  O  O7  1  0.517044  0.517044  0.091441  1
  O  O8  1  0.482956  0.482956  0.591441  1
  O  O9  1  0.725080  0.725080  0.903357  1
