# generated using pymatgen
data_TbInO3
_symmetry_space_group_name_H-M   'P 1'
_cell_length_a   5.56706663
_cell_length_b   5.89846629
_cell_length_c   8.20451296
_cell_angle_alpha   90.00009567
_cell_angle_beta   90.00024654
_cell_angle_gamma   89.99955293
_symmetry_Int_Tables_number   1
_chemical_formula_structural   TbInO3
_chemical_formula_sum   'Tb4 In4 O12'
_cell_volume   269.41286254
_cell_formula_units_Z   4
loop_
 _symmetry_equiv_pos_site_id
 _symmetry_equiv_pos_as_xyz
  1  'x, y, z'
loop_
 _atom_site_type_symbol
 _atom_site_label
 _atom_site_symmetry_multiplicity
 _atom_site_fract_x
 _atom_site_fract_y
 _atom_site_fract_z
 _atom_site_occupancy
  Tb  Tb0  1  0.021099  0.935153  0.750000  1
  Tb  Tb1  1  0.478900  0.435154  0.749999  1
  Tb  Tb2  1  0.521100  0.564847  0.250001  1
  Tb  Tb3  1  0.978900  0.064847  0.250000  1
  In  In4  1  0.000001  0.500000  0.000001  1
  In  In5  1  0.000001  0.500001  0.500000  1
  In  In6  1  0.500000  -0.000002  0.000000  1
  In  In7  1  0.499999  0.000000  0.500000  1
  O  O8  1  0.144189  0.430294  0.249999  1
  O  O9  1  0.184606  0.188324  0.573600  1
  O  O10  1  0.184604  0.188326  0.926398  1
  O  O11  1  0.315394  0.688326  0.926399  1
  O  O12  1  0.315396  0.688323  0.573602  1
  O  O13  1  0.355811  0.930293  0.250001  1
  O  O14  1  0.644189  0.069708  0.749999  1
  O  O15  1  0.684605  0.311674  0.073600  1
  O  O16  1  0.684604  0.311674  0.426399  1
  O  O17  1  0.815396  0.811675  0.073601  1
  O  O18  1  0.815396  0.811673  0.426401  1
  O  O19  1  0.855811  0.569708  0.750001  1
