# generated using pymatgen
data_LiCoSiO4
_symmetry_space_group_name_H-M   'P 1'
_cell_length_a   5.07209567
_cell_length_b   5.43438175
_cell_length_c   6.34933761
_cell_angle_alpha   89.99070018
_cell_angle_beta   91.43177483
_cell_angle_gamma   89.99710862
_symmetry_Int_Tables_number   1
_chemical_formula_structural   LiCoSiO4
_chemical_formula_sum   'Li2 Co2 Si2 O8'
_cell_volume   174.95661974
_cell_formula_units_Z   2
loop_
 _symmetry_equiv_pos_site_id
 _symmetry_equiv_pos_as_xyz
  1  'x, y, z'
loop_
 _atom_site_type_symbol
 _atom_site_label
 _atom_site_symmetry_multiplicity
 _atom_site_fract_x
 _atom_site_fract_y
 _atom_site_fract_z
 _atom_site_occupancy
  Li  Li0  1  0.003860  0.656500  0.265212  1
  Li  Li1  1  0.503762  0.343555  0.765245  1
  Co  Co2  1  0.002087  0.180872  0.009507  1
  Co  Co3  1  0.502190  0.819043  0.509430  1
  Si  Si4  1  0.009304  0.680204  0.763092  1
  Si  Si5  1  0.509326  0.319739  0.262933  1
  O  O6  1  0.330157  0.671480  0.731338  1
  O  O7  1  0.369663  0.219849  0.042845  1
  O  O8  1  0.449698  0.152461  0.473763  1
  O  O9  1  0.393421  0.599056  0.301209  1
  O  O10  1  0.830036  0.328547  0.231332  1
  O  O11  1  0.869703  0.780231  0.542685  1
  O  O12  1  0.949669  0.847456  0.973582  1
  O  O13  1  0.893334  0.401015  0.801149  1
