# generated using pymatgen
data_Li8Mn5Fe3(BO3)8
_symmetry_space_group_name_H-M   'P 1'
_cell_length_a   6.03076077
_cell_length_b   9.84769552
_cell_length_c   9.73821045
_cell_angle_alpha   64.43309521
_cell_angle_beta   78.49231118
_cell_angle_gamma   79.23444175
_symmetry_Int_Tables_number   1
_chemical_formula_structural   Li8Mn5Fe3(BO3)8
_chemical_formula_sum   'Li8 Mn5 Fe3 B8 O24'
_cell_volume   507.89798598
_cell_formula_units_Z   1
loop_
 _symmetry_equiv_pos_site_id
 _symmetry_equiv_pos_as_xyz
  1  'x, y, z'
loop_
 _atom_site_type_symbol
 _atom_site_label
 _atom_site_symmetry_multiplicity
 _atom_site_fract_x
 _atom_site_fract_y
 _atom_site_fract_z
 _atom_site_occupancy
  Li  Li0  1  0.953695  0.183190  0.532938  1
  Li  Li1  1  0.955065  0.685296  0.032936  1
  Li  Li2  1  0.544369  0.814939  0.965293  1
  Li  Li3  1  0.455213  0.686669  0.534238  1
  Li  Li4  1  0.545675  0.314209  0.466561  1
  Li  Li5  1  0.455446  0.184743  0.033617  1
  Li  Li6  1  0.045905  0.316181  0.966215  1
  Li  Li7  1  0.047358  0.817373  0.467489  1
  Mn  Mn8  1  0.685695  0.374927  0.706477  1
  Mn  Mn9  1  0.686964  0.875472  0.206716  1
  Mn  Mn10  1  0.313119  0.124283  0.793040  1
  Mn  Mn11  1  0.314220  0.626921  0.294454  1
  Mn  Mn12  1  0.185419  0.372864  0.206431  1
  Fe  Fe13  1  0.817342  0.625644  0.797482  1
  Fe  Fe14  1  0.816692  0.128078  0.290985  1
  Fe  Fe15  1  0.180428  0.870295  0.709684  1
  B  B16  1  0.665008  0.960597  0.632153  1
  B  B17  1  0.833398  0.034629  0.866640  1
  B  B18  1  0.832649  0.536495  0.367566  1
  B  B19  1  0.667276  0.461139  0.131816  1
  B  B20  1  0.336544  0.538365  0.866456  1
  B  B21  1  0.166424  0.465689  0.632149  1
  B  B22  1  0.165858  0.965509  0.132615  1
  B  B23  1  0.333157  0.036907  0.369557  1
  O  O24  1  0.823505  0.892103  0.984854  1
  O  O25  1  0.985479  0.439333  0.752828  1
  O  O26  1  0.985118  0.938934  0.254498  1
  O  O27  1  0.839955  0.844181  0.636943  1
  O  O28  1  0.824624  0.392438  0.484355  1
  O  O29  1  0.482740  0.934375  0.752310  1
  O  O30  1  0.837289  0.342219  0.138131  1
  O  O31  1  0.662927  0.152093  0.864325  1
  O  O32  1  0.659641  0.652151  0.365355  1
  O  O33  1  0.516959  0.565937  0.746544  1
  O  O34  1  0.673958  0.104162  0.514671  1
  O  O35  1  0.680987  0.603002  0.011276  1
  O  O36  1  0.324367  0.395043  0.983397  1
  O  O37  1  0.323587  0.894605  0.487329  1
  O  O38  1  0.487336  0.436908  0.251317  1
  O  O39  1  0.337051  0.347965  0.635012  1
  O  O40  1  0.337193  0.848821  0.134372  1
  O  O41  1  0.163854  0.655111  0.864208  1
  O  O42  1  0.514298  0.065026  0.248382  1
  O  O43  1  0.175923  0.608641  0.515092  1
  O  O44  1  0.158002  0.152715  0.365336  1
  O  O45  1  0.013674  0.060607  0.745355  1
  O  O46  1  0.013198  0.564601  0.246231  1
  O  O47  1  0.175417  0.108614  0.014367  1
