# generated using pymatgen
data_LiMnPO4
_symmetry_space_group_name_H-M   'P 1'
_cell_length_a   8.83785466
_cell_length_b   7.97037670
_cell_length_c   15.39420781
_cell_angle_alpha   90.00000000
_cell_angle_beta   90.84017934
_cell_angle_gamma   90.00000000
_symmetry_Int_Tables_number   1
_chemical_formula_structural   LiMnPO4
_chemical_formula_sum   'Li12 Mn12 P12 O48'
_cell_volume   1084.26728191
_cell_formula_units_Z   12
loop_
 _symmetry_equiv_pos_site_id
 _symmetry_equiv_pos_as_xyz
  1  'x, y, z'
loop_
 _atom_site_type_symbol
 _atom_site_label
 _atom_site_symmetry_multiplicity
 _atom_site_fract_x
 _atom_site_fract_y
 _atom_site_fract_z
 _atom_site_occupancy
  Li  Li0  1  0.207299  0.991966  0.935601  1
  Li  Li1  1  0.223856  0.015462  0.586584  1
  Li  Li2  1  0.250598  0.867121  0.246298  1
  Li  Li3  1  0.249402  0.367121  0.253702  1
  Li  Li4  1  0.276144  0.515462  0.913416  1
  Li  Li5  1  0.292701  0.491966  0.564399  1
  Li  Li6  1  0.707299  0.508034  0.435601  1
  Li  Li7  1  0.723856  0.484538  0.086584  1
  Li  Li8  1  0.750598  0.632879  0.746298  1
  Li  Li9  1  0.749402  0.132879  0.753702  1
  Li  Li10  1  0.776144  0.984538  0.413416  1
  Li  Li11  1  0.792701  0.008034  0.064399  1
  Mn  Mn12  1  0.057109  0.664793  0.404846  1
  Mn  Mn13  1  0.077889  0.823086  0.763028  1
  Mn  Mn14  1  0.098129  0.664571  0.081261  1
  Mn  Mn15  1  0.401871  0.164571  0.418739  1
  Mn  Mn16  1  0.422111  0.323086  0.736972  1
  Mn  Mn17  1  0.442891  0.164793  0.095154  1
  Mn  Mn18  1  0.557109  0.835207  0.904846  1
  Mn  Mn19  1  0.577889  0.676914  0.263028  1
  Mn  Mn20  1  0.598129  0.835429  0.581261  1
  Mn  Mn21  1  0.901871  0.335429  0.918739  1
  Mn  Mn22  1  0.922111  0.176914  0.236972  1
  Mn  Mn23  1  0.942891  0.335207  0.595154  1
  P  P24  1  0.051475  0.258007  0.412642  1
  P  P25  1  0.085736  0.221763  0.772290  1
  P  P26  1  0.107982  0.264885  0.071825  1
  P  P27  1  0.392018  0.764885  0.428175  1
  P  P28  1  0.414264  0.721763  0.727710  1
  P  P29  1  0.448525  0.758007  0.087358  1
  P  P30  1  0.551475  0.241993  0.912642  1
  P  P31  1  0.585736  0.278237  0.272290  1
  P  P32  1  0.607982  0.235115  0.571825  1
  P  P33  1  0.892018  0.735115  0.928175  1
  P  P34  1  0.914264  0.778237  0.227710  1
  P  P35  1  0.948525  0.741993  0.587358  1
  O  O36  1  0.037305  0.573360  0.596221  1
  O  O37  1  0.046382  0.880912  0.631645  1
  O  O38  1  0.053764  0.782282  0.961952  1
  O  O39  1  0.089209  0.054760  0.825318  1
  O  O40  1  0.093233  0.367786  0.839060  1
  O  O41  1  0.066514  0.767523  0.280313  1
  O  O42  1  0.086584  0.215694  0.509416  1
  O  O43  1  0.102769  0.286020  0.172384  1
  O  O44  1  0.161985  0.433520  0.030988  1
  O  O45  1  0.214462  0.226213  0.704680  1
  O  O46  1  0.205694  0.272354  0.364307  1
  O  O47  1  0.222487  0.126107  0.046660  1
  O  O48  1  0.277513  0.626107  0.453340  1
  O  O49  1  0.294306  0.772354  0.135693  1
  O  O50  1  0.285538  0.726213  0.795320  1
  O  O51  1  0.338015  0.933520  0.469012  1
  O  O52  1  0.397231  0.786020  0.327616  1
  O  O53  1  0.413416  0.715694  0.990584  1
  O  O54  1  0.406767  0.867786  0.660940  1
  O  O55  1  0.433486  0.267523  0.219687  1
  O  O56  1  0.410791  0.554760  0.674682  1
  O  O57  1  0.446236  0.282282  0.538048  1
  O  O58  1  0.453618  0.380912  0.868355  1
  O  O59  1  0.462695  0.073360  0.903779  1
  O  O60  1  0.537305  0.926640  0.096221  1
  O  O61  1  0.546382  0.619088  0.131645  1
  O  O62  1  0.553764  0.717718  0.461952  1
  O  O63  1  0.589209  0.445240  0.325318  1
  O  O64  1  0.566514  0.732477  0.780313  1
  O  O65  1  0.593233  0.132214  0.339060  1
  O  O66  1  0.586584  0.284306  0.009416  1
  O  O67  1  0.602769  0.213980  0.672384  1
  O  O68  1  0.661985  0.066480  0.530988  1
  O  O69  1  0.714462  0.273787  0.204679  1
  O  O70  1  0.705694  0.227646  0.864307  1
  O  O71  1  0.722487  0.373893  0.546660  1
  O  O72  1  0.777513  0.873893  0.953340  1
  O  O73  1  0.794306  0.727646  0.635693  1
  O  O74  1  0.785538  0.773787  0.295320  1
  O  O75  1  0.838015  0.566480  0.969012  1
  O  O76  1  0.897231  0.713980  0.827616  1
  O  O77  1  0.913416  0.784306  0.490584  1
  O  O78  1  0.933486  0.232477  0.719687  1
  O  O79  1  0.906767  0.632214  0.160940  1
  O  O80  1  0.910791  0.945240  0.174682  1
  O  O81  1  0.946236  0.217718  0.038048  1
  O  O82  1  0.953618  0.119087  0.368355  1
  O  O83  1  0.962695  0.426640  0.403779  1
