# generated using pymatgen
data_Li8MnFe7(BO3)8
_symmetry_space_group_name_H-M   'P 1'
_cell_length_a   5.23120393
_cell_length_b   5.21893106
_cell_length_c   20.80410692
_cell_angle_alpha   89.14278539
_cell_angle_beta   90.87850878
_cell_angle_gamma   60.03055070
_symmetry_Int_Tables_number   1
_chemical_formula_structural   Li8MnFe7(BO3)8
_chemical_formula_sum   'Li8 Mn1 Fe7 B8 O24'
_cell_volume   491.80999294
_cell_formula_units_Z   1
loop_
 _symmetry_equiv_pos_site_id
 _symmetry_equiv_pos_as_xyz
  1  'x, y, z'
loop_
 _atom_site_type_symbol
 _atom_site_label
 _atom_site_symmetry_multiplicity
 _atom_site_fract_x
 _atom_site_fract_y
 _atom_site_fract_z
 _atom_site_occupancy
  Li  Li0  1  0.327037  0.653424  0.666742  1
  Li  Li1  1  0.345934  0.672628  0.916373  1
  Li  Li2  1  0.329843  0.654077  0.165080  1
  Li  Li3  1  0.344403  0.677895  0.417605  1
  Li  Li4  1  0.644727  0.341466  0.792088  1
  Li  Li5  1  0.655651  0.356572  0.541837  1
  Li  Li6  1  0.654881  0.330209  0.291714  1
  Li  Li7  1  0.660318  0.351746  0.041411  1
  Mn  Mn8  1  0.673748  0.999876  0.432496  1
  Fe  Fe9  1  0.328131  0.018858  0.560768  1
  Fe  Fe10  1  0.327717  0.020761  0.059694  1
  Fe  Fe11  1  0.681239  0.997105  0.933860  1
  Fe  Fe12  1  0.998217  0.320101  0.684662  1
  Fe  Fe13  1  0.997881  0.322339  0.184259  1
  Fe  Fe14  1  0.988246  0.665599  0.808889  1
  Fe  Fe15  1  0.003515  0.666377  0.307484  1
  B  B16  1  0.004346  0.331299  0.936751  1
  B  B17  1  0.002596  0.337684  0.436886  1
  B  B18  1  0.328615  0.005379  0.812196  1
  B  B19  1  0.330980  0.000776  0.310242  1
  B  B20  1  0.667635  0.994436  0.687446  1
  B  B21  1  0.668803  0.994719  0.186390  1
  B  B22  1  0.991350  0.672830  0.563252  1
  B  B23  1  0.997035  0.671698  0.061747  1
  O  O24  1  0.064617  0.256219  0.791762  1
  O  O25  1  0.066193  0.249902  0.290754  1
  O  O26  1  0.259390  0.063324  0.951751  1
  O  O27  1  0.022823  0.578290  0.917614  1
  O  O28  1  0.252946  0.065906  0.452783  1
  O  O29  1  0.032581  0.576010  0.415722  1
  O  O30  1  0.577494  0.031545  0.826462  1
  O  O31  1  0.261496  0.657546  0.570058  1
  O  O32  1  0.580482  0.023508  0.324696  1
  O  O33  1  0.266988  0.655084  0.068618  1
  O  O34  1  0.341989  0.736136  0.819521  1
  O  O35  1  0.349939  0.727194  0.317455  1
  O  O36  1  0.644737  0.270419  0.693041  1
  O  O37  1  0.646076  0.270161  0.192072  1
  O  O38  1  0.728872  0.354137  0.942623  1
  O  O39  1  0.421249  0.975150  0.668774  1
  O  O40  1  0.725757  0.368413  0.443572  1
  O  O41  1  0.423213  0.974843  0.167595  1
  O  O42  1  0.965896  0.422322  0.577938  1
  O  O43  1  0.970832  0.421077  0.076633  1
  O  O44  1  0.740694  0.934399  0.542535  1
  O  O45  1  0.745069  0.932122  0.041377  1
  O  O46  1  0.937409  0.739952  0.701926  1
  O  O47  1  0.939211  0.739687  0.201048  1
