# generated using pymatgen
data_LiV2O2F3
_symmetry_space_group_name_H-M   'P 1'
_cell_length_a   5.30695727
_cell_length_b   5.85105852
_cell_length_c   7.20521486
_cell_angle_alpha   70.03051578
_cell_angle_beta   90.06102288
_cell_angle_gamma   63.03182654
_symmetry_Int_Tables_number   1
_chemical_formula_structural   LiV2O2F3
_chemical_formula_sum   'Li2 V4 O4 F6'
_cell_volume   184.13722699
_cell_formula_units_Z   2
loop_
 _symmetry_equiv_pos_site_id
 _symmetry_equiv_pos_as_xyz
  1  'x, y, z'
loop_
 _atom_site_type_symbol
 _atom_site_label
 _atom_site_symmetry_multiplicity
 _atom_site_fract_x
 _atom_site_fract_y
 _atom_site_fract_z
 _atom_site_occupancy
  Li  Li0  1  0.001296  0.999921  0.498598  1
  Li  Li1  1  0.999624  0.002699  0.999859  1
  V  V2  1  0.622708  0.769188  0.704867  1
  V  V3  1  0.609659  0.768807  0.204728  1
  V  V4  1  0.389877  0.234568  0.793350  1
  V  V5  1  0.376395  0.234778  0.293081  1
  O  O6  1  0.723175  0.841659  0.938508  1
  O  O7  1  0.437464  0.841408  0.438271  1
  O  O8  1  0.561540  0.162346  0.559669  1
  O  O9  1  0.276487  0.161892  0.059561  1
  F  F10  1  0.043611  0.609258  0.660145  1
  F  F11  1  0.651014  0.394579  0.837783  1
  F  F12  1  0.347107  0.609864  0.161062  1
  F  F13  1  0.955116  0.393567  0.336710  1
  F  F14  1  0.199009  0.001402  0.749210  1
  F  F15  1  0.800664  0.001982  0.249146  1
