# generated using pymatgen
data_BaCaI4
_symmetry_space_group_name_H-M   'P 1'
_cell_length_a   8.16291142
_cell_length_b   10.31772032
_cell_length_c   8.16291142
_cell_angle_alpha   66.69801779
_cell_angle_beta   90.00000000
_cell_angle_gamma   113.30198221
_symmetry_Int_Tables_number   1
_chemical_formula_structural   BaCaI4
_chemical_formula_sum   'Ba2 Ca2 I8'
_cell_volume   569.85459786
_cell_formula_units_Z   2
loop_
 _symmetry_equiv_pos_site_id
 _symmetry_equiv_pos_as_xyz
  1  'x, y, z'
loop_
 _atom_site_type_symbol
 _atom_site_label
 _atom_site_symmetry_multiplicity
 _atom_site_fract_x
 _atom_site_fract_y
 _atom_site_fract_z
 _atom_site_occupancy
  Ba  Ba0  1  0.875000  0.250000  0.375000  1
  Ba  Ba1  1  0.125000  0.750000  0.625000  1
  Ca  Ca2  1  0.625000  0.750000  0.125000  1
  Ca  Ca3  1  0.375000  0.250000  0.875000  1
  I  I4  1  0.115172  0.078596  0.234156  1
  I  I5  1  0.265844  0.578596  0.036575  1
  I  I6  1  0.812753  0.578596  0.384828  1
  I  I7  1  0.536575  0.921404  0.312753  1
  I  I8  1  0.463425  0.078596  0.687247  1
  I  I9  1  0.187247  0.421404  0.615172  1
  I  I10  1  0.734156  0.421404  0.963425  1
  I  I11  1  0.884828  0.921404  0.765844  1
