# generated using pymatgen
data_Th(MoO4)2
_symmetry_space_group_name_H-M   'P 1'
_cell_length_a   18.68800835
_cell_length_b   18.68800825
_cell_length_c   6.20651573
_cell_angle_alpha   90.00000000
_cell_angle_beta   90.00000000
_cell_angle_gamma   120.00000017
_symmetry_Int_Tables_number   1
_chemical_formula_structural   Th(MoO4)2
_chemical_formula_sum   'Th9 Mo18 O72'
_cell_volume   1877.17398957
_cell_formula_units_Z   9
loop_
 _symmetry_equiv_pos_site_id
 _symmetry_equiv_pos_as_xyz
  1  'x, y, z'
loop_
 _atom_site_type_symbol
 _atom_site_label
 _atom_site_symmetry_multiplicity
 _atom_site_fract_x
 _atom_site_fract_y
 _atom_site_fract_z
 _atom_site_occupancy
  Th  Th0  1  0.333333  0.666667  0.000000  1
  Th  Th1  1  0.334969  0.314908  0.500000  1
  Th  Th2  1  0.647909  0.663431  0.500000  1
  Th  Th3  1  0.685092  0.020061  0.500000  1
  Th  Th4  1  0.666667  0.333333  0.000000  1
  Th  Th5  1  0.336569  0.984478  0.500000  1
  Th  Th6  1  0.015522  0.352091  0.500000  1
  Th  Th7  1  0.979939  0.665031  0.500000  1
  Th  Th8  1  0.000000  0.000000  0.000000  1
  Mo  Mo9  1  0.439915  0.921245  0.000000  1
  Mo  Mo10  1  0.521633  0.343779  0.500000  1
  Mo  Mo11  1  0.481329  0.560085  0.000000  1
  Mo  Mo12  1  0.091633  0.257370  0.000000  1
  Mo  Mo13  1  0.742630  0.834264  0.000000  1
  Mo  Mo14  1  0.822145  0.478367  0.500000  1
  Mo  Mo15  1  0.844806  0.264462  0.000000  1
  Mo  Mo16  1  0.218939  0.725154  0.500000  1
  Mo  Mo17  1  0.078755  0.518671  0.000000  1
  Mo  Mo18  1  0.868610  0.030081  0.500000  1
  Mo  Mo19  1  0.165736  0.908367  0.000000  1
  Mo  Mo20  1  0.969919  0.838529  0.500000  1
  Mo  Mo21  1  0.274846  0.493785  0.500000  1
  Mo  Mo22  1  0.735538  0.580344  0.000000  1
  Mo  Mo23  1  0.419656  0.155194  0.000000  1
  Mo  Mo24  1  0.506215  0.781061  0.500000  1
  Mo  Mo25  1  0.656221  0.177855  0.500000  1
  Mo  Mo26  1  0.161471  0.131390  0.500000  1
  O  O27  1  0.974044  0.895441  0.266795  1
  O  O28  1  0.577590  0.346100  0.267839  1
  O  O29  1  0.047210  0.803664  0.500000  1
  O  O30  1  0.440863  0.747092  0.271966  1
  O  O31  1  0.921397  0.025956  0.733205  1
  O  O32  1  0.230367  0.938061  0.758916  1
  O  O33  1  0.543744  0.585622  0.756739  1
  O  O34  1  0.252908  0.693771  0.728034  1
  O  O35  1  0.787166  0.317968  0.000000  1
  O  O36  1  0.061939  0.292306  0.758916  1
  O  O37  1  0.707694  0.769633  0.241084  1
  O  O38  1  0.543744  0.585622  0.243261  1
  O  O39  1  0.414378  0.958122  0.756739  1
  O  O40  1  0.576887  0.896659  0.500000  1
  O  O41  1  0.706305  0.612449  0.245534  1
  O  O42  1  0.046492  0.592369  0.000000  1
  O  O43  1  0.104559  0.078603  0.266795  1
  O  O44  1  0.853800  0.116354  0.500000  1
  O  O45  1  0.262554  0.146200  0.500000  1
  O  O46  1  0.853110  0.890221  0.000000  1
  O  O47  1  0.109779  0.962889  0.000000  1
  O  O48  1  0.530801  0.212834  0.000000  1
  O  O49  1  0.935466  0.524806  0.500000  1
  O  O50  1  0.746258  0.166456  0.500000  1
  O  O51  1  0.545877  0.953508  0.000000  1
  O  O52  1  0.267575  0.833775  0.500000  1
  O  O53  1  0.376686  0.810573  0.000000  1
  O  O54  1  0.906144  0.293695  0.754466  1
  O  O55  1  0.407631  0.454123  0.000000  1
  O  O56  1  0.653900  0.231490  0.732161  1
  O  O57  1  0.037111  0.146890  0.000000  1
  O  O58  1  0.776857  0.156896  0.000000  1
  O  O59  1  0.189427  0.566112  0.000000  1
  O  O60  1  0.414378  0.958122  0.243261  1
  O  O61  1  0.252908  0.693771  0.271966  1
  O  O62  1  0.707694  0.769633  0.758916  1
  O  O63  1  0.198448  0.293393  0.000000  1
  O  O64  1  0.589340  0.064534  0.500000  1
  O  O65  1  0.319772  0.423113  0.500000  1
  O  O66  1  0.440863  0.747092  0.728034  1
  O  O67  1  0.041878  0.456256  0.756739  1
  O  O68  1  0.906144  0.293695  0.245534  1
  O  O69  1  0.094945  0.801552  0.000000  1
  O  O70  1  0.768510  0.422410  0.732161  1
  O  O71  1  0.843104  0.619961  0.000000  1
  O  O72  1  0.230367  0.938061  0.241084  1
  O  O73  1  0.768510  0.422410  0.267839  1
  O  O74  1  0.196336  0.243546  0.500000  1
  O  O75  1  0.380039  0.223143  0.000000  1
  O  O76  1  0.387551  0.093856  0.245534  1
  O  O77  1  0.475194  0.410660  0.500000  1
  O  O78  1  0.682032  0.469199  0.000000  1
  O  O79  1  0.974044  0.895441  0.733205  1
  O  O80  1  0.706305  0.612449  0.754466  1
  O  O81  1  0.706607  0.905055  0.000000  1
  O  O82  1  0.921397  0.025956  0.266795  1
  O  O83  1  0.061939  0.292306  0.241084  1
  O  O84  1  0.833544  0.579802  0.500000  1
  O  O85  1  0.577590  0.346100  0.732161  1
  O  O86  1  0.166225  0.433800  0.500000  1
  O  O87  1  0.433888  0.623314  0.000000  1
  O  O88  1  0.306229  0.559137  0.271966  1
  O  O89  1  0.566200  0.732425  0.500000  1
  O  O90  1  0.387551  0.093856  0.754466  1
  O  O91  1  0.041878  0.456256  0.243261  1
  O  O92  1  0.653900  0.231490  0.267839  1
  O  O93  1  0.756454  0.952790  0.500000  1
  O  O94  1  0.103341  0.680228  0.500000  1
  O  O95  1  0.420198  0.253742  0.500000  1
  O  O96  1  0.306229  0.559137  0.728034  1
  O  O97  1  0.883646  0.737446  0.500000  1
  O  O98  1  0.104559  0.078603  0.733205  1
