# generated using pymatgen
data_Hf2N2O
_symmetry_space_group_name_H-M   'P 1'
_cell_length_a   13.75681929
_cell_length_b   3.27643212
_cell_length_c   8.12129592
_cell_angle_alpha   90.00000000
_cell_angle_beta   99.50711415
_cell_angle_gamma   90.00000000
_symmetry_Int_Tables_number   1
_chemical_formula_structural   Hf2N2O
_chemical_formula_sum   'Hf12 N12 O6'
_cell_volume   361.02577430
_cell_formula_units_Z   6
loop_
 _symmetry_equiv_pos_site_id
 _symmetry_equiv_pos_as_xyz
  1  'x, y, z'
loop_
 _atom_site_type_symbol
 _atom_site_label
 _atom_site_symmetry_multiplicity
 _atom_site_fract_x
 _atom_site_fract_y
 _atom_site_fract_z
 _atom_site_occupancy
  Hf  Hf0  1  0.007729  0.250000  0.177516  1
  Hf  Hf1  1  0.120080  0.250000  0.547034  1
  Hf  Hf2  1  0.223218  0.750000  0.189559  1
  Hf  Hf3  1  0.283392  0.750000  0.829986  1
  Hf  Hf4  1  0.390663  0.250000  0.499237  1
  Hf  Hf5  1  0.437900  0.250000  0.145064  1
  Hf  Hf6  1  0.569709  0.750000  0.880032  1
  Hf  Hf7  1  0.616018  0.750000  0.495182  1
  Hf  Hf8  1  0.719161  0.250000  0.173229  1
  Hf  Hf9  1  0.782394  0.250000  0.815219  1
  Hf  Hf10  1  0.879447  0.750000  0.444665  1
  Hf  Hf11  1  0.982859  0.750000  0.805313  1
  N  N12  1  0.180572  0.250000  0.324341  1
  N  N13  1  0.284628  0.250000  0.663245  1
  N  N14  1  0.266226  0.250000  0.017711  1
  N  N15  1  0.371356  0.750000  0.308881  1
  N  N16  1  0.535058  0.250000  0.382267  1
  N  N17  1  0.568112  0.250000  0.033558  1
  N  N18  1  0.727404  0.750000  0.974954  1
  N  N19  1  0.716341  0.750000  0.336268  1
  N  N20  1  0.809861  0.750000  0.665764  1
  N  N21  1  0.928724  0.250000  0.934954  1
  N  N22  1  0.874024  0.250000  0.269925  1
  N  N23  1  0.973555  0.250000  0.613089  1
  O  O24  1  0.033608  0.750000  0.377614  1
  O  O25  1  0.130381  0.750000  0.719360  1
  O  O26  1  0.070912  0.750000  0.059952  1
  O  O27  1  0.423714  0.750000  0.974075  1
  O  O28  1  0.465616  0.750000  0.640718  1
  O  O29  1  0.627339  0.250000  0.701286  1
