# generated using pymatgen
data_Li8MnFe7(BO3)8
_symmetry_space_group_name_H-M   'P 1'
_cell_length_a   5.24527415
_cell_length_b   9.05695039
_cell_length_c   11.53061303
_cell_angle_alpha   67.40964797
_cell_angle_beta   77.54046832
_cell_angle_gamma   89.68765943
_symmetry_Int_Tables_number   1
_chemical_formula_structural   Li8MnFe7(BO3)8
_chemical_formula_sum   'Li8 Mn1 Fe7 B8 O24'
_cell_volume   492.01166434
_cell_formula_units_Z   1
loop_
 _symmetry_equiv_pos_site_id
 _symmetry_equiv_pos_as_xyz
  1  'x, y, z'
loop_
 _atom_site_type_symbol
 _atom_site_label
 _atom_site_symmetry_multiplicity
 _atom_site_fract_x
 _atom_site_fract_y
 _atom_site_fract_z
 _atom_site_occupancy
  Li  Li0  1  0.970208  0.960274  0.415649  1
  Li  Li1  1  0.705943  0.714473  0.915848  1
  Li  Li2  1  0.514802  0.493553  0.667096  1
  Li  Li3  1  0.730728  0.751494  0.168532  1
  Li  Li4  1  0.475826  0.462511  0.414040  1
  Li  Li5  1  0.204906  0.218140  0.915373  1
  Li  Li6  1  0.015684  0.993550  0.666074  1
  Li  Li7  1  0.234408  0.254085  0.164833  1
  Mn  Mn8  1  0.723580  0.060725  0.884595  1
  Fe  Fe9  1  0.987565  0.643149  0.381206  1
  Fe  Fe10  1  0.524271  0.843338  0.631475  1
  Fe  Fe11  1  0.754609  0.432486  0.132513  1
  Fe  Fe12  1  0.475860  0.147249  0.383148  1
  Fe  Fe13  1  0.220130  0.568625  0.880238  1
  Fe  Fe14  1  0.249608  0.931415  0.135160  1
  Fe  Fe15  1  0.024722  0.344986  0.632122  1
  B  B16  1  0.980983  0.314137  0.375642  1
  B  B17  1  0.733683  0.397849  0.875305  1
  B  B18  1  0.762396  0.102641  0.128936  1
  B  B19  1  0.525212  0.186228  0.625064  1
  B  B20  1  0.481159  0.816019  0.376593  1
  B  B21  1  0.231138  0.894620  0.877191  1
  B  B22  1  0.264792  0.602684  0.126858  1
  B  B23  1  0.022766  0.686748  0.624717  1
  O  O24  1  0.977189  0.890239  0.862570  1
  O  O25  1  0.899341  0.289741  0.844229  1
  O  O26  1  0.833003  0.506588  0.916928  1
  O  O27  1  0.911555  0.829496  0.614596  1
  O  O28  1  0.897350  0.575118  0.594606  1
  O  O29  1  0.761524  0.158136  0.663402  1
  O  O30  1  0.734872  0.339767  0.347377  1
  O  O31  1  0.477990  0.397291  0.862994  1
  O  O32  1  0.400437  0.787056  0.847036  1
  O  O33  1  0.597434  0.919618  0.416640  1
  O  O34  1  0.609108  0.687793  0.361758  1
  O  O35  1  0.321022  0.005471  0.918925  1
  O  O36  1  0.654933  0.984477  0.099522  1
  O  O37  1  0.414036  0.330458  0.612837  1
  O  O38  1  0.401018  0.073559  0.596393  1
  O  O39  1  0.603946  0.207814  0.166131  1
  O  O40  1  0.534023  0.619581  0.115484  1
  O  O41  1  0.258512  0.656875  0.663159  1
  O  O42  1  0.233012  0.841964  0.348296  1
  O  O43  1  0.098918  0.419701  0.414592  1
  O  O44  1  0.107842  0.185069  0.363224  1
  O  O45  1  0.159575  0.484808  0.097172  1
  O  O46  1  0.103070  0.706402  0.165211  1
  O  O47  1  0.032111  0.118794  0.116313  1
