# generated using pymatgen
data_NaPH2OF6
_symmetry_space_group_name_H-M   'P 1'
_cell_length_a   10.71487408
_cell_length_b   7.98767062
_cell_length_c   6.11851701
_cell_angle_alpha   90.00000000
_cell_angle_beta   90.00000000
_cell_angle_gamma   90.00000000
_symmetry_Int_Tables_number   1
_chemical_formula_structural   NaPH2OF6
_chemical_formula_sum   'Na4 P4 H8 O4 F24'
_cell_volume   523.66481101
_cell_formula_units_Z   4
loop_
 _symmetry_equiv_pos_site_id
 _symmetry_equiv_pos_as_xyz
  1  'x, y, z'
loop_
 _atom_site_type_symbol
 _atom_site_label
 _atom_site_symmetry_multiplicity
 _atom_site_fract_x
 _atom_site_fract_y
 _atom_site_fract_z
 _atom_site_occupancy
  Na  Na0  1  0.238410  0.250000  0.750000  1
  Na  Na1  1  0.261590  0.750000  0.750000  1
  Na  Na2  1  0.738410  0.250000  0.250000  1
  Na  Na3  1  0.761590  0.750000  0.250000  1
  P  P4  1  0.000000  0.000000  0.000000  1
  P  P5  1  0.000000  0.500000  0.500000  1
  P  P6  1  0.500000  0.000000  0.000000  1
  P  P7  1  0.500000  0.500000  0.500000  1
  H  H8  1  0.177140  0.504911  0.069774  1
  H  H9  1  0.177140  0.995089  0.430226  1
  H  H10  1  0.322860  0.004911  0.430226  1
  H  H11  1  0.322860  0.495089  0.069774  1
  H  H12  1  0.677140  0.504911  0.930226  1
  H  H13  1  0.677140  0.995089  0.569774  1
  H  H14  1  0.822860  0.004911  0.569774  1
  H  H15  1  0.822860  0.495089  0.930226  1
  O  O16  1  0.250000  0.000000  0.525310  1
  O  O17  1  0.250000  0.500000  0.974690  1
  O  O18  1  0.750000  0.000000  0.474690  1
  O  O19  1  0.750000  0.500000  0.025310  1
  F  F20  1  0.005321  0.529514  0.235591  1
  F  F21  1  0.005321  0.970486  0.264409  1
  F  F22  1  0.101993  0.650772  0.532711  1
  F  F23  1  0.101993  0.849228  0.967289  1
  F  F24  1  0.114150  0.136686  0.020874  1
  F  F25  1  0.114150  0.363314  0.479126  1
  F  F26  1  0.385850  0.636686  0.479126  1
  F  F27  1  0.385850  0.863314  0.020874  1
  F  F28  1  0.398007  0.150772  0.967289  1
  F  F29  1  0.398007  0.349228  0.532711  1
  F  F30  1  0.494679  0.029514  0.264409  1
  F  F31  1  0.494679  0.470486  0.235591  1
  F  F32  1  0.505321  0.529514  0.764409  1
  F  F33  1  0.505321  0.970486  0.735591  1
  F  F34  1  0.601993  0.650772  0.467289  1
  F  F35  1  0.601993  0.849228  0.032711  1
  F  F36  1  0.614150  0.136686  0.979126  1
  F  F37  1  0.614150  0.363314  0.520874  1
  F  F38  1  0.885850  0.636686  0.520874  1
  F  F39  1  0.885850  0.863314  0.979126  1
  F  F40  1  0.898007  0.150772  0.032711  1
  F  F41  1  0.898007  0.349228  0.467289  1
  F  F42  1  0.994679  0.029514  0.735591  1
  F  F43  1  0.994679  0.470486  0.764409  1
