# generated using pymatgen
data_Mo12PH24C6N3O40
_symmetry_space_group_name_H-M   'P 1'
_cell_length_a   12.89555361
_cell_length_b   12.89555361
_cell_length_c   12.89555392
_cell_angle_alpha   81.14966636
_cell_angle_beta   81.14966636
_cell_angle_gamma   81.14966859
_symmetry_Int_Tables_number   1
_chemical_formula_structural   Mo12PH24C6N3O40
_chemical_formula_sum   'Mo24 P2 H48 C12 N6 O80'
_cell_volume   2075.01239835
_cell_formula_units_Z   2
loop_
 _symmetry_equiv_pos_site_id
 _symmetry_equiv_pos_as_xyz
  1  'x, y, z'
loop_
 _atom_site_type_symbol
 _atom_site_label
 _atom_site_symmetry_multiplicity
 _atom_site_fract_x
 _atom_site_fract_y
 _atom_site_fract_z
 _atom_site_occupancy
  Mo  Mo0  1  0.921458  0.698168  0.921458  1
  Mo  Mo1  1  0.698168  0.921458  0.921458  1
  Mo  Mo2  1  0.921458  0.921458  0.698168  1
  Mo  Mo3  1  0.078542  0.301832  0.078542  1
  Mo  Mo4  1  0.301832  0.078542  0.078542  1
  Mo  Mo5  1  0.078542  0.078542  0.301832  1
  Mo  Mo6  1  0.950126  0.518783  0.742508  1
  Mo  Mo7  1  0.518783  0.742508  0.950126  1
  Mo  Mo8  1  0.742508  0.950126  0.518783  1
  Mo  Mo9  1  0.950126  0.742508  0.518783  1
  Mo  Mo10  1  0.742508  0.518783  0.950126  1
  Mo  Mo11  1  0.518783  0.950126  0.742508  1
  Mo  Mo12  1  0.049874  0.481217  0.257492  1
  Mo  Mo13  1  0.481217  0.257492  0.049874  1
  Mo  Mo14  1  0.257492  0.049874  0.481217  1
  Mo  Mo15  1  0.049874  0.257492  0.481217  1
  Mo  Mo16  1  0.257492  0.481217  0.049874  1
  Mo  Mo17  1  0.481217  0.049874  0.257492  1
  Mo  Mo18  1  0.754712  0.547945  0.547945  1
  Mo  Mo19  1  0.547945  0.547945  0.754712  1
  Mo  Mo20  1  0.547945  0.754712  0.547945  1
  Mo  Mo21  1  0.245288  0.452055  0.452055  1
  Mo  Mo22  1  0.452055  0.452055  0.245288  1
  Mo  Mo23  1  0.452055  0.245288  0.452055  1
  P  P24  1  0.734565  0.734565  0.734565  1
  P  P25  1  0.265435  0.265435  0.265435  1
  H  H26  1  0.192108  0.290887  0.668674  1
  H  H27  1  0.290887  0.668674  0.192108  1
  H  H28  1  0.668674  0.192108  0.290887  1
  H  H29  1  0.192108  0.668674  0.290887  1
  H  H30  1  0.668674  0.290887  0.192108  1
  H  H31  1  0.290887  0.192108  0.668674  1
  H  H32  1  0.807892  0.709113  0.331326  1
  H  H33  1  0.709113  0.331326  0.807892  1
  H  H34  1  0.331326  0.807892  0.709113  1
  H  H35  1  0.807892  0.331326  0.709113  1
  H  H36  1  0.331326  0.709113  0.807892  1
  H  H37  1  0.709113  0.807892  0.331326  1
  H  H38  1  0.127511  0.127511  0.740431  1
  H  H39  1  0.127511  0.740431  0.127511  1
  H  H40  1  0.740431  0.127511  0.127511  1
  H  H41  1  0.872489  0.872489  0.259569  1
  H  H42  1  0.872489  0.259569  0.872489  1
  H  H43  1  0.259569  0.872489  0.872489  1
  H  H44  1  0.108987  0.216260  0.838836  1
  H  H45  1  0.216260  0.838836  0.108987  1
  H  H46  1  0.838836  0.108987  0.216260  1
  H  H47  1  0.108987  0.838836  0.216260  1
  H  H48  1  0.838836  0.216260  0.108987  1
  H  H49  1  0.216260  0.108987  0.838836  1
  H  H50  1  0.891013  0.783740  0.161164  1
  H  H51  1  0.783740  0.161164  0.891013  1
  H  H52  1  0.161164  0.891013  0.783740  1
  H  H53  1  0.891013  0.161164  0.783740  1
  H  H54  1  0.161164  0.783740  0.891013  1
  H  H55  1  0.783740  0.891013  0.161164  1
  H  H56  1  0.346007  0.346007  0.714847  1
  H  H57  1  0.346007  0.714847  0.346007  1
  H  H58  1  0.714847  0.346007  0.346007  1
  H  H59  1  0.653993  0.653993  0.285153  1
  H  H60  1  0.653993  0.285153  0.653993  1
  H  H61  1  0.285153  0.653993  0.653993  1
  H  H62  1  0.347389  0.240210  0.823476  1
  H  H63  1  0.240210  0.823476  0.347389  1
  H  H64  1  0.823476  0.347389  0.240210  1
  H  H65  1  0.347389  0.823476  0.240210  1
  H  H66  1  0.823476  0.240210  0.347389  1
  H  H67  1  0.240210  0.347389  0.823476  1
  H  H68  1  0.652611  0.759790  0.176524  1
  H  H69  1  0.759790  0.176524  0.652611  1
  H  H70  1  0.176524  0.652611  0.759790  1
  H  H71  1  0.652611  0.176524  0.759790  1
  H  H72  1  0.176524  0.759790  0.652611  1
  H  H73  1  0.759790  0.652611  0.176524  1
  C  C74  1  0.167223  0.167223  0.789393  1
  C  C75  1  0.167223  0.789393  0.167223  1
  C  C76  1  0.789393  0.167223  0.167223  1
  C  C77  1  0.832777  0.832777  0.210607  1
  C  C78  1  0.832777  0.210607  0.832777  1
  C  C79  1  0.210607  0.832777  0.832777  1
  C  C80  1  0.297259  0.297259  0.774079  1
  C  C81  1  0.297259  0.774079  0.297259  1
  C  C82  1  0.774079  0.297259  0.297259  1
  C  C83  1  0.702741  0.702741  0.225921  1
  C  C84  1  0.702741  0.225921  0.702741  1
  C  C85  1  0.225921  0.702741  0.702741  1
  N  N86  1  0.237544  0.237544  0.717641  1
  N  N87  1  0.237544  0.717641  0.237544  1
  N  N88  1  0.717641  0.237544  0.237544  1
  N  N89  1  0.762456  0.762456  0.282359  1
  N  N90  1  0.762456  0.282359  0.762456  1
  N  N91  1  0.282359  0.762456  0.762456  1
  O  O92  1  0.006522  0.712955  0.006522  1
  O  O93  1  0.712955  0.006522  0.006522  1
  O  O94  1  0.006522  0.006522  0.712955  1
  O  O95  1  0.993478  0.287045  0.993478  1
  O  O96  1  0.287045  0.993478  0.993478  1
  O  O97  1  0.993478  0.993478  0.287045  1
  O  O98  1  0.802169  0.802169  0.958196  1
  O  O99  1  0.802169  0.958196  0.802169  1
  O  O100  1  0.958196  0.802169  0.802169  1
  O  O101  1  0.197831  0.197831  0.041804  1
  O  O102  1  0.197831  0.041804  0.197831  1
  O  O103  1  0.041804  0.197831  0.197831  1
  O  O104  1  0.002398  0.588376  0.842842  1
  O  O105  1  0.588376  0.842842  0.002398  1
  O  O106  1  0.842842  0.002398  0.588376  1
  O  O107  1  0.002398  0.842842  0.588376  1
  O  O108  1  0.842842  0.588376  0.002398  1
  O  O109  1  0.588376  0.002398  0.842842  1
  O  O110  1  0.997602  0.411624  0.157158  1
  O  O111  1  0.411624  0.157158  0.997602  1
  O  O112  1  0.157158  0.997602  0.411624  1
  O  O113  1  0.997602  0.157158  0.411624  1
  O  O114  1  0.157158  0.411624  0.997602  1
  O  O115  1  0.411624  0.997602  0.157158  1
  O  O116  1  0.984334  0.632119  0.632119  1
  O  O117  1  0.632119  0.632119  0.984334  1
  O  O118  1  0.632119  0.984334  0.632119  1
  O  O119  1  0.015666  0.367881  0.367881  1
  O  O120  1  0.367881  0.367881  0.015666  1
  O  O121  1  0.367881  0.015666  0.367881  1
  O  O122  1  0.862329  0.451338  0.862329  1
  O  O123  1  0.451338  0.862329  0.862329  1
  O  O124  1  0.862329  0.862329  0.451338  1
  O  O125  1  0.137671  0.548662  0.137671  1
  O  O126  1  0.548662  0.137671  0.137671  1
  O  O127  1  0.137671  0.137671  0.548662  1
  O  O128  1  0.051514  0.418286  0.720817  1
  O  O129  1  0.418286  0.720817  0.051514  1
  O  O130  1  0.720817  0.051514  0.418286  1
  O  O131  1  0.051514  0.720817  0.418286  1
  O  O132  1  0.720817  0.418286  0.051514  1
  O  O133  1  0.418286  0.051514  0.720817  1
  O  O134  1  0.948486  0.581714  0.279183  1
  O  O135  1  0.581714  0.279183  0.948486  1
  O  O136  1  0.279183  0.948486  0.581714  1
  O  O137  1  0.948486  0.279183  0.581714  1
  O  O138  1  0.279183  0.581714  0.948486  1
  O  O139  1  0.581714  0.948486  0.279183  1
  O  O140  1  0.849316  0.495380  0.653108  1
  O  O141  1  0.495380  0.653108  0.849316  1
  O  O142  1  0.653108  0.849316  0.495380  1
  O  O143  1  0.849316  0.653108  0.495380  1
  O  O144  1  0.653108  0.495380  0.849316  1
  O  O145  1  0.495380  0.849316  0.653108  1
  O  O146  1  0.150684  0.504620  0.346892  1
  O  O147  1  0.504620  0.346892  0.150684  1
  O  O148  1  0.346892  0.150684  0.504620  1
  O  O149  1  0.150684  0.346892  0.504620  1
  O  O150  1  0.346892  0.504620  0.150684  1
  O  O151  1  0.504620  0.150684  0.346892  1
  O  O152  1  0.643059  0.643059  0.483024  1
  O  O153  1  0.643059  0.483024  0.643059  1
  O  O154  1  0.483024  0.643059  0.643059  1
  O  O155  1  0.356941  0.356941  0.516976  1
  O  O156  1  0.356941  0.516976  0.356941  1
  O  O157  1  0.516976  0.356941  0.356941  1
  O  O158  1  0.789679  0.459029  0.459029  1
  O  O159  1  0.459029  0.459029  0.789679  1
  O  O160  1  0.459029  0.789679  0.459029  1
  O  O161  1  0.210321  0.540971  0.540971  1
  O  O162  1  0.540971  0.540971  0.210321  1
  O  O163  1  0.540971  0.210321  0.540971  1
  O  O164  1  0.804982  0.654184  0.804982  1
  O  O165  1  0.654184  0.804982  0.804982  1
  O  O166  1  0.804982  0.804982  0.654184  1
  O  O167  1  0.195018  0.345816  0.195018  1
  O  O168  1  0.345816  0.195018  0.195018  1
  O  O169  1  0.195018  0.195018  0.345816  1
  O  O170  1  0.673968  0.673968  0.673968  1
  O  O171  1  0.326032  0.326032  0.326032  1
