# generated using pymatgen
data_Li3Co5OF11
_symmetry_space_group_name_H-M   'P 1'
_cell_length_a   5.18107837
_cell_length_b   5.55201500
_cell_length_c   9.36411261
_cell_angle_alpha   86.27992780
_cell_angle_beta   72.51940491
_cell_angle_gamma   116.90830387
_symmetry_Int_Tables_number   1
_chemical_formula_structural   Li3Co5OF11
_chemical_formula_sum   'Li3 Co5 O1 F11'
_cell_volume   222.62886239
_cell_formula_units_Z   1
loop_
 _symmetry_equiv_pos_site_id
 _symmetry_equiv_pos_as_xyz
  1  'x, y, z'
loop_
 _atom_site_type_symbol
 _atom_site_label
 _atom_site_symmetry_multiplicity
 _atom_site_fract_x
 _atom_site_fract_y
 _atom_site_fract_z
 _atom_site_occupancy
  Li  Li0  1  0.022482  0.035200  0.999390  1
  Li  Li1  1  0.530531  0.298901  0.266230  1
  Li  Li2  1  0.508408  0.764303  0.760959  1
  Co  Co3  1  0.978071  0.495422  0.498020  1
  Co  Co4  1  0.312762  0.771829  0.146084  1
  Co  Co5  1  0.303086  0.232603  0.647615  1
  Co  Co6  1  0.770910  0.004755  0.401102  1
  Co  Co7  1  0.808510  0.507415  0.906521  1
  O  O8  1  0.602823  0.253865  0.457060  1
  F  F9  1  0.079652  0.854774  0.352224  1
  F  F10  1  0.223586  0.423944  0.288688  1
  F  F11  1  0.208031  0.898643  0.802816  1
  F  F12  1  0.406955  0.159272  0.042144  1
  F  F13  1  0.377234  0.638198  0.542606  1
  F  F14  1  0.098082  0.346564  0.847067  1
  F  F15  1  0.911955  0.599672  0.103104  1
  F  F16  1  0.596040  0.749821  0.950672  1
  F  F17  1  0.709500  0.002332  0.195112  1
  F  F18  1  0.709020  0.506285  0.709090  1
  F  F19  1  0.892119  0.080602  0.608373  1
