# generated using pymatgen
data_Ta2CrNO5
_symmetry_space_group_name_H-M   'P 1'
_cell_length_a   4.75973885
_cell_length_b   4.75973885
_cell_length_c   9.22909862
_cell_angle_alpha   89.68534628
_cell_angle_beta   90.31465372
_cell_angle_gamma   89.93526375
_symmetry_Int_Tables_number   1
_chemical_formula_structural   Ta2CrNO5
_chemical_formula_sum   'Ta4 Cr2 N2 O10'
_cell_volume   209.07983389
_cell_formula_units_Z   2
loop_
 _symmetry_equiv_pos_site_id
 _symmetry_equiv_pos_as_xyz
  1  'x, y, z'
loop_
 _atom_site_type_symbol
 _atom_site_label
 _atom_site_symmetry_multiplicity
 _atom_site_fract_x
 _atom_site_fract_y
 _atom_site_fract_z
 _atom_site_occupancy
  Ta  Ta0  1  0.991346  0.008654  0.343585  1
  Ta  Ta1  1  0.985768  0.014232  0.673758  1
  Ta  Ta2  1  0.494746  0.505254  0.167024  1
  Ta  Ta3  1  0.511065  0.488935  0.829594  1
  Cr  Cr4  1  0.002795  0.997205  0.999777  1
  Cr  Cr5  1  0.501872  0.498128  0.498878  1
  N  N6  1  0.801932  0.198068  0.833776  1
  N  N7  1  0.804708  0.195292  0.498103  1
  O  O8  1  0.197777  0.802223  0.495529  1
  O  O9  1  0.198969  0.801031  0.831486  1
  O  O10  1  0.203194  0.796806  0.166545  1
  O  O11  1  0.306531  0.301274  0.327864  1
  O  O12  1  0.301784  0.306534  0.668183  1
  O  O13  1  0.307526  0.307250  0.000916  1
  O  O14  1  0.692750  0.692474  0.000916  1
  O  O15  1  0.698726  0.693469  0.327864  1
  O  O16  1  0.693465  0.698216  0.668183  1
  O  O17  1  0.805044  0.194956  0.168020  1
