# generated using pymatgen
data_Li3V3P8O29
_symmetry_space_group_name_H-M   'P 1'
_cell_length_a   9.72102969
_cell_length_b   9.73752270
_cell_length_c   14.36266432
_cell_angle_alpha   90.30254763
_cell_angle_beta   90.56500736
_cell_angle_gamma   60.29453316
_symmetry_Int_Tables_number   1
_chemical_formula_structural   Li3V3P8O29
_chemical_formula_sum   'Li6 V6 P16 O58'
_cell_volume   1180.82773551
_cell_formula_units_Z   2
loop_
 _symmetry_equiv_pos_site_id
 _symmetry_equiv_pos_as_xyz
  1  'x, y, z'
loop_
 _atom_site_type_symbol
 _atom_site_label
 _atom_site_symmetry_multiplicity
 _atom_site_fract_x
 _atom_site_fract_y
 _atom_site_fract_z
 _atom_site_occupancy
  Li  Li0  1  0.768539  0.323668  0.053819  1
  Li  Li1  1  0.321471  0.907857  0.055847  1
  Li  Li2  1  0.327944  0.770821  0.561978  1
  Li  Li3  1  0.085726  0.679830  0.443773  1
  Li  Li4  1  0.980112  0.963667  0.994149  1
  Li  Li5  1  0.950384  0.075352  0.503437  1
  V  V6  1  0.566247  0.432498  0.252009  1
  V  V7  1  0.436640  0.561363  0.752967  1
  V  V8  1  0.566066  0.997766  0.748841  1
  V  V9  1  0.440274  0.002547  0.253150  1
  V  V10  1  0.996744  0.563405  0.245245  1
  V  V11  1  0.000808  0.435088  0.748067  1
  P  P12  1  0.916717  0.780255  0.835062  1
  P  P13  1  0.784589  0.915453  0.341570  1
  P  P14  1  0.918160  0.306117  0.342974  1
  P  P15  1  0.661261  0.665879  0.132907  1
  P  P16  1  0.664294  0.667362  0.632233  1
  P  P17  1  0.779492  0.311414  0.842079  1
  P  P18  1  0.691216  0.221227  0.663073  1
  P  P19  1  0.311848  0.912526  0.843908  1
  P  P20  1  0.697457  0.082656  0.157419  1
  P  P21  1  0.318867  0.772411  0.342242  1
  P  P22  1  0.222266  0.691225  0.162612  1
  P  P23  1  0.330220  0.338447  0.365986  1
  P  P24  1  0.334295  0.329839  0.865610  1
  P  P25  1  0.089204  0.687173  0.655477  1
  P  P26  1  0.216870  0.084912  0.663696  1
  P  P27  1  0.086288  0.218853  0.161323  1
  O  O28  1  0.020105  0.764754  0.564421  1
  O  O29  1  0.918404  0.738965  0.334182  1
  O  O30  1  0.791103  0.007002  0.073326  1
  O  O31  1  0.740847  0.914707  0.828727  1
  O  O32  1  0.923338  0.618537  0.825880  1
  O  O33  1  0.811183  0.664922  0.179530  1
  O  O34  1  0.922115  0.462014  0.327833  1
  O  O35  1  0.992660  0.214863  0.080212  1
  O  O36  1  0.917126  0.346241  0.830114  1
  O  O37  1  0.663284  0.814753  0.678946  1
  O  O38  1  0.620805  0.919734  0.327122  1
  O  O39  1  0.813305  0.523345  0.677791  1
  O  O40  1  0.661655  0.663791  0.029637  1
  O  O41  1  0.659800  0.672244  0.528835  1
  O  O42  1  0.669382  0.512336  0.173010  1
  O  O43  1  0.467413  0.915390  0.829578  1
  O  O44  1  0.513538  0.814130  0.175241  1
  O  O45  1  0.742817  0.344900  0.327270  1
  O  O46  1  0.793744  0.197388  0.757835  1
  O  O47  1  0.786493  0.209414  0.581067  1
  O  O48  1  0.789033  0.233197  0.932707  1
  O  O49  1  0.620979  0.469445  0.826477  1
  O  O50  1  0.513370  0.668594  0.671987  1
  O  O51  1  0.656282  0.259415  0.164536  1
  O  O52  1  0.477679  0.617805  0.324362  1
  O  O53  1  0.346418  0.915327  0.331928  1
  O  O54  1  0.801520  0.998726  0.249249  1
  O  O55  1  0.802488  0.993151  0.425564  1
  O  O56  1  0.198041  0.995496  0.584296  1
  O  O57  1  0.649634  0.086838  0.668373  1
  O  O58  1  0.536495  0.381885  0.674647  1
  O  O59  1  0.346512  0.739426  0.827894  1
  O  O60  1  0.478391  0.337151  0.319718  1
  O  O61  1  0.382254  0.536121  0.172704  1
  O  O62  1  0.206358  0.794918  0.082837  1
  O  O63  1  0.243465  0.768790  0.431921  1
  O  O64  1  0.201062  0.788858  0.258787  1
  O  O65  1  0.262811  0.655610  0.663369  1
  O  O66  1  0.478299  0.183874  0.820283  1
  O  O67  1  0.540458  0.077498  0.172766  1
  O  O68  1  0.337936  0.477260  0.819906  1
  O  O69  1  0.334427  0.334340  0.968577  1
  O  O70  1  0.333475  0.339379  0.468893  1
  O  O71  1  0.183068  0.488186  0.324654  1
  O  O72  1  0.379529  0.076527  0.671311  1
  O  O73  1  0.332877  0.188949  0.318970  1
  O  O74  1  0.085107  0.652668  0.167425  1
  O  O75  1  0.995714  0.801670  0.740568  1
  O  O76  1  0.998184  0.800207  0.917105  1
  O  O77  1  0.087433  0.531156  0.672028  1
  O  O78  1  0.185144  0.334304  0.819840  1
  O  O79  1  0.085101  0.379658  0.174104  1
  O  O80  1  0.260804  0.081737  0.161591  1
  O  O81  1  0.232702  0.973739  0.935100  1
  O  O82  1  0.193957  0.012621  0.760602  1
  O  O83  1  0.083407  0.260305  0.665780  1
  O  O84  1  0.986386  0.216721  0.429479  1
  O  O85  1  0.011951  0.195604  0.255442  1
