# generated using pymatgen
data_Co3OF5
_symmetry_space_group_name_H-M   'P 1'
_cell_length_a   7.26380181
_cell_length_b   5.64159600
_cell_length_c   5.64159600
_cell_angle_alpha   73.91719987
_cell_angle_beta   74.24865690
_cell_angle_gamma   74.24865690
_symmetry_Int_Tables_number   1
_chemical_formula_structural   Co3OF5
_chemical_formula_sum   'Co6 O2 F10'
_cell_volume   208.92942953
_cell_formula_units_Z   2
loop_
 _symmetry_equiv_pos_site_id
 _symmetry_equiv_pos_as_xyz
  1  'x, y, z'
loop_
 _atom_site_type_symbol
 _atom_site_label
 _atom_site_symmetry_multiplicity
 _atom_site_fract_x
 _atom_site_fract_y
 _atom_site_fract_z
 _atom_site_occupancy
  Co  Co0  1  0.845188  0.673069  0.673069  1
  Co  Co1  1  0.312626  0.652078  0.652078  1
  Co  Co2  1  0.663755  0.339450  0.339450  1
  Co  Co3  1  0.177634  0.338289  0.338289  1
  Co  Co4  1  0.496820  0.998369  0.998369  1
  Co  Co5  1  0.995869  0.991306  0.991306  1
  O  O6  1  0.369555  0.441144  0.441144  1
  O  O7  1  0.027427  0.762840  0.762840  1
  F  F8  1  0.331069  0.360788  0.970436  1
  F  F9  1  0.672087  0.030014  0.639833  1
  F  F10  1  0.640698  0.578083  0.578083  1
  F  F11  1  0.299412  0.884688  0.884688  1
  F  F12  1  0.967746  0.231906  0.231906  1
  F  F13  1  0.700156  0.104390  0.104390  1
  F  F14  1  0.331069  0.970436  0.360788  1
  F  F15  1  0.672087  0.639833  0.030014  1
  F  F16  1  0.998399  0.306282  0.697033  1
  F  F17  1  0.998399  0.697033  0.306282  1
