# generated using pymatgen
data_Ca3Be2P4(HO2)10
_symmetry_space_group_name_H-M   'P 1'
_cell_length_a   7.41126325
_cell_length_b   15.16142172
_cell_length_c   7.14226847
_cell_angle_alpha   90.00000000
_cell_angle_beta   95.82395670
_cell_angle_gamma   90.00000000
_symmetry_Int_Tables_number   1
_chemical_formula_structural   Ca3Be2P4(HO2)10
_chemical_formula_sum   'Ca6 Be4 P8 H20 O40'
_cell_volume   798.40061850
_cell_formula_units_Z   2
loop_
 _symmetry_equiv_pos_site_id
 _symmetry_equiv_pos_as_xyz
  1  'x, y, z'
loop_
 _atom_site_type_symbol
 _atom_site_label
 _atom_site_symmetry_multiplicity
 _atom_site_fract_x
 _atom_site_fract_y
 _atom_site_fract_z
 _atom_site_occupancy
  Ca  Ca0  1  0.141864  0.303384  0.954684  1
  Ca  Ca1  1  0.358136  0.803384  0.045316  1
  Ca  Ca2  1  0.858136  0.696616  0.045316  1
  Ca  Ca3  1  0.641864  0.196616  0.954684  1
  Ca  Ca4  1  0.500000  0.500000  0.000000  1
  Ca  Ca5  1  0.000000  0.000000  0.000000  1
  Be  Be6  1  0.127022  0.291704  0.445736  1
  Be  Be7  1  0.372978  0.791704  0.554264  1
  Be  Be8  1  0.872978  0.708296  0.554264  1
  Be  Be9  1  0.627022  0.208296  0.445736  1
  P  P10  1  0.474508  0.348213  0.642990  1
  P  P11  1  0.025492  0.848213  0.357010  1
  P  P12  1  0.525492  0.651787  0.357010  1
  P  P13  1  0.974508  0.151787  0.642990  1
  P  P14  1  0.794006  0.347986  0.232859  1
  P  P15  1  0.705994  0.847986  0.767141  1
  P  P16  1  0.205994  0.652014  0.767141  1
  P  P17  1  0.294006  0.152014  0.232859  1
  H  H18  1  0.624334  0.435021  0.461588  1
  H  H19  1  0.875666  0.935021  0.538412  1
  H  H20  1  0.375666  0.564979  0.538412  1
  H  H21  1  0.124334  0.064979  0.461588  1
  H  H22  1  0.947814  0.416360  0.650443  1
  H  H23  1  0.552186  0.916360  0.349557  1
  H  H24  1  0.052186  0.583640  0.349557  1
  H  H25  1  0.447814  0.083640  0.650443  1
  H  H26  1  0.110166  0.477590  0.732175  1
  H  H27  1  0.389834  0.977590  0.267825  1
  H  H28  1  0.889834  0.522410  0.267825  1
  H  H29  1  0.610166  0.022410  0.732175  1
  H  H30  1  0.282391  0.416346  0.272105  1
  H  H31  1  0.217609  0.916346  0.727895  1
  H  H32  1  0.717609  0.583654  0.727895  1
  H  H33  1  0.782391  0.083654  0.272105  1
  H  H34  1  0.142879  0.480627  0.161720  1
  H  H35  1  0.357121  0.980627  0.838280  1
  H  H36  1  0.857121  0.519373  0.838280  1
  H  H37  1  0.642879  0.019373  0.161720  1
  O  O38  1  0.426975  0.361499  0.845390  1
  O  O39  1  0.073025  0.861499  0.154610  1
  O  O40  1  0.573025  0.638501  0.154610  1
  O  O41  1  0.926975  0.138501  0.845390  1
  O  O42  1  0.605380  0.427030  0.598789  1
  O  O43  1  0.894620  0.927030  0.401211  1
  O  O44  1  0.394620  0.572970  0.401211  1
  O  O45  1  0.105380  0.072970  0.598789  1
  O  O46  1  0.582117  0.260269  0.639083  1
  O  O47  1  0.917883  0.760269  0.360917  1
  O  O48  1  0.417883  0.739731  0.360917  1
  O  O49  1  0.082117  0.239731  0.639083  1
  O  O50  1  0.309297  0.352672  0.494566  1
  O  O51  1  0.190703  0.852672  0.505434  1
  O  O52  1  0.690703  0.647328  0.505434  1
  O  O53  1  0.809297  0.147328  0.494566  1
  O  O54  1  0.848952  0.325879  0.035520  1
  O  O55  1  0.651048  0.825878  0.964480  1
  O  O56  1  0.151048  0.674122  0.964480  1
  O  O57  1  0.348952  0.174122  0.035520  1
  O  O58  1  0.658695  0.272807  0.273363  1
  O  O59  1  0.841305  0.772807  0.726638  1
  O  O60  1  0.341305  0.727193  0.726638  1
  O  O61  1  0.158695  0.227193  0.273363  1
  O  O62  1  0.693756  0.438409  0.238706  1
  O  O63  1  0.806244  0.938409  0.761294  1
  O  O64  1  0.306244  0.561591  0.761294  1
  O  O65  1  0.193756  0.061591  0.238706  1
  O  O66  1  0.956454  0.354775  0.385894  1
  O  O67  1  0.543546  0.854775  0.614106  1
  O  O68  1  0.043546  0.645225  0.614106  1
  O  O69  1  0.456454  0.145225  0.385894  1
  O  O70  1  0.011910  0.438583  0.768590  1
  O  O71  1  0.488090  0.938583  0.231410  1
  O  O72  1  0.988090  0.561417  0.231410  1
  O  O73  1  0.511910  0.061417  0.768590  1
  O  O74  1  0.237997  0.435505  0.142494  1
  O  O75  1  0.262003  0.935505  0.857506  1
  O  O76  1  0.762003  0.564495  0.857506  1
  O  O77  1  0.737997  0.064495  0.142494  1
