# generated using pymatgen
data_LiFe2(BO3)2
_symmetry_space_group_name_H-M   'P 1'
_cell_length_a   5.28960443
_cell_length_b   9.05618872
_cell_length_c   11.40902515
_cell_angle_alpha   113.06592827
_cell_angle_beta   77.28029232
_cell_angle_gamma   90.19370358
_symmetry_Int_Tables_number   1
_chemical_formula_structural   LiFe2(BO3)2
_chemical_formula_sum   'Li4 Fe8 B8 O24'
_cell_volume   488.40464303
_cell_formula_units_Z   4
loop_
 _symmetry_equiv_pos_site_id
 _symmetry_equiv_pos_as_xyz
  1  'x, y, z'
loop_
 _atom_site_type_symbol
 _atom_site_label
 _atom_site_symmetry_multiplicity
 _atom_site_fract_x
 _atom_site_fract_y
 _atom_site_fract_z
 _atom_site_occupancy
  Li  Li0  1  0.160735  0.170587  0.355872  1
  Li  Li1  1  0.354459  0.315786  0.614457  1
  Li  Li2  1  0.607960  0.048296  0.094736  1
  Li  Li3  1  0.428124  0.933799  0.835452  1
  Fe  Fe4  1  0.404901  0.281842  0.868715  1
  Fe  Fe5  1  0.095079  0.234633  0.120124  1
  Fe  Fe6  1  0.851616  0.135401  0.617111  1
  Fe  Fe7  1  0.662159  0.358474  0.374719  1
  Fe  Fe8  1  0.349962  0.652860  0.615914  1
  Fe  Fe9  1  0.139806  0.831146  0.367416  1
  Fe  Fe10  1  0.910883  0.757214  0.868702  1
  Fe  Fe11  1  0.596802  0.728434  0.131910  1
  B  B12  1  0.641990  0.022277  0.370948  1
  B  B13  1  0.898679  0.090951  0.870371  1
  B  B14  1  0.149295  0.508975  0.367926  1
  B  B15  1  0.401950  0.616981  0.874142  1
  B  B16  1  0.848613  0.470563  0.627289  1
  B  B17  1  0.601003  0.388479  0.118178  1
  B  B18  1  0.350310  0.990909  0.622961  1
  B  B19  1  0.106915  0.896264  0.122105  1
  O  O20  1  0.127033  0.125526  0.915025  1
  O  O21  1  0.471730  0.136082  0.648588  1
  O  O22  1  0.217786  0.039680  0.133447  1
  O  O23  1  0.505605  0.158009  0.381275  1
  O  O24  1  0.877815  0.036487  0.410927  1
  O  O25  1  0.797593  0.179705  0.813386  1
  O  O26  1  0.312910  0.470426  0.840545  1
  O  O27  1  0.064305  0.349226  0.314045  1
  O  O28  1  0.719056  0.273721  0.150223  1
  O  O29  1  0.620210  0.463910  0.587139  1
  O  O30  1  0.986414  0.329853  0.609464  1
  O  O31  1  0.379945  0.343773  0.069991  1
  O  O32  1  0.617721  0.657199  0.931098  1
  O  O33  1  0.361335  0.521072  0.421517  1
  O  O34  1  0.286712  0.739528  0.850081  1
  O  O35  1  0.952985  0.617117  0.682782  1
  O  O36  1  0.698307  0.528926  0.129064  1
  O  O37  1  0.224173  0.786625  0.153735  1
  O  O38  1  0.134884  0.977616  0.569473  1
  O  O39  1  0.439043  0.875212  0.653973  1
  O  O40  1  0.013336  0.631608  0.365370  1
  O  O41  1  0.762516  0.965912  0.888762  1
  O  O42  1  0.548562  0.871892  0.320279  1
  O  O43  1  0.870881  0.867787  0.082276  1
