# generated using pymatgen
data_Ga2WO6
_symmetry_space_group_name_H-M   'P 1'
_cell_length_a   10.43686002
_cell_length_b   9.53661060
_cell_length_c   10.43595201
_cell_angle_alpha   86.01262564
_cell_angle_beta   105.21824270
_cell_angle_gamma   151.22303112
_symmetry_Int_Tables_number   1
_chemical_formula_structural   Ga2WO6
_chemical_formula_sum   'Ga8 W4 O24'
_cell_volume   452.77125949
_cell_formula_units_Z   4
loop_
 _symmetry_equiv_pos_site_id
 _symmetry_equiv_pos_as_xyz
  1  'x, y, z'
loop_
 _atom_site_type_symbol
 _atom_site_label
 _atom_site_symmetry_multiplicity
 _atom_site_fract_x
 _atom_site_fract_y
 _atom_site_fract_z
 _atom_site_occupancy
  Ga  Ga0  1  0.405191  0.249876  0.155281  1
  Ga  Ga1  1  0.946512  0.250085  0.696384  1
  Ga  Ga2  1  0.909941  0.967387  0.207082  1
  Ga  Ga3  1  0.260415  0.467425  0.057482  1
  Ga  Ga4  1  0.739576  0.532570  0.942517  1
  Ga  Ga5  1  0.090043  0.032597  0.792914  1
  Ga  Ga6  1  0.053489  0.749918  0.303616  1
  Ga  Ga7  1  0.594804  0.750119  0.844717  1
  W  W8  1  0.545295  0.051354  0.156311  1
  W  W9  1  0.604788  0.448440  0.493989  1
  W  W10  1  0.395197  0.551549  0.506010  1
  W  W11  1  0.454731  0.948672  0.843689  1
  O  O12  1  0.912243  0.054553  0.037599  1
  O  O13  1  0.749032  0.192522  0.045374  1
  O  O14  1  0.696313  0.430445  0.107097  1
  O  O15  1  0.890088  0.411592  0.311296  1
  O  O16  1  0.399419  0.088070  0.478558  1
  O  O17  1  0.176541  0.069411  0.265915  1
  O  O18  1  0.516995  0.554580  0.142437  1
  O  O19  1  0.753089  0.556945  0.355688  1
  O  O20  1  0.701583  0.057266  0.803893  1
  O  O21  1  0.931569  0.741994  0.663821  1
  O  O22  1  0.578560  0.242348  0.810452  1
  O  O23  1  0.352578  0.307235  0.556401  1
  O  O24  1  0.647405  0.692752  0.443598  1
  O  O25  1  0.421455  0.757670  0.189546  1
  O  O26  1  0.068414  0.257986  0.336177  1
  O  O27  1  0.298449  0.942761  0.196117  1
  O  O28  1  0.246898  0.443042  0.644313  1
  O  O29  1  0.482992  0.445409  0.857566  1
  O  O30  1  0.823442  0.930570  0.734079  1
  O  O31  1  0.600566  0.911919  0.521445  1
  O  O32  1  0.109942  0.588434  0.688705  1
  O  O33  1  0.303692  0.569558  0.892904  1
  O  O34  1  0.250997  0.807510  0.954629  1
  O  O35  1  0.087751  0.945436  0.962398  1
