# generated using pymatgen
data_V3(O2F)2
_symmetry_space_group_name_H-M   'P 1'
_cell_length_a   4.69184548
_cell_length_b   7.74426381
_cell_length_c   5.55017161
_cell_angle_alpha   94.77300244
_cell_angle_beta   90.00000000
_cell_angle_gamma   90.00000000
_symmetry_Int_Tables_number   1
_chemical_formula_structural   V3(O2F)2
_chemical_formula_sum   'V6 O8 F4'
_cell_volume   200.96553238
_cell_formula_units_Z   2
loop_
 _symmetry_equiv_pos_site_id
 _symmetry_equiv_pos_as_xyz
  1  'x, y, z'
loop_
 _atom_site_type_symbol
 _atom_site_label
 _atom_site_symmetry_multiplicity
 _atom_site_fract_x
 _atom_site_fract_y
 _atom_site_fract_z
 _atom_site_occupancy
  V  V0  1  0.507278  0.662478  0.148657  1
  V  V1  1  0.481796  0.012143  0.489861  1
  V  V2  1  0.514456  0.356627  0.820218  1
  V  V3  1  0.007278  0.670855  0.684677  1
  V  V4  1  0.981796  0.321190  0.343472  1
  V  V5  1  0.014456  0.976706  0.013115  1
  O  O6  1  0.798758  0.445620  0.630338  1
  O  O7  1  0.808174  0.087572  0.288193  1
  O  O8  1  0.799584  0.769401  0.976585  1
  O  O9  1  0.693740  0.419665  0.118235  1
  O  O10  1  0.299584  0.563933  0.856748  1
  O  O11  1  0.308174  0.245761  0.545141  1
  O  O12  1  0.298758  0.887713  0.202995  1
  O  O13  1  0.193740  0.913668  0.715099  1
  F  F14  1  0.703253  0.109022  0.799205  1
  F  F15  1  0.692961  0.768783  0.472324  1
  F  F16  1  0.203253  0.224311  0.034129  1
  F  F17  1  0.192961  0.564551  0.361009  1
