# generated using pymatgen
data_Sr2HfO4
_symmetry_space_group_name_H-M   'P 1'
_cell_length_a   5.73884042
_cell_length_b   13.75589856
_cell_length_c   5.73884042
_cell_angle_alpha   77.95993523
_cell_angle_beta   90.00000000
_cell_angle_gamma   102.04006477
_symmetry_Int_Tables_number   1
_chemical_formula_structural   Sr2HfO4
_chemical_formula_sum   'Sr8 Hf4 O16'
_cell_volume   432.87935975
_cell_formula_units_Z   4
loop_
 _symmetry_equiv_pos_site_id
 _symmetry_equiv_pos_as_xyz
  1  'x, y, z'
loop_
 _atom_site_type_symbol
 _atom_site_label
 _atom_site_symmetry_multiplicity
 _atom_site_fract_x
 _atom_site_fract_y
 _atom_site_fract_z
 _atom_site_occupancy
  Sr  Sr0  1  0.549625  0.599250  0.200375  1
  Sr  Sr1  1  0.950375  0.400750  0.299625  1
  Sr  Sr2  1  0.700375  0.900750  0.049625  1
  Sr  Sr3  1  0.799625  0.099250  0.450375  1
  Sr  Sr4  1  0.450375  0.400750  0.799625  1
  Sr  Sr5  1  0.049625  0.599250  0.700375  1
  Sr  Sr6  1  0.200375  0.900750  0.549625  1
  Sr  Sr7  1  0.299625  0.099250  0.950375  1
  Hf  Hf8  1  0.125000  0.750000  0.125000  1
  Hf  Hf9  1  0.375000  0.250000  0.375000  1
  Hf  Hf10  1  0.625000  0.750000  0.625000  1
  Hf  Hf11  1  0.875000  0.250000  0.875000  1
  O  O12  1  0.574328  0.250000  0.074328  1
  O  O13  1  0.074328  0.250000  0.175672  1
  O  O14  1  0.294468  0.088935  0.455532  1
  O  O15  1  0.044468  0.588935  0.205532  1
  O  O16  1  0.455532  0.411065  0.294468  1
  O  O17  1  0.205532  0.911065  0.044468  1
  O  O18  1  0.675672  0.250000  0.574328  1
  O  O19  1  0.824328  0.750000  0.324328  1
  O  O20  1  0.175672  0.250000  0.675672  1
  O  O21  1  0.324328  0.750000  0.425672  1
  O  O22  1  0.705532  0.911065  0.544468  1
  O  O23  1  0.544468  0.588935  0.705532  1
  O  O24  1  0.794468  0.088935  0.955532  1
  O  O25  1  0.955532  0.411065  0.794468  1
  O  O26  1  0.925672  0.750000  0.824328  1
  O  O27  1  0.425672  0.750000  0.925672  1
