# generated using pymatgen
data_PrSO
_symmetry_space_group_name_H-M   'P 1'
_cell_length_a   5.91702559
_cell_length_b   7.20986298
_cell_length_c   5.90984271
_cell_angle_alpha   90.02290901
_cell_angle_beta   89.99606470
_cell_angle_gamma   114.19294307
_symmetry_Int_Tables_number   1
_chemical_formula_structural   PrSO
_chemical_formula_sum   'Pr4 S4 O4'
_cell_volume   229.97594562
_cell_formula_units_Z   4
loop_
 _symmetry_equiv_pos_site_id
 _symmetry_equiv_pos_as_xyz
  1  'x, y, z'
loop_
 _atom_site_type_symbol
 _atom_site_label
 _atom_site_symmetry_multiplicity
 _atom_site_fract_x
 _atom_site_fract_y
 _atom_site_fract_z
 _atom_site_occupancy
  Pr  Pr0  1  0.658949  0.321814  0.003896  1
  Pr  Pr1  1  0.335753  0.676106  0.004980  1
  Pr  Pr2  1  0.835901  0.676092  0.504239  1
  Pr  Pr3  1  0.158810  0.321494  0.504818  1
  S  S4  1  0.872061  0.997192  0.131049  1
  S  S5  1  0.374804  0.999167  0.379635  1
  S  S6  1  0.625963  -0.000172  0.634200  1
  S  S7  1  0.126073  0.998456  0.879651  1
  O  O8  1  0.491307  0.498148  0.254620  1
  O  O9  1  0.991499  0.498338  0.254349  1
  O  O10  1  0.502477  0.499395  0.754260  1
  O  O11  1  0.002762  0.499487  0.754073  1
