# generated using pymatgen
data_Rb3InO3
_symmetry_space_group_name_H-M   'P 1'
_cell_length_a   7.18765775
_cell_length_b   7.18765775
_cell_length_c   7.09733259
_cell_angle_alpha   84.20502177
_cell_angle_beta   95.79497823
_cell_angle_gamma   65.13528743
_symmetry_Int_Tables_number   1
_chemical_formula_structural   Rb3InO3
_chemical_formula_sum   'Rb6 In2 O6'
_cell_volume   326.77194652
_cell_formula_units_Z   2
loop_
 _symmetry_equiv_pos_site_id
 _symmetry_equiv_pos_as_xyz
  1  'x, y, z'
loop_
 _atom_site_type_symbol
 _atom_site_label
 _atom_site_symmetry_multiplicity
 _atom_site_fract_x
 _atom_site_fract_y
 _atom_site_fract_z
 _atom_site_occupancy
  Rb  Rb0  1  0.369466  0.630534  0.649177  1
  Rb  Rb1  1  0.805794  0.805794  0.500000  1
  Rb  Rb2  1  0.194206  0.194206  0.500000  1
  Rb  Rb3  1  0.259986  0.259986  0.000000  1
  Rb  Rb4  1  0.740014  0.740014  0.000000  1
  Rb  Rb5  1  0.630534  0.369466  0.350823  1
  In  In6  1  0.175476  0.824524  0.147688  1
  In  In7  1  0.824524  0.175476  0.852312  1
  O  O8  1  0.100243  0.899757  0.840053  1
  O  O9  1  0.158663  0.558485  0.270406  1
  O  O10  1  0.441515  0.841337  0.270406  1
  O  O11  1  0.841337  0.441515  0.729594  1
  O  O12  1  0.558485  0.158663  0.729594  1
  O  O13  1  0.899757  0.100243  0.159947  1
