# generated using pymatgen
data_Li2Cr3P5O18
_symmetry_space_group_name_H-M   'P 1'
_cell_length_a   4.79072080
_cell_length_b   13.06209564
_cell_length_c   12.50728664
_cell_angle_alpha   88.14477640
_cell_angle_beta   90.00000000
_cell_angle_gamma   79.43315390
_symmetry_Int_Tables_number   1
_chemical_formula_structural   Li2Cr3P5O18
_chemical_formula_sum   'Li4 Cr6 P10 O36'
_cell_volume   768.97655013
_cell_formula_units_Z   2
loop_
 _symmetry_equiv_pos_site_id
 _symmetry_equiv_pos_as_xyz
  1  'x, y, z'
loop_
 _atom_site_type_symbol
 _atom_site_label
 _atom_site_symmetry_multiplicity
 _atom_site_fract_x
 _atom_site_fract_y
 _atom_site_fract_z
 _atom_site_occupancy
  Li  Li0  1  0.508623  0.684548  0.869614  1
  Li  Li1  1  0.806830  0.684548  0.369614  1
  Li  Li2  1  0.193170  0.315452  0.630386  1
  Li  Li3  1  0.491377  0.315452  0.130386  1
  Cr  Cr4  1  0.153189  0.603375  0.620010  1
  Cr  Cr5  1  0.243437  0.603375  0.120010  1
  Cr  Cr6  1  0.756563  0.396625  0.879990  1
  Cr  Cr7  1  0.846811  0.396625  0.379990  1
  Cr  Cr8  1  0.500000  0.000000  0.500000  1
  Cr  Cr9  1  0.500000  0.000000  0.000000  1
  P  P10  1  0.068092  0.861173  0.591079  1
  P  P11  1  0.070735  0.861173  0.091079  1
  P  P12  1  0.164180  0.549617  0.872049  1
  P  P13  1  0.286203  0.549617  0.372049  1
  P  P14  1  0.713797  0.450383  0.627951  1
  P  P15  1  0.835820  0.450383  0.127951  1
  P  P16  1  0.929265  0.138827  0.908921  1
  P  P17  1  0.931908  0.138827  0.408921  1
  P  P18  1  0.732984  0.000000  0.750000  1
  P  P19  1  0.267016  0.000000  0.250000  1
  O  O20  1  0.597741  0.952537  0.844392  1
  O  O21  1  0.217747  0.909981  0.000308  1
  O  O22  1  0.449722  0.952537  0.344392  1
  O  O23  1  0.987769  0.915967  0.705262  1
  O  O24  1  0.872271  0.909981  0.500308  1
  O  O25  1  0.096263  0.915967  0.205262  1
  O  O26  1  0.373856  0.870407  0.566704  1
  O  O27  1  0.755737  0.870407  0.066704  1
  O  O28  1  0.028726  0.750181  0.618862  1
  O  O29  1  0.221092  0.750181  0.118862  1
  O  O30  1  0.248221  0.615871  0.963032  1
  O  O31  1  0.241434  0.612876  0.773045  1
  O  O32  1  0.135908  0.615871  0.463032  1
  O  O33  1  0.145690  0.612876  0.273045  1
  O  O34  1  0.769461  0.564079  0.624737  1
  O  O35  1  0.842945  0.544611  0.877228  1
  O  O36  1  0.666459  0.564079  0.124737  1
  O  O37  1  0.612444  0.544611  0.377228  1
  O  O38  1  0.387556  0.455389  0.622772  1
  O  O39  1  0.333541  0.435921  0.875263  1
  O  O40  1  0.157055  0.455389  0.122772  1
  O  O41  1  0.230539  0.435921  0.375263  1
  O  O42  1  0.854310  0.387124  0.726955  1
  O  O43  1  0.864092  0.384129  0.536968  1
  O  O44  1  0.758566  0.387124  0.226955  1
  O  O45  1  0.751779  0.384129  0.036968  1
  O  O46  1  0.778908  0.249819  0.881138  1
  O  O47  1  0.971274  0.249819  0.381138  1
  O  O48  1  0.244263  0.129593  0.933296  1
  O  O49  1  0.626144  0.129593  0.433296  1
  O  O50  1  0.903737  0.084033  0.794738  1
  O  O51  1  0.127729  0.090019  0.499692  1
  O  O52  1  0.012231  0.084033  0.294738  1
  O  O53  1  0.550278  0.047463  0.655608  1
  O  O54  1  0.782253  0.090019  0.999692  1
  O  O55  1  0.402259  0.047463  0.155608  1
