# generated using pymatgen
data_Na4Al3Ge3NO14
_symmetry_space_group_name_H-M   'P 1'
_cell_length_a   9.20149581
_cell_length_b   9.20149581
_cell_length_c   9.18401176
_cell_angle_alpha   90.06619695
_cell_angle_beta   89.93380305
_cell_angle_gamma   89.99262085
_symmetry_Int_Tables_number   1
_chemical_formula_structural   Na4Al3Ge3NO14
_chemical_formula_sum   'Na8 Al6 Ge6 N2 O28'
_cell_volume   777.58650156
_cell_formula_units_Z   2
loop_
 _symmetry_equiv_pos_site_id
 _symmetry_equiv_pos_as_xyz
  1  'x, y, z'
loop_
 _atom_site_type_symbol
 _atom_site_label
 _atom_site_symmetry_multiplicity
 _atom_site_fract_x
 _atom_site_fract_y
 _atom_site_fract_z
 _atom_site_occupancy
  Na  Na0  1  0.180379  0.180082  0.180787  1
  Na  Na1  1  0.180872  0.819486  0.818775  1
  Na  Na2  1  0.319918  0.319621  0.680787  1
  Na  Na3  1  0.321069  0.680967  0.319884  1
  Na  Na4  1  0.680514  0.319128  0.318775  1
  Na  Na5  1  0.679227  0.681319  0.680479  1
  Na  Na6  1  0.819033  0.178931  0.819884  1
  Na  Na7  1  0.818681  0.820773  0.180479  1
  Al  Al8  1  0.999689  0.499830  0.249996  1
  Al  Al9  1  0.249951  0.999914  0.500111  1
  Al  Al10  1  0.500102  0.749877  0.999883  1
  Al  Al11  1  0.500086  0.250049  0.000111  1
  Al  Al12  1  0.750123  0.999898  0.499883  1
  Al  Al13  1  0.000170  0.500311  0.749996  1
  Ge  Ge14  1  -0.000057  0.249669  0.499598  1
  Ge  Ge15  1  0.250331  0.500057  0.999598  1
  Ge  Ge16  1  0.500071  0.999688  0.750002  1
  Ge  Ge17  1  0.500312  -0.000071  0.250002  1
  Ge  Ge18  1  0.749642  0.500063  0.000389  1
  Ge  Ge19  1  -0.000063  0.750358  0.500389  1
  N  N20  1  0.031992  0.000583  0.000091  1
  N  N21  1  0.499417  0.468008  0.500091  1
  O  O22  1  0.069365  0.354366  0.645116  1
  O  O23  1  0.069885  0.645376  0.354888  1
  O  O24  1  0.145634  0.430635  0.145116  1
  O  O25  1  0.144727  0.569552  0.855641  1
  O  O26  1  0.145653  0.145634  0.431120  1
  O  O27  1  0.145218  0.854611  0.568862  1
  O  O28  1  0.355025  0.069562  0.645502  1
  O  O29  1  0.354836  0.930574  0.354335  1
  O  O30  1  0.354366  0.354347  0.931120  1
  O  O31  1  0.354362  0.645268  0.069507  1
  O  O32  1  0.430438  0.144975  0.145502  1
  O  O33  1  0.430404  0.855452  0.855226  1
  O  O34  1  0.442217  0.541907  0.602090  1
  O  O35  1  0.558352  0.541457  0.397799  1
  O  O36  1  0.569426  0.145164  0.854335  1
  O  O37  1  0.569429  0.855257  0.144988  1
  O  O38  1  0.645389  0.354782  0.068862  1
  O  O39  1  0.645409  0.644804  0.930550  1
  O  O40  1  0.644548  0.069596  0.355226  1
  O  O41  1  0.644743  0.930571  0.644988  1
  O  O42  1  0.854732  0.145638  0.569507  1
  O  O43  1  0.855196  0.854591  0.430550  1
  O  O44  1  0.855513  0.570033  0.144379  1
  O  O45  1  0.854624  0.430115  0.854888  1
  O  O46  1  0.930448  0.355273  0.355641  1
  O  O47  1  0.929967  0.644487  0.644379  1
  O  O48  1  0.958543  0.941648  0.897799  1
  O  O49  1  0.958093  0.057783  0.102090  1
