# generated using pymatgen
data_Li8Mn7Fe(BO3)8
_symmetry_space_group_name_H-M   'P 1'
_cell_length_a   6.05659667
_cell_length_b   9.16355590
_cell_length_c   9.76193749
_cell_angle_alpha   98.02773438
_cell_angle_beta   78.32829285
_cell_angle_gamma   103.62339698
_symmetry_Int_Tables_number   1
_chemical_formula_structural   Li8Mn7Fe(BO3)8
_chemical_formula_sum   'Li8 Mn7 Fe1 B8 O24'
_cell_volume   513.24169334
_cell_formula_units_Z   1
loop_
 _symmetry_equiv_pos_site_id
 _symmetry_equiv_pos_as_xyz
  1  'x, y, z'
loop_
 _atom_site_type_symbol
 _atom_site_label
 _atom_site_symmetry_multiplicity
 _atom_site_fract_x
 _atom_site_fract_y
 _atom_site_fract_z
 _atom_site_occupancy
  Li  Li0  1  0.797178  0.684351  0.876635  1
  Li  Li1  1  0.703425  0.316401  0.624657  1
  Li  Li2  1  0.953220  0.814080  0.373189  1
  Li  Li3  1  0.547168  0.184463  0.125958  1
  Li  Li4  1  0.453374  0.815207  0.873800  1
  Li  Li5  1  0.046479  0.184664  0.626443  1
  Li  Li6  1  0.295724  0.683994  0.374785  1
  Li  Li7  1  0.204604  0.315518  0.123780  1
  Mn  Mn8  1  0.876277  0.375877  0.895157  1
  Mn  Mn9  1  0.877012  0.126006  0.357558  1
  Mn  Mn10  1  0.378198  0.126565  0.856332  1
  Mn  Mn11  1  0.626405  0.626306  0.607389  1
  Mn  Mn12  1  0.373657  0.373951  0.392741  1
  Mn  Mn13  1  0.623862  0.872743  0.143648  1
  Mn  Mn14  1  0.122946  0.873585  0.642920  1
  Fe  Fe15  1  0.129432  0.629572  0.106430  1
  B  B16  1  0.851572  0.037137  0.885884  1
  B  B17  1  0.898766  0.462631  0.362344  1
  B  B18  1  0.397586  0.464680  0.866067  1
  B  B19  1  0.648281  0.963208  0.614137  1
  B  B20  1  0.351465  0.036431  0.385551  1
  B  B21  1  0.602620  0.537452  0.136139  1
  B  B22  1  0.101220  0.536545  0.635734  1
  B  B23  1  0.146235  0.961279  0.113835  1
  O  O24  1  0.736597  0.152996  0.940671  1
  O  O25  1  0.985051  0.651938  0.690867  1
  O  O26  1  0.727797  0.106293  0.569918  1
  O  O27  1  0.978931  0.604156  0.314921  1
  O  O28  1  0.770312  0.894304  0.931074  1
  O  O29  1  0.705452  0.436303  0.469989  1
  O  O30  1  0.953208  0.935020  0.221157  1
  O  O31  1  0.511361  0.348634  0.809907  1
  O  O32  1  0.764548  0.847941  0.558495  1
  O  O33  1  0.545792  0.064051  0.279019  1
  O  O34  1  0.798300  0.566474  0.030939  1
  O  O35  1  0.478545  0.607094  0.819910  1
  O  O36  1  0.522017  0.393924  0.180001  1
  O  O37  1  0.204907  0.438784  0.973810  1
  O  O38  1  0.453923  0.934786  0.720465  1
  O  O39  1  0.236188  0.151976  0.441026  1
  O  O40  1  0.484732  0.651872  0.191345  1
  O  O41  1  0.046260  0.064474  0.779678  1
  O  O42  1  0.295593  0.564732  0.529269  1
  O  O43  1  0.230036  0.103916  0.068876  1
  O  O44  1  0.021387  0.394054  0.681197  1
  O  O45  1  0.271015  0.893348  0.430207  1
  O  O46  1  0.014301  0.346707  0.308539  1
  O  O47  1  0.257039  0.843579  0.057607  1
