# generated using pymatgen
data_GdH18C3S3(O2F)9
_symmetry_space_group_name_H-M   'P 1'
_cell_length_a   13.89353793
_cell_length_b   13.89350809
_cell_length_c   7.53934239
_cell_angle_alpha   90.00000000
_cell_angle_beta   90.00000000
_cell_angle_gamma   120.00052696
_symmetry_Int_Tables_number   1
_chemical_formula_structural   GdH18C3S3(O2F)9
_chemical_formula_sum   'Gd2 H36 C6 S6 O36 F18'
_cell_volume   1260.33663841
_cell_formula_units_Z   2
loop_
 _symmetry_equiv_pos_site_id
 _symmetry_equiv_pos_as_xyz
  1  'x, y, z'
loop_
 _atom_site_type_symbol
 _atom_site_label
 _atom_site_symmetry_multiplicity
 _atom_site_fract_x
 _atom_site_fract_y
 _atom_site_fract_z
 _atom_site_occupancy
  Gd  Gd0  1  0.333334  0.666667  0.250000  1
  Gd  Gd1  1  0.666666  0.333333  0.750000  1
  H  H2  1  0.099823  0.647747  0.355209  1
  H  H3  1  0.547924  0.900177  0.355209  1
  H  H4  1  0.352253  0.452076  0.355209  1
  H  H5  1  0.900177  0.352253  0.855209  1
  H  H6  1  0.452076  0.099823  0.855209  1
  H  H7  1  0.647747  0.547924  0.855209  1
  H  H8  1  0.900177  0.352253  0.644791  1
  H  H9  1  0.452076  0.099823  0.644791  1
  H  H10  1  0.647747  0.547924  0.644791  1
  H  H11  1  0.099823  0.647747  0.144791  1
  H  H12  1  0.547924  0.900177  0.144791  1
  H  H13  1  0.352253  0.452076  0.144791  1
  H  H14  1  0.367335  0.871305  0.040787  1
  H  H15  1  0.503970  0.632665  0.040787  1
  H  H16  1  0.128695  0.496030  0.040788  1
  H  H17  1  0.632665  0.128695  0.540787  1
  H  H18  1  0.496030  0.367335  0.540787  1
  H  H19  1  0.871305  0.503970  0.540788  1
  H  H20  1  0.632665  0.128695  0.959213  1
  H  H21  1  0.496030  0.367335  0.959213  1
  H  H22  1  0.871305  0.503970  0.959212  1
  H  H23  1  0.367335  0.871305  0.459213  1
  H  H24  1  0.503970  0.632665  0.459213  1
  H  H25  1  0.128695  0.496030  0.459212  1
  H  H26  1  0.280285  0.767631  0.930500  1
  H  H27  1  0.487347  0.719715  0.930500  1
  H  H28  1  0.232368  0.512654  0.930501  1
  H  H29  1  0.719715  0.232369  0.430500  1
  H  H30  1  0.512653  0.280285  0.430500  1
  H  H31  1  0.767632  0.487346  0.430501  1
  H  H32  1  0.719715  0.232369  0.069500  1
  H  H33  1  0.512653  0.280285  0.069500  1
  H  H34  1  0.767632  0.487346  0.069499  1
  H  H35  1  0.280285  0.767631  0.569500  1
  H  H36  1  0.487347  0.719715  0.569500  1
  H  H37  1  0.232368  0.512654  0.569499  1
  C  C38  1  0.019067  0.786730  0.750000  1
  C  C39  1  0.767664  0.980934  0.750000  1
  C  C40  1  0.213270  0.232335  0.750000  1
  C  C41  1  0.980933  0.213270  0.250000  1
  C  C42  1  0.232336  0.019066  0.250000  1
  C  C43  1  0.786730  0.767665  0.250000  1
  S  S44  1  0.065048  0.680511  0.750000  1
  S  S45  1  0.615462  0.934952  0.750000  1
  S  S46  1  0.319490  0.384537  0.750000  1
  S  S47  1  0.934952  0.319489  0.250000  1
  S  S48  1  0.384538  0.065048  0.250000  1
  S  S49  1  0.680510  0.615463  0.250000  1
  O  O50  1  0.145185  0.656628  0.250000  1
  O  O51  1  0.511443  0.854815  0.250000  1
  O  O52  1  0.343369  0.488555  0.250000  1
  O  O53  1  0.854815  0.343372  0.750000  1
  O  O54  1  0.488557  0.145185  0.750000  1
  O  O55  1  0.656631  0.511445  0.750000  1
  O  O56  1  0.341598  0.792500  0.016538  1
  O  O57  1  0.450903  0.658402  0.016539  1
  O  O58  1  0.207500  0.549098  0.016539  1
  O  O59  1  0.658402  0.207500  0.516538  1
  O  O60  1  0.549097  0.341598  0.516539  1
  O  O61  1  0.792500  0.450902  0.516539  1
  O  O62  1  0.658402  0.207500  0.983462  1
  O  O63  1  0.549097  0.341598  0.983461  1
  O  O64  1  0.792500  0.450902  0.983461  1
  O  O65  1  0.341598  0.792500  0.483462  1
  O  O66  1  0.450903  0.658402  0.483461  1
  O  O67  1  0.207500  0.549098  0.483461  1
  O  O68  1  0.186733  0.746552  0.750000  1
  O  O69  1  0.559819  0.813268  0.750000  1
  O  O70  1  0.253450  0.440181  0.750000  1
  O  O71  1  0.813267  0.253448  0.250000  1
  O  O72  1  0.440181  0.186732  0.250000  1
  O  O73  1  0.746550  0.559819  0.250000  1
  O  O74  1  0.018224  0.617600  0.914127  1
  O  O75  1  0.599377  0.981776  0.914127  1
  O  O76  1  0.382400  0.400624  0.914127  1
  O  O77  1  0.981776  0.382400  0.414127  1
  O  O78  1  0.400623  0.018224  0.414127  1
  O  O79  1  0.617600  0.599376  0.414127  1
  O  O80  1  0.981776  0.382400  0.085873  1
  O  O81  1  0.400623  0.018224  0.085873  1
  O  O82  1  0.617600  0.599376  0.085873  1
  O  O83  1  0.018224  0.617600  0.585873  1
  O  O84  1  0.599377  0.981776  0.585873  1
  O  O85  1  0.382400  0.400624  0.585873  1
  F  F86  1  0.906729  0.734590  0.750000  1
  F  F87  1  0.827863  0.093273  0.750000  1
  F  F88  1  0.265411  0.172138  0.750000  1
  F  F89  1  0.093271  0.265410  0.250000  1
  F  F90  1  0.172137  0.906727  0.250000  1
  F  F91  1  0.734589  0.827862  0.250000  1
  F  F92  1  0.057483  0.851596  0.895707  1
  F  F93  1  0.794114  0.942518  0.895707  1
  F  F94  1  0.148404  0.205885  0.895708  1
  F  F95  1  0.942517  0.148404  0.395707  1
  F  F96  1  0.205886  0.057482  0.395707  1
  F  F97  1  0.851596  0.794115  0.395708  1
  F  F98  1  0.942517  0.148404  0.104293  1
  F  F99  1  0.205886  0.057482  0.104293  1
  F  F100  1  0.851596  0.794115  0.104292  1
  F  F101  1  0.057483  0.851596  0.604293  1
  F  F102  1  0.794114  0.942518  0.604293  1
  F  F103  1  0.148404  0.205885  0.604292  1
