# generated using pymatgen
data_Li4V2Fe3O10
_symmetry_space_group_name_H-M   'P 1'
_cell_length_a   7.87177512
_cell_length_b   6.63311327
_cell_length_c   7.97839188
_cell_angle_alpha   114.64562663
_cell_angle_beta   83.71254932
_cell_angle_gamma   89.67215632
_symmetry_Int_Tables_number   1
_chemical_formula_structural   Li4V2Fe3O10
_chemical_formula_sum   'Li8 V4 Fe6 O20'
_cell_volume   375.75058557
_cell_formula_units_Z   2
loop_
 _symmetry_equiv_pos_site_id
 _symmetry_equiv_pos_as_xyz
  1  'x, y, z'
loop_
 _atom_site_type_symbol
 _atom_site_label
 _atom_site_symmetry_multiplicity
 _atom_site_fract_x
 _atom_site_fract_y
 _atom_site_fract_z
 _atom_site_occupancy
  Li  Li0  1  0.153100  0.060778  0.406535  1
  Li  Li1  1  0.048126  0.345410  0.783970  1
  Li  Li2  1  0.996892  0.495061  0.491408  1
  Li  Li3  1  0.503108  0.004939  0.508592  1
  Li  Li4  1  0.451874  0.154590  0.216030  1
  Li  Li5  1  0.346900  0.439222  0.593465  1
  Li  Li6  1  0.655710  0.562201  0.402723  1
  Li  Li7  1  0.844290  0.937799  0.597277  1
  V  V8  1  0.285664  0.602987  0.303358  1
  V  V9  1  0.214336  0.897013  0.696642  1
  V  V10  1  0.800355  0.088059  0.313058  1
  V  V11  1  0.699645  0.411941  0.686942  1
  Fe  Fe12  1  0.091789  0.217492  0.109223  1
  Fe  Fe13  1  0.408211  0.282508  0.890777  1
  Fe  Fe14  1  0.250000  0.750000  0.000000  1
  Fe  Fe15  1  0.750000  0.250000  0.000000  1
  Fe  Fe16  1  0.606898  0.708544  0.096830  1
  Fe  Fe17  1  0.893102  0.791456  0.903170  1
  O  O18  1  0.311134  0.024120  0.942433  1
  O  O19  1  0.277638  0.165316  0.666604  1
  O  O20  1  0.222362  0.334684  0.333396  1
  O  O21  1  0.135611  0.645138  0.766483  1
  O  O22  1  0.188866  0.475880  0.057567  1
  O  O23  1  0.100473  0.775882  0.461270  1
  O  O24  1  0.631950  0.162174  0.750828  1
  O  O25  1  0.027463  0.937906  0.143426  1
  O  O26  1  0.592361  0.278554  0.460299  1
  O  O27  1  0.472537  0.562094  0.856574  1
  O  O28  1  0.506500  0.440829  0.155762  1
  O  O29  1  0.399527  0.724118  0.538730  1
  O  O30  1  0.993500  0.059171  0.844238  1
  O  O31  1  0.364389  0.854862  0.233517  1
  O  O32  1  0.907639  0.221446  0.539701  1
  O  O33  1  0.814610  0.510697  0.926447  1
  O  O34  1  0.868050  0.337826  0.249172  1
  O  O35  1  0.777909  0.656809  0.659918  1
  O  O36  1  0.722091  0.843191  0.340082  1
  O  O37  1  0.685390  0.989303  0.073553  1
