# generated using pymatgen
data_K3BiPCO7
_symmetry_space_group_name_H-M   'P 1'
_cell_length_a   10.34140620
_cell_length_b   7.25700096
_cell_length_c   6.04563183
_cell_angle_alpha   90.00000000
_cell_angle_beta   85.44187041
_cell_angle_gamma   90.00000000
_symmetry_Int_Tables_number   1
_chemical_formula_structural   K3BiPCO7
_chemical_formula_sum   'K6 Bi2 P2 C2 O14'
_cell_volume   452.27514219
_cell_formula_units_Z   2
loop_
 _symmetry_equiv_pos_site_id
 _symmetry_equiv_pos_as_xyz
  1  'x, y, z'
loop_
 _atom_site_type_symbol
 _atom_site_label
 _atom_site_symmetry_multiplicity
 _atom_site_fract_x
 _atom_site_fract_y
 _atom_site_fract_z
 _atom_site_occupancy
  K  K0  1  0.076771  0.250000  0.759523  1
  K  K1  1  0.268258  0.000479  0.222637  1
  K  K2  1  0.268258  0.499521  0.222637  1
  K  K3  1  0.731742  0.500479  0.777363  1
  K  K4  1  0.731742  0.999521  0.777363  1
  K  K5  1  0.923229  0.750000  0.240477  1
  Bi  Bi6  1  0.356425  0.750000  0.722512  1
  Bi  Bi7  1  0.643575  0.250000  0.277488  1
  P  P8  1  0.403458  0.250000  0.679424  1
  P  P9  1  0.596542  0.750000  0.320576  1
  C  C10  1  0.056791  0.750000  0.726569  1
  C  C11  1  0.943209  0.250000  0.273431  1
  O  O12  1  0.067703  0.250000  0.232417  1
  O  O13  1  0.131665  0.750000  0.895177  1
  O  O14  1  0.110642  0.750000  0.524777  1
  O  O15  1  0.318426  0.078206  0.756136  1
  O  O16  1  0.318426  0.421794  0.756136  1
  O  O17  1  0.419329  0.250000  0.416968  1
  O  O18  1  0.463670  0.750000  0.226362  1
  O  O19  1  0.536330  0.250000  0.773638  1
  O  O20  1  0.580671  0.750000  0.583032  1
  O  O21  1  0.681574  0.578206  0.243864  1
  O  O22  1  0.681574  0.921794  0.243864  1
  O  O23  1  0.889358  0.250000  0.475223  1
  O  O24  1  0.868335  0.250000  0.104823  1
  O  O25  1  0.932297  0.750000  0.767583  1
