# generated using pymatgen
data_LiFeSiO4
_symmetry_space_group_name_H-M   'P 1'
_cell_length_a   10.87547186
_cell_length_b   10.87547132
_cell_length_c   11.94474675
_cell_angle_alpha   90.00000000
_cell_angle_beta   90.00000000
_cell_angle_gamma   119.99999861
_symmetry_Int_Tables_number   1
_chemical_formula_structural   LiFeSiO4
_chemical_formula_sum   'Li12 Fe12 Si12 O48'
_cell_volume   1223.49945559
_cell_formula_units_Z   12
loop_
 _symmetry_equiv_pos_site_id
 _symmetry_equiv_pos_as_xyz
  1  'x, y, z'
loop_
 _atom_site_type_symbol
 _atom_site_label
 _atom_site_symmetry_multiplicity
 _atom_site_fract_x
 _atom_site_fract_y
 _atom_site_fract_z
 _atom_site_occupancy
  Li  Li0  1  0.000000  0.500000  0.008125  1
  Li  Li1  1  0.000000  0.500000  0.658541  1
  Li  Li2  1  0.000000  0.500000  0.333333  1
  Li  Li3  1  0.000000  0.000000  0.166667  1
  Li  Li4  1  0.000000  0.000000  0.500000  1
  Li  Li5  1  0.000000  0.000000  0.833333  1
  Li  Li6  1  0.500000  0.500000  0.341459  1
  Li  Li7  1  0.500000  0.500000  0.666667  1
  Li  Li8  1  0.500000  0.500000  0.991875  1
  Li  Li9  1  0.500000  0.000000  0.325208  1
  Li  Li10  1  0.500000  0.000000  0.000000  1
  Li  Li11  1  0.500000  0.000000  0.674792  1
  Fe  Fe12  1  1.000000  0.749822  0.833333  1
  Fe  Fe13  1  0.000000  0.250178  0.833333  1
  Fe  Fe14  1  0.251385  0.748615  0.166667  1
  Fe  Fe15  1  0.251385  0.502770  0.500000  1
  Fe  Fe16  1  0.497230  0.748615  0.833333  1
  Fe  Fe17  1  0.250178  0.250178  0.166667  1
  Fe  Fe18  1  0.250178  1.000000  0.500000  1
  Fe  Fe19  1  0.749822  0.749822  0.166667  1
  Fe  Fe20  1  0.502770  0.251385  0.833333  1
  Fe  Fe21  1  0.748615  0.497230  0.500000  1
  Fe  Fe22  1  0.748615  0.251385  0.166667  1
  Fe  Fe23  1  0.749822  0.000000  0.500000  1
  Si  Si24  1  1.000000  0.753343  0.333333  1
  Si  Si25  1  0.247322  0.752678  0.666667  1
  Si  Si26  1  0.000000  0.246657  0.333333  1
  Si  Si27  1  0.247322  0.494643  0.000000  1
  Si  Si28  1  0.246657  0.246657  0.666667  1
  Si  Si29  1  0.505357  0.752678  0.333333  1
  Si  Si30  1  0.246657  1.000000  0.000000  1
  Si  Si31  1  0.494643  0.247322  0.333333  1
  Si  Si32  1  0.753343  0.753343  0.666667  1
  Si  Si33  1  0.752678  0.505357  0.000000  1
  Si  Si34  1  0.752678  0.247322  0.666667  1
  Si  Si35  1  0.753343  0.000000  0.000000  1
  O  O36  1  0.077826  0.884407  0.423848  1
  O  O37  1  0.115593  0.922174  0.909485  1
  O  O38  1  0.097069  0.694860  0.734838  1
  O  O39  1  0.104041  0.706910  0.268392  1
  O  O40  1  0.293090  0.895959  0.064941  1
  O  O41  1  0.305140  0.902931  0.598495  1
  O  O42  1  0.199168  0.614522  0.585129  1
  O  O43  1  0.097069  0.402209  0.931829  1
  O  O44  1  0.199168  0.584646  0.081537  1
  O  O45  1  0.104041  0.397132  0.398274  1
  O  O46  1  0.077826  0.193420  0.242819  1
  O  O47  1  0.385478  0.800832  0.748204  1
  O  O48  1  0.415354  0.800832  0.251796  1
  O  O49  1  0.115593  0.193420  0.757181  1
  O  O50  1  0.293090  0.397132  0.601726  1
  O  O51  1  0.385478  0.584646  0.918463  1
  O  O52  1  0.305140  0.402209  0.068171  1
  O  O53  1  0.415354  0.614522  0.414871  1
  O  O54  1  0.193420  0.115593  0.576152  1
  O  O55  1  0.193420  0.077826  0.090515  1
  O  O56  1  0.597791  0.902931  0.401505  1
  O  O57  1  0.602868  0.895959  0.935059  1
  O  O58  1  0.602868  0.706910  0.731608  1
  O  O59  1  0.402209  0.305140  0.265162  1
  O  O60  1  0.597791  0.694860  0.265162  1
  O  O61  1  0.397132  0.293090  0.731608  1
  O  O62  1  0.397132  0.104041  0.935059  1
  O  O63  1  0.402209  0.097069  0.401505  1
  O  O64  1  0.806580  0.922174  0.090515  1
  O  O65  1  0.806580  0.884407  0.576152  1
  O  O66  1  0.584646  0.385478  0.414871  1
  O  O67  1  0.694860  0.597791  0.068171  1
  O  O68  1  0.614522  0.415354  0.918463  1
  O  O69  1  0.706910  0.602868  0.601726  1
  O  O70  1  0.884407  0.806580  0.757181  1
  O  O71  1  0.584646  0.199168  0.251796  1
  O  O72  1  0.614522  0.199168  0.748204  1
  O  O73  1  0.922174  0.806580  0.242819  1
  O  O74  1  0.895959  0.602868  0.398274  1
  O  O75  1  0.800832  0.415354  0.081537  1
  O  O76  1  0.902931  0.597791  0.931829  1
  O  O77  1  0.800832  0.385478  0.585129  1
  O  O78  1  0.694860  0.097069  0.598495  1
  O  O79  1  0.706910  0.104041  0.064941  1
  O  O80  1  0.895959  0.293090  0.268392  1
  O  O81  1  0.902931  0.305140  0.734838  1
  O  O82  1  0.884407  0.077826  0.909485  1
  O  O83  1  0.922174  0.115593  0.423848  1
