# generated using pymatgen
data_LiCoSiO4
_symmetry_space_group_name_H-M   'P 1'
_cell_length_a   10.23458555
_cell_length_b   13.24516998
_cell_length_c   5.11003757
_cell_angle_alpha   90.00000000
_cell_angle_beta   90.00000000
_cell_angle_gamma   90.00000000
_symmetry_Int_Tables_number   1
_chemical_formula_structural   LiCoSiO4
_chemical_formula_sum   'Li8 Co8 Si8 O32'
_cell_volume   692.71069015
_cell_formula_units_Z   8
loop_
 _symmetry_equiv_pos_site_id
 _symmetry_equiv_pos_as_xyz
  1  'x, y, z'
loop_
 _atom_site_type_symbol
 _atom_site_label
 _atom_site_symmetry_multiplicity
 _atom_site_fract_x
 _atom_site_fract_y
 _atom_site_fract_z
 _atom_site_occupancy
  Li  Li0  1  0.038463  0.753650  0.060855  1
  Li  Li1  1  0.213557  0.000920  0.559521  1
  Li  Li2  1  0.286443  0.500920  0.559521  1
  Li  Li3  1  0.461537  0.253650  0.060855  1
  Li  Li4  1  0.538463  0.753650  0.939145  1
  Li  Li5  1  0.713557  0.000920  0.440479  1
  Li  Li6  1  0.786443  0.500920  0.440479  1
  Li  Li7  1  0.961537  0.253650  0.939145  1
  Co  Co8  1  0.033597  0.502388  0.917800  1
  Co  Co9  1  0.213767  0.750080  0.557459  1
  Co  Co10  1  0.286233  0.250080  0.557459  1
  Co  Co11  1  0.466403  0.002388  0.917800  1
  Co  Co12  1  0.533597  0.502388  0.082200  1
  Co  Co13  1  0.713767  0.750080  0.442541  1
  Co  Co14  1  0.786233  0.250080  0.442541  1
  Co  Co15  1  0.966403  0.002388  0.082200  1
  Si  Si16  1  0.033862  0.376231  0.434945  1
  Si  Si17  1  0.217602  0.127072  0.055280  1
  Si  Si18  1  0.282398  0.627072  0.055280  1
  Si  Si19  1  0.466138  0.876231  0.434945  1
  Si  Si20  1  0.533862  0.376231  0.565055  1
  Si  Si21  1  0.717602  0.127072  0.944720  1
  Si  Si22  1  0.782398  0.627072  0.944720  1
  Si  Si23  1  0.966138  0.876231  0.565055  1
  O  O24  1  0.992767  0.885603  0.881204  1
  O  O25  1  0.974047  0.477820  0.576098  1
  O  O26  1  0.041876  0.776312  0.449846  1
  O  O27  1  0.059381  0.120598  0.001121  1
  O  O28  1  0.190287  0.367884  0.503542  1
  O  O29  1  0.213585  0.527013  0.923542  1
  O  O30  1  0.281159  0.227774  0.918245  1
  O  O31  1  0.248156  0.132254  0.371272  1
  O  O32  1  0.251844  0.632254  0.371272  1
  O  O33  1  0.218841  0.727774  0.918245  1
  O  O34  1  0.286415  0.027013  0.923542  1
  O  O35  1  0.309713  0.867884  0.503542  1
  O  O36  1  0.440619  0.620598  0.001121  1
  O  O37  1  0.458124  0.276312  0.449846  1
  O  O38  1  0.525953  0.977820  0.576098  1
  O  O39  1  0.507233  0.385603  0.881204  1
  O  O40  1  0.492767  0.885603  0.118796  1
  O  O41  1  0.474047  0.477820  0.423902  1
  O  O42  1  0.541876  0.776312  0.550154  1
  O  O43  1  0.559381  0.120598  0.998879  1
  O  O44  1  0.690287  0.367884  0.496458  1
  O  O45  1  0.713585  0.527013  0.076458  1
  O  O46  1  0.781159  0.227774  0.081755  1
  O  O47  1  0.748156  0.132254  0.628728  1
  O  O48  1  0.751844  0.632254  0.628728  1
  O  O49  1  0.718841  0.727774  0.081755  1
  O  O50  1  0.786415  0.027013  0.076458  1
  O  O51  1  0.809713  0.867884  0.496458  1
  O  O52  1  0.940619  0.620598  0.998879  1
  O  O53  1  0.958124  0.276312  0.550154  1
  O  O54  1  0.025953  0.977820  0.423902  1
  O  O55  1  0.007233  0.385603  0.118796  1
