# generated using pymatgen
data_LiCr(SiO3)2
_symmetry_space_group_name_H-M   'P 1'
_cell_length_a   18.16659593
_cell_length_b   8.71333764
_cell_length_c   5.26452931
_cell_angle_alpha   90.00000000
_cell_angle_beta   90.00000000
_cell_angle_gamma   90.00000000
_symmetry_Int_Tables_number   1
_chemical_formula_structural   LiCr(SiO3)2
_chemical_formula_sum   'Li8 Cr8 Si16 O48'
_cell_volume   833.33121051
_cell_formula_units_Z   8
loop_
 _symmetry_equiv_pos_site_id
 _symmetry_equiv_pos_as_xyz
  1  'x, y, z'
loop_
 _atom_site_type_symbol
 _atom_site_label
 _atom_site_symmetry_multiplicity
 _atom_site_fract_x
 _atom_site_fract_y
 _atom_site_fract_z
 _atom_site_occupancy
  Li  Li0  1  0.122448  0.986090  0.367571  1
  Li  Li1  1  0.122448  0.513910  0.867571  1
  Li  Li2  1  0.377552  0.013910  0.867571  1
  Li  Li3  1  0.377552  0.486090  0.367571  1
  Li  Li4  1  0.622448  0.513910  0.632429  1
  Li  Li5  1  0.622448  0.986090  0.132429  1
  Li  Li6  1  0.877552  0.013910  0.632429  1
  Li  Li7  1  0.877552  0.486090  0.132429  1
  Cr  Cr8  1  0.124646  0.344627  0.373243  1
  Cr  Cr9  1  0.124646  0.155373  0.873243  1
  Cr  Cr10  1  0.375354  0.655373  0.873243  1
  Cr  Cr11  1  0.375354  0.844627  0.373243  1
  Cr  Cr12  1  0.624646  0.155373  0.626757  1
  Cr  Cr13  1  0.624646  0.344627  0.126757  1
  Cr  Cr14  1  0.875354  0.655373  0.626757  1
  Cr  Cr15  1  0.875354  0.844627  0.126757  1
  Si  Si16  1  0.027371  0.837192  0.798044  1
  Si  Si17  1  0.027371  0.662808  0.298044  1
  Si  Si18  1  0.225870  0.658694  0.550465  1
  Si  Si19  1  0.225870  0.841306  0.050465  1
  Si  Si20  1  0.274130  0.158694  0.550465  1
  Si  Si21  1  0.274130  0.341306  0.050465  1
  Si  Si22  1  0.472629  0.162808  0.298044  1
  Si  Si23  1  0.472629  0.337192  0.798044  1
  Si  Si24  1  0.527371  0.662808  0.201956  1
  Si  Si25  1  0.527371  0.837192  0.701956  1
  Si  Si26  1  0.725870  0.658694  0.949535  1
  Si  Si27  1  0.725870  0.841306  0.449535  1
  Si  Si28  1  0.774130  0.158694  0.949535  1
  Si  Si29  1  0.774130  0.341306  0.449535  1
  Si  Si30  1  0.972629  0.162808  0.201956  1
  Si  Si31  1  0.972629  0.337192  0.701956  1
  O  O32  1  0.053412  0.703005  0.592411  1
  O  O33  1  0.053412  0.796995  0.092411  1
  O  O34  1  0.064154  0.168328  0.199025  1
  O  O35  1  0.064154  0.331672  0.699025  1
  O  O36  1  0.065099  0.505398  0.206094  1
  O  O37  1  0.065099  0.994602  0.706094  1
  O  O38  1  0.182894  0.165970  0.546877  1
  O  O39  1  0.182894  0.334030  0.046877  1
  O  O40  1  0.191119  0.010484  0.042520  1
  O  O41  1  0.191119  0.489516  0.542520  1
  O  O42  1  0.195797  0.771072  0.322962  1
  O  O43  1  0.195797  0.728928  0.822962  1
  O  O44  1  0.304203  0.228928  0.822962  1
  O  O45  1  0.304203  0.271072  0.322962  1
  O  O46  1  0.308881  0.510484  0.042520  1
  O  O47  1  0.308881  0.989516  0.542520  1
  O  O48  1  0.317106  0.665970  0.546877  1
  O  O49  1  0.317106  0.834030  0.046877  1
  O  O50  1  0.434901  0.005398  0.206094  1
  O  O51  1  0.434901  0.494602  0.706094  1
  O  O52  1  0.435846  0.668328  0.199025  1
  O  O53  1  0.435846  0.831672  0.699025  1
  O  O54  1  0.446588  0.203005  0.592411  1
  O  O55  1  0.446588  0.296995  0.092411  1
  O  O56  1  0.553412  0.703005  0.907589  1
  O  O57  1  0.553412  0.796995  0.407589  1
  O  O58  1  0.564154  0.168328  0.300975  1
  O  O59  1  0.564154  0.331672  0.800975  1
  O  O60  1  0.565099  0.505398  0.293906  1
  O  O61  1  0.565099  0.994602  0.793906  1
  O  O62  1  0.682894  0.165970  0.953123  1
  O  O63  1  0.682894  0.334030  0.453123  1
  O  O64  1  0.691119  0.010484  0.457480  1
  O  O65  1  0.691119  0.489516  0.957480  1
  O  O66  1  0.695797  0.728928  0.677038  1
  O  O67  1  0.695797  0.771072  0.177038  1
  O  O68  1  0.804203  0.228928  0.677038  1
  O  O69  1  0.804203  0.271072  0.177038  1
  O  O70  1  0.808881  0.510484  0.457480  1
  O  O71  1  0.808881  0.989516  0.957480  1
  O  O72  1  0.817106  0.665970  0.953123  1
  O  O73  1  0.817106  0.834030  0.453123  1
  O  O74  1  0.934901  0.005398  0.293906  1
  O  O75  1  0.934901  0.494602  0.793906  1
  O  O76  1  0.935846  0.668328  0.300975  1
  O  O77  1  0.935846  0.831672  0.800975  1
  O  O78  1  0.946588  0.203005  0.907589  1
  O  O79  1  0.946588  0.296995  0.407589  1
