# generated using pymatgen
data_Li8Mn7Fe(BO3)8
_symmetry_space_group_name_H-M   'P 1'
_cell_length_a   5.25692559
_cell_length_b   9.11683301
_cell_length_c   11.60155674
_cell_angle_alpha   68.57569813
_cell_angle_beta   77.70384754
_cell_angle_gamma   89.87933694
_symmetry_Int_Tables_number   1
_chemical_formula_structural   Li8Mn7Fe(BO3)8
_chemical_formula_sum   'Li8 Mn7 Fe1 B8 O24'
_cell_volume   503.97384280
_cell_formula_units_Z   1
loop_
 _symmetry_equiv_pos_site_id
 _symmetry_equiv_pos_as_xyz
  1  'x, y, z'
loop_
 _atom_site_type_symbol
 _atom_site_label
 _atom_site_symmetry_multiplicity
 _atom_site_fract_x
 _atom_site_fract_y
 _atom_site_fract_z
 _atom_site_occupancy
  Li  Li0  1  0.969851  0.959912  0.418300  1
  Li  Li1  1  0.703707  0.715071  0.917877  1
  Li  Li2  1  0.518767  0.492847  0.667477  1
  Li  Li3  1  0.727739  0.755174  0.168001  1
  Li  Li4  1  0.470686  0.460251  0.417603  1
  Li  Li5  1  0.203292  0.215566  0.917821  1
  Li  Li6  1  0.019516  0.991536  0.667841  1
  Li  Li7  1  0.227738  0.255785  0.167840  1
  Mn  Mn8  1  0.976929  0.643912  0.383111  1
  Mn  Mn9  1  0.726640  0.060117  0.883310  1
  Mn  Mn10  1  0.522693  0.843133  0.635323  1
  Mn  Mn11  1  0.758399  0.435504  0.131643  1
  Mn  Mn12  1  0.477053  0.143726  0.383408  1
  Mn  Mn13  1  0.255409  0.934384  0.133327  1
  Mn  Mn14  1  0.024365  0.345112  0.632811  1
  Fe  Fe15  1  0.233431  0.558585  0.883087  1
  B  B16  1  0.975555  0.314341  0.375750  1
  B  B17  1  0.736172  0.397822  0.875594  1
  B  B18  1  0.763701  0.107858  0.125572  1
  B  B19  1  0.529597  0.185449  0.626138  1
  B  B20  1  0.475679  0.814476  0.375724  1
  B  B21  1  0.231634  0.893627  0.876397  1
  B  B22  1  0.264789  0.607860  0.124551  1
  B  B23  1  0.028795  0.685156  0.626651  1
  O  O24  1  0.978095  0.890143  0.861284  1
  O  O25  1  0.899038  0.288639  0.845725  1
  O  O26  1  0.831980  0.509072  0.915316  1
  O  O27  1  0.927999  0.829876  0.611729  1
  O  O28  1  0.898232  0.575059  0.596032  1
  O  O29  1  0.761926  0.150145  0.666832  1
  O  O30  1  0.731553  0.345975  0.345247  1
  O  O31  1  0.478720  0.394147  0.863112  1
  O  O32  1  0.397478  0.785021  0.847237  1
  O  O33  1  0.597245  0.914808  0.417739  1
  O  O34  1  0.595193  0.684863  0.361181  1
  O  O35  1  0.323669  0.005697  0.917021  1
  O  O36  1  0.663506  0.987001  0.095725  1
  O  O37  1  0.428591  0.329940  0.612189  1
  O  O38  1  0.399296  0.074873  0.596143  1
  O  O39  1  0.594842  0.206660  0.166160  1
  O  O40  1  0.531690  0.629438  0.110977  1
  O  O41  1  0.260207  0.649453  0.667846  1
  O  O42  1  0.231352  0.845909  0.345204  1
  O  O43  1  0.097336  0.414775  0.417866  1
  O  O44  1  0.095478  0.185053  0.360977  1
  O  O45  1  0.165391  0.487945  0.093598  1
  O  O46  1  0.094722  0.705664  0.166249  1
  O  O47  1  0.031124  0.129446  0.111052  1
