# generated using pymatgen
data_YbOF
_symmetry_space_group_name_H-M   'P 1'
_cell_length_a   4.89458966
_cell_length_b   5.64194512
_cell_length_c   5.55989566
_cell_angle_alpha   82.69762928
_cell_angle_beta   90.00000000
_cell_angle_gamma   90.00000000
_symmetry_Int_Tables_number   1
_chemical_formula_structural   YbOF
_chemical_formula_sum   'Yb4 O4 F4'
_cell_volume   152.29124680
_cell_formula_units_Z   4
loop_
 _symmetry_equiv_pos_site_id
 _symmetry_equiv_pos_as_xyz
  1  'x, y, z'
loop_
 _atom_site_type_symbol
 _atom_site_label
 _atom_site_symmetry_multiplicity
 _atom_site_fract_x
 _atom_site_fract_y
 _atom_site_fract_z
 _atom_site_occupancy
  O  O0  1  0.344806  0.500562  0.999168  1
  O  O1  1  0.844806  0.499438  0.500832  1
  O  O2  1  0.655194  0.499438  0.000832  1
  O  O3  1  0.155194  0.500562  0.499168  1
  F  F4  1  0.746913  0.999629  0.499880  1
  F  F5  1  0.246913  0.000371  0.000120  1
  F  F6  1  0.253087  0.000371  0.500120  1
  F  F7  1  0.753087  0.999629  0.999880  1
  Yb  Yb8  1  0.499767  0.758270  0.268880  1
  Yb  Yb9  1  0.999767  0.241730  0.231120  1
  Yb  Yb10  1  0.500233  0.241730  0.731120  1
  Yb  Yb11  1  0.000233  0.758270  0.768880  1
