# generated using pymatgen
data_Na2CrCSO7
_symmetry_space_group_name_H-M   'P 1'
_cell_length_a   8.93883377
_cell_length_b   7.12102637
_cell_length_c   5.24783071
_cell_angle_alpha   90.00000000
_cell_angle_beta   89.29138358
_cell_angle_gamma   90.00000000
_symmetry_Int_Tables_number   1
_chemical_formula_structural   Na2CrCSO7
_chemical_formula_sum   'Na4 Cr2 C2 S2 O14'
_cell_volume   334.01814220
_cell_formula_units_Z   2
loop_
 _symmetry_equiv_pos_site_id
 _symmetry_equiv_pos_as_xyz
  1  'x, y, z'
loop_
 _atom_site_type_symbol
 _atom_site_label
 _atom_site_symmetry_multiplicity
 _atom_site_fract_x
 _atom_site_fract_y
 _atom_site_fract_z
 _atom_site_occupancy
  Na  Na0  1  0.219557  0.996081  0.231367  1
  Na  Na1  1  0.219557  0.503919  0.231367  1
  Na  Na2  1  0.780443  0.496081  0.768633  1
  Na  Na3  1  0.780443  0.003919  0.768633  1
  Cr  Cr4  1  0.355034  0.750000  0.771075  1
  Cr  Cr5  1  0.644966  0.250000  0.228925  1
  C  C6  1  0.074584  0.750000  0.724811  1
  C  C7  1  0.925416  0.250000  0.275189  1
  S  S8  1  0.419286  0.250000  0.715057  1
  S  S9  1  0.580714  0.750000  0.284943  1
  O  O10  1  0.066454  0.250000  0.282550  1
  O  O11  1  0.148252  0.750000  0.941735  1
  O  O12  1  0.162326  0.750000  0.521491  1
  O  O13  1  0.337086  0.079380  0.794749  1
  O  O14  1  0.337086  0.420620  0.794749  1
  O  O15  1  0.426377  0.750000  0.172550  1
  O  O16  1  0.438084  0.250000  0.427564  1
  O  O17  1  0.561916  0.750000  0.572436  1
  O  O18  1  0.573623  0.250000  0.827450  1
  O  O19  1  0.662914  0.579380  0.205251  1
  O  O20  1  0.662914  0.920620  0.205251  1
  O  O21  1  0.837674  0.250000  0.478509  1
  O  O22  1  0.851748  0.250000  0.058265  1
  O  O23  1  0.933546  0.750000  0.717450  1
