# generated using pymatgen
data_KErP4(H2O9)2
_symmetry_space_group_name_H-M   'P 1'
_cell_length_a   7.41705771
_cell_length_b   7.41705771
_cell_length_c   15.11834278
_cell_angle_alpha   88.34470579
_cell_angle_beta   91.65529421
_cell_angle_gamma   73.89725368
_symmetry_Int_Tables_number   1
_chemical_formula_structural   KErP4(H2O9)2
_chemical_formula_sum   'K2 Er2 P8 H8 O36'
_cell_volume   798.14723641
_cell_formula_units_Z   2
loop_
 _symmetry_equiv_pos_site_id
 _symmetry_equiv_pos_as_xyz
  1  'x, y, z'
loop_
 _atom_site_type_symbol
 _atom_site_label
 _atom_site_symmetry_multiplicity
 _atom_site_fract_x
 _atom_site_fract_y
 _atom_site_fract_z
 _atom_site_occupancy
  K  K0  1  0.482102  0.482102  0.750000  1
  K  K1  1  0.517898  0.517898  0.250000  1
  Er  Er2  1  0.920720  0.920720  0.750000  1
  Er  Er3  1  0.079280  0.079280  0.250000  1
  P  P4  1  0.017517  0.228339  0.586518  1
  P  P5  1  0.228339  0.017517  0.913482  1
  P  P6  1  0.982483  0.771661  0.413482  1
  P  P7  1  0.771661  0.982483  0.086518  1
  P  P8  1  0.816136  0.219671  0.927233  1
  P  P9  1  0.219671  0.816136  0.572767  1
  P  P10  1  0.183864  0.780329  0.072767  1
  P  P11  1  0.780329  0.183864  0.427233  1
  H  H12  1  0.790671  0.524336  0.891578  1
  H  H13  1  0.524336  0.790671  0.608422  1
  H  H14  1  0.209329  0.475664  0.108422  1
  H  H15  1  0.475664  0.209329  0.391578  1
  H  H16  1  0.221924  0.439705  0.912810  1
  H  H17  1  0.439705  0.221924  0.587190  1
  H  H18  1  0.778076  0.560295  0.087190  1
  H  H19  1  0.560295  0.778076  0.412810  1
  O  O20  1  0.033574  0.152497  0.949714  1
  O  O21  1  0.152497  0.033574  0.550286  1
  O  O22  1  0.966426  0.847503  0.050286  1
  O  O23  1  0.847503  0.966426  0.449714  1
  O  O24  1  0.143083  0.720462  0.493824  1
  O  O25  1  0.720462  0.143083  0.006176  1
  O  O26  1  0.856917  0.279538  0.506176  1
  O  O27  1  0.279538  0.856917  0.993824  1
  O  O28  1  0.923584  0.754378  0.881962  1
  O  O29  1  0.754378  0.923584  0.618038  1
  O  O30  1  0.076416  0.245622  0.118038  1
  O  O31  1  0.245622  0.076416  0.381962  1
  O  O32  1  0.119460  0.374729  0.584372  1
  O  O33  1  0.374729  0.119460  0.915628  1
  O  O34  1  0.880540  0.625271  0.415628  1
  O  O35  1  0.625271  0.880540  0.084372  1
  O  O36  1  0.157595  0.769925  0.662355  1
  O  O37  1  0.769925  0.157595  0.837645  1
  O  O38  1  0.842405  0.230075  0.337645  1
  O  O39  1  0.230075  0.842405  0.162355  1
  O  O40  1  0.750449  0.434348  0.937935  1
  O  O41  1  0.434348  0.750449  0.562065  1
  O  O42  1  0.249551  0.565652  0.062065  1
  O  O43  1  0.565652  0.249551  0.437935  1
  O  O44  1  0.927022  0.184040  0.669289  1
  O  O45  1  0.184040  0.927022  0.830711  1
  O  O46  1  0.072978  0.815960  0.330711  1
  O  O47  1  0.815960  0.072978  0.169289  1
  O  O48  1  0.216121  0.416511  0.849329  1
  O  O49  1  0.416511  0.216121  0.650671  1
  O  O50  1  0.783879  0.583489  0.150671  1
  O  O51  1  0.583489  0.783879  0.349329  1
  O  O52  1  0.827722  0.664973  0.830292  1
  O  O53  1  0.664973  0.827722  0.669708  1
  O  O54  1  0.172278  0.335027  0.169708  1
  O  O55  1  0.335027  0.172278  0.330292  1
