# generated using pymatgen
data_Sr3La4O9
_symmetry_space_group_name_H-M   'P 1'
_cell_length_a   7.45127401
_cell_length_b   9.46458618
_cell_length_c   10.69064886
_cell_angle_alpha   79.59371022
_cell_angle_beta   109.25202845
_cell_angle_gamma   106.75127974
_symmetry_Int_Tables_number   1
_chemical_formula_structural   Sr3La4O9
_chemical_formula_sum   'Sr6 La8 O18'
_cell_volume   678.51048571
_cell_formula_units_Z   2
loop_
 _symmetry_equiv_pos_site_id
 _symmetry_equiv_pos_as_xyz
  1  'x, y, z'
loop_
 _atom_site_type_symbol
 _atom_site_label
 _atom_site_symmetry_multiplicity
 _atom_site_fract_x
 _atom_site_fract_y
 _atom_site_fract_z
 _atom_site_occupancy
  Sr  Sr0  1  0.062134  0.577416  0.941797  1
  Sr  Sr1  1  0.381373  0.816636  0.775243  1
  Sr  Sr2  1  0.069927  0.135913  0.227797  1
  Sr  Sr3  1  0.698403  0.562704  0.551983  1
  Sr  Sr4  1  0.867290  0.825355  0.056398  1
  Sr  Sr5  1  0.806770  0.241736  0.510232  1
  La  La6  1  0.428108  0.874752  0.125937  1
  La  La7  1  0.189397  0.143912  0.923446  1
  La  La8  1  0.401637  0.853473  0.445038  1
  La  La9  1  0.302891  0.188152  0.601110  1
  La  La10  1  0.548877  0.481275  0.158790  1
  La  La11  1  0.878150  0.888461  0.696110  1
  La  La12  1  0.721251  0.182701  0.899102  1
  La  La13  1  0.072713  0.522843  0.305053  1
  O  O14  1  0.995664  0.681043  0.714316  1
  O  O15  1  0.265301  0.958065  0.554994  1
  O  O16  1  0.194753  0.920309  0.228999  1
  O  O17  1  0.109439  0.296634  0.393254  1
  O  O18  1  0.065725  0.190643  0.696237  1
  O  O19  1  0.039584  0.307385  0.009898  1
  O  O20  1  0.447350  0.684123  0.013740  1
  O  O21  1  0.559728  0.726312  0.643766  1
  O  O22  1  0.394446  0.655173  0.297374  1
  O  O23  1  0.395726  0.079573  0.830885  1
  O  O24  1  0.435041  0.253382  0.097913  1
  O  O25  1  0.739048  0.015780  0.106435  1
  O  O26  1  0.791029  0.485355  0.372221  1
  O  O27  1  0.632332  0.309300  0.652052  1
  O  O28  1  0.132584  0.860717  0.954566  1
  O  O29  1  0.853791  0.556766  0.104167  1
  O  O30  1  0.783435  0.982834  0.846435  1
  O  O31  1  0.706102  0.985677  0.479113  1
