# generated using pymatgen
data_LiP4WO12
_symmetry_space_group_name_H-M   'P 1'
_cell_length_a   6.97315930
_cell_length_b   8.92632313
_cell_length_c   7.48051602
_cell_angle_alpha   90.00000000
_cell_angle_beta   96.29700813
_cell_angle_gamma   90.00000000
_symmetry_Int_Tables_number   1
_chemical_formula_structural   LiP4WO12
_chemical_formula_sum   'Li2 P8 W2 O24'
_cell_volume   462.81302831
_cell_formula_units_Z   2
loop_
 _symmetry_equiv_pos_site_id
 _symmetry_equiv_pos_as_xyz
  1  'x, y, z'
loop_
 _atom_site_type_symbol
 _atom_site_label
 _atom_site_symmetry_multiplicity
 _atom_site_fract_x
 _atom_site_fract_y
 _atom_site_fract_z
 _atom_site_occupancy
  Li  Li0  1  0.302677  0.517809  0.680568  1
  Li  Li1  1  0.697323  0.017809  0.319432  1
  P  P2  1  0.036631  0.115570  0.605044  1
  P  P3  1  0.073004  0.831458  0.089482  1
  P  P4  1  0.424548  0.980645  0.616600  1
  P  P5  1  0.424382  0.646939  0.053110  1
  P  P6  1  0.575618  0.146939  0.946890  1
  P  P7  1  0.575452  0.480645  0.383400  1
  P  P8  1  0.926996  0.331458  0.910518  1
  P  P9  1  0.963369  0.615570  0.394956  1
  W  W10  1  0.255388  0.180634  0.244002  1
  W  W11  1  0.744612  0.680634  0.755998  1
  O  O12  1  0.004412  0.202169  0.787536  1
  O  O13  1  0.963643  0.815270  0.906501  1
  O  O14  1  0.127959  0.225416  0.486011  1
  O  O15  1  0.073418  0.982058  0.179823  1
  O  O16  1  0.207091  0.992738  0.669906  1
  O  O17  1  0.141424  0.536146  0.464726  1
  O  O18  1  0.298642  0.796567  0.076427  1
  O  O19  1  0.317002  0.534305  0.936028  1
  O  O20  1  0.434718  0.022509  0.420280  1
  O  O21  1  0.378897  0.192241  0.993766  1
  O  O22  1  0.543351  0.104701  0.735158  1
  O  O23  1  0.498767  0.827324  0.667839  1
  O  O24  1  0.501233  0.327324  0.332161  1
  O  O25  1  0.456649  0.604701  0.264842  1
  O  O26  1  0.621103  0.692241  0.006234  1
  O  O27  1  0.565282  0.522509  0.579720  1
  O  O28  1  0.682998  0.034305  0.063972  1
  O  O29  1  0.701357  0.296567  0.923573  1
  O  O30  1  0.858576  0.036146  0.535274  1
  O  O31  1  0.792909  0.492738  0.330094  1
  O  O32  1  0.926582  0.482058  0.820177  1
  O  O33  1  0.872041  0.725416  0.513989  1
  O  O34  1  0.036357  0.315270  0.093499  1
  O  O35  1  0.995588  0.702169  0.212464  1
