# generated using pymatgen
data_Li5Nb2Fe3O10
_symmetry_space_group_name_H-M   'P 1'
_cell_length_a   5.33098652
_cell_length_b   5.27364068
_cell_length_c   8.08407943
_cell_angle_alpha   110.32723616
_cell_angle_beta   102.19166475
_cell_angle_gamma   99.50198238
_symmetry_Int_Tables_number   1
_chemical_formula_structural   Li5Nb2Fe3O10
_chemical_formula_sum   'Li5 Nb2 Fe3 O10'
_cell_volume   201.14084515
_cell_formula_units_Z   1
loop_
 _symmetry_equiv_pos_site_id
 _symmetry_equiv_pos_as_xyz
  1  'x, y, z'
loop_
 _atom_site_type_symbol
 _atom_site_label
 _atom_site_symmetry_multiplicity
 _atom_site_fract_x
 _atom_site_fract_y
 _atom_site_fract_z
 _atom_site_occupancy
  Li  Li0  1  0.225093  0.914861  0.399613  1
  Li  Li1  1  0.402273  0.303214  0.798034  1
  Li  Li2  1  0.500000  0.500000  0.500000  1
  Li  Li3  1  0.597727  0.696786  0.201966  1
  Li  Li4  1  0.774907  0.085139  0.600387  1
  Nb  Nb5  1  0.105825  0.706386  0.689925  1
  Nb  Nb6  1  0.894175  0.293614  0.310075  1
  Fe  Fe7  1  0.000000  0.500000  0.000000  1
  Fe  Fe8  1  0.693101  0.891867  0.894008  1
  Fe  Fe9  1  0.306899  0.108133  0.105992  1
  O  O10  1  0.052379  0.083140  0.842930  1
  O  O11  1  0.334666  0.704608  0.939219  1
  O  O12  1  0.155087  0.307327  0.545067  1
  O  O13  1  0.217726  0.485667  0.245858  1
  O  O14  1  0.424305  0.889580  0.649002  1
  O  O15  1  0.575695  0.110420  0.350998  1
  O  O16  1  0.782274  0.514333  0.754142  1
  O  O17  1  0.844913  0.692673  0.454933  1
  O  O18  1  0.665334  0.295392  0.060781  1
  O  O19  1  0.947621  0.916860  0.157070  1
