# generated using pymatgen
data_K2Mn7H18(C9O20)2
_symmetry_space_group_name_H-M   'P 1'
_cell_length_a   6.99123287
_cell_length_b   12.64353994
_cell_length_c   15.68712112
_cell_angle_alpha   97.58387226
_cell_angle_beta   109.50336130
_cell_angle_gamma   120.62155649
_symmetry_Int_Tables_number   1
_chemical_formula_structural   K2Mn7H18(C9O20)2
_chemical_formula_sum   'K2 Mn7 H18 C18 O40'
_cell_volume   1043.93154760
_cell_formula_units_Z   1
loop_
 _symmetry_equiv_pos_site_id
 _symmetry_equiv_pos_as_xyz
  1  'x, y, z'
loop_
 _atom_site_type_symbol
 _atom_site_label
 _atom_site_symmetry_multiplicity
 _atom_site_fract_x
 _atom_site_fract_y
 _atom_site_fract_z
 _atom_site_occupancy
  K  K0  1  0.374087  0.464763  0.832064  1
  K  K1  1  0.625913  0.535237  0.167936  1
  Mn  Mn2  1  0.000000  0.500000  0.000000  1
  Mn  Mn3  1  0.537087  0.798701  0.570837  1
  Mn  Mn4  1  0.462913  0.201299  0.429163  1
  Mn  Mn5  1  0.814280  0.749495  0.765379  1
  Mn  Mn6  1  0.185720  0.250505  0.234621  1
  Mn  Mn7  1  0.932101  0.047901  0.789502  1
  Mn  Mn8  1  0.067899  0.952099  0.210498  1
  H  H9  1  0.178310  0.683835  0.812077  1
  H  H10  1  0.821690  0.316165  0.187923  1
  H  H11  1  0.898398  0.210189  0.942647  1
  H  H12  1  0.101602  0.789811  0.057353  1
  H  H13  1  0.632043  0.860623  0.953093  1
  H  H14  1  0.367957  0.139377  0.046907  1
  H  H15  1  0.546051  0.071223  0.923087  1
  H  H16  1  0.453949  0.928777  0.076913  1
  H  H17  1  0.027195  0.134267  0.557554  1
  H  H18  1  0.972805  0.865733  0.442446  1
  H  H19  1  0.279814  0.993850  0.663037  1
  H  H20  1  0.720186  0.006150  0.336963  1
  H  H21  1  0.058716  0.475830  0.605047  1
  H  H22  1  0.941284  0.524170  0.394953  1
  H  H23  1  0.906171  0.638739  0.545869  1
  H  H24  1  0.093829  0.361261  0.454131  1
  H  H25  1  0.533287  0.750521  0.375524  1
  H  H26  1  0.466713  0.249479  0.624476  1
  C  C27  1  0.073668  0.642174  0.852772  1
  C  C28  1  0.926332  0.357826  0.147228  1
  C  C29  1  0.056250  0.281144  0.931182  1
  C  C30  1  0.943750  0.718856  0.068818  1
  C  C31  1  0.719459  0.873772  0.904499  1
  C  C32  1  0.280541  0.126228  0.095501  1
  C  C33  1  0.340674  0.019281  0.879856  1
  C  C34  1  0.659326  0.980719  0.120144  1
  C  C35  1  0.942968  0.072469  0.596325  1
  C  C36  1  0.057032  0.927531  0.403675  1
  C  C37  1  0.419614  0.974459  0.666943  1
  C  C38  1  0.580386  0.025541  0.333057  1
  C  C39  1  0.248941  0.561273  0.622356  1
  C  C40  1  0.751059  0.438727  0.377644  1
  C  C41  1  0.831708  0.677585  0.582145  1
  C  C42  1  0.168292  0.322415  0.417855  1
  C  C43  1  0.335451  0.708868  0.358502  1
  C  C44  1  0.664549  0.291132  0.641498  1
  O  O45  1  0.161860  0.606787  0.916737  1
  O  O46  1  0.838140  0.393213  0.083263  1
  O  O47  1  0.175639  0.403950  0.973070  1
  O  O48  1  0.824361  0.596050  0.026930  1
  O  O49  1  0.728649  0.384334  0.895001  1
  O  O50  1  0.271351  0.615666  0.104999  1
  O  O51  1  0.872651  0.635143  0.831305  1
  O  O52  1  0.127349  0.364857  0.168695  1
  O  O53  1  0.118903  0.235743  0.876334  1
  O  O54  1  0.881097  0.764257  0.123666  1
  O  O55  1  0.763459  0.865848  0.708286  1
  O  O56  1  0.236541  0.134152  0.291714  1
  O  O57  1  0.683592  0.768568  0.859053  1
  O  O58  1  0.316408  0.231432  0.140947  1
  O  O59  1  0.200056  0.901061  0.871736  1
  O  O60  1  0.799944  0.098939  0.128264  1
  O  O61  1  0.435219  0.570063  0.681761  1
  O  O62  1  0.564781  0.429937  0.318239  1
  O  O63  1  0.927694  0.705081  0.674080  1
  O  O64  1  0.072306  0.294919  0.325920  1
  O  O65  1  0.837923  0.985784  0.899892  1
  O  O66  1  0.162077  0.014216  0.100108  1
  O  O67  1  0.275463  0.087625  0.845039  1
  O  O68  1  0.724537  0.912375  0.154961  1
  O  O69  1  0.015551  0.129959  0.684162  1
  O  O70  1  0.984449  0.870041  0.315838  1
  O  O71  1  0.618203  0.040441  0.748717  1
  O  O72  1  0.381797  0.959559  0.251283  1
  O  O73  1  0.782278  0.949039  0.544166  1
  O  O74  1  0.217722  0.050961  0.455834  1
  O  O75  1  0.363427  0.891840  0.591968  1
  O  O76  1  0.636573  0.108160  0.408032  1
  O  O77  1  0.252755  0.639235  0.578287  1
  O  O78  1  0.747245  0.360765  0.421713  1
  O  O79  1  0.669624  0.690590  0.530508  1
  O  O80  1  0.330376  0.309410  0.469492  1
  O  O81  1  0.294021  0.724012  0.433143  1
  O  O82  1  0.705979  0.275988  0.566857  1
  O  O83  1  0.162865  0.650719  0.274089  1
  O  O84  1  0.837135  0.349281  0.725911  1
