# generated using pymatgen
data_BaYF5
_symmetry_space_group_name_H-M   'P 1'
_cell_length_a   8.49008711
_cell_length_b   8.49008711
_cell_length_c   5.99055365
_cell_angle_alpha   89.28184227
_cell_angle_beta   90.71815773
_cell_angle_gamma   30.59737065
_symmetry_Int_Tables_number   1
_chemical_formula_structural   BaYF5
_chemical_formula_sum   'Ba2 Y2 F10'
_cell_volume   219.54325692
_cell_formula_units_Z   2
loop_
 _symmetry_equiv_pos_site_id
 _symmetry_equiv_pos_as_xyz
  1  'x, y, z'
loop_
 _atom_site_type_symbol
 _atom_site_label
 _atom_site_symmetry_multiplicity
 _atom_site_fract_x
 _atom_site_fract_y
 _atom_site_fract_z
 _atom_site_occupancy
  Ba  Ba0  1  0.672501  0.672501  0.750000  1
  Ba  Ba1  1  0.327499  0.327499  0.250000  1
  Y  Y2  1  0.926632  0.926632  0.750000  1
  Y  Y3  1  0.073368  0.073368  0.250000  1
  F  F4  1  0.260893  0.807950  0.591730  1
  F  F5  1  0.192050  0.739107  0.091730  1
  F  F6  1  0.195189  0.171130  0.011754  1
  F  F7  1  0.382602  0.382602  0.750000  1
  F  F8  1  0.171130  0.195189  0.488246  1
  F  F9  1  0.828870  0.804811  0.511754  1
  F  F10  1  0.617398  0.617398  0.250000  1
  F  F11  1  0.804811  0.828870  0.988246  1
  F  F12  1  0.807950  0.260893  0.908270  1
  F  F13  1  0.739107  0.192050  0.408270  1
