# generated using pymatgen
data_Ni3(PO4)2
_symmetry_space_group_name_H-M   'P 1'
_cell_length_a   8.67904625
_cell_length_b   9.94195555
_cell_length_c   20.30115774
_cell_angle_alpha   90.00000000
_cell_angle_beta   98.51309484
_cell_angle_gamma   90.00000000
_symmetry_Int_Tables_number   1
_chemical_formula_structural   Ni3(PO4)2
_chemical_formula_sum   'Ni36 P24 O96'
_cell_volume   1732.41939470
_cell_formula_units_Z   12
loop_
 _symmetry_equiv_pos_site_id
 _symmetry_equiv_pos_as_xyz
  1  'x, y, z'
loop_
 _atom_site_type_symbol
 _atom_site_label
 _atom_site_symmetry_multiplicity
 _atom_site_fract_x
 _atom_site_fract_y
 _atom_site_fract_z
 _atom_site_occupancy
  Ni  Ni0  1  0.067806  0.915093  0.939737  1
  Ni  Ni1  1  0.093906  0.397328  0.893201  1
  Ni  Ni2  1  0.031142  0.216306  0.541219  1
  Ni  Ni3  1  0.111199  0.620939  0.585321  1
  Ni  Ni4  1  0.197005  0.572961  0.781845  1
  Ni  Ni5  1  0.037692  0.117219  0.242179  1
  Ni  Ni6  1  0.103846  0.698091  0.298009  1
  Ni  Ni7  1  0.302995  0.072961  0.718155  1
  Ni  Ni8  1  0.388801  0.120939  0.914679  1
  Ni  Ni9  1  0.468858  0.716306  0.958781  1
  Ni  Ni10  1  0.237294  0.274958  0.357016  1
  Ni  Ni11  1  0.273271  0.870440  0.426534  1
  Ni  Ni12  1  0.406094  0.897328  0.606799  1
  Ni  Ni13  1  0.226729  0.370440  0.073466  1
  Ni  Ni14  1  0.262706  0.774958  0.142984  1
  Ni  Ni15  1  0.432194  0.415093  0.560263  1
  Ni  Ni16  1  0.537692  0.382781  0.742179  1
  Ni  Ni17  1  0.603846  0.801909  0.798009  1
  Ni  Ni18  1  0.396154  0.198092  0.201991  1
  Ni  Ni19  1  0.462308  0.617219  0.257821  1
  Ni  Ni20  1  0.567806  0.584907  0.439737  1
  Ni  Ni21  1  0.737294  0.225042  0.857016  1
  Ni  Ni22  1  0.773271  0.629560  0.926534  1
  Ni  Ni23  1  0.593906  0.102672  0.393201  1
  Ni  Ni24  1  0.726729  0.129560  0.573466  1
  Ni  Ni25  1  0.762706  0.725042  0.642984  1
  Ni  Ni26  1  0.531142  0.283694  0.041219  1
  Ni  Ni27  1  0.611199  0.879061  0.085321  1
  Ni  Ni28  1  0.697005  0.927039  0.281845  1
  Ni  Ni29  1  0.896154  0.301909  0.701991  1
  Ni  Ni30  1  0.962308  0.882781  0.757821  1
  Ni  Ni31  1  0.802995  0.427039  0.218155  1
  Ni  Ni32  1  0.888801  0.379061  0.414679  1
  Ni  Ni33  1  0.968858  0.783694  0.458781  1
  Ni  Ni34  1  0.906094  0.602672  0.106799  1
  Ni  Ni35  1  0.932194  0.084907  0.060263  1
  P  P36  1  0.052029  0.129133  0.827017  1
  P  P37  1  0.129591  0.645710  0.996715  1
  P  P38  1  0.034381  0.924999  0.606668  1
  P  P39  1  0.190305  0.354191  0.667905  1
  P  P40  1  0.309695  0.854191  0.832095  1
  P  P41  1  0.195690  0.551022  0.440716  1
  P  P42  1  0.154940  0.431417  0.217043  1
  P  P43  1  0.465619  0.424999  0.893332  1
  P  P44  1  0.370409  0.145710  0.503285  1
  P  P45  1  0.447971  0.629133  0.672983  1
  P  P46  1  0.345060  0.931417  0.282957  1
  P  P47  1  0.304310  0.051022  0.059284  1
  P  P48  1  0.695690  0.948978  0.940716  1
  P  P49  1  0.654940  0.068583  0.717043  1
  P  P50  1  0.552029  0.370867  0.327017  1
  P  P51  1  0.629591  0.854290  0.496715  1
  P  P52  1  0.534381  0.575001  0.106668  1
  P  P53  1  0.845060  0.568583  0.782957  1
  P  P54  1  0.804310  0.448978  0.559284  1
  P  P55  1  0.690305  0.145809  0.167905  1
  P  P56  1  0.809695  0.645809  0.332095  1
  P  P57  1  0.965619  0.075001  0.393332  1
  P  P58  1  0.870409  0.354290  0.003285  1
  P  P59  1  0.947971  0.870867  0.172983  1
  O  O60  1  0.002546  0.537000  0.826864  1
  O  O61  1  0.156790  0.494330  0.982923  1
  O  O62  1  0.109443  0.066194  0.765349  1
  O  O63  1  0.076646  0.240516  0.642072  1
  O  O64  1  0.099517  0.436313  0.714645  1
  O  O65  1  0.178545  0.200849  0.876992  1
  O  O66  1  0.053847  0.812636  0.556289  1
  O  O67  1  0.161644  0.785975  0.794272  1
  O  O68  1  0.260254  0.737977  0.981613  1
  O  O69  1  0.057695  0.958005  0.430788  1
  O  O70  1  0.082955  0.606030  0.486539  1
  O  O71  1  0.061201  0.133715  0.341655  1
  O  O72  1  0.271679  0.942413  0.890357  1
  O  O73  1  0.200066  0.965303  0.639700  1
  O  O74  1  0.122153  0.422842  0.404805  1
  O  O75  1  0.032779  0.984263  0.140280  1
  O  O76  1  0.299934  0.465303  0.860300  1
  O  O77  1  0.228321  0.442413  0.609643  1
  O  O78  1  0.015933  0.295630  0.048311  1
  O  O79  1  0.067427  0.758745  0.197067  1
  O  O80  1  0.118814  0.321011  0.266066  1
  O  O81  1  0.239746  0.237977  0.518387  1
  O  O82  1  0.216105  0.665799  0.391645  1
  O  O83  1  0.338356  0.285975  0.705728  1
  O  O84  1  0.446153  0.312636  0.943711  1
  O  O85  1  0.321455  0.700849  0.623008  1
  O  O86  1  0.400483  0.936313  0.785355  1
  O  O87  1  0.113874  0.659965  0.072696  1
  O  O88  1  0.423354  0.740516  0.857928  1
  O  O89  1  0.229773  0.875914  0.327104  1
  O  O90  1  0.390557  0.566194  0.734651  1
  O  O91  1  0.232330  0.555600  0.254498  1
  O  O92  1  0.142578  0.025485  0.018883  1
  O  O93  1  0.343210  0.994330  0.517077  1
  O  O94  1  0.357422  0.525485  0.481117  1
  O  O95  1  0.267670  0.055600  0.245502  1
  O  O96  1  0.270227  0.375914  0.172896  1
  O  O97  1  0.557695  0.541995  0.930788  1
  O  O98  1  0.582955  0.893970  0.986539  1
  O  O99  1  0.386126  0.159965  0.427304  1
  O  O100  1  0.561201  0.366285  0.841655  1
  O  O101  1  0.283895  0.165799  0.108355  1
  O  O102  1  0.497454  0.037000  0.673136  1
  O  O103  1  0.622153  0.077158  0.904805  1
  O  O104  1  0.532779  0.515737  0.640280  1
  O  O105  1  0.381186  0.821011  0.233934  1
  O  O106  1  0.515933  0.204370  0.548311  1
  O  O107  1  0.567427  0.741255  0.697067  1
  O  O108  1  0.432573  0.258746  0.302933  1
  O  O109  1  0.484067  0.795630  0.451689  1
  O  O110  1  0.618814  0.178989  0.766066  1
  O  O111  1  0.467221  0.484263  0.359720  1
  O  O112  1  0.377847  0.922842  0.095195  1
  O  O113  1  0.502546  0.963000  0.326864  1
  O  O114  1  0.716105  0.834201  0.891645  1
  O  O115  1  0.438799  0.633715  0.158345  1
  O  O116  1  0.613874  0.840035  0.572696  1
  O  O117  1  0.417045  0.106030  0.013461  1
  O  O118  1  0.442305  0.458005  0.069212  1
  O  O119  1  0.729773  0.624086  0.827104  1
  O  O120  1  0.732330  0.944400  0.754498  1
  O  O121  1  0.642578  0.474515  0.518883  1
  O  O122  1  0.656790  0.005670  0.482922  1
  O  O123  1  0.857422  0.974515  0.981117  1
  O  O124  1  0.767670  0.444400  0.745502  1
  O  O125  1  0.609443  0.433806  0.265349  1
  O  O126  1  0.770227  0.124086  0.672896  1
  O  O127  1  0.576646  0.259484  0.142072  1
  O  O128  1  0.886126  0.340035  0.927304  1
  O  O129  1  0.599517  0.063687  0.214645  1
  O  O130  1  0.678545  0.299151  0.376992  1
  O  O131  1  0.553847  0.687364  0.056289  1
  O  O132  1  0.661644  0.714025  0.294272  1
  O  O133  1  0.783895  0.334201  0.608355  1
  O  O134  1  0.760254  0.762023  0.481613  1
  O  O135  1  0.881186  0.678989  0.733934  1
  O  O136  1  0.932573  0.241255  0.802933  1
  O  O137  1  0.984067  0.704370  0.951689  1
  O  O138  1  0.771679  0.557587  0.390357  1
  O  O139  1  0.700066  0.534697  0.139700  1
  O  O140  1  0.967221  0.015737  0.859720  1
  O  O141  1  0.877847  0.577158  0.595195  1
  O  O142  1  0.799934  0.034697  0.360300  1
  O  O143  1  0.728321  0.057587  0.109643  1
  O  O144  1  0.938799  0.866285  0.658345  1
  O  O145  1  0.917045  0.393970  0.513461  1
  O  O146  1  0.942305  0.041995  0.569212  1
  O  O147  1  0.739746  0.262023  0.018387  1
  O  O148  1  0.838356  0.214025  0.205728  1
  O  O149  1  0.946153  0.187364  0.443711  1
  O  O150  1  0.821455  0.799151  0.123008  1
  O  O151  1  0.900483  0.563687  0.285355  1
  O  O152  1  0.923354  0.759484  0.357928  1
  O  O153  1  0.890557  0.933806  0.234651  1
  O  O154  1  0.843210  0.505670  0.017077  1
  O  O155  1  0.997454  0.463000  0.173136  1
