# generated using pymatgen
data_Li2Cr2Si2O9
_symmetry_space_group_name_H-M   'P 1'
_cell_length_a   13.99523791
_cell_length_b   8.39540981
_cell_length_c   5.17085364
_cell_angle_alpha   89.99999156
_cell_angle_beta   90.05542124
_cell_angle_gamma   90.00375997
_symmetry_Int_Tables_number   1
_chemical_formula_structural   Li2Cr2Si2O9
_chemical_formula_sum   'Li8 Cr8 Si8 O36'
_cell_volume   607.55308046
_cell_formula_units_Z   4
loop_
 _symmetry_equiv_pos_site_id
 _symmetry_equiv_pos_as_xyz
  1  'x, y, z'
loop_
 _atom_site_type_symbol
 _atom_site_label
 _atom_site_symmetry_multiplicity
 _atom_site_fract_x
 _atom_site_fract_y
 _atom_site_fract_z
 _atom_site_occupancy
  Li  Li0  1  0.161005  0.055580  0.647566  1
  Li  Li1  1  0.161026  0.444412  0.147586  1
  Li  Li2  1  0.339954  0.552745  0.146343  1
  Li  Li3  1  0.339959  0.947197  0.646362  1
  Li  Li4  1  0.660483  0.054304  0.352210  1
  Li  Li5  1  0.660480  0.445684  0.852200  1
  Li  Li6  1  0.839254  0.554009  0.852325  1
  Li  Li7  1  0.839255  0.945995  0.352290  1
  Cr  Cr8  1  0.170665  0.656734  0.634181  1
  Cr  Cr9  1  0.170686  0.843245  0.134259  1
  Cr  Cr10  1  0.327371  0.157349  0.120372  1
  Cr  Cr11  1  0.327414  0.342582  0.620326  1
  Cr  Cr12  1  0.671218  0.656697  0.368031  1
  Cr  Cr13  1  0.671211  0.843448  0.867973  1
  Cr  Cr14  1  0.828120  0.156531  0.870069  1
  Cr  Cr15  1  0.828101  0.343493  0.370204  1
  Si  Si16  1  0.026692  0.154120  0.213433  1
  Si  Si17  1  0.026696  0.345931  0.713442  1
  Si  Si18  1  0.473027  0.652705  0.713906  1
  Si  Si19  1  0.473017  0.847214  0.213873  1
  Si  Si20  1  0.526702  0.153894  0.786582  1
  Si  Si21  1  0.526701  0.346191  0.286582  1
  Si  Si22  1  0.973059  0.653350  0.286464  1
  Si  Si23  1  0.973056  0.846600  0.786480  1
  O  O24  1  0.070231  0.263271  0.451024  1
  O  O25  1  0.070231  0.236705  0.951086  1
  O  O26  1  0.072166  0.979548  0.256570  1
  O  O27  1  0.072163  0.520445  0.756546  1
  O  O28  1  0.090693  0.653842  0.286812  1
  O  O29  1  0.090694  0.846147  0.786822  1
  O  O30  1  0.231408  0.824714  0.440491  1
  O  O31  1  0.231415  0.675235  0.940487  1
  O  O32  1  0.250671  0.000477  0.977211  1
  O  O33  1  0.250676  0.499439  0.477206  1
  O  O34  1  0.268772  0.172814  0.450263  1
  O  O35  1  0.268790  0.327120  0.950261  1
  O  O36  1  0.409701  0.154152  0.785968  1
  O  O37  1  0.409703  0.345817  0.286028  1
  O  O38  1  0.427648  0.021045  0.259462  1
  O  O39  1  0.427655  0.478984  0.759528  1
  O  O40  1  0.429852  0.736622  0.451050  1
  O  O41  1  0.429848  0.763464  0.951130  1
  O  O42  1  0.570318  0.236812  0.048991  1
  O  O43  1  0.570329  0.263163  0.549078  1
  O  O44  1  0.572265  0.520780  0.242946  1
  O  O45  1  0.572253  0.979228  0.742873  1
  O  O46  1  0.590695  0.654024  0.713317  1
  O  O47  1  0.590681  0.846033  0.213295  1
  O  O48  1  0.731305  0.674020  0.058436  1
  O  O49  1  0.731307  0.826016  0.558393  1
  O  O50  1  0.750175  0.000271  0.024105  1
  O  O51  1  0.750170  0.499699  0.524148  1
  O  O52  1  0.768810  0.173577  0.556934  1
  O  O53  1  0.768807  0.326425  0.056909  1
  O  O54  1  0.909618  0.153746  0.213528  1
  O  O55  1  0.909619  0.346261  0.713523  1
  O  O56  1  0.928106  0.020860  0.742403  1
  O  O57  1  0.928091  0.479168  0.242386  1
  O  O58  1  0.929992  0.736823  0.548898  1
  O  O59  1  0.929992  0.763238  0.048830  1
