# generated using pymatgen
data_Mn3FeNi2(PO4)6
_symmetry_space_group_name_H-M   'P 1'
_cell_length_a   8.43798549
_cell_length_b   8.43798540
_cell_length_c   8.43798585
_cell_angle_alpha   60.98977756
_cell_angle_beta   60.98978185
_cell_angle_gamma   60.98977682
_symmetry_Int_Tables_number   1
_chemical_formula_structural   Mn3FeNi2(PO4)6
_chemical_formula_sum   'Mn3 Fe1 Ni2 P6 O24'
_cell_volume   434.28824897
_cell_formula_units_Z   1
loop_
 _symmetry_equiv_pos_site_id
 _symmetry_equiv_pos_as_xyz
  1  'x, y, z'
loop_
 _atom_site_type_symbol
 _atom_site_label
 _atom_site_symmetry_multiplicity
 _atom_site_fract_x
 _atom_site_fract_y
 _atom_site_fract_z
 _atom_site_occupancy
  Mn  Mn0  1  0.142038  0.142038  0.142038  1
  Mn  Mn1  1  0.358667  0.358667  0.358667  1
  Mn  Mn2  1  0.642141  0.642141  0.642141  1
  Fe  Fe3  1  0.857156  0.857156  0.857156  1
  Ni  Ni4  1  0.999251  0.999251  0.999251  1
  Ni  Ni5  1  0.500790  0.500790  0.500790  1
  P  P6  1  0.044180  0.749354  0.454171  1
  P  P7  1  0.454171  0.044180  0.749354  1
  P  P8  1  0.749354  0.454171  0.044180  1
  P  P9  1  0.250428  0.542376  0.960264  1
  P  P10  1  0.542376  0.960264  0.250428  1
  P  P11  1  0.960264  0.250428  0.542376  1
  O  O12  1  0.120425  0.316735  0.502876  1
  O  O13  1  0.316735  0.502876  0.120425  1
  O  O14  1  0.062026  0.908834  0.252856  1
  O  O15  1  0.502876  0.120425  0.316735  1
  O  O16  1  0.009897  0.812837  0.611610  1
  O  O17  1  0.245476  0.584666  0.440778  1
  O  O18  1  0.252856  0.062026  0.908834  1
  O  O19  1  0.440778  0.245476  0.584666  1
  O  O20  1  0.186209  0.385019  0.992648  1
  O  O21  1  0.584666  0.440778  0.245476  1
  O  O22  1  0.092410  0.742225  0.944237  1
  O  O23  1  0.385019  0.992648  0.186209  1
  O  O24  1  0.611610  0.009897  0.812837  1
  O  O25  1  0.908834  0.252856  0.062026  1
  O  O26  1  0.414121  0.553171  0.760425  1
  O  O27  1  0.812837  0.611610  0.009897  1
  O  O28  1  0.553171  0.760425  0.414121  1
  O  O29  1  0.742225  0.944237  0.092410  1
  O  O30  1  0.760425  0.414121  0.553171  1
  O  O31  1  0.992648  0.186209  0.385019  1
  O  O32  1  0.487559  0.885762  0.686379  1
  O  O33  1  0.944237  0.092410  0.742225  1
  O  O34  1  0.686379  0.487559  0.885762  1
  O  O35  1  0.885762  0.686379  0.487559  1
