# generated using pymatgen
data_Ti3CuSn2(PO4)6
_symmetry_space_group_name_H-M   'P 1'
_cell_length_a   9.01160949
_cell_length_b   9.01160884
_cell_length_c   9.01160936
_cell_angle_alpha   57.39493002
_cell_angle_beta   57.39492546
_cell_angle_gamma   57.39493249
_symmetry_Int_Tables_number   1
_chemical_formula_structural   Ti3CuSn2(PO4)6
_chemical_formula_sum   'Ti3 Cu1 Sn2 P6 O24'
_cell_volume   486.45660044
_cell_formula_units_Z   1
loop_
 _symmetry_equiv_pos_site_id
 _symmetry_equiv_pos_as_xyz
  1  'x, y, z'
loop_
 _atom_site_type_symbol
 _atom_site_label
 _atom_site_symmetry_multiplicity
 _atom_site_fract_x
 _atom_site_fract_y
 _atom_site_fract_z
 _atom_site_occupancy
  Ti  Ti0  1  0.144418  0.144418  0.144418  1
  Ti  Ti1  1  0.352347  0.352347  0.352347  1
  Ti  Ti2  1  0.650465  0.650465  0.650465  1
  Cu  Cu3  1  0.848345  0.848345  0.848345  1
  Sn  Sn4  1  0.987930  0.987930  0.987930  1
  Sn  Sn5  1  0.501533  0.501533  0.501533  1
  P  P6  1  0.041226  0.751643  0.462491  1
  P  P7  1  0.462491  0.041226  0.751643  1
  P  P8  1  0.252503  0.535275  0.962318  1
  P  P9  1  0.535275  0.962318  0.252503  1
  P  P10  1  0.962318  0.252503  0.535275  1
  P  P11  1  0.751643  0.462491  0.041226  1
  O  O12  1  0.123832  0.302272  0.493497  1
  O  O13  1  0.302272  0.493497  0.123832  1
  O  O14  1  0.064313  0.923387  0.276281  1
  O  O15  1  0.493497  0.123832  0.302272  1
  O  O16  1  0.022183  0.782742  0.620191  1
  O  O17  1  0.222847  0.578108  0.427352  1
  O  O18  1  0.276281  0.064313  0.923387  1
  O  O19  1  0.427352  0.222847  0.578108  1
  O  O20  1  0.210093  0.372121  0.997001  1
  O  O21  1  0.578108  0.427352  0.222847  1
  O  O22  1  0.083902  0.719714  0.944634  1
  O  O23  1  0.372121  0.997001  0.210093  1
  O  O24  1  0.620191  0.022183  0.782742  1
  O  O25  1  0.923387  0.276281  0.064313  1
  O  O26  1  0.427483  0.556881  0.777627  1
  O  O27  1  0.782742  0.620191  0.022183  1
  O  O28  1  0.556881  0.777627  0.427483  1
  O  O29  1  0.719714  0.944634  0.083902  1
  O  O30  1  0.777627  0.427483  0.556881  1
  O  O31  1  0.997001  0.210093  0.372121  1
  O  O32  1  0.498295  0.871467  0.713284  1
  O  O33  1  0.944634  0.083902  0.719714  1
  O  O34  1  0.713284  0.498295  0.871467  1
  O  O35  1  0.871467  0.713284  0.498295  1
