# generated using pymatgen
data_BiSbO3
_symmetry_space_group_name_H-M   'P 1'
_cell_length_a   6.39689264
_cell_length_b   6.39363638
_cell_length_c   5.97617171
_cell_angle_alpha   57.71295892
_cell_angle_beta   122.33394546
_cell_angle_gamma   119.87163031
_symmetry_Int_Tables_number   1
_chemical_formula_structural   BiSbO3
_chemical_formula_sum   'Bi2 Sb2 O6'
_cell_volume   166.69682546
_cell_formula_units_Z   2
loop_
 _symmetry_equiv_pos_site_id
 _symmetry_equiv_pos_as_xyz
  1  'x, y, z'
loop_
 _atom_site_type_symbol
 _atom_site_label
 _atom_site_symmetry_multiplicity
 _atom_site_fract_x
 _atom_site_fract_y
 _atom_site_fract_z
 _atom_site_occupancy
  Bi  Bi0  1  0.866833  0.133139  0.600579  1
  Bi  Bi1  1  0.133161  0.866856  0.399418  1
  Sb  Sb2  1  0.647614  0.352142  0.943321  1
  Sb  Sb3  1  0.352390  0.647858  0.056681  1
  O  O4  1  0.022784  0.768844  0.764371  1
  O  O5  1  0.510073  0.976627  0.764968  1
  O  O6  1  0.231721  0.489305  0.764991  1
  O  O7  1  0.768279  0.510697  0.235009  1
  O  O8  1  0.489927  0.023373  0.235030  1
  O  O9  1  0.977219  0.231158  0.235634  1
