# generated using pymatgen
data_LiFeSi3O8
_symmetry_space_group_name_H-M   'P 1'
_cell_length_a   7.89643358
_cell_length_b   7.38410571
_cell_length_c   7.38817177
_cell_angle_alpha   78.63927114
_cell_angle_beta   107.24860333
_cell_angle_gamma   63.06349300
_symmetry_Int_Tables_number   1
_chemical_formula_structural   LiFeSi3O8
_chemical_formula_sum   'Li2 Fe2 Si6 O16'
_cell_volume   337.87319444
_cell_formula_units_Z   2
loop_
 _symmetry_equiv_pos_site_id
 _symmetry_equiv_pos_as_xyz
  1  'x, y, z'
loop_
 _atom_site_type_symbol
 _atom_site_label
 _atom_site_symmetry_multiplicity
 _atom_site_fract_x
 _atom_site_fract_y
 _atom_site_fract_z
 _atom_site_occupancy
  Li  Li0  1  0.245343  0.742931  0.128560  1
  Li  Li1  1  0.754657  0.257069  0.871440  1
  Fe  Fe2  1  0.826787  0.834194  0.797687  1
  Fe  Fe3  1  0.173213  0.165806  0.202313  1
  Si  Si4  1  0.216168  0.552360  0.692969  1
  Si  Si5  1  0.443628  0.767144  0.648893  1
  Si  Si6  1  0.161677  0.164655  0.756596  1
  Si  Si7  1  0.838323  0.835345  0.243404  1
  Si  Si8  1  0.556372  0.232856  0.351107  1
  Si  Si9  1  0.783832  0.447640  0.307031  1
  O  O10  1  0.102512  0.678931  0.819406  1
  O  O11  1  0.311815  0.934647  0.741452  1
  O  O12  1  0.067702  0.681768  0.444621  1
  O  O13  1  0.330569  0.875019  0.398345  1
  O  O14  1  0.439994  0.541201  0.732237  1
  O  O15  1  0.119342  0.105879  0.957317  1
  O  O16  1  0.281929  0.296625  0.767873  1
  O  O17  1  0.690628  0.685960  0.749785  1
  O  O18  1  0.309372  0.314040  0.250215  1
  O  O19  1  0.718071  0.703375  0.232127  1
  O  O20  1  0.880658  0.894121  0.042683  1
  O  O21  1  0.560006  0.458799  0.267763  1
  O  O22  1  0.669431  0.124981  0.601655  1
  O  O23  1  0.932298  0.318232  0.555379  1
  O  O24  1  0.688185  0.065353  0.258549  1
  O  O25  1  0.897488  0.321069  0.180594  1
