# generated using pymatgen
data_Li4V2Fe3Cu3O16
_symmetry_space_group_name_H-M   'P 1'
_cell_length_a   5.90484568
_cell_length_b   5.90773238
_cell_length_c   9.53870050
_cell_angle_alpha   90.24908841
_cell_angle_beta   89.92662579
_cell_angle_gamma   119.78978546
_symmetry_Int_Tables_number   1
_chemical_formula_structural   Li4V2Fe3Cu3O16
_chemical_formula_sum   'Li4 V2 Fe3 Cu3 O16'
_cell_volume   288.77589620
_cell_formula_units_Z   1
loop_
 _symmetry_equiv_pos_site_id
 _symmetry_equiv_pos_as_xyz
  1  'x, y, z'
loop_
 _atom_site_type_symbol
 _atom_site_label
 _atom_site_symmetry_multiplicity
 _atom_site_fract_x
 _atom_site_fract_y
 _atom_site_fract_z
 _atom_site_occupancy
  Li  Li0  1  0.322502  0.662195  0.903156  1
  Li  Li1  1  0.004218  0.002482  0.992188  1
  Li  Li2  1  0.012266  0.005561  0.488194  1
  Li  Li3  1  0.657619  0.327145  0.402812  1
  V  V4  1  0.332060  0.665314  0.498279  1
  V  V5  1  0.665992  0.331843  0.997285  1
  Fe  Fe6  1  0.655453  0.828076  0.220909  1
  Fe  Fe7  1  0.825100  0.654779  0.719417  1
  Fe  Fe8  1  0.825268  0.170422  0.718788  1
  Cu  Cu9  1  0.172798  0.829623  0.211531  1
  Cu  Cu10  1  0.176322  0.345093  0.215009  1
  Cu  Cu11  1  0.346928  0.174723  0.714913  1
  O  O12  1  0.170443  0.819656  0.586631  1
  O  O13  1  0.046653  0.518670  0.349762  1
  O  O14  1  0.326112  0.666950  0.110939  1
  O  O15  1  0.012215  0.001984  0.295431  1
  O  O16  1  0.005755  0.003103  0.799967  1
  O  O17  1  0.170933  0.349541  0.587251  1
  O  O18  1  0.483915  0.959478  0.349758  1
  O  O19  1  0.482460  0.522213  0.349447  1
  O  O20  1  0.350753  0.179822  0.083968  1
  O  O21  1  0.655072  0.826875  0.586983  1
  O  O22  1  0.518966  0.480946  0.848047  1
  O  O23  1  0.518707  0.040066  0.847957  1
  O  O24  1  0.669037  0.334579  0.605865  1
  O  O25  1  0.817684  0.652535  0.086864  1
  O  O26  1  0.957666  0.478897  0.849168  1
  O  O27  1  0.817104  0.167725  0.087315  1
