# generated using pymatgen
data_Li2Cr2Si4O11
_symmetry_space_group_name_H-M   'P 1'
_cell_length_a   8.82306360
_cell_length_b   7.81068939
_cell_length_c   7.14359314
_cell_angle_alpha   108.58205418
_cell_angle_beta   102.45250175
_cell_angle_gamma   97.90029058
_symmetry_Int_Tables_number   1
_chemical_formula_structural   Li2Cr2Si4O11
_chemical_formula_sum   'Li4 Cr4 Si8 O22'
_cell_volume   444.20629709
_cell_formula_units_Z   2
loop_
 _symmetry_equiv_pos_site_id
 _symmetry_equiv_pos_as_xyz
  1  'x, y, z'
loop_
 _atom_site_type_symbol
 _atom_site_label
 _atom_site_symmetry_multiplicity
 _atom_site_fract_x
 _atom_site_fract_y
 _atom_site_fract_z
 _atom_site_occupancy
  Li  Li0  1  0.199083  0.792943  0.616357  1
  Li  Li1  1  0.154589  0.746721  0.149551  1
  Li  Li2  1  0.845411  0.253279  0.850449  1
  Li  Li3  1  0.800917  0.207057  0.383643  1
  Cr  Cr4  1  0.386743  0.618858  0.879295  1
  Cr  Cr5  1  0.398828  0.612130  0.364423  1
  Cr  Cr6  1  0.601172  0.387870  0.635577  1
  Cr  Cr7  1  0.613257  0.381142  0.120705  1
  Si  Si8  1  0.035145  0.386017  0.242662  1
  Si  Si9  1  0.231887  0.218465  0.957066  1
  Si  Si10  1  0.221075  0.216864  0.522755  1
  Si  Si11  1  0.600926  0.974778  0.773086  1
  Si  Si12  1  0.399074  0.025222  0.226914  1
  Si  Si13  1  0.778925  0.783136  0.477245  1
  Si  Si14  1  0.768113  0.781535  0.042934  1
  Si  Si15  1  0.964855  0.613983  0.757338  1
  O  O16  1  0.150920  0.620085  0.815692  1
  O  O17  1  0.061248  0.263535  0.397349  1
  O  O18  1  0.155781  0.589012  0.327441  1
  O  O19  1  0.067248  0.255826  0.021940  1
  O  O20  1  0.179666  0.148688  0.704632  1
  O  O21  1  0.267183  0.037015  0.367947  1
  O  O22  1  0.439607  0.814327  0.655246  1
  O  O23  1  0.365435  0.397948  0.606113  1
  O  O24  1  0.412872  0.812030  0.165302  1
  O  O25  1  0.293161  0.047943  0.014441  1
  O  O26  1  0.372360  0.404586  0.075686  1
  O  O27  1  0.627640  0.595414  0.924314  1
  O  O28  1  0.706839  0.952057  0.985559  1
  O  O29  1  0.587128  0.187970  0.834698  1
  O  O30  1  0.634565  0.602052  0.393887  1
  O  O31  1  0.560393  0.185673  0.344754  1
  O  O32  1  0.732817  0.962985  0.632053  1
  O  O33  1  0.820334  0.851312  0.295368  1
  O  O34  1  0.932752  0.744174  0.978060  1
  O  O35  1  0.844219  0.410988  0.672559  1
  O  O36  1  0.938752  0.736465  0.602651  1
  O  O37  1  0.849080  0.379915  0.184308  1
