# generated using pymatgen
data_Mn6OF11
_symmetry_space_group_name_H-M   'P 1'
_cell_length_a   5.27021423
_cell_length_b   5.27021423
_cell_length_c   15.62250296
_cell_angle_alpha   88.53065144
_cell_angle_beta   91.46934856
_cell_angle_gamma   90.86251576
_symmetry_Int_Tables_number   1
_chemical_formula_structural   Mn6OF11
_chemical_formula_sum   'Mn12 O2 F22'
_cell_volume   433.58718580
_cell_formula_units_Z   2
loop_
 _symmetry_equiv_pos_site_id
 _symmetry_equiv_pos_as_xyz
  1  'x, y, z'
loop_
 _atom_site_type_symbol
 _atom_site_label
 _atom_site_symmetry_multiplicity
 _atom_site_fract_x
 _atom_site_fract_y
 _atom_site_fract_z
 _atom_site_occupancy
  Mn  Mn0  1  0.000665  0.999335  0.000913  1
  Mn  Mn1  1  0.002160  0.487583  0.169644  1
  Mn  Mn2  1  0.960400  0.039600  0.329081  1
  Mn  Mn3  1  0.006013  0.525158  0.501186  1
  Mn  Mn4  1  0.003158  0.996842  0.665309  1
  Mn  Mn5  1  0.996591  0.497922  0.832699  1
  Mn  Mn6  1  0.512417  0.997840  0.169644  1
  Mn  Mn7  1  0.500161  0.499839  0.001491  1
  Mn  Mn8  1  0.482261  0.517739  0.656434  1
  Mn  Mn9  1  0.474842  0.993987  0.501186  1
  Mn  Mn10  1  0.526089  0.473911  0.327456  1
  Mn  Mn11  1  0.502078  0.003409  0.832699  1
  O  O12  1  0.279458  0.720542  0.580295  1
  O  O13  1  0.754308  0.245692  0.257072  1
  F  F14  1  0.239918  0.192007  0.254460  1
  F  F15  1  0.232691  0.767309  0.084341  1
  F  F16  1  0.214851  0.226816  0.580315  1
  F  F17  1  0.171654  0.828346  0.408626  1
  F  F18  1  0.228963  0.231006  0.913967  1
  F  F19  1  0.225343  0.774657  0.752924  1
  F  F20  1  0.267910  0.266765  0.086688  1
  F  F21  1  0.305480  0.694520  0.244380  1
  F  F22  1  0.267845  0.732155  0.917208  1
  F  F23  1  0.287964  0.281870  0.745877  1
  F  F24  1  0.285483  0.314649  0.420598  1
  F  F25  1  0.727903  0.272097  0.916360  1
  F  F26  1  0.709688  0.290312  0.584907  1
  F  F27  1  0.733235  0.732090  0.086688  1
  F  F28  1  0.685351  0.714517  0.420598  1
  F  F29  1  0.718130  0.712036  0.745877  1
  F  F30  1  0.791433  0.208567  0.427182  1
  F  F31  1  0.767496  0.232504  0.083091  1
  F  F32  1  0.787888  0.212112  0.752058  1
  F  F33  1  0.773184  0.785149  0.580315  1
  F  F34  1  0.768994  0.771037  0.913967  1
  F  F35  1  0.807993  0.760082  0.254460  1
