# generated using pymatgen
data_Sn4P2O9
_symmetry_space_group_name_H-M   'P 1'
_cell_length_a   9.48305979
_cell_length_b   7.11077631
_cell_length_c   14.59487097
_cell_angle_alpha   89.99985015
_cell_angle_beta   105.42465025
_cell_angle_gamma   90.00023146
_symmetry_Int_Tables_number   1
_chemical_formula_structural   Sn4P2O9
_chemical_formula_sum   'Sn16 P8 O36'
_cell_volume   948.71172712
_cell_formula_units_Z   4
loop_
 _symmetry_equiv_pos_site_id
 _symmetry_equiv_pos_as_xyz
  1  'x, y, z'
loop_
 _atom_site_type_symbol
 _atom_site_label
 _atom_site_symmetry_multiplicity
 _atom_site_fract_x
 _atom_site_fract_y
 _atom_site_fract_z
 _atom_site_occupancy
  Sn  Sn0  1  0.037305  0.216275  0.852472  1
  Sn  Sn1  1  0.037305  0.283726  0.352472  1
  Sn  Sn2  1  0.322668  0.728793  0.829688  1
  Sn  Sn3  1  0.282621  0.980374  0.612840  1
  Sn  Sn4  1  0.319738  0.498406  0.590880  1
  Sn  Sn5  1  0.322668  0.771208  0.329689  1
  Sn  Sn6  1  0.282620  0.519627  0.112840  1
  Sn  Sn7  1  0.319739  0.001593  0.090881  1
  Sn  Sn8  1  0.680261  0.998407  0.909119  1
  Sn  Sn9  1  0.717380  0.480373  0.887160  1
  Sn  Sn10  1  0.677332  0.228792  0.670311  1
  Sn  Sn11  1  0.680262  0.501594  0.409120  1
  Sn  Sn12  1  0.717379  0.019626  0.387160  1
  Sn  Sn13  1  0.677332  0.271207  0.170312  1
  Sn  Sn14  1  0.962695  0.716274  0.647528  1
  Sn  Sn15  1  0.962695  0.783725  0.147528  1
  P  P16  1  0.031452  0.708335  0.901600  1
  P  P17  1  0.031450  0.791666  0.401600  1
  P  P18  1  0.368771  0.267050  0.815688  1
  P  P19  1  0.368772  0.232952  0.315691  1
  P  P20  1  0.631228  0.767048  0.684309  1
  P  P21  1  0.631229  0.732950  0.184312  1
  P  P22  1  0.968550  0.208334  0.598400  1
  P  P23  1  0.968548  0.291665  0.098400  1
  O  O24  1  0.072455  0.768412  0.806773  1
  O  O25  1  0.033051  0.002632  0.612149  1
  O  O26  1  0.179818  0.711321  0.978627  1
  O  O27  1  0.083327  0.337081  0.576699  1
  O  O28  1  0.252019  0.398096  0.842333  1
  O  O29  1  0.072454  0.731590  0.306772  1
  O  O30  1  0.238443  0.713366  0.674511  1
  O  O31  1  0.033052  0.497365  0.112148  1
  O  O32  1  0.293120  0.076698  0.779224  1
  O  O33  1  0.179819  0.788680  0.478626  1
  O  O34  1  0.083331  0.162915  0.076698  1
  O  O35  1  0.252019  0.101905  0.342333  1
  O  O36  1  0.425017  0.370850  0.737367  1
  O  O37  1  0.503498  0.236639  0.902152  1
  O  O38  1  0.238443  0.786634  0.174512  1
  O  O39  1  0.293121  0.423304  0.279224  1
  O  O40  1  0.496502  0.736638  0.597847  1
  O  O41  1  0.574981  0.870850  0.762631  1
  O  O42  1  0.425019  0.129150  0.237369  1
  O  O43  1  0.503498  0.263362  0.402153  1
  O  O44  1  0.706879  0.576696  0.720776  1
  O  O45  1  0.761557  0.213366  0.825488  1
  O  O46  1  0.496502  0.763361  0.097848  1
  O  O47  1  0.574983  0.629150  0.262633  1
  O  O48  1  0.747981  0.898095  0.657667  1
  O  O49  1  0.916669  0.837085  0.923302  1
  O  O50  1  0.820181  0.211320  0.521374  1
  O  O51  1  0.706880  0.923302  0.220776  1
  O  O52  1  0.966948  0.502635  0.887852  1
  O  O53  1  0.761557  0.286634  0.325489  1
  O  O54  1  0.927546  0.268410  0.693228  1
  O  O55  1  0.747981  0.601904  0.157667  1
  O  O56  1  0.916673  0.662919  0.423301  1
  O  O57  1  0.820181  0.288679  0.021373  1
  O  O58  1  0.966949  0.997368  0.387851  1
  O  O59  1  0.927545  0.231588  0.193227  1
