# generated using pymatgen
data_Zr2N2O
_symmetry_space_group_name_H-M   'P 1'
_cell_length_a   8.88088409
_cell_length_b   8.87573839
_cell_length_c   8.86223376
_cell_angle_alpha   109.24776287
_cell_angle_beta   109.45969529
_cell_angle_gamma   109.63509938
_symmetry_Int_Tables_number   1
_chemical_formula_structural   Zr2N2O
_chemical_formula_sum   'Zr16 N16 O8'
_cell_volume   538.21871022
_cell_formula_units_Z   8
loop_
 _symmetry_equiv_pos_site_id
 _symmetry_equiv_pos_as_xyz
  1  'x, y, z'
loop_
 _atom_site_type_symbol
 _atom_site_label
 _atom_site_symmetry_multiplicity
 _atom_site_fract_x
 _atom_site_fract_y
 _atom_site_fract_z
 _atom_site_occupancy
  Zr  Zr0  1  0.753459  0.968076  0.206690  1
  Zr  Zr1  1  0.995601  0.988863  0.989560  1
  Zr  Zr2  1  0.034162  0.776809  0.245454  1
  Zr  Zr3  1  0.502047  0.503634  0.002907  1
  Zr  Zr4  1  0.530386  0.280297  0.246248  1
  Zr  Zr5  1  0.498613  0.992022  0.500894  1
  Zr  Zr6  1  0.257044  0.542348  0.288095  1
  Zr  Zr7  1  0.293048  0.267528  0.551761  1
  Zr  Zr8  1  0.713055  0.744482  0.459553  1
  Zr  Zr9  1  0.786449  0.250292  0.037637  1
  Zr  Zr10  1  0.207395  0.748078  0.961440  1
  Zr  Zr11  1  0.755124  0.463254  0.723831  1
  Zr  Zr12  1  0.008409  0.498759  0.499617  1
  Zr  Zr13  1  0.464201  0.715301  0.743990  1
  Zr  Zr14  1  0.964138  0.216879  0.749826  1
  Zr  Zr15  1  0.240033  0.029032  0.787156  1
  N  N16  1  0.732212  0.967819  0.960213  1
  N  N17  1  0.755877  0.224707  0.274660  1
  N  N18  1  0.452558  0.483300  0.224393  1
  N  N19  1  0.722788  0.235036  0.771491  1
  N  N20  1  0.771834  0.732983  0.240480  1
  N  N21  1  0.228301  0.271910  0.762192  1
  N  N22  1  0.987052  0.531856  0.257465  1
  N  N23  1  0.512198  0.775538  0.544386  1
  N  N24  1  0.953857  0.728697  0.967987  1
  N  N25  1  0.545813  0.512585  0.774647  1
  N  N26  1  0.224049  0.450419  0.485762  1
  N  N27  1  0.278910  0.767448  0.229369  1
  N  N28  1  0.962491  0.950907  0.726411  1
  N  N29  1  0.240099  0.774537  0.724379  1
  N  N30  1  0.010526  0.466380  0.738828  1
  N  N31  1  0.272737  0.038649  0.045993  1
  O  O32  1  0.537191  0.265505  0.990975  1
  O  O33  1  0.737126  0.012000  0.466378  1
  O  O34  1  0.043694  0.272332  0.030379  1
  O  O35  1  0.767613  0.543104  0.512241  1
  O  O36  1  0.037886  0.047534  0.275872  1
  O  O37  1  0.466791  0.739278  0.013024  1
  O  O38  1  0.265321  0.992923  0.532224  1
  O  O39  1  0.489915  0.228901  0.455593  1
