# generated using pymatgen
data_Li7V3P8O29
_symmetry_space_group_name_H-M   'P 1'
_cell_length_a   9.85577362
_cell_length_b   9.83984081
_cell_length_c   13.90191754
_cell_angle_alpha   90.01699325
_cell_angle_beta   90.60583403
_cell_angle_gamma   60.06650250
_symmetry_Int_Tables_number   1
_chemical_formula_structural   Li7V3P8O29
_chemical_formula_sum   'Li14 V6 P16 O58'
_cell_volume   1168.27026715
_cell_formula_units_Z   2
loop_
 _symmetry_equiv_pos_site_id
 _symmetry_equiv_pos_as_xyz
  1  'x, y, z'
loop_
 _atom_site_type_symbol
 _atom_site_label
 _atom_site_symmetry_multiplicity
 _atom_site_fract_x
 _atom_site_fract_y
 _atom_site_fract_z
 _atom_site_occupancy
  Li  Li0  1  0.768046  0.910997  0.562623  1
  Li  Li1  1  0.681628  0.652414  0.388248  1
  Li  Li2  1  0.681273  0.665824  0.888206  1
  Li  Li3  1  0.768048  0.320834  0.062576  1
  Li  Li4  1  0.326120  0.907819  0.062298  1
  Li  Li5  1  0.659746  0.236614  0.440357  1
  Li  Li6  1  0.326421  0.765930  0.562265  1
  Li  Li7  1  0.659882  0.103520  0.940242  1
  Li  Li8  1  0.234584  0.664100  0.942712  1
  Li  Li9  1  0.098328  0.670033  0.436474  1
  Li  Li10  1  0.234525  0.101178  0.442793  1
  Li  Li11  1  0.098418  0.231712  0.936581  1
  Li  Li12  1  0.983889  0.957546  0.010320  1
  Li  Li13  1  0.983633  0.058630  0.510330  1
  V  V14  1  0.564536  0.435746  0.249269  1
  V  V15  1  0.435401  0.562460  0.748344  1
  V  V16  1  0.564684  0.999635  0.749447  1
  V  V17  1  0.435422  0.002112  0.248367  1
  V  V18  1  0.999682  0.562950  0.247579  1
  V  V19  1  0.999653  0.437472  0.747392  1
  P  P20  1  0.912725  0.781772  0.840440  1
  P  P21  1  0.774944  0.909832  0.341644  1
  P  P22  1  0.912623  0.305547  0.340474  1
  P  P23  1  0.661174  0.669007  0.129072  1
  P  P24  1  0.661211  0.669622  0.628982  1
  P  P25  1  0.775038  0.315358  0.841655  1
  P  P26  1  0.688184  0.225696  0.655808  1
  P  P27  1  0.319624  0.905139  0.844217  1
  P  P28  1  0.688275  0.086106  0.155799  1
  P  P29  1  0.319717  0.775190  0.344216  1
  P  P30  1  0.224750  0.689753  0.159023  1
  P  P31  1  0.338128  0.329812  0.372439  1
  P  P32  1  0.338292  0.332060  0.872418  1
  P  P33  1  0.082824  0.690285  0.653141  1
  P  P34  1  0.225024  0.085298  0.659098  1
  P  P35  1  0.082906  0.226847  0.153164  1
  O  O36  1  0.999215  0.779013  0.561836  1
  O  O37  1  0.920386  0.746445  0.345297  1
  O  O38  1  0.777500  0.012212  0.065397  1
  O  O39  1  0.741781  0.923428  0.842974  1
  O  O40  1  0.902096  0.631077  0.837510  1
  O  O41  1  0.802418  0.675557  0.170414  1
  O  O42  1  0.902051  0.466753  0.337706  1
  O  O43  1  0.999147  0.222099  0.061884  1
  O  O44  1  0.920384  0.333429  0.845237  1
  O  O45  1  0.671140  0.816565  0.666815  1
  O  O46  1  0.628135  0.891391  0.326931  1
  O  O47  1  0.802431  0.521862  0.670140  1
  O  O48  1  0.645842  0.673487  0.021016  1
  O  O49  1  0.645451  0.680525  0.520946  1
  O  O50  1  0.671168  0.512258  0.167041  1
  O  O51  1  0.484010  0.887030  0.830067  1
  O  O52  1  0.506724  0.814688  0.170438  1
  O  O53  1  0.741553  0.334801  0.342993  1
  O  O54  1  0.795342  0.208412  0.748968  1
  O  O55  1  0.777320  0.210531  0.565393  1
  O  O56  1  0.762116  0.232778  0.929985  1
  O  O57  1  0.628041  0.480530  0.827085  1
  O  O58  1  0.506724  0.678524  0.670509  1
  O  O59  1  0.663155  0.254688  0.162138  1
  O  O60  1  0.483883  0.628903  0.330052  1
  O  O61  1  0.337224  0.922095  0.347191  1
  O  O62  1  0.795370  0.996449  0.249006  1
  O  O63  1  0.761906  0.005234  0.430021  1
  O  O64  1  0.224678  0.997988  0.568662  1
  O  O65  1  0.663405  0.081991  0.662153  1
  O  O66  1  0.533690  0.381750  0.664376  1
  O  O67  1  0.336999  0.740812  0.847112  1
  O  O68  1  0.486860  0.328163  0.331739  1
  O  O69  1  0.383442  0.534698  0.173120  1
  O  O70  1  0.224369  0.777508  0.068602  1
  O  O71  1  0.236225  0.763775  0.431829  1
  O  O72  1  0.212956  0.797472  0.250356  1
  O  O73  1  0.247208  0.673359  0.659157  1
  O  O74  1  0.487195  0.184766  0.831876  1
  O  O75  1  0.533864  0.084296  0.164286  1
  O  O76  1  0.334592  0.482044  0.822721  1
  O  O77  1  0.353464  0.344097  0.978707  1
  O  O78  1  0.353501  0.302940  0.478752  1
  O  O79  1  0.189624  0.481080  0.337992  1
  O  O80  1  0.383612  0.081742  0.673269  1
  O  O81  1  0.334566  0.183346  0.322791  1
  O  O82  1  0.086980  0.663786  0.160805  1
  O  O83  1  0.982468  0.803706  0.741000  1
  O  O84  1  0.009845  0.794399  0.920403  1
  O  O85  1  0.092080  0.532897  0.665710  1
  O  O86  1  0.189967  0.328932  0.837983  1
  O  O87  1  0.092216  0.375233  0.165689  1
  O  O88  1  0.247178  0.079529  0.159243  1
  O  O89  1  0.236224  -0.000000  0.931876  1
  O  O90  1  0.212865  0.989641  0.750452  1
  O  O91  1  0.087191  0.249129  0.660825  1
  O  O92  1  0.009818  0.195670  0.420429  1
  O  O93  1  0.982337  0.213875  0.240969  1
