# generated using pymatgen
data_Ca8Bi12O25
_symmetry_space_group_name_H-M   'P 1'
_cell_length_a   15.02449772
_cell_length_b   10.97799687
_cell_length_c   22.71856364
_cell_angle_alpha   100.92166337
_cell_angle_beta   105.16882598
_cell_angle_gamma   44.40063950
_symmetry_Int_Tables_number   1
_chemical_formula_structural   Ca8Bi12O25
_chemical_formula_sum   'Ca24 Bi36 O75'
_cell_volume   2530.42724503
_cell_formula_units_Z   3
loop_
 _symmetry_equiv_pos_site_id
 _symmetry_equiv_pos_as_xyz
  1  'x, y, z'
loop_
 _atom_site_type_symbol
 _atom_site_label
 _atom_site_symmetry_multiplicity
 _atom_site_fract_x
 _atom_site_fract_y
 _atom_site_fract_z
 _atom_site_occupancy
  Ca  Ca0  1  0.142377  0.323251  0.841355  1
  Ca  Ca1  1  0.132259  0.312482  0.502403  1
  Ca  Ca2  1  0.534297  0.222788  0.804468  1
  Ca  Ca3  1  0.168349  0.750245  0.844068  1
  Ca  Ca4  1  0.171769  0.381688  0.145678  1
  Ca  Ca5  1  0.270284  0.677897  0.487829  1
  Ca  Ca6  1  0.419544  0.253759  0.506301  1
  Ca  Ca7  1  0.601993  0.497460  0.790931  1
  Ca  Ca8  1  0.305296  0.900393  0.798918  1
  Ca  Ca9  1  0.490272  0.194108  0.178486  1
  Ca  Ca10  1  0.170423  0.701788  0.183792  1
  Ca  Ca11  1  0.655456  0.214829  0.452594  1
  Ca  Ca12  1  0.493726  0.657812  0.492401  1
  Ca  Ca13  1  0.926790  0.244389  0.862309  1
  Ca  Ca14  1  0.623272  0.802768  0.875110  1
  Ca  Ca15  1  0.707257  0.150913  0.113065  1
  Ca  Ca16  1  0.643161  0.508629  0.190216  1
  Ca  Ca17  1  0.924931  0.195020  0.487192  1
  Ca  Ca18  1  0.756489  0.822479  0.489058  1
  Ca  Ca19  1  0.833183  0.837230  0.834870  1
  Ca  Ca20  1  0.953567  0.172445  0.176364  1
  Ca  Ca21  1  0.748330  0.727301  0.204356  1
  Ca  Ca22  1  0.025108  0.733173  0.495841  1
  Ca  Ca23  1  0.908210  0.793988  0.173604  1
  Bi  Bi24  1  0.050404  0.948347  0.631162  1
  Bi  Bi25  1  0.169699  0.018759  0.403064  1
  Bi  Bi26  1  0.117077  0.213400  0.656457  1
  Bi  Bi27  1  0.183488  0.548156  0.951343  1
  Bi  Bi28  1  0.421457  0.899126  0.104836  1
  Bi  Bi29  1  0.085865  0.331586  0.257889  1
  Bi  Bi30  1  0.170325  0.474122  0.753328  1
  Bi  Bi31  1  0.442778  0.005023  0.731552  1
  Bi  Bi32  1  0.337155  0.544725  0.699185  1
  Bi  Bi33  1  0.637193  0.991427  0.662407  1
  Bi  Bi34  1  0.133903  0.255908  0.992616  1
  Bi  Bi35  1  0.192395  0.493575  0.370543  1
  Bi  Bi36  1  0.353002  0.052117  0.398681  1
  Bi  Bi37  1  0.389934  0.498566  0.330284  1
  Bi  Bi38  1  0.552171  0.032242  0.333899  1
  Bi  Bi39  1  0.615370  0.275157  0.604067  1
  Bi  Bi40  1  0.416889  0.731780  0.641103  1
  Bi  Bi41  1  0.618201  0.581055  0.953275  1
  Bi  Bi42  1  0.850867  0.087901  0.928533  1
  Bi  Bi43  1  0.394859  0.537029  0.101845  1
  Bi  Bi44  1  0.106432  -0.011934  0.034622  1
  Bi  Bi45  1  0.689679  0.213122  0.261034  1
  Bi  Bi46  1  0.326116  0.832812  0.257724  1
  Bi  Bi47  1  0.758982  0.516888  0.595813  1
  Bi  Bi48  1  0.862868  0.028227  0.743241  1
  Bi  Bi49  1  0.865290  0.477681  0.762481  1
  Bi  Bi50  1  0.568731  0.231452  0.962723  1
  Bi  Bi51  1  0.325959  0.787502  0.960348  1
  Bi  Bi52  1  0.630449  0.576946  0.361224  1
  Bi  Bi53  1  0.035742  0.916466  0.309301  1
  Bi  Bi54  1  0.893282  0.517878  0.374572  1
  Bi  Bi55  1  0.927685  0.660131  0.628565  1
  Bi  Bi56  1  0.878812  0.472080  0.088691  1
  Bi  Bi57  1  0.572049  0.957532  0.029695  1
  Bi  Bi58  1  0.869400  0.860584  0.350267  1
  Bi  Bi59  1  0.873501  0.784702  0.011482  1
  O  O60  1  0.215988  0.914937  0.874436  1
  O  O61  1  0.039467  0.237917  0.805093  1
  O  O62  1  0.189303  0.331355  0.942533  1
  O  O63  1  0.268348  0.884098  0.486595  1
  O  O64  1  0.013064  0.257711  0.444866  1
  O  O65  1  0.072624  0.387245  0.593527  1
  O  O66  1  0.301432  0.117367  0.787894  1
  O  O67  1  0.212104  0.494528  0.855492  1
  O  O68  1  0.126109  0.702032  0.740832  1
  O  O69  1  0.359213  0.306607  0.734759  1
  O  O70  1  0.276992  0.772551  0.167302  1
  O  O71  1  0.608386  0.000825  0.949231  1
  O  O72  1  0.200355  0.739860  0.950742  1
  O  O73  1  0.030914  0.197361  0.105498  1
  O  O74  1  0.252790  0.219997  0.231094  1
  O  O75  1  0.344418  0.131694  0.490937  1
  O  O76  1  0.222571  0.508548  0.467779  1
  O  O77  1  0.136912  0.760925  0.388959  1
  O  O78  1  0.142895  0.332455  0.362059  1
  O  O79  1  0.699460  0.099016  0.885910  1
  O  O80  1  0.427240  0.515518  0.790681  1
  O  O81  1  0.007244  0.494104  0.043271  1
  O  O82  1  0.492420  0.249820  0.620033  1
  O  O83  1  0.144194  0.786184  0.560487  1
  O  O84  1  0.703036  0.059689  0.751565  1
  O  O85  1  0.228111  0.838166  0.696316  1
  O  O86  1  0.732745  0.345372  0.889869  1
  O  O87  1  0.510983  0.724941  0.871401  1
  O  O88  1  0.554991  0.925489  0.140339  1
  O  O89  1  0.289696  0.437196  0.154626  1
  O  O90  1  0.005839  0.771797  0.096063  1
  O  O91  1  0.271387  0.167088  0.076617  1
  O  O92  1  0.627734  0.124541  0.521263  1
  O  O93  1  0.468060  0.509359  0.552744  1
  O  O94  1  0.533629  0.213516  0.288960  1
  O  O95  1  0.221631  0.781348  0.283068  1
  O  O96  1  0.506476  0.491998  0.683648  1
  O  O97  1  0.424201  0.227721  0.396023  1
  O  O98  1  0.465848  0.492665  0.423633  1
  O  O99  1  0.557917  0.691693  0.601163  1
  O  O100  1  0.725327  0.441340  0.507085  1
  O  O101  1  0.940991  0.954019  0.839205  1
  O  O102  1  0.793620  0.538210  0.843765  1
  O  O103  1  0.802068  0.267758  0.764469  1
  O  O104  1  0.484678  0.761110  0.737570  1
  O  O105  1  0.719166  0.012946  0.201076  1
  O  O106  1  0.543221  0.359363  0.174146  1
  O  O107  1  0.490288  0.539281  0.298915  1
  O  O108  1  0.982806  0.184008  0.967625  1
  O  O109  1  0.693165  0.700849  0.978940  1
  O  O110  1  0.513493  0.262647  0.049370  1
  O  O111  1  0.513167  0.574197  0.096525  1
  O  O112  1  0.797177  0.217374  0.208309  1
  O  O113  1  0.573408  0.682826  0.273832  1
  O  O114  1  0.878148  0.034947  0.477412  1
  O  O115  1  0.703186  0.705053  0.402461  1
  O  O116  1  0.836709  0.101849  0.413334  1
  O  O117  1  0.470845  0.766285  0.406343  1
  O  O118  1  0.951521  0.578014  0.791163  1
  O  O119  1  -0.002933  0.168718  0.596429  1
  O  O120  1  0.765556  0.697491  0.572170  1
  O  O121  1  0.594480  0.951781  0.802385  1
  O  O122  1  0.978696  0.747232  0.932052  1
  O  O123  1  0.943269  0.937909  0.133743  1
  O  O124  1  0.797120  0.477742  0.163226  1
  O  O125  1  0.757598  0.099188  0.014775  1
  O  O126  1  0.462874  0.844222  0.015869  1
  O  O127  1  0.957540  0.586865  0.454529  1
  O  O128  1  0.819124  0.712462  0.304498  1
  O  O129  1  0.112019  0.109349  0.252892  1
  O  O130  1  0.712719  0.973305  0.399400  1
  O  O131  1  0.925873  0.775032  0.565422  1
  O  O132  1  0.950609  0.548698  0.164762  1
  O  O133  1  0.754248  0.877390  0.080243  1
  O  O134  1  0.065510  0.711401  0.253339  1
