# generated using pymatgen
data_Li4Fe3Co3(SnO8)2
_symmetry_space_group_name_H-M   'P 1'
_cell_length_a   5.94470019
_cell_length_b   5.97298291
_cell_length_c   9.79055977
_cell_angle_alpha   90.04633727
_cell_angle_beta   90.55567946
_cell_angle_gamma   120.16612750
_symmetry_Int_Tables_number   1
_chemical_formula_structural   Li4Fe3Co3(SnO8)2
_chemical_formula_sum   'Li4 Fe3 Co3 Sn2 O16'
_cell_volume   300.53850895
_cell_formula_units_Z   1
loop_
 _symmetry_equiv_pos_site_id
 _symmetry_equiv_pos_as_xyz
  1  'x, y, z'
loop_
 _atom_site_type_symbol
 _atom_site_label
 _atom_site_symmetry_multiplicity
 _atom_site_fract_x
 _atom_site_fract_y
 _atom_site_fract_z
 _atom_site_occupancy
  Li  Li0  1  0.329937  0.665386  0.894991  1
  Li  Li1  1  0.005987  0.002969  0.994900  1
  Li  Li2  1  0.004578  0.001697  0.493526  1
  Li  Li3  1  0.663338  0.332661  0.393775  1
  Fe  Fe4  1  0.661586  0.830580  0.213569  1
  Fe  Fe5  1  0.832258  0.661929  0.714359  1
  Fe  Fe6  1  0.830410  0.169241  0.714765  1
  Co  Co7  1  0.171565  0.832839  0.214398  1
  Co  Co8  1  0.171011  0.338836  0.214461  1
  Co  Co9  1  0.339892  0.172068  0.714198  1
  Sn  Sn10  1  0.332214  0.666121  0.489848  1
  Sn  Sn11  1  0.667053  0.332497  0.990103  1
  O  O12  1  0.164453  0.840899  0.600427  1
  O  O13  1  0.032260  0.516469  0.336588  1
  O  O14  1  0.322776  0.663311  0.108573  1
  O  O15  1  0.007221  0.001893  0.306640  1
  O  O16  1  0.008888  0.005049  0.807958  1
  O  O17  1  0.163228  0.323214  0.600692  1
  O  O18  1  0.476251  0.964909  0.337736  1
  O  O19  1  0.476569  0.512725  0.337798  1
  O  O20  1  0.325726  0.162771  0.104101  1
  O  O21  1  0.679116  0.839197  0.598138  1
  O  O22  1  0.511253  0.477883  0.838969  1
  O  O23  1  0.513910  0.032697  0.838885  1
  O  O24  1  0.659797  0.329033  0.606738  1
  O  O25  1  0.841616  0.678694  0.100381  1
  O  O26  1  0.965354  0.482764  0.840817  1
  O  O27  1  0.841754  0.161964  0.100510  1
