# generated using pymatgen
data_KAl11O17
_symmetry_space_group_name_H-M   'P 1'
_cell_length_a   5.65140886
_cell_length_b   11.92220813
_cell_length_c   5.65142324
_cell_angle_alpha   103.71073366
_cell_angle_beta   59.99896314
_cell_angle_gamma   103.71006844
_symmetry_Int_Tables_number   1
_chemical_formula_structural   KAl11O17
_chemical_formula_sum   'K1 Al11 O17'
_cell_volume   317.16963624
_cell_formula_units_Z   1
loop_
 _symmetry_equiv_pos_site_id
 _symmetry_equiv_pos_as_xyz
  1  'x, y, z'
loop_
 _atom_site_type_symbol
 _atom_site_label
 _atom_site_symmetry_multiplicity
 _atom_site_fract_x
 _atom_site_fract_y
 _atom_site_fract_z
 _atom_site_occupancy
  K  K0  1  0.829352  0.488053  0.829357  1
  Al  Al1  1  0.097479  0.786859  0.097457  1
  Al  Al2  1  0.999814  0.999435  0.999809  1
  Al  Al3  1  0.097459  0.786849  0.591910  1
  Al  Al4  1  0.591933  0.786853  0.097451  1
  Al  Al5  1  0.450251  0.350807  0.450255  1
  Al  Al6  1  0.349895  0.049668  0.349893  1
  Al  Al7  1  0.549997  0.649907  0.549982  1
  Al  Al8  1  0.649783  0.949335  0.649779  1
  Al  Al9  1  0.404889  0.212110  0.903612  1
  Al  Al10  1  0.903632  0.212111  0.404890  1
  Al  Al11  1  0.903583  0.212106  0.903611  1
  O  O12  1  0.296725  0.890037  0.296722  1
  O  O13  1  0.094252  0.282817  0.094254  1
  O  O14  1  0.280177  0.900762  0.810375  1
  O  O15  1  0.190125  0.099595  0.190126  1
  O  O16  1  0.091686  0.290043  0.599184  1
  O  O17  1  0.402006  0.710729  0.401987  1
  O  O18  1  0.599162  0.290039  0.091689  1
  O  O19  1  0.190053  0.099574  0.719326  1
  O  O20  1  0.810379  0.900763  0.280171  1
  O  O21  1  0.499916  0.499769  0.499915  1
  O  O22  1  0.401995  0.710724  0.906758  1
  O  O23  1  0.906772  0.710722  0.401967  1
  O  O24  1  0.599179  0.290049  0.599169  1
  O  O25  1  0.810298  0.900748  0.810289  1
  O  O26  1  0.719326  0.099574  0.190047  1
  O  O27  1  0.703324  0.110104  0.703319  1
  O  O28  1  0.905777  0.717272  0.905755  1
