# generated using pymatgen
data_Li5V4O12F
_symmetry_space_group_name_H-M   'P 1'
_cell_length_a   4.69308995
_cell_length_b   10.14424411
_cell_length_c   10.01843426
_cell_angle_alpha   90.00000000
_cell_angle_beta   89.50250361
_cell_angle_gamma   90.00000000
_symmetry_Int_Tables_number   1
_chemical_formula_structural   Li5V4O12F
_chemical_formula_sum   'Li10 V8 O24 F2'
_cell_volume   476.93813701
_cell_formula_units_Z   2
loop_
 _symmetry_equiv_pos_site_id
 _symmetry_equiv_pos_as_xyz
  1  'x, y, z'
loop_
 _atom_site_type_symbol
 _atom_site_label
 _atom_site_symmetry_multiplicity
 _atom_site_fract_x
 _atom_site_fract_y
 _atom_site_fract_z
 _atom_site_occupancy
  Li  Li0  1  0.062379  0.343868  0.637327  1
  Li  Li1  1  0.000000  0.000000  0.000000  1
  Li  Li2  1  0.038105  0.361919  0.340847  1
  Li  Li3  1  0.437621  0.843868  0.862673  1
  Li  Li4  1  0.461895  0.861919  0.159153  1
  Li  Li5  1  0.500000  0.500000  0.500000  1
  Li  Li6  1  0.538105  0.138081  0.840847  1
  Li  Li7  1  0.562379  0.156132  0.137327  1
  Li  Li8  1  0.961895  0.638081  0.659153  1
  Li  Li9  1  0.937621  0.656132  0.362673  1
  V  V10  1  0.053889  0.341864  0.980137  1
  V  V11  1  0.048845  0.014569  0.338590  1
  V  V12  1  0.446111  0.841864  0.519863  1
  V  V13  1  0.548845  0.485431  0.838590  1
  V  V14  1  0.451155  0.514569  0.161410  1
  V  V15  1  0.553889  0.158136  0.480137  1
  V  V16  1  0.951155  0.985431  0.661410  1
  V  V17  1  0.946111  0.658136  0.019863  1
  O  O18  1  0.104634  0.021771  0.807163  1
  O  O19  1  0.115715  0.802834  0.995809  1
  O  O20  1  0.147723  0.809923  0.627019  1
  O  O21  1  0.248954  0.539708  0.961588  1
  O  O22  1  0.141522  0.606958  0.198321  1
  O  O23  1  0.248134  0.850768  0.359423  1
  O  O24  1  0.251046  0.039708  0.538412  1
  O  O25  1  0.352277  0.309923  0.872981  1
  O  O26  1  0.251866  0.350768  0.140577  1
  O  O27  1  0.358477  0.106958  0.301679  1
  O  O28  1  0.395366  0.521771  0.692837  1
  O  O29  1  0.384285  0.302834  0.504191  1
  O  O30  1  0.615715  0.697166  0.495809  1
  O  O31  1  0.604634  0.478229  0.307163  1
  O  O32  1  0.641522  0.893042  0.698321  1
  O  O33  1  0.748134  0.649232  0.859423  1
  O  O34  1  0.647723  0.690077  0.127019  1
  O  O35  1  0.748954  0.960292  0.461588  1
  O  O36  1  0.751866  0.149232  0.640577  1
  O  O37  1  0.858478  0.393042  0.801679  1
  O  O38  1  0.751046  0.460292  0.038412  1
  O  O39  1  0.852277  0.190077  0.372981  1
  O  O40  1  0.884285  0.197166  0.004191  1
  O  O41  1  0.895366  0.978229  0.192837  1
  F  F42  1  0.000000  0.500000  0.500000  1
  F  F43  1  0.500000  0.000000  0.000000  1
