# generated using pymatgen
data_Li2Cr3(SiO3)4
_symmetry_space_group_name_H-M   'P 1'
_cell_length_a   7.59835075
_cell_length_b   10.22490349
_cell_length_c   13.86990132
_cell_angle_alpha   90.00000000
_cell_angle_beta   90.00000000
_cell_angle_gamma   90.00000000
_symmetry_Int_Tables_number   1
_chemical_formula_structural   Li2Cr3(SiO3)4
_chemical_formula_sum   'Li8 Cr12 Si16 O48'
_cell_volume   1077.58596434
_cell_formula_units_Z   4
loop_
 _symmetry_equiv_pos_site_id
 _symmetry_equiv_pos_as_xyz
  1  'x, y, z'
loop_
 _atom_site_type_symbol
 _atom_site_label
 _atom_site_symmetry_multiplicity
 _atom_site_fract_x
 _atom_site_fract_y
 _atom_site_fract_z
 _atom_site_occupancy
  Li  Li0  1  0.042597  0.750000  0.146508  1
  Li  Li1  1  0.224589  0.750000  0.491397  1
  Li  Li2  1  0.275411  0.250000  0.991397  1
  Li  Li3  1  0.457403  0.250000  0.646508  1
  Li  Li4  1  0.542597  0.750000  0.353492  1
  Li  Li5  1  0.724589  0.750000  0.008603  1
  Li  Li6  1  0.775411  0.250000  0.508603  1
  Li  Li7  1  0.957403  0.250000  0.853492  1
  Cr  Cr8  1  0.000000  0.000000  0.000000  1
  Cr  Cr9  1  0.000000  0.500000  0.000000  1
  Cr  Cr10  1  0.231072  0.750000  0.710664  1
  Cr  Cr11  1  0.233049  0.250000  0.430721  1
  Cr  Cr12  1  0.266951  0.750000  0.930721  1
  Cr  Cr13  1  0.268928  0.250000  0.210664  1
  Cr  Cr14  1  0.500000  0.000000  0.500000  1
  Cr  Cr15  1  0.500000  0.500000  0.500000  1
  Cr  Cr16  1  0.731072  0.750000  0.789336  1
  Cr  Cr17  1  0.766951  0.750000  0.569279  1
  Cr  Cr18  1  0.733049  0.250000  0.069279  1
  Cr  Cr19  1  0.768928  0.250000  0.289336  1
  Si  Si20  1  0.175727  0.039666  0.618936  1
  Si  Si21  1  0.175727  0.460334  0.618936  1
  Si  Si22  1  0.221106  0.541208  0.330258  1
  Si  Si23  1  0.221106  0.958792  0.330258  1
  Si  Si24  1  0.278894  0.458792  0.830258  1
  Si  Si25  1  0.278894  0.041208  0.830258  1
  Si  Si26  1  0.324273  0.539666  0.118936  1
  Si  Si27  1  0.324273  0.960334  0.118936  1
  Si  Si28  1  0.675727  0.039666  0.881064  1
  Si  Si29  1  0.675727  0.460334  0.881064  1
  Si  Si30  1  0.721106  0.541208  0.169742  1
  Si  Si31  1  0.721106  0.958792  0.169742  1
  Si  Si32  1  0.778894  0.041208  0.669742  1
  Si  Si33  1  0.778894  0.458792  0.669742  1
  Si  Si34  1  0.824273  0.539666  0.381064  1
  Si  Si35  1  0.824273  0.960334  0.381064  1
  O  O36  1  0.031197  0.587196  0.377893  1
  O  O37  1  0.031197  0.912804  0.377893  1
  O  O38  1  0.128248  0.107341  0.897053  1
  O  O39  1  0.128248  0.392659  0.897053  1
  O  O40  1  0.200854  0.883407  0.606101  1
  O  O41  1  0.200854  0.616593  0.606101  1
  O  O42  1  0.221227  0.611504  0.030256  1
  O  O43  1  0.221227  0.888496  0.030256  1
  O  O44  1  0.233338  0.118349  0.320862  1
  O  O45  1  0.233338  0.381651  0.320862  1
  O  O46  1  0.228245  0.598822  0.218241  1
  O  O47  1  0.228245  0.901178  0.218241  1
  O  O48  1  0.271755  0.401178  0.718241  1
  O  O49  1  0.271755  0.098822  0.718241  1
  O  O50  1  0.266662  0.618349  0.820862  1
  O  O51  1  0.266662  0.881651  0.820862  1
  O  O52  1  0.278773  0.111504  0.530256  1
  O  O53  1  0.278773  0.388496  0.530256  1
  O  O54  1  0.299146  0.383407  0.106101  1
  O  O55  1  0.299146  0.116593  0.106101  1
  O  O56  1  0.371752  0.607341  0.397053  1
  O  O57  1  0.371752  0.892659  0.397053  1
  O  O58  1  0.468803  0.087196  0.877893  1
  O  O59  1  0.468803  0.412804  0.877893  1
  O  O60  1  0.531197  0.912804  0.122107  1
  O  O61  1  0.531197  0.587196  0.122107  1
  O  O62  1  0.628248  0.107341  0.602947  1
  O  O63  1  0.628248  0.392659  0.602947  1
  O  O64  1  0.700854  0.616593  0.893899  1
  O  O65  1  0.700854  0.883407  0.893899  1
  O  O66  1  0.721227  0.611504  0.469744  1
  O  O67  1  0.721227  0.888496  0.469744  1
  O  O68  1  0.733338  0.118349  0.179138  1
  O  O69  1  0.733338  0.381651  0.179138  1
  O  O70  1  0.728245  0.598822  0.281759  1
  O  O71  1  0.728245  0.901178  0.281759  1
  O  O72  1  0.771755  0.098822  0.781759  1
  O  O73  1  0.771755  0.401178  0.781759  1
  O  O74  1  0.766662  0.618349  0.679138  1
  O  O75  1  0.766662  0.881651  0.679138  1
  O  O76  1  0.778773  0.111504  0.969744  1
  O  O77  1  0.778773  0.388496  0.969744  1
  O  O78  1  0.799146  0.116593  0.393899  1
  O  O79  1  0.799146  0.383407  0.393899  1
  O  O80  1  0.871752  0.607341  0.102947  1
  O  O81  1  0.871752  0.892659  0.102947  1
  O  O82  1  0.968803  0.087196  0.622107  1
  O  O83  1  0.968803  0.412804  0.622107  1
