# generated using pymatgen
data_Na3CoBPO7
_symmetry_space_group_name_H-M   'P 1'
_cell_length_a   8.77651859
_cell_length_b   6.90542722
_cell_length_c   5.14927741
_cell_angle_alpha   90.00000000
_cell_angle_beta   88.07178711
_cell_angle_gamma   90.00000000
_symmetry_Int_Tables_number   1
_chemical_formula_structural   Na3CoBPO7
_chemical_formula_sum   'Na6 Co2 B2 P2 O14'
_cell_volume   311.89839416
_cell_formula_units_Z   2
loop_
 _symmetry_equiv_pos_site_id
 _symmetry_equiv_pos_as_xyz
  1  'x, y, z'
loop_
 _atom_site_type_symbol
 _atom_site_label
 _atom_site_symmetry_multiplicity
 _atom_site_fract_x
 _atom_site_fract_y
 _atom_site_fract_z
 _atom_site_occupancy
  Na  Na0  1  0.080843  0.250000  0.764143  1
  Na  Na1  1  0.265393  0.007683  0.254299  1
  Na  Na2  1  0.265393  0.492317  0.254299  1
  Na  Na3  1  0.734607  0.507682  0.745701  1
  Na  Na4  1  0.734607  0.992318  0.745701  1
  Na  Na5  1  0.919157  0.750000  0.235857  1
  Co  Co6  1  0.338021  0.750000  0.783597  1
  Co  Co7  1  0.661979  0.250000  0.216403  1
  B  B8  1  0.070349  0.750000  0.731621  1
  B  B9  1  0.929651  0.250000  0.268379  1
  P  P10  1  0.420248  0.250000  0.716723  1
  P  P11  1  0.579752  0.750000  0.283277  1
  O  O12  1  0.081063  0.250000  0.292504  1
  O  O13  1  0.145118  0.750000  0.968010  1
  O  O14  1  0.181289  0.750000  0.530075  1
  O  O15  1  0.319711  0.069920  0.774471  1
  O  O16  1  0.319711  0.430080  0.774471  1
  O  O17  1  0.468972  0.250000  0.419384  1
  O  O18  1  0.432327  0.750000  0.125024  1
  O  O19  1  0.567673  0.250000  0.874976  1
  O  O20  1  0.531028  0.750000  0.580616  1
  O  O21  1  0.680289  0.569920  0.225529  1
  O  O22  1  0.680289  0.930080  0.225529  1
  O  O23  1  0.818711  0.250000  0.469925  1
  O  O24  1  0.854882  0.250000  0.031990  1
  O  O25  1  0.918937  0.750000  0.707496  1
