# generated using pymatgen
data_LiFeCO4
_symmetry_space_group_name_H-M   'P 1'
_cell_length_a   8.18280920
_cell_length_b   8.34128756
_cell_length_c   6.08252652
_cell_angle_alpha   90.00000000
_cell_angle_beta   90.00000000
_cell_angle_gamma   119.37347448
_symmetry_Int_Tables_number   1
_chemical_formula_structural   LiFeCO4
_chemical_formula_sum   'Li4 Fe4 C4 O16'
_cell_volume   361.79079339
_cell_formula_units_Z   4
loop_
 _symmetry_equiv_pos_site_id
 _symmetry_equiv_pos_as_xyz
  1  'x, y, z'
loop_
 _atom_site_type_symbol
 _atom_site_label
 _atom_site_symmetry_multiplicity
 _atom_site_fract_x
 _atom_site_fract_y
 _atom_site_fract_z
 _atom_site_occupancy
  Li  Li0  1  0.029696  0.822536  0.501671  1
  Li  Li1  1  0.207160  0.177464  0.001671  1
  Li  Li2  1  0.792840  0.822536  0.001671  1
  Li  Li3  1  0.970304  0.177464  0.501671  1
  Fe  Fe4  1  0.278187  0.576002  0.762087  1
  Fe  Fe5  1  0.297815  0.576002  0.262087  1
  Fe  Fe6  1  0.702185  0.423998  0.262087  1
  Fe  Fe7  1  0.721813  0.423998  0.762087  1
  C  C8  1  0.153602  0.798183  0.023019  1
  C  C9  1  0.644581  0.798183  0.523019  1
  C  C10  1  0.355419  0.201817  0.523019  1
  C  C11  1  0.846398  0.201817  0.023019  1
  O  O12  1  0.088314  0.905795  0.035633  1
  O  O13  1  0.174011  0.737482  0.830813  1
  O  O14  1  0.199334  0.743525  0.204583  1
  O  O15  1  0.171555  0.440527  0.508686  1
  O  O16  1  0.268971  0.440527  0.008686  1
  O  O17  1  0.182521  0.094205  0.535633  1
  O  O18  1  0.544191  0.743525  0.704583  1
  O  O19  1  0.563471  0.737482  0.330813  1
  O  O20  1  0.436529  0.262518  0.330813  1
  O  O21  1  0.455809  0.256475  0.704583  1
  O  O22  1  0.817479  0.905795  0.535633  1
  O  O23  1  0.731029  0.559473  0.008686  1
  O  O24  1  0.828445  0.559473  0.508686  1
  O  O25  1  0.800666  0.256475  0.204583  1
  O  O26  1  0.825989  0.262518  0.830813  1
  O  O27  1  0.911686  0.094205  0.035633  1
