# generated using pymatgen
data_Cs2Se3
_symmetry_space_group_name_H-M   'P 1'
_cell_length_a   7.14692778
_cell_length_b   7.14692778
_cell_length_c   8.53790234
_cell_angle_alpha   90.00000000
_cell_angle_beta   90.00000000
_cell_angle_gamma   110.70507708
_symmetry_Int_Tables_number   1
_chemical_formula_structural   Cs2Se3
_chemical_formula_sum   'Cs4 Se6'
_cell_volume   407.93712856
_cell_formula_units_Z   2
loop_
 _symmetry_equiv_pos_site_id
 _symmetry_equiv_pos_as_xyz
  1  'x, y, z'
loop_
 _atom_site_type_symbol
 _atom_site_label
 _atom_site_symmetry_multiplicity
 _atom_site_fract_x
 _atom_site_fract_y
 _atom_site_fract_z
 _atom_site_occupancy
  Se  Se0  1  0.399251  0.073473  0.665848  1
  Se  Se1  1  0.600749  0.926527  0.165848  1
  Se  Se2  1  0.926527  0.600749  0.665848  1
  Se  Se3  1  0.073473  0.399251  0.165848  1
  Se  Se4  1  0.792474  0.207526  0.007787  1
  Se  Se5  1  0.207526  0.792474  0.507787  1
  Cs  Cs6  1  0.417469  0.582531  0.821304  1
  Cs  Cs7  1  0.582531  0.417469  0.321304  1
  Cs  Cs8  1  0.902250  0.097750  0.540213  1
  Cs  Cs9  1  0.097750  0.902250  0.040213  1
