# generated using pymatgen
data_Li4Ti3V3(TeO8)2
_symmetry_space_group_name_H-M   'P 1'
_cell_length_a   6.09156892
_cell_length_b   5.92307764
_cell_length_c   10.27539529
_cell_angle_alpha   90.04665728
_cell_angle_beta   90.04081735
_cell_angle_gamma   119.06638842
_symmetry_Int_Tables_number   1
_chemical_formula_structural   Li4Ti3V3(TeO8)2
_chemical_formula_sum   'Li4 Ti3 V3 Te2 O16'
_cell_volume   324.05190058
_cell_formula_units_Z   1
loop_
 _symmetry_equiv_pos_site_id
 _symmetry_equiv_pos_as_xyz
  1  'x, y, z'
loop_
 _atom_site_type_symbol
 _atom_site_label
 _atom_site_symmetry_multiplicity
 _atom_site_fract_x
 _atom_site_fract_y
 _atom_site_fract_z
 _atom_site_occupancy
  Li  Li0  1  0.324658  0.662929  0.903021  1
  Li  Li1  1  0.010303  0.004909  0.986401  1
  Li  Li2  1  0.001474  0.001164  0.494932  1
  Li  Li3  1  0.673816  0.336764  0.399644  1
  Ti  Ti4  1  0.184834  0.840520  0.221469  1
  Ti  Ti5  1  0.185184  0.344235  0.220978  1
  Ti  Ti6  1  0.352570  0.176422  0.730757  1
  V  V7  1  0.662155  0.831396  0.208761  1
  V  V8  1  0.827315  0.648354  0.715402  1
  V  V9  1  0.827643  0.179007  0.715502  1
  Te  Te10  1  0.338800  0.668657  0.510917  1
  Te  Te11  1  0.689257  0.344644  0.995771  1
  O  O12  1  0.167277  0.832067  0.600688  1
  O  O13  1  0.030167  0.514536  0.321582  1
  O  O14  1  0.318415  0.659416  0.110014  1
  O  O15  1  0.001902  0.000704  0.311973  1
  O  O16  1  0.013281  0.006949  0.802465  1
  O  O17  1  0.167195  0.334651  0.600750  1
  O  O18  1  0.485795  0.983889  0.315013  1
  O  O19  1  0.486316  0.501412  0.313957  1
  O  O20  1  0.286249  0.142676  0.111187  1
  O  O21  1  0.677824  0.839837  0.598109  1
  O  O22  1  0.498187  0.478190  0.832118  1
  O  O23  1  0.498652  0.020562  0.832409  1
  O  O24  1  0.633789  0.317112  0.605712  1
  O  O25  1  0.849744  0.684089  0.095688  1
  O  O26  1  0.958017  0.479438  0.856847  1
  O  O27  1  0.849176  0.165773  0.095776  1
