# generated using pymatgen
data_Li4VCr3O8
_symmetry_space_group_name_H-M   'P 1'
_cell_length_a   5.15105225
_cell_length_b   7.86954323
_cell_length_c   7.89497910
_cell_angle_alpha   81.66765360
_cell_angle_beta   70.64481822
_cell_angle_gamma   83.64627405
_symmetry_Int_Tables_number   1
_chemical_formula_structural   Li4VCr3O8
_chemical_formula_sum   'Li8 V2 Cr6 O16'
_cell_volume   298.08601223
_cell_formula_units_Z   2
loop_
 _symmetry_equiv_pos_site_id
 _symmetry_equiv_pos_as_xyz
  1  'x, y, z'
loop_
 _atom_site_type_symbol
 _atom_site_label
 _atom_site_symmetry_multiplicity
 _atom_site_fract_x
 _atom_site_fract_y
 _atom_site_fract_z
 _atom_site_occupancy
  Li  Li0  1  0.001752  0.999851  0.998985  1
  Li  Li1  1  0.999437  0.251599  0.249675  1
  Li  Li2  1  0.001668  0.624788  0.123882  1
  Li  Li3  1  0.998119  0.125262  0.626201  1
  Li  Li4  1  0.000546  0.498455  0.500327  1
  Li  Li5  1  -0.000000  0.874935  0.375017  1
  Li  Li6  1  0.000003  0.375020  0.874977  1
  Li  Li7  1  0.998477  0.750119  0.750920  1
  V  V8  1  0.499965  0.061388  0.312928  1
  V  V9  1  0.500018  0.688573  0.437086  1
  Cr  Cr10  1  0.499709  0.437393  0.187206  1
  Cr  Cr11  1  0.499701  0.811966  0.061236  1
  Cr  Cr12  1  0.500363  0.312552  0.562821  1
  Cr  Cr13  1  0.499499  0.187472  0.937679  1
  Cr  Cr14  1  0.500440  0.562499  0.812343  1
  Cr  Cr15  1  0.500310  0.938109  0.688727  1
  O  O16  1  0.272580  0.028930  0.149356  1
  O  O17  1  0.725028  0.219754  0.097977  1
  O  O18  1  0.275469  0.404959  0.026486  1
  O  O19  1  0.727147  0.094975  0.476304  1
  O  O20  1  0.274844  0.280871  0.402197  1
  O  O21  1  0.273065  0.655042  0.273927  1
  O  O22  1  0.725309  0.469018  0.347785  1
  O  O23  1  0.275445  0.156091  0.776638  1
  O  O24  1  0.274829  0.530160  0.652070  1
  O  O25  1  0.729172  0.844148  0.220430  1
  O  O26  1  0.724511  0.345058  0.723563  1
  O  O27  1  0.270820  0.906101  0.529499  1
  O  O28  1  0.727243  0.721022  0.600393  1
  O  O29  1  0.275552  0.779861  0.900977  1
  O  O30  1  0.724490  0.593891  0.973398  1
  O  O31  1  0.724491  0.970137  0.848994  1
