# generated using pymatgen
data_Na6Bi2B4PO16
_symmetry_space_group_name_H-M   'P 1'
_cell_length_a   10.25301234
_cell_length_b   10.25301234
_cell_length_c   10.25301276
_cell_angle_alpha   60.00000338
_cell_angle_beta   89.99999867
_cell_angle_gamma   120.00000049
_symmetry_Int_Tables_number   1
_chemical_formula_structural   Na6Bi2B4PO16
_chemical_formula_sum   'Na12 Bi4 B8 P2 O32'
_cell_volume   762.14827956
_cell_formula_units_Z   2
loop_
 _symmetry_equiv_pos_site_id
 _symmetry_equiv_pos_as_xyz
  1  'x, y, z'
loop_
 _atom_site_type_symbol
 _atom_site_label
 _atom_site_symmetry_multiplicity
 _atom_site_fract_x
 _atom_site_fract_y
 _atom_site_fract_z
 _atom_site_occupancy
  Na  Na0  1  0.078204  0.750000  0.078204  1
  Na  Na1  1  0.328204  0.250000  0.328204  1
  Na  Na2  1  0.078204  0.156408  0.671796  1
  Na  Na3  1  0.671796  0.343592  0.078204  1
  Na  Na4  1  0.921796  0.250000  0.328204  1
  Na  Na5  1  0.328204  0.250000  0.921796  1
  Na  Na6  1  0.078204  0.750000  0.671796  1
  Na  Na7  1  0.671796  0.750000  0.078204  1
  Na  Na8  1  0.328204  0.656408  0.921796  1
  Na  Na9  1  0.921796  0.250000  0.921796  1
  Na  Na10  1  0.921796  0.843592  0.328204  1
  Na  Na11  1  0.671796  0.750000  0.671796  1
  Bi  Bi12  1  0.500000  0.000000  0.000000  1
  Bi  Bi13  1  0.000000  0.500000  0.500000  1
  Bi  Bi14  1  0.500000  0.000000  0.500000  1
  Bi  Bi15  1  0.500000  0.500000  0.500000  1
  B  B16  1  0.339232  0.059489  0.720256  1
  B  B17  1  0.279744  0.559489  0.279744  1
  B  B18  1  0.279744  0.559489  0.660768  1
  B  B19  1  0.720256  0.059489  0.720256  1
  B  B20  1  0.720256  0.440511  0.339232  1
  B  B21  1  0.279744  0.940511  0.279744  1
  B  B22  1  0.660768  0.940511  0.279744  1
  B  B23  1  0.720256  0.440511  0.720256  1
  P  P24  1  0.125000  0.250000  0.125000  1
  P  P25  1  0.875000  0.750000  0.875000  1
  O  O26  1  0.062950  0.125899  0.062950  1
  O  O27  1  0.062950  0.125899  0.311151  1
  O  O28  1  0.062950  0.374101  0.062950  1
  O  O29  1  0.311151  0.374101  0.062950  1
  O  O30  1  0.407239  0.070515  0.292151  1
  O  O31  1  0.663276  0.070515  0.137333  1
  O  O32  1  0.137333  0.544573  0.292151  1
  O  O33  1  0.336724  0.044573  0.592761  1
  O  O34  1  0.292151  0.429485  0.407239  1
  O  O35  1  0.137333  0.429485  0.663276  1
  O  O36  1  0.407239  0.699390  0.137333  1
  O  O37  1  0.336724  0.199390  0.707849  1
  O  O38  1  0.707849  0.300610  0.336724  1
  O  O39  1  0.137333  0.800610  0.407239  1
  O  O40  1  0.592761  0.455427  0.336724  1
  O  O41  1  0.292151  0.955427  0.137333  1
  O  O42  1  0.407239  0.544573  0.663276  1
  O  O43  1  0.707849  0.044573  0.862667  1
  O  O44  1  0.292151  0.699390  0.663276  1
  O  O45  1  0.862667  0.199390  0.592761  1
  O  O46  1  0.663276  0.800610  0.292151  1
  O  O47  1  0.592761  0.300610  0.862667  1
  O  O48  1  0.862667  0.570515  0.336724  1
  O  O49  1  0.707849  0.570515  0.592761  1
  O  O50  1  0.862667  0.455427  0.707849  1
  O  O51  1  0.663276  0.955427  0.407239  1
  O  O52  1  0.336724  0.929485  0.862667  1
  O  O53  1  0.592761  0.929485  0.707849  1
  O  O54  1  0.688849  0.625899  0.937050  1
  O  O55  1  0.937050  0.874101  0.688849  1
  O  O56  1  0.937050  0.625899  0.937050  1
  O  O57  1  0.937050  0.874101  0.937050  1
