# generated using pymatgen
data_Mn2V3Fe(PO4)6
_symmetry_space_group_name_H-M   'P 1'
_cell_length_a   8.63311398
_cell_length_b   8.63826966
_cell_length_c   8.63826998
_cell_angle_alpha   59.99999571
_cell_angle_beta   59.98024390
_cell_angle_gamma   59.98024228
_symmetry_Int_Tables_number   1
_chemical_formula_structural   Mn2V3Fe(PO4)6
_chemical_formula_sum   'Mn2 V3 Fe1 P6 O24'
_cell_volume   455.38239576
_cell_formula_units_Z   1
loop_
 _symmetry_equiv_pos_site_id
 _symmetry_equiv_pos_as_xyz
  1  'x, y, z'
loop_
 _atom_site_type_symbol
 _atom_site_label
 _atom_site_symmetry_multiplicity
 _atom_site_fract_x
 _atom_site_fract_y
 _atom_site_fract_z
 _atom_site_occupancy
  Mn  Mn0  1  0.996342  0.001220  0.001220  1
  Mn  Mn1  1  0.499053  0.500315  0.500315  1
  V  V2  1  0.066789  0.644404  0.644404  1
  V  V3  1  0.430527  0.856491  0.856491  1
  V  V4  1  0.932507  0.355831  0.355831  1
  Fe  Fe5  1  0.564072  0.145310  0.145310  1
  P  P6  1  0.249966  0.249623  0.542792  1
  P  P7  1  0.249966  0.957618  0.249623  1
  P  P8  1  0.249966  0.542792  0.957618  1
  P  P9  1  0.750970  0.458680  0.040998  1
  P  P10  1  0.750970  0.040998  0.749352  1
  P  P11  1  0.750970  0.749352  0.458680  1
  O  O12  1  0.068344  0.119056  0.307083  1
  O  O13  1  0.068344  0.505516  0.119056  1
  O  O14  1  0.068344  0.307083  0.505516  1
  O  O15  1  0.236301  0.085989  0.737551  1
  O  O16  1  0.431809  0.193632  0.384396  1
  O  O17  1  0.258007  0.415836  0.562513  1
  O  O18  1  0.236301  0.940158  0.085989  1
  O  O19  1  0.258007  0.763643  0.415836  1
  O  O20  1  0.570138  0.619410  0.004219  1
  O  O21  1  0.258007  0.562513  0.763643  1
  O  O22  1  0.768258  0.265537  0.054390  1
  O  O23  1  0.570138  0.004219  0.806232  1
  O  O24  1  0.431809  0.990164  0.193632  1
  O  O25  1  0.236301  0.737551  0.940158  1
  O  O26  1  0.738280  0.442538  0.235272  1
  O  O27  1  0.431809  0.384396  0.990164  1
  O  O28  1  0.738280  0.235272  0.583909  1
  O  O29  1  0.768258  0.054390  0.911816  1
  O  O30  1  0.738280  0.583909  0.442538  1
  O  O31  1  0.570138  0.806232  0.619410  1
  O  O32  1  0.768258  0.911816  0.265537  1
  O  O33  1  0.931495  0.686035  0.501011  1
  O  O34  1  0.931495  0.501011  0.881459  1
  O  O35  1  0.931495  0.881459  0.686035  1
