# generated using pymatgen
data_RbFe3O5
_symmetry_space_group_name_H-M   'P 1'
_cell_length_a   9.57926285
_cell_length_b   3.11323708
_cell_length_c   15.53296106
_cell_angle_alpha   90.00001750
_cell_angle_beta   89.88266099
_cell_angle_gamma   89.99999760
_symmetry_Int_Tables_number   1
_chemical_formula_structural   RbFe3O5
_chemical_formula_sum   'Rb4 Fe12 O20'
_cell_volume   463.23101304
_cell_formula_units_Z   4
loop_
 _symmetry_equiv_pos_site_id
 _symmetry_equiv_pos_as_xyz
  1  'x, y, z'
loop_
 _atom_site_type_symbol
 _atom_site_label
 _atom_site_symmetry_multiplicity
 _atom_site_fract_x
 _atom_site_fract_y
 _atom_site_fract_z
 _atom_site_occupancy
  Rb  Rb0  1  0.029088  0.750003  0.622057  1
  Rb  Rb1  1  0.471120  0.250000  0.121189  1
  Rb  Rb2  1  0.530863  0.750003  0.879506  1
  Rb  Rb3  1  0.971084  0.250003  0.377879  1
  Fe  Fe4  1  0.108737  0.750000  0.164439  1
  Fe  Fe5  1  0.143007  0.250001  0.989724  1
  Fe  Fe6  1  0.177842  0.750001  0.820083  1
  Fe  Fe7  1  0.321683  0.250001  0.320337  1
  Fe  Fe8  1  0.355067  0.750001  0.489575  1
  Fe  Fe9  1  0.390991  0.250000  0.663783  1
  Fe  Fe10  1  0.609888  0.750000  0.335782  1
  Fe  Fe11  1  0.645529  0.249996  0.510442  1
  Fe  Fe12  1  0.678974  0.750003  0.680127  1
  Fe  Fe13  1  0.820521  0.249997  0.176468  1
  Fe  Fe14  1  0.863015  0.750004  0.010804  1
  Fe  Fe15  1  0.888634  0.250000  0.838736  1
  O  O16  1  0.017982  0.749998  0.924703  1
  O  O17  1  0.063526  0.249999  0.773055  1
  O  O18  1  0.193559  0.250000  0.219652  1
  O  O19  1  0.221529  0.750000  0.055603  1
  O  O20  1  0.230720  0.750001  0.389346  1
  O  O21  1  0.267806  0.250000  0.889904  1
  O  O22  1  0.275906  0.250000  0.555180  1
  O  O23  1  0.306145  0.750001  0.719961  1
  O  O24  1  0.435613  0.750001  0.271507  1
  O  O25  1  0.478287  0.250001  0.422935  1
  O  O26  1  0.522244  0.750000  0.577074  1
  O  O27  1  0.564724  0.250001  0.728532  1
  O  O28  1  0.693141  0.250000  0.278922  1
  O  O29  1  0.724588  0.750000  0.444547  1
  O  O30  1  0.734179  0.749997  0.106847  1
  O  O31  1  0.769791  0.250001  0.610700  1
  O  O32  1  0.781356  0.249993  0.948725  1
  O  O33  1  0.805927  0.750003  0.781231  1
  O  O34  1  0.934835  0.750000  0.227108  1
  O  O35  1  0.972099  0.249996  0.073538  1
