# generated using pymatgen
data_K2ZrSi3(HO5)2
_symmetry_space_group_name_H-M   'P 1'
_cell_length_a   10.44256027
_cell_length_b   13.53674040
_cell_length_c   7.28865107
_cell_angle_alpha   90.00000000
_cell_angle_beta   90.00000000
_cell_angle_gamma   90.00000000
_symmetry_Int_Tables_number   1
_chemical_formula_structural   K2ZrSi3(HO5)2
_chemical_formula_sum   'K8 Zr4 Si12 H8 O40'
_cell_volume   1030.31079602
_cell_formula_units_Z   4
loop_
 _symmetry_equiv_pos_site_id
 _symmetry_equiv_pos_as_xyz
  1  'x, y, z'
loop_
 _atom_site_type_symbol
 _atom_site_label
 _atom_site_symmetry_multiplicity
 _atom_site_fract_x
 _atom_site_fract_y
 _atom_site_fract_z
 _atom_site_occupancy
  K  K0  1  0.928246  0.077930  0.785422  1
  K  K1  1  0.571754  0.922070  0.285422  1
  K  K2  1  0.428246  0.422070  0.214578  1
  K  K3  1  0.071754  0.577930  0.714578  1
  K  K4  1  0.788789  0.364435  0.852048  1
  K  K5  1  0.711211  0.635565  0.352048  1
  K  K6  1  0.288789  0.135565  0.147952  1
  K  K7  1  0.211211  0.864435  0.647952  1
  Zr  Zr8  1  0.949349  0.209179  0.240741  1
  Zr  Zr9  1  0.550651  0.790821  0.740741  1
  Zr  Zr10  1  0.449349  0.290821  0.759259  1
  Zr  Zr11  1  0.050651  0.709179  0.259259  1
  Si  Si12  1  0.967569  0.950087  0.269404  1
  Si  Si13  1  0.532431  0.049913  0.769404  1
  Si  Si14  1  0.467569  0.549913  0.730596  1
  Si  Si15  1  0.032431  0.450087  0.230596  1
  Si  Si16  1  0.824523  0.827732  0.995894  1
  Si  Si17  1  0.675477  0.172268  0.495894  1
  Si  Si18  1  0.324523  0.672268  0.004106  1
  Si  Si19  1  0.175477  0.327732  0.504106  1
  Si  Si20  1  0.861739  0.833369  0.582750  1
  Si  Si21  1  0.638261  0.166631  0.082750  1
  Si  Si22  1  0.361739  0.666631  0.417250  1
  Si  Si23  1  0.138261  0.333369  0.917250  1
  H  H24  1  0.731706  0.590935  0.834983  1
  H  H25  1  0.768294  0.409065  0.334983  1
  H  H26  1  0.231706  0.909065  0.165017  1
  H  H27  1  0.268294  0.090935  0.665017  1
  H  H28  1  0.847163  0.609098  0.968116  1
  H  H29  1  0.652837  0.390902  0.468116  1
  H  H30  1  0.347163  0.890902  0.031884  1
  H  H31  1  0.152837  0.109098  0.531884  1
  O  O32  1  0.920445  0.366780  0.256628  1
  O  O33  1  0.579555  0.633220  0.756628  1
  O  O34  1  0.420445  0.133220  0.743372  1
  O  O35  1  0.079555  0.866780  0.243372  1
  O  O36  1  0.886081  0.730236  0.092742  1
  O  O37  1  0.613919  0.269764  0.592742  1
  O  O38  1  0.386081  0.769764  0.907258  1
  O  O39  1  0.113919  0.230236  0.407258  1
  O  O40  1  0.944472  0.741229  0.502517  1
  O  O41  1  0.555528  0.258771  0.002517  1
  O  O42  1  0.444472  0.758771  0.497483  1
  O  O43  1  0.055528  0.241229  0.997483  1
  O  O44  1  0.014301  0.061953  0.230300  1
  O  O45  1  0.485699  0.938047  0.730300  1
  O  O46  1  0.514301  0.438047  0.769700  1
  O  O47  1  0.985699  0.561953  0.269700  1
  O  O48  1  0.846145  0.925243  0.128746  1
  O  O49  1  0.653855  0.074757  0.628746  1
  O  O50  1  0.346145  0.574757  0.871254  1
  O  O51  1  0.153855  0.425243  0.371254  1
  O  O52  1  0.791513  0.185276  0.062221  1
  O  O53  1  0.708487  0.814724  0.562221  1
  O  O54  1  0.291513  0.314724  0.937779  1
  O  O55  1  0.208487  0.685276  0.437779  1
  O  O56  1  0.898998  0.854643  0.800714  1
  O  O57  1  0.601002  0.145357  0.300714  1
  O  O58  1  0.398998  0.645357  0.199286  1
  O  O59  1  0.101002  0.354643  0.699286  1
  O  O60  1  0.908097  0.937393  0.480465  1
  O  O61  1  0.591903  0.062607  0.980465  1
  O  O62  1  0.408097  0.562607  0.519535  1
  O  O63  1  0.091903  0.437393  0.019535  1
  O  O64  1  0.827972  0.185747  0.462433  1
  O  O65  1  0.672028  0.814253  0.962433  1
  O  O66  1  0.327972  0.314253  0.537567  1
  O  O67  1  0.172028  0.685747  0.037567  1
  O  O68  1  0.815219  0.561937  0.876443  1
  O  O69  1  0.684781  0.438063  0.376443  1
  O  O70  1  0.315219  0.938063  0.123557  1
  O  O71  1  0.184781  0.061937  0.623557  1
