# generated using pymatgen
data_Li6VFeP2(CO7)2
_symmetry_space_group_name_H-M   'P 1'
_cell_length_a   8.50216038
_cell_length_b   5.02235816
_cell_length_c   6.55296936
_cell_angle_alpha   90.00000000
_cell_angle_beta   90.00000000
_cell_angle_gamma   84.62312617
_symmetry_Int_Tables_number   1
_chemical_formula_structural   Li6VFeP2(CO7)2
_chemical_formula_sum   'Li6 V1 Fe1 P2 C2 O14'
_cell_volume   278.58641922
_cell_formula_units_Z   1
loop_
 _symmetry_equiv_pos_site_id
 _symmetry_equiv_pos_as_xyz
  1  'x, y, z'
loop_
 _atom_site_type_symbol
 _atom_site_label
 _atom_site_symmetry_multiplicity
 _atom_site_fract_x
 _atom_site_fract_y
 _atom_site_fract_z
 _atom_site_occupancy
  Li  Li0  1  0.097593  0.764902  0.250000  1
  Li  Li1  1  0.278243  0.249289  0.028078  1
  Li  Li2  1  0.278243  0.249289  0.471922  1
  Li  Li3  1  0.722629  0.749705  0.519752  1
  Li  Li4  1  0.722629  0.749705  0.980248  1
  Li  Li5  1  0.904774  0.233619  0.750000  1
  V  V6  1  0.328729  0.792514  0.750000  1
  Fe  Fe7  1  0.666971  0.211782  0.250000  1
  P  P8  1  0.411260  0.720949  0.250000  1
  P  P9  1  0.588050  0.279721  0.750000  1
  C  C10  1  0.035400  0.697289  0.750000  1
  C  C11  1  0.965323  0.301136  0.250000  1
  O  O12  1  0.073613  0.942248  0.750000  1
  O  O13  1  0.111085  0.360091  0.250000  1
  O  O14  1  0.150049  0.505295  0.750000  1
  O  O15  1  0.307662  0.827682  0.066792  1
  O  O16  1  0.307662  0.827682  0.433208  1
  O  O17  1  0.422823  0.175835  0.750000  1
  O  O18  1  0.429927  0.407802  0.250000  1
  O  O19  1  0.567904  0.591410  0.750000  1
  O  O20  1  0.577509  0.820853  0.250000  1
  O  O21  1  0.690762  0.175316  0.935971  1
  O  O22  1  0.690762  0.175316  0.564029  1
  O  O23  1  0.850525  0.492604  0.250000  1
  O  O24  1  0.889788  0.642242  0.750000  1
  O  O25  1  0.930089  0.055723  0.250000  1
