# generated using pymatgen
data_LiCu2PO4
_symmetry_space_group_name_H-M   'P 1'
_cell_length_a   4.51215331
_cell_length_b   5.33991904
_cell_length_c   4.50515845
_cell_angle_alpha   65.04661960
_cell_angle_beta   90.00582862
_cell_angle_gamma   114.99477327
_symmetry_Int_Tables_number   1
_chemical_formula_structural   LiCu2PO4
_chemical_formula_sum   'Li1 Cu2 P1 O4'
_cell_volume   87.07800556
_cell_formula_units_Z   1
loop_
 _symmetry_equiv_pos_site_id
 _symmetry_equiv_pos_as_xyz
  1  'x, y, z'
loop_
 _atom_site_type_symbol
 _atom_site_label
 _atom_site_symmetry_multiplicity
 _atom_site_fract_x
 _atom_site_fract_y
 _atom_site_fract_z
 _atom_site_occupancy
  Li  Li0  1  0.250159  0.500318  0.249841  1
  Cu  Cu1  1  0.749671  0.499342  0.750329  1
  Cu  Cu2  1  0.500261  0.000522  0.499739  1
  P  P3  1  0.999950  0.999901  0.000050  1
  O  O4  1  0.922777  0.213185  0.105876  1
  O  O5  1  0.290407  0.213185  0.680939  1
  O  O6  1  0.681097  0.786774  0.922536  1
  O  O7  1  0.105677  0.786774  0.290690  1
