# generated using pymatgen
data_Fe2CuAs2(HO5)2
_symmetry_space_group_name_H-M   'P 1'
_cell_length_a   5.27238392
_cell_length_b   5.38126843
_cell_length_c   8.20485971
_cell_angle_alpha   105.27451170
_cell_angle_beta   100.09883798
_cell_angle_gamma   110.83396084
_symmetry_Int_Tables_number   1
_chemical_formula_structural   Fe2CuAs2(HO5)2
_chemical_formula_sum   'Fe2 Cu1 As2 H2 O10'
_cell_volume   200.32011457
_cell_formula_units_Z   1
loop_
 _symmetry_equiv_pos_site_id
 _symmetry_equiv_pos_as_xyz
  1  'x, y, z'
loop_
 _atom_site_type_symbol
 _atom_site_label
 _atom_site_symmetry_multiplicity
 _atom_site_fract_x
 _atom_site_fract_y
 _atom_site_fract_z
 _atom_site_occupancy
  Fe  Fe0  1  0.336868  0.594735  0.312249  1
  Fe  Fe1  1  0.663132  0.405265  0.687751  1
  Cu  Cu2  1  0.000000  0.000000  0.000000  1
  As  As3  1  0.376479  0.783155  0.731552  1
  As  As4  1  0.623521  0.216845  0.268448  1
  H  H5  1  0.982609  0.244690  0.521207  1
  H  H6  1  0.017391  0.755310  0.478793  1
  O  O7  1  0.072110  0.727865  0.802876  1
  O  O8  1  0.375277  0.287979  0.120840  1
  O  O9  1  0.234391  0.836081  0.510427  1
  O  O10  1  0.309720  0.436207  0.580290  1
  O  O11  1  0.382852  0.859424  0.191420  1
  O  O12  1  0.617148  0.140576  0.808580  1
  O  O13  1  0.690280  0.563793  0.419710  1
  O  O14  1  0.765609  0.163919  0.489573  1
  O  O15  1  0.624723  0.712021  0.879160  1
  O  O16  1  0.927890  0.272135  0.197124  1
