# generated using pymatgen
data_LiNiPO4
_symmetry_space_group_name_H-M   'P 1'
_cell_length_a   7.46736308
_cell_length_b   13.95621568
_cell_length_c   5.75278509
_cell_angle_alpha   90.00012617
_cell_angle_beta   90.00042347
_cell_angle_gamma   89.99994652
_symmetry_Int_Tables_number   1
_chemical_formula_structural   LiNiPO4
_chemical_formula_sum   'Li8 Ni8 P8 O32'
_cell_volume   599.53299710
_cell_formula_units_Z   8
loop_
 _symmetry_equiv_pos_site_id
 _symmetry_equiv_pos_as_xyz
  1  'x, y, z'
loop_
 _atom_site_type_symbol
 _atom_site_label
 _atom_site_symmetry_multiplicity
 _atom_site_fract_x
 _atom_site_fract_y
 _atom_site_fract_z
 _atom_site_occupancy
  Li  Li0  1  0.193092  0.220758  0.152870  1
  Li  Li1  1  0.193093  0.279242  0.652869  1
  Li  Li2  1  0.306910  0.779242  0.652870  1
  Li  Li3  1  0.306909  0.720759  0.152869  1
  Li  Li4  1  0.693090  0.220759  0.347129  1
  Li  Li5  1  0.693090  0.279242  0.847130  1
  Li  Li6  1  0.806909  0.720758  0.347130  1
  Li  Li7  1  0.806909  0.779241  0.847129  1
  Ni  Ni8  1  0.179239  0.533534  0.400886  1
  Ni  Ni9  1  0.179244  0.966465  0.900877  1
  Ni  Ni10  1  0.320754  0.033534  0.400875  1
  Ni  Ni11  1  0.320754  0.466467  0.900881  1
  Ni  Ni12  1  0.679227  0.533540  0.099127  1
  Ni  Ni13  1  0.679239  0.966464  0.599113  1
  Ni  Ni14  1  0.820763  0.033536  0.099111  1
  Ni  Ni15  1  0.820775  0.466459  0.599125  1
  P  P16  1  0.044716  0.626397  0.901484  1
  P  P17  1  0.044718  0.873604  0.401479  1
  P  P18  1  0.455283  0.126396  0.901477  1
  P  P19  1  0.455284  0.373605  0.401480  1
  P  P20  1  0.544721  0.626395  0.598523  1
  P  P21  1  0.544719  0.873604  0.098518  1
  P  P22  1  0.955281  0.126397  0.598517  1
  P  P23  1  0.955281  0.373604  0.098521  1
  O  O24  1  0.976868  0.061317  0.818523  1
  O  O25  1  0.976869  0.438683  0.318525  1
  O  O26  1  0.109072  0.773479  0.343736  1
  O  O27  1  0.109072  0.726519  0.843736  1
  O  O28  1  0.134824  0.133255  0.467642  1
  O  O29  1  0.134819  0.366748  0.967642  1
  O  O30  1  0.190742  0.577385  0.060574  1
  O  O31  1  0.190746  0.922616  0.560570  1
  O  O32  1  0.309254  0.077385  0.060568  1
  O  O33  1  0.309256  0.422616  0.560568  1
  O  O34  1  0.365181  0.633252  0.467644  1
  O  O35  1  0.365176  0.866745  0.967641  1
  O  O36  1  0.390928  0.226520  0.843737  1
  O  O37  1  0.390929  0.273481  0.343737  1
  O  O38  1  0.523131  0.561318  0.818529  1
  O  O39  1  0.523131  0.938683  0.318524  1
  O  O40  1  0.476865  0.438684  0.181473  1
  O  O41  1  0.476865  0.061316  0.681471  1
  O  O42  1  0.609076  0.726519  0.656260  1
  O  O43  1  0.609072  0.773479  0.156261  1
  O  O44  1  0.634825  0.133255  0.032357  1
  O  O45  1  0.634826  0.366746  0.532357  1
  O  O46  1  0.690751  0.577379  0.439448  1
  O  O47  1  0.690745  0.922616  0.939429  1
  O  O48  1  0.809254  0.077383  0.439427  1
  O  O49  1  0.809252  0.422620  0.939444  1
  O  O50  1  0.865174  0.633254  0.032358  1
  O  O51  1  0.865176  0.866745  0.532356  1
  O  O52  1  0.890927  0.226521  0.656262  1
  O  O53  1  0.890924  0.273481  0.156261  1
  O  O54  1  0.023135  0.561316  0.681479  1
  O  O55  1  0.023136  0.938684  0.181473  1
