# generated using pymatgen
data_RbNa3Mo2H18O17
_symmetry_space_group_name_H-M   'P 1'
_cell_length_a   9.72382397
_cell_length_b   9.72382665
_cell_length_c   12.29869153
_cell_angle_alpha   90.00000000
_cell_angle_beta   90.00000000
_cell_angle_gamma   119.99987659
_symmetry_Int_Tables_number   1
_chemical_formula_structural   RbNa3Mo2H18O17
_chemical_formula_sum   'Rb2 Na6 Mo4 H36 O34'
_cell_volume   1007.08094070
_cell_formula_units_Z   2
loop_
 _symmetry_equiv_pos_site_id
 _symmetry_equiv_pos_as_xyz
  1  'x, y, z'
loop_
 _atom_site_type_symbol
 _atom_site_label
 _atom_site_symmetry_multiplicity
 _atom_site_fract_x
 _atom_site_fract_y
 _atom_site_fract_z
 _atom_site_occupancy
  Rb  Rb0  1  0.000000  0.000001  0.250000  1
  Rb  Rb1  1  -0.000000  -0.000001  0.750000  1
  Na  Na2  1  0.166624  0.709598  0.750000  1
  Na  Na3  1  0.542986  0.833388  0.750000  1
  Na  Na4  1  0.290410  0.457025  0.750000  1
  Na  Na5  1  0.833376  0.290402  0.250000  1
  Na  Na6  1  0.457014  0.166612  0.250000  1
  Na  Na7  1  0.709590  0.542975  0.250000  1
  Mo  Mo8  1  0.333349  0.666675  0.023965  1
  Mo  Mo9  1  0.666651  0.333325  0.523965  1
  Mo  Mo10  1  0.666651  0.333325  0.976035  1
  Mo  Mo11  1  0.333349  0.666675  0.476035  1
  H  H12  1  0.420613  0.049838  0.813971  1
  H  H13  1  0.629225  0.579385  0.813971  1
  H  H14  1  0.950160  0.370776  0.813971  1
  H  H15  1  0.579387  0.950162  0.313971  1
  H  H16  1  0.370775  0.420615  0.313971  1
  H  H17  1  0.049840  0.629224  0.313971  1
  H  H18  1  0.579387  0.950162  0.186029  1
  H  H19  1  0.370775  0.420615  0.186029  1
  H  H20  1  0.049840  0.629224  0.186029  1
  H  H21  1  0.420613  0.049838  0.686029  1
  H  H22  1  0.629225  0.579385  0.686029  1
  H  H23  1  0.950160  0.370776  0.686029  1
  H  H24  1  0.747902  0.664347  0.048773  1
  H  H25  1  0.916446  0.252098  0.048775  1
  H  H26  1  0.335649  0.083552  0.048776  1
  H  H27  1  0.252098  0.335653  0.548773  1
  H  H28  1  0.083554  0.747902  0.548775  1
  H  H29  1  0.664351  0.916448  0.548776  1
  H  H30  1  0.252098  0.335653  0.951227  1
  H  H31  1  0.083554  0.747902  0.951225  1
  H  H32  1  0.664351  0.916448  0.951224  1
  H  H33  1  0.747902  0.664347  0.451227  1
  H  H34  1  0.916446  0.252098  0.451225  1
  H  H35  1  0.335649  0.083552  0.451224  1
  H  H36  1  0.676117  0.760874  0.100144  1
  H  H37  1  0.084760  0.323888  0.100143  1
  H  H38  1  0.239127  0.915238  0.100142  1
  H  H39  1  0.323883  0.239126  0.600144  1
  H  H40  1  0.915240  0.676112  0.600143  1
  H  H41  1  0.760873  0.084762  0.600142  1
  H  H42  1  0.323883  0.239126  0.899856  1
  H  H43  1  0.915240  0.676112  0.899857  1
  H  H44  1  0.760873  0.084762  0.899858  1
  H  H45  1  0.676117  0.760874  0.399856  1
  H  H46  1  0.084760  0.323888  0.399857  1
  H  H47  1  0.239127  0.915238  0.399858  1
  O  O48  1  0.333374  0.666687  0.879146  1
  O  O49  1  0.666626  0.333313  0.379146  1
  O  O50  1  0.666626  0.333313  0.120854  1
  O  O51  1  0.333374  0.666687  0.620854  1
  O  O52  1  0.186212  0.714668  0.071065  1
  O  O53  1  0.528480  0.813808  0.071081  1
  O  O54  1  0.285343  0.471541  0.071070  1
  O  O55  1  0.813788  0.285332  0.571065  1
  O  O56  1  0.471520  0.186192  0.571081  1
  O  O57  1  0.714657  0.528459  0.571070  1
  O  O58  1  0.813788  0.285332  0.928935  1
  O  O59  1  0.471520  0.186192  0.928919  1
  O  O60  1  0.714657  0.528459  0.928930  1
  O  O61  1  0.186212  0.714668  0.428935  1
  O  O62  1  0.528480  0.813808  0.428919  1
  O  O63  1  0.285343  0.471541  0.428930  1
  O  O64  1  0.393472  0.979245  0.750000  1
  O  O65  1  0.585777  0.606527  0.750000  1
  O  O66  1  0.020752  0.414226  0.750000  1
  O  O67  1  0.606528  0.020755  0.250000  1
  O  O68  1  0.414223  0.393473  0.250000  1
  O  O69  1  0.979248  0.585774  0.250000  1
  O  O70  1  0.756771  0.728763  0.112983  1
  O  O71  1  0.971992  0.243232  0.112982  1
  O  O72  1  0.271236  0.028009  0.112981  1
  O  O73  1  0.243229  0.271237  0.612983  1
  O  O74  1  0.028008  0.756768  0.612982  1
  O  O75  1  0.728764  0.971991  0.612981  1
  O  O76  1  0.243229  0.271237  0.887017  1
  O  O77  1  0.028008  0.756768  0.887018  1
  O  O78  1  0.728764  0.971991  0.887019  1
  O  O79  1  0.756771  0.728763  0.387017  1
  O  O80  1  0.971992  0.243232  0.387018  1
  O  O81  1  0.271236  0.028009  0.387019  1
