# generated using pymatgen
data_Na2Si(H3O2)6
_symmetry_space_group_name_H-M   'P 1'
_cell_length_a   11.81681580
_cell_length_b   11.81681580
_cell_length_c   11.81681580
_cell_angle_alpha   120.61366676
_cell_angle_beta   88.08898719
_cell_angle_gamma   121.60771363
_symmetry_Int_Tables_number   1
_chemical_formula_structural   Na2Si(H3O2)6
_chemical_formula_sum   'Na8 Si4 H72 O48'
_cell_volume   1146.38038798
_cell_formula_units_Z   4
loop_
 _symmetry_equiv_pos_site_id
 _symmetry_equiv_pos_as_xyz
  1  'x, y, z'
loop_
 _atom_site_type_symbol
 _atom_site_label
 _atom_site_symmetry_multiplicity
 _atom_site_fract_x
 _atom_site_fract_y
 _atom_site_fract_z
 _atom_site_occupancy
  Na  Na0  1  0.271813  0.712745  0.805316  1
  Na  Na1  1  0.228187  0.033502  0.440932  1
  Na  Na2  1  0.092570  0.787255  0.059068  1
  Na  Na3  1  0.407430  0.466498  0.694684  1
  Na  Na4  1  0.728187  0.287255  0.194684  1
  Na  Na5  1  0.771813  0.966498  0.559068  1
  Na  Na6  1  0.907430  0.212745  0.940932  1
  Na  Na7  1  0.592570  0.533502  0.305316  1
  Si  Si8  1  0.250000  0.123434  0.873434  1
  Si  Si9  1  0.750000  0.376566  0.626566  1
  Si  Si10  1  0.750000  0.876566  0.126566  1
  Si  Si11  1  0.250000  0.623434  0.373434  1
  H  H12  1  0.405137  0.115790  0.758959  1
  H  H13  1  0.094863  0.853822  0.710653  1
  H  H14  1  0.643169  0.384210  0.789347  1
  H  H15  1  0.856831  0.646178  0.741041  1
  H  H16  1  0.594863  0.884210  0.241041  1
  H  H17  1  0.905137  0.146178  0.289347  1
  H  H18  1  0.356831  0.615790  0.210653  1
  H  H19  1  0.143169  0.353822  0.258959  1
  H  H20  1  0.022218  0.583051  0.638876  1
  H  H21  1  0.477782  0.116657  0.560832  1
  H  H22  1  0.055825  0.916949  0.939168  1
  H  H23  1  0.444175  0.383343  0.861124  1
  H  H24  1  0.977782  0.416949  0.361124  1
  H  H25  1  0.522218  0.883343  0.439168  1
  H  H26  1  0.944175  0.083051  0.060832  1
  H  H27  1  0.555825  0.616657  0.138876  1
  H  H28  1  0.110284  0.660665  0.562932  1
  H  H29  1  0.389716  0.952648  0.550381  1
  H  H30  1  0.902267  0.839335  0.949619  1
  H  H31  1  0.597733  0.547352  0.937068  1
  H  H32  1  0.889716  0.339335  0.437068  1
  H  H33  1  0.610284  0.047352  0.449619  1
  H  H34  1  0.097733  0.160665  0.050381  1
  H  H35  1  0.402267  0.452648  0.062932  1
  H  H36  1  0.426820  0.849661  0.665644  1
  H  H37  1  0.073180  0.738824  0.422840  1
  H  H38  1  0.815984  0.650339  0.077160  1
  H  H39  1  0.684016  0.761176  0.834356  1
  H  H40  1  0.573180  0.150339  0.334356  1
  H  H41  1  0.926820  0.261176  0.577160  1
  H  H42  1  0.184016  0.349661  0.922840  1
  H  H43  1  0.315984  0.238824  0.165644  1
  H  H44  1  0.428119  0.977462  0.807589  1
  H  H45  1  0.071881  0.879470  0.549343  1
  H  H46  1  0.830127  0.522538  0.950657  1
  H  H47  1  0.669873  0.620530  0.692411  1
  H  H48  1  0.571881  0.022538  0.192411  1
  H  H49  1  0.928119  0.120530  0.450657  1
  H  H50  1  0.169873  0.477462  0.049343  1
  H  H51  1  0.330127  0.379470  0.307589  1
  H  H52  1  0.540941  0.276498  0.005743  1
  H  H53  1  0.959059  0.964802  0.735557  1
  H  H54  1  0.729245  0.223502  0.764443  1
  H  H55  1  0.770755  0.535198  0.494257  1
  H  H56  1  0.459059  0.723502  0.994257  1
  H  H57  1  0.040941  0.035198  0.264443  1
  H  H58  1  0.270755  0.776498  0.235557  1
  H  H59  1  0.229245  0.464802  0.505743  1
  H  H60  1  0.697158  0.429858  0.074728  1
  H  H61  1  0.802842  0.877570  0.732700  1
  H  H62  1  0.644870  0.070142  0.767300  1
  H  H63  1  0.855130  0.622430  0.425272  1
  H  H64  1  0.302842  0.570142  0.925272  1
  H  H65  1  0.197158  0.122430  0.267300  1
  H  H66  1  0.355130  0.929858  0.232700  1
  H  H67  1  0.144870  0.377570  0.574728  1
  H  H68  1  0.285126  0.012267  0.011171  1
  H  H69  1  0.214874  0.226045  0.727141  1
  H  H70  1  0.998904  0.487733  0.772859  1
  H  H71  1  0.501096  0.273955  0.488829  1
  H  H72  1  0.714874  0.987733  0.988829  1
  H  H73  1  0.785126  0.773955  0.272859  1
  H  H74  1  0.001096  0.512267  0.227141  1
  H  H75  1  0.498904  0.726045  0.511171  1
  H  H76  1  0.390628  0.012785  0.092703  1
  H  H77  1  0.109372  0.202074  0.622157  1
  H  H78  1  0.079917  0.487215  0.877843  1
  H  H79  1  0.420083  0.297926  0.407297  1
  H  H80  1  0.609372  0.987215  0.907297  1
  H  H81  1  0.890628  0.797926  0.377843  1
  H  H82  1  0.920083  0.512785  0.122157  1
  H  H83  1  0.579917  0.702074  0.592703  1
  O  O84  1  0.389561  0.119484  0.844341  1
  O  O85  1  0.110439  0.954780  0.729923  1
  O  O86  1  0.724857  0.380516  0.770077  1
  O  O87  1  0.775143  0.545220  0.655659  1
  O  O88  1  0.610439  0.880516  0.155659  1
  O  O89  1  0.889561  0.045220  0.270077  1
  O  O90  1  0.275143  0.619484  0.229923  1
  O  O91  1  0.224857  0.454780  0.344341  1
  O  O92  1  0.221362  0.109649  0.002316  1
  O  O93  1  0.278638  0.280954  0.888287  1
  O  O94  1  0.892667  0.390351  0.611713  1
  O  O95  1  0.607333  0.219046  0.497684  1
  O  O96  1  0.778638  0.890351  0.997684  1
  O  O97  1  0.721362  0.719046  0.111713  1
  O  O98  1  0.107333  0.609649  0.388287  1
  O  O99  1  0.392667  0.780954  0.502316  1
  O  O100  1  0.102749  0.687759  0.656370  1
  O  O101  1  0.397251  0.053621  0.585010  1
  O  O102  1  0.968611  0.812241  0.914990  1
  O  O103  1  0.531389  0.446379  0.843630  1
  O  O104  1  0.897251  0.312241  0.343630  1
  O  O105  1  0.602749  0.946379  0.414990  1
  O  O106  1  0.031389  0.187759  0.085010  1
  O  O107  1  0.468611  0.553621  0.156370  1
  O  O108  1  0.459568  0.906057  0.769543  1
  O  O109  1  0.040432  0.809974  0.446488  1
  O  O110  1  0.863486  0.593943  0.053512  1
  O  O111  1  0.636514  0.690026  0.730457  1
  O  O112  1  0.540432  0.093943  0.230457  1
  O  O113  1  0.959568  0.190026  0.553512  1
  O  O114  1  0.136514  0.406057  0.946488  1
  O  O115  1  0.363486  0.309974  0.269543  1
  O  O116  1  0.620139  0.356739  0.092834  1
  O  O117  1  0.879861  0.972696  0.736600  1
  O  O118  1  0.736096  0.143262  0.763400  1
  O  O119  1  0.763904  0.527304  0.407166  1
  O  O120  1  0.379861  0.643262  0.907166  1
  O  O121  1  0.120139  0.027304  0.263400  1
  O  O122  1  0.263904  0.856738  0.236600  1
  O  O123  1  0.236096  0.472696  0.592834  1
  O  O124  1  0.304062  0.941029  0.014834  1
  O  O125  1  0.195938  0.210772  0.636968  1
  O  O126  1  0.073804  0.558971  0.863032  1
  O  O127  1  0.426196  0.289228  0.485166  1
  O  O128  1  0.695938  0.058971  0.985166  1
  O  O129  1  0.804062  0.789228  0.363032  1
  O  O130  1  0.926196  0.441029  0.136968  1
  O  O131  1  0.573804  0.710772  0.514834  1
