# generated using pymatgen
data_CrFe3Sn2(PO4)6
_symmetry_space_group_name_H-M   'P 1'
_cell_length_a   8.81845541
_cell_length_b   8.81845594
_cell_length_c   8.81845584
_cell_angle_alpha   58.87249052
_cell_angle_beta   58.87249032
_cell_angle_gamma   58.87249318
_symmetry_Int_Tables_number   1
_chemical_formula_structural   CrFe3Sn2(PO4)6
_chemical_formula_sum   'Cr1 Fe3 Sn2 P6 O24'
_cell_volume   472.43096624
_cell_formula_units_Z   1
loop_
 _symmetry_equiv_pos_site_id
 _symmetry_equiv_pos_as_xyz
  1  'x, y, z'
loop_
 _atom_site_type_symbol
 _atom_site_label
 _atom_site_symmetry_multiplicity
 _atom_site_fract_x
 _atom_site_fract_y
 _atom_site_fract_z
 _atom_site_occupancy
  Cr  Cr0  1  0.855127  0.855127  0.855127  1
  Fe  Fe1  1  0.148620  0.148620  0.148620  1
  Fe  Fe2  1  0.350628  0.350628  0.350628  1
  Fe  Fe3  1  0.648166  0.648166  0.648166  1
  Sn  Sn4  1  0.002996  0.002996  0.002996  1
  Sn  Sn5  1  0.499189  0.499189  0.499189  1
  P  P6  1  0.749243  0.463594  0.039273  1
  P  P7  1  0.248819  0.540767  0.957214  1
  P  P8  1  0.540767  0.957214  0.248819  1
  P  P9  1  0.957214  0.248819  0.540767  1
  P  P10  1  0.039273  0.749243  0.463594  1
  P  P11  1  0.463594  0.039273  0.749243  1
  O  O12  1  0.114235  0.300948  0.509475  1
  O  O13  1  0.300948  0.509475  0.114235  1
  O  O14  1  0.059335  0.917465  0.269900  1
  O  O15  1  0.509475  0.114235  0.300948  1
  O  O16  1  0.006403  0.801453  0.619833  1
  O  O17  1  0.235069  0.582953  0.441707  1
  O  O18  1  0.269900  0.059335  0.917465  1
  O  O19  1  0.441707  0.235069  0.582953  1
  O  O20  1  0.195991  0.383531  0.992214  1
  O  O21  1  0.582953  0.441707  0.235069  1
  O  O22  1  0.081758  0.733330  0.936454  1
  O  O23  1  0.383531  0.992214  0.195991  1
  O  O24  1  0.619833  0.006403  0.801453  1
  O  O25  1  0.917465  0.269900  0.059335  1
  O  O26  1  0.415723  0.560794  0.763781  1
  O  O27  1  0.801453  0.619833  0.006403  1
  O  O28  1  0.560794  0.763781  0.415723  1
  O  O29  1  0.733330  0.936454  0.081758  1
  O  O30  1  0.763781  0.415723  0.560794  1
  O  O31  1  0.992214  0.195991  0.383531  1
  O  O32  1  0.494432  0.886796  0.692780  1
  O  O33  1  0.936454  0.081758  0.733330  1
  O  O34  1  0.692780  0.494432  0.886796  1
  O  O35  1  0.886796  0.692780  0.494432  1
