# generated using pymatgen
data_LiCoSiO4
_symmetry_space_group_name_H-M   'P 1'
_cell_length_a   8.46434240
_cell_length_b   5.27866598
_cell_length_c   8.19829595
_cell_angle_alpha   90.00000000
_cell_angle_beta   104.68290374
_cell_angle_gamma   90.00000000
_symmetry_Int_Tables_number   1
_chemical_formula_structural   LiCoSiO4
_chemical_formula_sum   'Li4 Co4 Si4 O16'
_cell_volume   354.34122470
_cell_formula_units_Z   4
loop_
 _symmetry_equiv_pos_site_id
 _symmetry_equiv_pos_as_xyz
  1  'x, y, z'
loop_
 _atom_site_type_symbol
 _atom_site_label
 _atom_site_symmetry_multiplicity
 _atom_site_fract_x
 _atom_site_fract_y
 _atom_site_fract_z
 _atom_site_occupancy
  Li  Li0  1  0.077046  0.844032  0.967466  1
  Li  Li1  1  0.280111  0.328890  0.506219  1
  Li  Li2  1  0.577046  0.155968  0.967466  1
  Li  Li3  1  0.780111  0.671110  0.506219  1
  Co  Co4  1  0.213882  0.330242  0.870353  1
  Co  Co5  1  0.377126  0.820583  0.363501  1
  Co  Co6  1  0.713882  0.669758  0.870353  1
  Co  Co7  1  0.877126  0.179417  0.363501  1
  Si  Si8  1  0.003910  0.675672  0.247484  1
  Si  Si9  1  0.334794  0.827141  0.739544  1
  Si  Si10  1  0.503910  0.324328  0.247484  1
  Si  Si11  1  0.834794  0.172859  0.739544  1
  O  O12  1  0.017472  0.183370  0.873152  1
  O  O13  1  0.038884  0.385305  0.322057  1
  O  O14  1  0.204673  0.678976  0.826001  1
  O  O15  1  0.282027  0.127437  0.707640  1
  O  O16  1  0.173415  0.793058  0.215044  1
  O  O17  1  0.337957  0.686217  0.562582  1
  O  O18  1  0.517472  0.816630  0.873152  1
  O  O19  1  0.426618  0.164809  0.381571  1
  O  O20  1  0.385882  0.298802  0.056184  1
  O  O21  1  0.538884  0.614695  0.322057  1
  O  O22  1  0.704673  0.321024  0.826001  1
  O  O23  1  0.782027  0.872563  0.707640  1
  O  O24  1  0.673415  0.206942  0.215044  1
  O  O25  1  0.837957  0.313783  0.562582  1
  O  O26  1  0.926618  0.835191  0.381571  1
  O  O27  1  0.885882  0.701198  0.056184  1
