# generated using pymatgen
data_LiVFe(P2O7)2
_symmetry_space_group_name_H-M   'P 1'
_cell_length_a   9.75704521
_cell_length_b   8.08875745
_cell_length_c   7.17263693
_cell_angle_alpha   90.07657991
_cell_angle_beta   68.17084804
_cell_angle_gamma   90.02033563
_symmetry_Int_Tables_number   1
_chemical_formula_structural   LiVFe(P2O7)2
_chemical_formula_sum   'Li2 V2 Fe2 P8 O28'
_cell_volume   525.49116379
_cell_formula_units_Z   2
loop_
 _symmetry_equiv_pos_site_id
 _symmetry_equiv_pos_as_xyz
  1  'x, y, z'
loop_
 _atom_site_type_symbol
 _atom_site_label
 _atom_site_symmetry_multiplicity
 _atom_site_fract_x
 _atom_site_fract_y
 _atom_site_fract_z
 _atom_site_occupancy
  Li  Li0  1  0.250259  0.864161  0.672861  1
  Li  Li1  1  0.748327  0.361159  0.328805  1
  V  V2  1  0.243570  0.495056  0.721698  1
  V  V3  1  0.744087  0.507158  0.727430  1
  Fe  Fe4  1  0.257809  0.009760  0.265507  1
  Fe  Fe5  1  0.757428  0.994185  0.275454  1
  P  P6  1  0.065365  0.779199  0.087716  1
  P  P7  1  0.062633  0.677754  0.479962  1
  P  P8  1  0.440471  0.180886  0.523788  1
  P  P9  1  0.564575  0.781787  0.085197  1
  P  P10  1  0.435979  0.285507  0.913814  1
  P  P11  1  0.560160  0.681857  0.476832  1
  P  P12  1  0.939103  0.177332  0.520153  1
  P  P13  1  0.933319  0.283781  0.911644  1
  O  O14  1  0.079512  0.647636  0.250940  1
  O  O15  1  0.159923  0.932048  0.080061  1
  O  O16  1  0.102836  0.178602  0.393363  1
  O  O17  1  0.127161  0.847242  0.494395  1
  O  O18  1  0.147592  0.537386  0.531127  1
  O  O19  1  0.097183  0.331913  0.851002  1
  O  O20  1  0.129596  0.685373  0.886152  1
  O  O21  1  0.384213  0.193784  0.110748  1
  O  O22  1  0.402483  0.825958  0.142872  1
  O  O23  1  0.349801  0.040507  0.485258  1
  O  O24  1  0.371524  0.351820  0.520518  1
  O  O25  1  0.393142  0.673519  0.607809  1
  O  O26  1  0.341684  0.435882  0.903963  1
  O  O27  1  0.426540  0.149749  0.753068  1
  O  O28  1  0.577052  0.646020  0.249127  1
  O  O29  1  0.660363  0.930160  0.086714  1
  O  O30  1  0.603268  0.183992  0.389843  1
  O  O31  1  0.620230  0.851789  0.490760  1
  O  O32  1  0.649189  0.539997  0.520932  1
  O  O33  1  0.598513  0.339711  0.849264  1
  O  O34  1  0.621878  0.681091  0.889700  1
  O  O35  1  0.875563  0.200078  0.115825  1
  O  O36  1  0.903481  0.818270  0.140495  1
  O  O37  1  0.850825  0.040149  0.474656  1
  O  O38  1  0.865340  0.347760  0.518398  1
  O  O39  1  0.895721  0.665642  0.606878  1
  O  O40  1  0.840125  0.437955  0.911579  1
  O  O41  1  0.922271  0.150201  0.753542  1
