# generated using pymatgen
data_Fe2CuAs2(HO5)2
_symmetry_space_group_name_H-M   'P 1'
_cell_length_a   7.85708642
_cell_length_b   13.64524985
_cell_length_c   14.51344268
_cell_angle_alpha   90.00000000
_cell_angle_beta   90.00000000
_cell_angle_gamma   90.00000000
_symmetry_Int_Tables_number   1
_chemical_formula_structural   Fe2CuAs2(HO5)2
_chemical_formula_sum   'Fe16 Cu8 As16 H16 O80'
_cell_volume   1556.01387112
_cell_formula_units_Z   8
loop_
 _symmetry_equiv_pos_site_id
 _symmetry_equiv_pos_as_xyz
  1  'x, y, z'
loop_
 _atom_site_type_symbol
 _atom_site_label
 _atom_site_symmetry_multiplicity
 _atom_site_fract_x
 _atom_site_fract_y
 _atom_site_fract_z
 _atom_site_occupancy
  Fe  Fe0  1  0.042076  0.505255  0.238276  1
  Fe  Fe1  1  0.042076  0.994745  0.738276  1
  Fe  Fe2  1  0.217745  0.256729  0.495775  1
  Fe  Fe3  1  0.217745  0.243271  0.995775  1
  Fe  Fe4  1  0.282255  0.756729  0.495775  1
  Fe  Fe5  1  0.282255  0.743271  0.995775  1
  Fe  Fe6  1  0.457924  0.005255  0.238276  1
  Fe  Fe7  1  0.457924  0.494745  0.738276  1
  Fe  Fe8  1  0.542076  0.505255  0.261724  1
  Fe  Fe9  1  0.542076  0.994745  0.761724  1
  Fe  Fe10  1  0.717745  0.256729  0.004225  1
  Fe  Fe11  1  0.717745  0.243271  0.504225  1
  Fe  Fe12  1  0.782255  0.756729  0.004225  1
  Fe  Fe13  1  0.782255  0.743271  0.504225  1
  Fe  Fe14  1  0.957924  0.005255  0.261724  1
  Fe  Fe15  1  0.957924  0.494745  0.761724  1
  Cu  Cu16  1  0.138874  0.877873  0.131701  1
  Cu  Cu17  1  0.138874  0.622127  0.631701  1
  Cu  Cu18  1  0.361126  0.122127  0.631701  1
  Cu  Cu19  1  0.361126  0.377873  0.131701  1
  Cu  Cu20  1  0.638874  0.877873  0.368299  1
  Cu  Cu21  1  0.638874  0.622127  0.868299  1
  Cu  Cu22  1  0.861126  0.377873  0.368299  1
  Cu  Cu23  1  0.861126  0.122127  0.868299  1
  As  As24  1  0.018540  0.747230  0.305246  1
  As  As25  1  0.018540  0.752770  0.805246  1
  As  As26  1  0.237367  0.008982  0.441636  1
  As  As27  1  0.237367  0.491018  0.941636  1
  As  As28  1  0.262633  0.508982  0.441636  1
  As  As29  1  0.262633  0.991018  0.941636  1
  As  As30  1  0.481460  0.247230  0.305246  1
  As  As31  1  0.481460  0.252770  0.805246  1
  As  As32  1  0.518540  0.752770  0.694754  1
  As  As33  1  0.518540  0.747230  0.194754  1
  As  As34  1  0.737367  0.008982  0.058364  1
  As  As35  1  0.737367  0.491018  0.558364  1
  As  As36  1  0.762633  0.508982  0.058364  1
  As  As37  1  0.762633  0.991018  0.558364  1
  As  As38  1  0.981460  0.247230  0.194754  1
  As  As39  1  0.981460  0.252770  0.694754  1
  H  H40  1  0.022061  0.712486  0.110751  1
  H  H41  1  0.022061  0.787514  0.610751  1
  H  H42  1  0.230174  0.064088  0.088221  1
  H  H43  1  0.230174  0.435912  0.588221  1
  H  H44  1  0.269826  0.564088  0.088221  1
  H  H45  1  0.269826  0.935912  0.588221  1
  H  H46  1  0.477939  0.212486  0.110751  1
  H  H47  1  0.477939  0.287514  0.610751  1
  H  H48  1  0.522061  0.712486  0.389249  1
  H  H49  1  0.522061  0.787514  0.889249  1
  H  H50  1  0.730174  0.064088  0.411779  1
  H  H51  1  0.730174  0.435912  0.911779  1
  H  H52  1  0.769826  0.564088  0.411779  1
  H  H53  1  0.769826  0.935912  0.911779  1
  H  H54  1  0.977939  0.212486  0.389249  1
  H  H55  1  0.977939  0.287514  0.889249  1
  O  O56  1  0.999442  0.853475  0.239986  1
  O  O57  1  0.999442  0.646525  0.739986  1
  O  O58  1  0.025107  0.652936  0.227388  1
  O  O59  1  0.025107  0.847064  0.727388  1
  O  O60  1  0.026632  0.758341  0.057292  1
  O  O61  1  0.026632  0.741659  0.557292  1
  O  O62  1  0.048488  0.506509  0.889310  1
  O  O63  1  0.048488  0.993491  0.389310  1
  O  O64  1  0.084048  0.507492  0.376317  1
  O  O65  1  0.084048  0.992508  0.876317  1
  O  O66  1  0.160927  0.242950  0.127912  1
  O  O67  1  0.160927  0.257050  0.627912  1
  O  O68  1  0.198207  0.754277  0.371901  1
  O  O69  1  0.198207  0.745723  0.871901  1
  O  O70  1  0.224213  0.994267  0.193295  1
  O  O71  1  0.224213  0.505733  0.693295  1
  O  O72  1  0.235519  0.090247  0.021593  1
  O  O73  1  0.235519  0.409753  0.521593  1
  O  O74  1  0.234617  0.391025  0.014443  1
  O  O75  1  0.234617  0.108975  0.514443  1
  O  O76  1  0.265383  0.891025  0.014443  1
  O  O77  1  0.265383  0.608975  0.514443  1
  O  O78  1  0.264481  0.590247  0.021593  1
  O  O79  1  0.264481  0.909753  0.521593  1
  O  O80  1  0.275787  0.494267  0.193295  1
  O  O81  1  0.275787  0.005733  0.693295  1
  O  O82  1  0.301793  0.254277  0.371901  1
  O  O83  1  0.301793  0.245723  0.871901  1
  O  O84  1  0.339073  0.742950  0.127912  1
  O  O85  1  0.339073  0.757050  0.627912  1
  O  O86  1  0.415952  0.007492  0.376317  1
  O  O87  1  0.415952  0.492508  0.876317  1
  O  O88  1  0.451512  0.006509  0.889310  1
  O  O89  1  0.451512  0.493491  0.389310  1
  O  O90  1  0.473368  0.258341  0.057292  1
  O  O91  1  0.473368  0.241659  0.557292  1
  O  O92  1  0.474893  0.152936  0.227388  1
  O  O93  1  0.474893  0.347064  0.727388  1
  O  O94  1  0.500558  0.146525  0.739986  1
  O  O95  1  0.500558  0.353475  0.239986  1
  O  O96  1  0.499442  0.646525  0.760014  1
  O  O97  1  0.499442  0.853475  0.260014  1
  O  O98  1  0.525107  0.652936  0.272612  1
  O  O99  1  0.525107  0.847064  0.772612  1
  O  O100  1  0.526632  0.758341  0.442708  1
  O  O101  1  0.526632  0.741659  0.942708  1
  O  O102  1  0.548488  0.506509  0.610690  1
  O  O103  1  0.548488  0.993491  0.110690  1
  O  O104  1  0.584048  0.507492  0.123683  1
  O  O105  1  0.584048  0.992508  0.623683  1
  O  O106  1  0.660927  0.242950  0.372088  1
  O  O107  1  0.660927  0.257050  0.872088  1
  O  O108  1  0.698206  0.754277  0.128099  1
  O  O109  1  0.698206  0.745723  0.628099  1
  O  O110  1  0.724213  0.994267  0.306705  1
  O  O111  1  0.724213  0.505733  0.806705  1
  O  O112  1  0.735519  0.090247  0.478407  1
  O  O113  1  0.735519  0.409753  0.978407  1
  O  O114  1  0.734617  0.391025  0.485557  1
  O  O115  1  0.734617  0.108975  0.985557  1
  O  O116  1  0.765383  0.891025  0.485557  1
  O  O117  1  0.765383  0.608975  0.985557  1
  O  O118  1  0.764481  0.590247  0.478407  1
  O  O119  1  0.764481  0.909753  0.978407  1
  O  O120  1  0.775787  0.494267  0.306705  1
  O  O121  1  0.775787  0.005733  0.806705  1
  O  O122  1  0.801794  0.254277  0.128099  1
  O  O123  1  0.801794  0.245723  0.628099  1
  O  O124  1  0.839073  0.742950  0.372088  1
  O  O125  1  0.839073  0.757050  0.872088  1
  O  O126  1  0.915952  0.007492  0.123683  1
  O  O127  1  0.915952  0.492508  0.623683  1
  O  O128  1  0.951512  0.493491  0.110690  1
  O  O129  1  0.951512  0.006509  0.610690  1
  O  O130  1  0.973368  0.258341  0.442708  1
  O  O131  1  0.973368  0.241659  0.942708  1
  O  O132  1  0.974893  0.152936  0.272612  1
  O  O133  1  0.974893  0.347064  0.772612  1
  O  O134  1  0.000558  0.353475  0.260014  1
  O  O135  1  0.000558  0.146525  0.760014  1
