# generated using pymatgen
data_PH3NF5
_symmetry_space_group_name_H-M   'P 1'
_cell_length_a   8.67351703
_cell_length_b   9.46516338
_cell_length_c   4.84603639
_cell_angle_alpha   90.00000000
_cell_angle_beta   91.23947455
_cell_angle_gamma   90.00000000
_symmetry_Int_Tables_number   1
_chemical_formula_structural   PH3NF5
_chemical_formula_sum   'P4 H12 N4 F20'
_cell_volume   397.74835510
_cell_formula_units_Z   4
loop_
 _symmetry_equiv_pos_site_id
 _symmetry_equiv_pos_as_xyz
  1  'x, y, z'
loop_
 _atom_site_type_symbol
 _atom_site_label
 _atom_site_symmetry_multiplicity
 _atom_site_fract_x
 _atom_site_fract_y
 _atom_site_fract_z
 _atom_site_occupancy
  P  P0  1  0.251012  0.611492  0.375450  1
  P  P1  1  0.751012  0.888508  0.875450  1
  P  P2  1  0.748988  0.388508  0.624550  1
  P  P3  1  0.248988  0.111492  0.124550  1
  H  H4  1  0.032055  0.657460  0.666000  1
  H  H5  1  0.532055  0.842540  0.166000  1
  H  H6  1  0.967945  0.342540  0.334000  1
  H  H7  1  0.467945  0.157460  0.834000  1
  H  H8  1  0.152030  0.794586  0.676923  1
  H  H9  1  0.652030  0.705414  0.176923  1
  H  H10  1  0.847970  0.205414  0.323077  1
  H  H11  1  0.347970  0.294586  0.823077  1
  H  H12  1  0.032389  0.773932  0.407093  1
  H  H13  1  0.532389  0.726068  0.907093  1
  H  H14  1  0.967611  0.226068  0.592907  1
  H  H15  1  0.467611  0.273932  0.092907  1
  N  N16  1  0.101043  0.721137  0.548124  1
  N  N17  1  0.601043  0.778863  0.048124  1
  N  N18  1  0.898957  0.278863  0.451876  1
  N  N19  1  0.398957  0.221137  0.951876  1
  F  F20  1  0.380271  0.517539  0.227409  1
  F  F21  1  0.880271  0.982461  0.727409  1
  F  F22  1  0.619729  0.482461  0.772591  1
  F  F23  1  0.119729  0.017539  0.272591  1
  F  F24  1  0.251178  0.509050  0.644587  1
  F  F25  1  0.751178  0.990950  0.144587  1
  F  F26  1  0.748822  0.490950  0.355413  1
  F  F27  1  0.248822  0.009050  0.855413  1
  F  F28  1  0.243891  0.721990  0.115952  1
  F  F29  1  0.743891  0.778010  0.615952  1
  F  F30  1  0.756109  0.278010  0.884048  1
  F  F31  1  0.256109  0.221990  0.384048  1
  F  F32  1  0.384026  0.711207  0.523751  1
  F  F33  1  0.884026  0.788793  0.023751  1
  F  F34  1  0.615974  0.288793  0.476249  1
  F  F35  1  0.115974  0.211207  0.976249  1
  F  F36  1  0.110673  0.520596  0.232573  1
  F  F37  1  0.610673  0.979404  0.732573  1
  F  F38  1  0.889327  0.479404  0.767427  1
  F  F39  1  0.389327  0.020596  0.267427  1
