# generated using pymatgen
data_Li3FePCO7
_symmetry_space_group_name_H-M   'P 1'
_cell_length_a   8.53719321
_cell_length_b   9.95816535
_cell_length_c   6.49054108
_cell_angle_alpha   90.03840582
_cell_angle_beta   90.44467028
_cell_angle_gamma   84.82400283
_symmetry_Int_Tables_number   1
_chemical_formula_structural   Li3FePCO7
_chemical_formula_sum   'Li12 Fe4 P4 C4 O28'
_cell_volume   549.52532858
_cell_formula_units_Z   4
loop_
 _symmetry_equiv_pos_site_id
 _symmetry_equiv_pos_as_xyz
  1  'x, y, z'
loop_
 _atom_site_type_symbol
 _atom_site_label
 _atom_site_symmetry_multiplicity
 _atom_site_fract_x
 _atom_site_fract_y
 _atom_site_fract_z
 _atom_site_occupancy
  Li  Li0  1  0.103586  0.389766  0.256663  1
  Li  Li1  1  0.096235  0.879349  0.254249  1
  Li  Li2  1  0.275982  0.131982  0.486032  1
  Li  Li3  1  0.274471  0.611732  0.013454  1
  Li  Li4  1  0.275664  0.612483  0.484646  1
  Li  Li5  1  0.346245  0.399898  0.746847  1
  Li  Li6  1  0.719154  0.377100  0.527497  1
  Li  Li7  1  0.719232  0.376718  0.971447  1
  Li  Li8  1  0.725018  0.872276  0.524456  1
  Li  Li9  1  0.726563  0.873730  0.978724  1
  Li  Li10  1  0.902012  0.118521  0.749204  1
  Li  Li11  1  0.901480  0.614272  0.748979  1
  Fe  Fe12  1  0.266530  0.140184  0.998229  1
  Fe  Fe13  1  0.337996  0.885769  0.746645  1
  Fe  Fe14  1  0.664697  0.105774  0.250449  1
  Fe  Fe15  1  0.665885  0.604808  0.249577  1
  P  P16  1  0.409005  0.361569  0.249372  1
  P  P17  1  0.411991  0.860792  0.251329  1
  P  P18  1  0.590040  0.141930  0.749912  1
  P  P19  1  0.586020  0.640933  0.750122  1
  C  C20  1  0.037115  0.350274  0.756051  1
  C  C21  1  0.035039  0.851203  0.751549  1
  C  C22  1  0.963454  0.150637  0.249137  1
  C  C23  1  0.964359  0.649928  0.249865  1
  O  O24  1  0.070998  0.472213  0.749906  1
  O  O25  1  0.109369  0.184037  0.247523  1
  O  O26  1  0.068854  0.975687  0.753184  1
  O  O27  1  0.150378  0.250479  0.763835  1
  O  O28  1  0.109916  0.678338  0.249259  1
  O  O29  1  0.150532  0.756057  0.749540  1
  O  O30  1  0.308836  0.408225  0.058737  1
  O  O31  1  0.310576  0.408919  0.438953  1
  O  O32  1  0.311181  0.920326  0.062678  1
  O  O33  1  0.308585  0.915370  0.435621  1
  O  O34  1  0.423697  0.088175  0.749203  1
  O  O35  1  0.428230  0.200677  0.244669  1
  O  O36  1  0.420403  0.593630  0.749552  1
  O  O37  1  0.426739  0.704203  0.245709  1
  O  O38  1  0.572494  0.296859  0.748951  1
  O  O39  1  0.576754  0.409154  0.249774  1
  O  O40  1  0.574176  0.799235  0.751764  1
  O  O41  1  0.577901  0.909860  0.252706  1
  O  O42  1  0.690863  0.085462  0.937244  1
  O  O43  1  0.688002  0.083525  0.563077  1
  O  O44  1  0.689050  0.588190  0.563813  1
  O  O45  1  0.689632  0.586771  0.936412  1
  O  O46  1  0.849345  0.245188  0.251046  1
  O  O47  1  0.892055  0.318308  0.750365  1
  O  O48  1  0.850807  0.747206  0.250282  1
  O  O49  1  0.933665  0.026189  0.250241  1
  O  O50  1  0.891171  0.819571  0.750877  1
  O  O51  1  0.928020  0.526522  0.250641  1
