# generated using pymatgen
data_LiMn2(PO4)2
_symmetry_space_group_name_H-M   'P 1'
_cell_length_a   13.36519888
_cell_length_b   8.66222006
_cell_length_c   8.66583512
_cell_angle_alpha   90.56063096
_cell_angle_beta   108.56136507
_cell_angle_gamma   108.49085933
_symmetry_Int_Tables_number   1
_chemical_formula_structural   LiMn2(PO4)2
_chemical_formula_sum   'Li6 Mn12 P12 O48'
_cell_volume   895.10830239
_cell_formula_units_Z   6
loop_
 _symmetry_equiv_pos_site_id
 _symmetry_equiv_pos_as_xyz
  1  'x, y, z'
loop_
 _atom_site_type_symbol
 _atom_site_label
 _atom_site_symmetry_multiplicity
 _atom_site_fract_x
 _atom_site_fract_y
 _atom_site_fract_z
 _atom_site_occupancy
  Li  Li0  1  0.131877  0.120050  0.145534  1
  Li  Li1  1  0.500000  0.000000  0.000000  1
  Li  Li2  1  0.000000  0.500000  0.500000  1
  Li  Li3  1  0.748978  0.249011  0.250296  1
  Li  Li4  1  0.251022  0.750989  0.749704  1
  Li  Li5  1  0.868123  0.879950  0.854466  1
  Mn  Mn6  1  0.071277  0.005877  0.687975  1
  Mn  Mn7  1  0.182761  0.562313  0.246138  1
  Mn  Mn8  1  0.376094  0.112351  0.640476  1
  Mn  Mn9  1  0.125832  0.396850  0.855583  1
  Mn  Mn10  1  0.570578  0.505563  0.189693  1
  Mn  Mn11  1  0.324193  0.939495  0.257755  1
  Mn  Mn12  1  0.675807  0.060505  0.742245  1
  Mn  Mn13  1  0.429422  0.494437  0.810307  1
  Mn  Mn14  1  0.623906  0.887649  0.359524  1
  Mn  Mn15  1  0.874168  0.603150  0.144417  1
  Mn  Mn16  1  0.817239  0.437687  0.753862  1
  Mn  Mn17  1  0.928723  0.994123  0.312025  1
  P  P18  1  0.185157  0.314474  0.530435  1
  P  P19  1  0.375351  0.664604  0.084004  1
  P  P20  1  0.125483  0.834144  0.413987  1
  P  P21  1  0.313036  0.184916  0.968730  1
  P  P22  1  0.564528  0.218054  0.432719  1
  P  P23  1  0.062894  0.719841  0.937602  1
  P  P24  1  0.937106  0.280159  0.062398  1
  P  P25  1  0.435472  0.781946  0.567281  1
  P  P26  1  0.686964  0.815084  0.031270  1
  P  P27  1  0.874517  0.165856  0.586013  1
  P  P28  1  0.624649  0.335396  0.915996  1
  P  P29  1  0.814843  0.685526  0.469565  1
  O  O30  1  0.052193  0.378518  0.046545  1
  O  O31  1  0.094835  0.138435  0.498744  1
  O  O32  1  0.300656  0.123990  0.132636  1
  O  O33  1  0.186310  0.363172  0.359604  1
  O  O34  1  0.267906  0.535181  0.095717  1
  O  O35  1  0.019440  0.849107  0.282238  1
  O  O36  1  0.404529  0.360323  0.000261  1
  O  O37  1  0.155276  0.752403  0.111463  1
  O  O38  1  0.118746  0.651917  0.390786  1
  O  O39  1  0.153512  0.433963  0.624330  1
  O  O40  1  0.449770  0.121074  0.449336  1
  O  O41  1  0.197467  0.201897  0.874834  1
  O  O42  1  0.299573  0.298983  0.631164  1
  O  O43  1  0.344550  0.066596  0.874527  1
  O  O44  1  0.596210  0.120345  0.316639  1
  O  O45  1  0.094508  0.628993  0.816482  1
  O  O46  1  0.632256  0.359207  0.098948  1
  O  O47  1  0.382223  0.847218  0.106102  1
  O  O48  1  0.132399  0.856006  0.595872  1
  O  O49  1  0.345617  0.751838  0.389249  1
  O  O50  1  0.230816  0.967621  0.398237  1
  O  O51  1  0.482508  0.653012  0.214393  1
  O  O52  1  0.562317  0.384769  0.376491  1
  O  O53  1  0.051586  0.887415  0.884725  1
  O  O54  1  0.948414  0.112585  0.115275  1
  O  O55  1  0.437683  0.615231  0.623509  1
  O  O56  1  0.769184  0.032379  0.601763  1
  O  O57  1  0.517492  0.346988  0.785607  1
  O  O58  1  0.654383  0.248162  0.610751  1
  O  O59  1  0.867601  0.143994  0.404128  1
  O  O60  1  0.617777  0.152782  0.893898  1
  O  O61  1  0.367744  0.640793  0.901052  1
  O  O62  1  0.905492  0.371007  0.183518  1
  O  O63  1  0.655450  0.933404  0.125473  1
  O  O64  1  0.403790  0.879655  0.683361  1
  O  O65  1  0.700427  0.701017  0.368836  1
  O  O66  1  0.802533  0.798103  0.125166  1
  O  O67  1  0.550230  0.878926  0.550664  1
  O  O68  1  0.846488  0.566037  0.375670  1
  O  O69  1  0.881254  0.348083  0.609214  1
  O  O70  1  0.844724  0.247597  0.888537  1
  O  O71  1  0.595471  0.639677  0.999739  1
  O  O72  1  0.980560  0.150893  0.717762  1
  O  O73  1  0.732094  0.464818  0.904283  1
  O  O74  1  0.813690  0.636828  0.640396  1
  O  O75  1  0.699344  0.876010  0.867364  1
  O  O76  1  0.905165  0.861565  0.501256  1
  O  O77  1  0.947807  0.621482  0.953455  1
