# generated using pymatgen
data_LiCoSiO4
_symmetry_space_group_name_H-M   'P 1'
_cell_length_a   9.86003582
_cell_length_b   10.10157315
_cell_length_c   16.27832323
_cell_angle_alpha   82.64697966
_cell_angle_beta   89.99996527
_cell_angle_gamma   60.78788758
_symmetry_Int_Tables_number   1
_chemical_formula_structural   LiCoSiO4
_chemical_formula_sum   'Li16 Co16 Si16 O64'
_cell_volume   1399.85035255
_cell_formula_units_Z   16
loop_
 _symmetry_equiv_pos_site_id
 _symmetry_equiv_pos_as_xyz
  1  'x, y, z'
loop_
 _atom_site_type_symbol
 _atom_site_label
 _atom_site_symmetry_multiplicity
 _atom_site_fract_x
 _atom_site_fract_y
 _atom_site_fract_z
 _atom_site_occupancy
  Li  Li0  1  0.809811  0.987031  0.997588  1
  Li  Li1  1  0.203159  0.987031  0.497588  1
  Li  Li2  1  0.576561  0.722483  0.747465  1
  Li  Li3  1  0.076661  0.661201  0.748799  1
  Li  Li4  1  0.309306  0.550851  0.998658  1
  Li  Li5  1  0.700955  0.722483  0.247465  1
  Li  Li6  1  0.808521  0.486371  0.996834  1
  Li  Li7  1  0.262138  0.661201  0.248799  1
  Li  Li8  1  0.139843  0.550851  0.498658  1
  Li  Li9  1  0.705108  0.486371  0.496834  1
  Li  Li10  1  0.570185  0.226810  0.748256  1
  Li  Li11  1  0.081740  0.156079  0.746709  1
  Li  Li12  1  0.309055  0.051875  0.997556  1
  Li  Li13  1  0.203003  0.226810  0.248256  1
  Li  Li14  1  0.762181  0.156079  0.246709  1
  Li  Li15  1  0.639070  0.051875  0.497556  1
  Co  Co16  1  0.268532  0.849066  0.871209  1
  Co  Co17  1  0.770417  0.782761  0.871026  1
  Co  Co18  1  0.882401  0.849066  0.371209  1
  Co  Co19  1  0.446823  0.782761  0.371026  1
  Co  Co20  1  0.321131  0.673965  0.621637  1
  Co  Co21  1  0.881892  0.609043  0.621257  1
  Co  Co22  1  0.004903  0.673966  0.121637  1
  Co  Co23  1  0.509065  0.609043  0.121257  1
  Co  Co24  1  0.271452  0.348426  0.872088  1
  Co  Co25  1  0.769242  0.283952  0.869731  1
  Co  Co26  1  0.380123  0.348426  0.372088  1
  Co  Co27  1  0.946805  0.283953  0.369731  1
  Co  Co28  1  0.822046  0.169188  0.621010  1
  Co  Co29  1  0.383413  0.113121  0.620556  1
  Co  Co30  1  0.008767  0.169188  0.121010  1
  Co  Co31  1  0.503467  0.113121  0.120556  1
  Si  Si32  1  0.916377  0.982192  0.809127  1
  Si  Si33  1  0.101433  0.982191  0.309127  1
  Si  Si34  1  0.980464  0.851213  0.560646  1
  Si  Si35  1  0.538254  0.796170  0.558761  1
  Si  Si36  1  0.168324  0.851212  0.060645  1
  Si  Si37  1  0.665576  0.796169  0.058761  1
  Si  Si38  1  0.419299  0.539585  0.811052  1
  Si  Si39  1  0.919358  0.478680  0.809350  1
  Si  Si40  1  0.041117  0.539585  0.311052  1
  Si  Si41  1  0.601960  0.478681  0.309350  1
  Si  Si42  1  0.479871  0.354369  0.560641  1
  Si  Si43  1  0.040049  0.294311  0.558097  1
  Si  Si44  1  0.165760  0.354369  0.060641  1
  Si  Si45  1  0.665641  0.294311  0.058097  1
  Si  Si46  1  0.420474  0.036637  0.810810  1
  Si  Si47  1  0.542887  0.036637  0.310810  1
  O  O48  1  0.331870  0.992742  0.886244  1
  O  O49  1  0.092627  0.957933  0.797906  1
  O  O50  1  0.590478  0.889078  0.799994  1
  O  O51  1  0.745846  0.834421  0.977389  1
  O  O52  1  0.675389  0.992741  0.386244  1
  O  O53  1  0.544877  0.950050  0.575277  1
  O  O54  1  0.239895  0.776030  0.976228  1
  O  O55  1  0.925639  0.814545  0.821358  1
  O  O56  1  0.949440  0.957932  0.297907  1
  O  O57  1  0.142171  0.856378  0.576025  1
  O  O58  1  0.520444  0.889078  0.299994  1
  O  O59  1  0.419732  0.834421  0.477390  1
  O  O60  1  0.505073  0.950050  0.075277  1
  O  O61  1  0.465751  0.739508  0.638465  1
  O  O62  1  0.968968  0.733282  0.636661  1
  O  O63  1  0.437654  0.685795  0.830394  1
  O  O64  1  0.984074  0.776031  0.476228  1
  O  O65  1  0.259814  0.814546  0.321358  1
  O  O66  1  0.001451  0.856378  0.076025  1
  O  O67  1  0.713162  0.657909  0.546894  1
  O  O68  1  0.838299  0.570953  0.887627  1
  O  O69  1  0.300413  0.592621  0.727556  1
  O  O70  1  0.808550  0.588517  0.725474  1
  O  O71  1  0.794740  0.739508  0.138465  1
  O  O72  1  0.297750  0.733282  0.136662  1
  O  O73  1  0.876551  0.685796  0.330394  1
  O  O74  1  0.336231  0.490575  0.887672  1
  O  O75  1  0.094560  0.457652  0.799589  1
  O  O76  1  0.336436  0.531239  0.553252  1
  O  O77  1  0.628929  0.657910  0.046894  1
  O  O78  1  0.590748  0.570952  0.387627  1
  O  O79  1  0.106966  0.592621  0.227556  1
  O  O80  1  0.602934  0.588516  0.225474  1
  O  O81  1  0.588855  0.392541  0.798355  1
  O  O82  1  0.742360  0.335873  0.975932  1
  O  O83  1  0.173193  0.490576  0.387673  1
  O  O84  1  0.044743  0.448004  0.576017  1
  O  O85  1  0.243319  0.276622  0.977808  1
  O  O86  1  0.929275  0.310380  0.821828  1
  O  O87  1  0.447789  0.457652  0.299588  1
  O  O88  1  0.132325  0.531239  0.053252  1
  O  O89  1  0.644949  0.353718  0.574785  1
  O  O90  1  0.018603  0.392541  0.298355  1
  O  O91  1  0.921767  0.335873  0.475932  1
  O  O92  1  0.507253  0.448004  0.076017  1
  O  O93  1  0.465283  0.241147  0.638751  1
  O  O94  1  0.968253  0.232215  0.635818  1
  O  O95  1  0.480059  0.276622  0.477808  1
  O  O96  1  0.437033  0.183880  0.830155  1
  O  O97  1  0.760346  0.310378  0.321829  1
  O  O98  1  0.001334  0.353718  0.074785  1
  O  O99  1  0.215953  0.157952  0.546011  1
  O  O100  1  0.841389  0.071545  0.889373  1
  O  O101  1  0.798671  0.096367  0.728453  1
  O  O102  1  0.310235  0.084755  0.724153  1
  O  O103  1  0.293570  0.241147  0.138751  1
  O  O104  1  0.799532  0.232215  0.135818  1
  O  O105  1  0.379086  0.183880  0.330155  1
  O  O106  1  0.626095  0.157952  0.046011  1
  O  O107  1  0.833779  0.026512  0.554184  1
  O  O108  1  0.087065  0.071546  0.389373  1
  O  O109  1  0.104962  0.096367  0.228453  1
  O  O110  1  0.605009  0.084755  0.224153  1
  O  O111  1  0.139709  0.026513  0.054184  1
