# generated using pymatgen
data_BaLaI5
_symmetry_space_group_name_H-M   'P 1'
_cell_length_a   8.90752656
_cell_length_b   11.49241404
_cell_length_c   14.58514193
_cell_angle_alpha   90.00000000
_cell_angle_beta   62.40017374
_cell_angle_gamma   90.00000000
_symmetry_Int_Tables_number   1
_chemical_formula_structural   BaLaI5
_chemical_formula_sum   'Ba4 La4 I20'
_cell_volume   1323.16266360
_cell_formula_units_Z   4
loop_
 _symmetry_equiv_pos_site_id
 _symmetry_equiv_pos_as_xyz
  1  'x, y, z'
loop_
 _atom_site_type_symbol
 _atom_site_label
 _atom_site_symmetry_multiplicity
 _atom_site_fract_x
 _atom_site_fract_y
 _atom_site_fract_z
 _atom_site_occupancy
  Ba  Ba0  1  0.132484  0.468909  0.703658  1
  Ba  Ba1  1  0.132484  0.031091  0.203658  1
  Ba  Ba2  1  0.867516  0.968909  0.796342  1
  Ba  Ba3  1  0.867516  0.531091  0.296342  1
  La  La4  1  0.494835  0.655397  0.861054  1
  La  La5  1  0.505165  0.155397  0.638946  1
  La  La6  1  0.494835  0.844603  0.361054  1
  La  La7  1  0.505165  0.344603  0.138947  1
  I  I8  1  0.148062  0.702283  0.853412  1
  I  I9  1  0.121807  0.188057  0.824578  1
  I  I10  1  0.453199  0.175938  0.986657  1
  I  I11  1  0.519062  0.923771  0.755830  1
  I  I12  1  0.739267  0.479494  0.924604  1
  I  I13  1  0.260733  0.979494  0.575396  1
  I  I14  1  0.480938  0.423771  0.744170  1
  I  I15  1  0.148062  0.797717  0.353412  1
  I  I16  1  0.546801  0.675938  0.513343  1
  I  I17  1  0.121807  0.311943  0.324578  1
  I  I18  1  0.878193  0.688057  0.675422  1
  I  I19  1  0.453199  0.324062  0.486657  1
  I  I20  1  0.851938  0.202283  0.646588  1
  I  I21  1  0.519062  0.576229  0.255830  1
  I  I22  1  0.739267  0.020506  0.424604  1
  I  I23  1  0.260733  0.520506  0.075396  1
  I  I24  1  0.480938  0.076229  0.244170  1
  I  I25  1  0.546801  0.824062  0.013343  1
  I  I26  1  0.878193  0.811943  0.175422  1
  I  I27  1  0.851938  0.297717  0.146588  1
