# generated using pymatgen
data_Li6MnV3(PO4)6
_symmetry_space_group_name_H-M   'P 1'
_cell_length_a   10.26447505
_cell_length_b   10.26447448
_cell_length_c   10.16819770
_cell_angle_alpha   109.28132844
_cell_angle_beta   109.28133168
_cell_angle_gamma   109.66044415
_symmetry_Int_Tables_number   1
_chemical_formula_structural   Li6MnV3(PO4)6
_chemical_formula_sum   'Li12 Mn2 V6 P12 O48'
_cell_volume   826.62388531
_cell_formula_units_Z   2
loop_
 _symmetry_equiv_pos_site_id
 _symmetry_equiv_pos_as_xyz
  1  'x, y, z'
loop_
 _atom_site_type_symbol
 _atom_site_label
 _atom_site_symmetry_multiplicity
 _atom_site_fract_x
 _atom_site_fract_y
 _atom_site_fract_z
 _atom_site_occupancy
  Li  Li0  1  0.253565  0.876783  0.626783  1
  Li  Li1  1  0.126096  0.373904  0.750000  1
  Li  Li2  1  0.126096  0.252193  0.376096  1
  Li  Li3  1  0.623217  0.876783  0.750000  1
  Li  Li4  1  0.376783  0.753565  0.126783  1
  Li  Li5  1  0.247807  0.373904  0.123904  1
  Li  Li6  1  0.752193  0.626096  0.876096  1
  Li  Li7  1  0.623217  0.246435  0.873217  1
  Li  Li8  1  0.376783  0.123217  0.250000  1
  Li  Li9  1  0.873904  0.747807  0.623904  1
  Li  Li10  1  0.873904  0.626096  0.250000  1
  Li  Li11  1  0.746435  0.123217  0.373217  1
  Mn  Mn12  1  0.500000  0.000000  0.500000  1
  Mn  Mn13  1  0.500000  0.000000  0.000000  1
  V  V14  1  0.000000  0.500000  0.500000  1
  V  V15  1  0.000000  0.000000  0.500000  1
  V  V16  1  0.000000  0.500000  0.000000  1
  V  V17  1  0.000000  0.000000  0.000000  1
  V  V18  1  0.500000  0.500000  0.500000  1
  V  V19  1  0.500000  0.500000  0.000000  1
  P  P20  1  0.124115  0.750570  0.876027  1
  P  P21  1  0.124115  0.873545  0.248088  1
  P  P22  1  0.373545  0.624115  0.748088  1
  P  P23  1  0.250570  0.624115  0.376027  1
  P  P24  1  0.250570  0.126455  0.874543  1
  P  P25  1  0.373545  0.249430  0.625457  1
  P  P26  1  0.626455  0.750570  0.374543  1
  P  P27  1  0.749430  0.375885  0.623973  1
  P  P28  1  0.749430  0.873545  0.125457  1
  P  P29  1  0.626455  0.375885  0.251912  1
  P  P30  1  0.875885  0.126455  0.751912  1
  P  P31  1  0.875885  0.249430  0.123973  1
  O  O32  1  0.109194  0.995699  0.700315  1
  O  O33  1  0.113495  0.609194  0.908879  1
  O  O34  1  0.007817  0.299629  0.890147  1
  O  O35  1  0.089836  0.706923  0.701342  1
  O  O36  1  0.089836  0.882914  0.388495  1
  O  O37  1  0.109194  0.613495  0.408879  1
  O  O38  1  0.200371  0.492183  0.609853  1
  O  O39  1  0.407551  0.794727  0.787231  1
  O  O40  1  0.382914  0.589836  0.888495  1
  O  O41  1  0.291812  0.299629  0.909481  1
  O  O42  1  0.294727  0.907551  0.287231  1
  O  O43  1  0.007817  0.208188  0.117668  1
  O  O44  1  0.200371  0.208188  0.590519  1
  O  O45  1  0.206923  0.589836  0.201342  1
  O  O46  1  0.387176  0.794727  0.507496  1
  O  O47  1  0.291812  0.492183  0.382332  1
  O  O48  1  0.294727  0.887176  0.007496  1
  O  O49  1  0.113495  0.004301  0.204616  1
  O  O50  1  0.504301  0.613495  0.704616  1
  O  O51  1  0.387176  0.092449  0.879680  1
  O  O52  1  0.504301  0.390806  0.799685  1
  O  O53  1  0.382914  0.293077  0.494419  1
  O  O54  1  0.592449  0.887176  0.379680  1
  O  O55  1  0.206923  0.117086  0.005581  1
  O  O56  1  0.793077  0.882914  0.994419  1
  O  O57  1  0.407551  0.112824  0.620320  1
  O  O58  1  0.617086  0.706923  0.505581  1
  O  O59  1  0.495699  0.609194  0.200315  1
  O  O60  1  0.612824  0.907551  0.120320  1
  O  O61  1  0.495699  0.386505  0.295384  1
  O  O62  1  0.886505  0.995699  0.795384  1
  O  O63  1  0.705273  0.112824  0.992504  1
  O  O64  1  0.708188  0.507817  0.617668  1
  O  O65  1  0.612824  0.205273  0.492504  1
  O  O66  1  0.793077  0.410164  0.798658  1
  O  O67  1  0.799629  0.791812  0.409481  1
  O  O68  1  0.992183  0.791812  0.882332  1
  O  O69  1  0.705273  0.092449  0.712769  1
  O  O70  1  0.708188  0.700371  0.090519  1
  O  O71  1  0.617086  0.410164  0.111505  1
  O  O72  1  0.592449  0.205273  0.212769  1
  O  O73  1  0.799629  0.507817  0.390147  1
  O  O74  1  0.890806  0.386505  0.591121  1
  O  O75  1  0.910164  0.117086  0.611505  1
  O  O76  1  0.910164  0.293077  0.298658  1
  O  O77  1  0.992183  0.700371  0.109853  1
  O  O78  1  0.886505  0.390806  0.091121  1
  O  O79  1  0.890806  0.004301  0.299685  1
