# generated using pymatgen
data_Li2VFe(P2O7)2
_symmetry_space_group_name_H-M   'P 1'
_cell_length_a   9.75935442
_cell_length_b   8.24282397
_cell_length_c   7.03942437
_cell_angle_alpha   90.00000000
_cell_angle_beta   108.89316673
_cell_angle_gamma   90.00000000
_symmetry_Int_Tables_number   1
_chemical_formula_structural   Li2VFe(P2O7)2
_chemical_formula_sum   'Li4 V2 Fe2 P8 O28'
_cell_volume   535.77483872
_cell_formula_units_Z   2
loop_
 _symmetry_equiv_pos_site_id
 _symmetry_equiv_pos_as_xyz
  1  'x, y, z'
loop_
 _atom_site_type_symbol
 _atom_site_label
 _atom_site_symmetry_multiplicity
 _atom_site_fract_x
 _atom_site_fract_y
 _atom_site_fract_z
 _atom_site_occupancy
  Li  Li0  1  0.087730  0.863622  0.676796  1
  Li  Li1  1  0.412270  0.363622  0.323204  1
  Li  Li2  1  0.588042  0.863044  0.676830  1
  Li  Li3  1  0.911958  0.363044  0.323170  1
  V  V4  1  0.108179  0.499333  0.728475  1
  V  V5  1  0.391821  0.999333  0.271525  1
  Fe  Fe6  1  0.608193  0.499088  0.731765  1
  Fe  Fe7  1  0.891807  0.999088  0.268235  1
  P  P8  1  0.199807  0.179582  0.521776  1
  P  P9  1  0.105471  0.784029  0.085691  1
  P  P10  1  0.394529  0.284029  0.914309  1
  P  P11  1  0.300193  0.679582  0.478224  1
  P  P12  1  0.700169  0.181093  0.521381  1
  P  P13  1  0.605943  0.783555  0.085058  1
  P  P14  1  0.894057  0.283555  0.914942  1
  P  P15  1  0.799831  0.681093  0.478619  1
  O  O16  1  0.025718  0.323067  0.852291  1
  O  O17  1  0.065062  0.695773  0.884548  1
  O  O18  1  0.094148  0.036813  0.482584  1
  O  O19  1  0.123548  0.344030  0.505487  1
  O  O20  1  0.198441  0.678248  0.605603  1
  O  O21  1  0.301547  0.434095  0.917650  1
  O  O22  1  0.297648  0.152796  0.753647  1
  O  O23  1  0.202352  0.652796  0.246353  1
  O  O24  1  0.198453  0.934095  0.082350  1
  O  O25  1  0.301559  0.178248  0.394397  1
  O  O26  1  0.376452  0.844030  0.494513  1
  O  O27  1  0.405852  0.536813  0.517416  1
  O  O28  1  0.525963  0.324479  0.852847  1
  O  O29  1  0.564912  0.694163  0.883519  1
  O  O30  1  0.434938  0.195773  0.115452  1
  O  O31  1  0.474282  0.823067  0.147709  1
  O  O32  1  0.593431  0.037984  0.482336  1
  O  O33  1  0.623249  0.345461  0.507161  1
  O  O34  1  0.698779  0.679089  0.605521  1
  O  O35  1  0.801497  0.433414  0.917606  1
  O  O36  1  0.797369  0.152825  0.753786  1
  O  O37  1  0.702631  0.652825  0.246214  1
  O  O38  1  0.698503  0.933414  0.082394  1
  O  O39  1  0.801221  0.179089  0.394479  1
  O  O40  1  0.876751  0.845461  0.492839  1
  O  O41  1  0.906569  0.537984  0.517664  1
  O  O42  1  0.935088  0.194163  0.116481  1
  O  O43  1  0.974037  0.824479  0.147153  1
