# generated using pymatgen
data_NdP3(H4O5)3
_symmetry_space_group_name_H-M   'P 1'
_cell_length_a   8.93238592
_cell_length_b   11.70130002
_cell_length_c   12.78793137
_cell_angle_alpha   90.00000000
_cell_angle_beta   94.45776500
_cell_angle_gamma   90.00000000
_symmetry_Int_Tables_number   1
_chemical_formula_structural   NdP3(H4O5)3
_chemical_formula_sum   'Nd4 P12 H48 O60'
_cell_volume   1332.55797721
_cell_formula_units_Z   4
loop_
 _symmetry_equiv_pos_site_id
 _symmetry_equiv_pos_as_xyz
  1  'x, y, z'
loop_
 _atom_site_type_symbol
 _atom_site_label
 _atom_site_symmetry_multiplicity
 _atom_site_fract_x
 _atom_site_fract_y
 _atom_site_fract_z
 _atom_site_occupancy
  Nd  Nd0  1  0.307985  0.902028  0.297181  1
  Nd  Nd1  1  0.692015  0.402028  0.202819  1
  Nd  Nd2  1  0.692015  0.097972  0.702819  1
  Nd  Nd3  1  0.307985  0.597972  0.797181  1
  P  P4  1  0.587002  0.095696  0.183372  1
  P  P5  1  0.412998  0.595696  0.316628  1
  P  P6  1  0.412998  0.904304  0.816628  1
  P  P7  1  0.587002  0.404304  0.683372  1
  P  P8  1  0.534711  0.216717  0.979752  1
  P  P9  1  0.465289  0.716717  0.520248  1
  P  P10  1  0.465289  0.783283  0.020248  1
  P  P11  1  0.534711  0.283283  0.479752  1
  P  P12  1  0.670106  0.857949  0.221676  1
  P  P13  1  0.329894  0.357949  0.278324  1
  P  P14  1  0.329894  0.142051  0.778324  1
  P  P15  1  0.670106  0.642051  0.721676  1
  H  H16  1  0.053498  0.869889  0.446302  1
  H  H17  1  0.946502  0.369889  0.053698  1
  H  H18  1  0.946502  0.130111  0.553698  1
  H  H19  1  0.053498  0.630111  0.946302  1
  H  H20  1  0.963819  0.839740  0.332951  1
  H  H21  1  0.036181  0.339740  0.167049  1
  H  H22  1  0.036181  0.160260  0.667049  1
  H  H23  1  0.963819  0.660260  0.832951  1
  H  H24  1  0.610397  0.801005  0.408602  1
  H  H25  1  0.389603  0.301005  0.091398  1
  H  H26  1  0.389603  0.198995  0.591398  1
  H  H27  1  0.610397  0.698995  0.908602  1
  H  H28  1  0.237066  0.860947  0.045104  1
  H  H29  1  0.762934  0.360947  0.454896  1
  H  H30  1  0.762934  0.139053  0.954896  1
  H  H31  1  0.237066  0.639053  0.545104  1
  H  H32  1  0.317269  0.113471  0.462945  1
  H  H33  1  0.682731  0.613471  0.037055  1
  H  H34  1  0.682731  0.886529  0.537055  1
  H  H35  1  0.317269  0.386529  0.962945  1
  H  H36  1  0.295592  0.985350  0.502995  1
  H  H37  1  0.704408  0.485350  0.997005  1
  H  H38  1  0.704408  0.014650  0.497005  1
  H  H39  1  0.295592  0.514650  0.002995  1
  H  H40  1  0.173132  0.138784  0.239818  1
  H  H41  1  0.826868  0.638784  0.260182  1
  H  H42  1  0.826868  0.861216  0.760182  1
  H  H43  1  0.173132  0.361216  0.739818  1
  H  H44  1  0.071146  0.070669  0.156981  1
  H  H45  1  0.928854  0.570669  0.343019  1
  H  H46  1  0.928854  0.929331  0.843019  1
  H  H47  1  0.071146  0.429331  0.656981  1
  H  H48  1  0.077680  0.688401  0.416496  1
  H  H49  1  0.922320  0.188401  0.083504  1
  H  H50  1  0.922320  0.311599  0.583504  1
  H  H51  1  0.077680  0.811599  0.916496  1
  H  H52  1  0.136668  0.561819  0.407369  1
  H  H53  1  0.863332  0.061819  0.092631  1
  H  H54  1  0.863332  0.438181  0.592631  1
  H  H55  1  0.136668  0.938181  0.907369  1
  H  H56  1  0.989390  0.079912  0.366676  1
  H  H57  1  0.010610  0.579912  0.133324  1
  H  H58  1  0.010610  0.920088  0.633324  1
  H  H59  1  0.989390  0.420088  0.866676  1
  H  H60  1  0.159930  0.852678  0.625096  1
  H  H61  1  0.840070  0.352678  0.874904  1
  H  H62  1  0.840070  0.147322  0.374904  1
  H  H63  1  0.159930  0.647322  0.125096  1
  O  O64  1  0.452924  0.064195  0.240352  1
  O  O65  1  0.547076  0.564195  0.259648  1
  O  O66  1  0.547076  0.935805  0.759648  1
  O  O67  1  0.452924  0.435805  0.740352  1
  O  O68  1  0.684185  0.194929  0.222264  1
  O  O69  1  0.315815  0.694929  0.277736  1
  O  O70  1  0.315815  0.805071  0.777736  1
  O  O71  1  0.684185  0.305071  0.722264  1
  O  O72  1  0.541163  0.105530  0.060575  1
  O  O73  1  0.458837  0.605530  0.439425  1
  O  O74  1  0.458837  0.894470  0.939425  1
  O  O75  1  0.541163  0.394470  0.560575  1
  O  O76  1  0.671457  0.150881  0.907510  1
  O  O77  1  0.328543  0.650881  0.592490  1
  O  O78  1  0.328543  0.849119  0.092490  1
  O  O79  1  0.671457  0.349119  0.407510  1
  O  O80  1  0.636358  0.314809  0.021977  1
  O  O81  1  0.363642  0.814809  0.478023  1
  O  O82  1  0.363642  0.685191  0.978023  1
  O  O83  1  0.636358  0.185191  0.521977  1
  O  O84  1  0.430694  0.200131  0.867835  1
  O  O85  1  0.569306  0.700131  0.632165  1
  O  O86  1  0.569306  0.799869  0.132165  1
  O  O87  1  0.430694  0.299869  0.367835  1
  O  O88  1  0.816188  0.797907  0.244609  1
  O  O89  1  0.183812  0.297907  0.255391  1
  O  O90  1  0.183812  0.202093  0.755391  1
  O  O91  1  0.816188  0.702093  0.744609  1
  O  O92  1  0.570804  0.870286  0.312652  1
  O  O93  1  0.429196  0.370286  0.187348  1
  O  O94  1  0.429196  0.129714  0.687348  1
  O  O95  1  0.570804  0.629714  0.812652  1
  O  O96  1  0.704064  0.986692  0.181729  1
  O  O97  1  0.295936  0.486692  0.318271  1
  O  O98  1  0.295936  0.013308  0.818271  1
  O  O99  1  0.704064  0.513308  0.681729  1
  O  O100  1  0.063782  0.840640  0.373867  1
  O  O101  1  0.936218  0.340640  0.126133  1
  O  O102  1  0.936218  0.159360  0.626133  1
  O  O103  1  0.063782  0.659360  0.873867  1
  O  O104  1  0.628752  0.734782  0.980133  1
  O  O105  1  0.371248  0.234782  0.519867  1
  O  O106  1  0.371248  0.265218  0.019867  1
  O  O107  1  0.628752  0.765218  0.480133  1
  O  O108  1  0.283459  0.034014  0.440633  1
  O  O109  1  0.716541  0.534014  0.059367  1
  O  O110  1  0.716541  0.965986  0.559367  1
  O  O111  1  0.283459  0.465986  0.940633  1
  O  O112  1  0.130013  0.061343  0.225912  1
  O  O113  1  0.869987  0.561343  0.274088  1
  O  O114  1  0.869987  0.938657  0.774088  1
  O  O115  1  0.130013  0.438657  0.725912  1
  O  O116  1  0.068310  0.609550  0.444606  1
  O  O117  1  0.931690  0.109550  0.055394  1
  O  O118  1  0.931690  0.390450  0.555394  1
  O  O119  1  0.068310  0.890450  0.944606  1
  O  O120  1  0.914499  0.100646  0.415405  1
  O  O121  1  0.085501  0.600646  0.084595  1
  O  O122  1  0.085501  0.899354  0.584595  1
  O  O123  1  0.914499  0.399354  0.915405  1
