# generated using pymatgen
data_Li9Mn12Ni3O32
_symmetry_space_group_name_H-M   'P 1'
_cell_length_a   8.26364762
_cell_length_b   8.29583541
_cell_length_c   8.29859927
_cell_angle_alpha   89.88363729
_cell_angle_beta   90.19961929
_cell_angle_gamma   89.80285392
_symmetry_Int_Tables_number   1
_chemical_formula_structural   Li9Mn12Ni3O32
_chemical_formula_sum   'Li9 Mn12 Ni3 O32'
_cell_volume   568.89300933
_cell_formula_units_Z   1
loop_
 _symmetry_equiv_pos_site_id
 _symmetry_equiv_pos_as_xyz
  1  'x, y, z'
loop_
 _atom_site_type_symbol
 _atom_site_label
 _atom_site_symmetry_multiplicity
 _atom_site_fract_x
 _atom_site_fract_y
 _atom_site_fract_z
 _atom_site_occupancy
  Li  Li0  1  0.002913  0.001871  0.007439  1
  Li  Li1  1  0.245305  0.249117  0.245476  1
  Li  Li2  1  0.252693  0.752752  0.745213  1
  Li  Li3  1  0.497210  0.995346  0.502745  1
  Li  Li4  1  0.504774  0.495451  0.999177  1
  Li  Li5  1  0.747052  0.257348  0.751768  1
  Li  Li6  1  0.755478  0.745987  0.252325  1
  Li  Li7  1  0.874999  0.375843  0.125866  1
  Li  Li8  1  0.994594  0.502328  0.496068  1
  Mn  Mn9  1  0.122834  0.127733  0.623202  1
  Mn  Mn10  1  0.124891  0.380524  0.874245  1
  Mn  Mn11  1  0.126563  0.623362  0.121827  1
  Mn  Mn12  1  0.372529  0.375021  0.621239  1
  Mn  Mn13  1  0.374961  0.621230  0.371256  1
  Mn  Mn14  1  0.377445  0.871282  0.125169  1
  Mn  Mn15  1  0.623384  0.371802  0.373438  1
  Mn  Mn16  1  0.625053  0.124179  0.130550  1
  Mn  Mn17  1  0.627214  0.873258  0.877635  1
  Mn  Mn18  1  0.870979  0.126728  0.376801  1
  Mn  Mn19  1  0.875090  0.878099  0.627991  1
  Mn  Mn20  1  0.879099  0.626841  0.876617  1
  Ni  Ni21  1  0.124225  0.874245  0.374344  1
  Ni  Ni22  1  0.374955  0.126287  0.876329  1
  Ni  Ni23  1  0.625752  0.624378  0.624296  1
  O  O24  1  0.102824  0.124995  0.393368  1
  O  O25  1  0.108820  0.898320  0.624525  1
  O  O26  1  0.116082  0.613785  0.884417  1
  O  O27  1  0.129409  0.394480  0.099324  1
  O  O28  1  0.142456  0.144415  0.861381  1
  O  O29  1  0.135951  0.362733  0.635713  1
  O  O30  1  0.141838  0.625247  0.351355  1
  O  O31  1  0.148059  0.857887  0.125524  1
  O  O32  1  0.355090  0.141244  0.629008  1
  O  O33  1  0.362028  0.370252  0.852137  1
  O  O34  1  0.366260  0.636469  0.135733  1
  O  O35  1  0.375198  0.852122  0.357003  1
  O  O36  1  0.374692  0.607013  0.602107  1
  O  O37  1  0.383690  0.385659  0.386531  1
  O  O38  1  0.388070  0.102167  0.120745  1
  O  O39  1  0.394769  0.879462  0.891261  1
  O  O40  1  0.601839  0.375422  0.607856  1
  O  O41  1  0.608106  0.601459  0.375418  1
  O  O42  1  0.614011  0.885572  0.112616  1
  O  O43  1  0.607514  0.111492  0.894606  1
  O  O44  1  0.620611  0.349392  0.144689  1
  O  O45  1  0.634022  0.134316  0.363787  1
  O  O46  1  0.641257  0.874709  0.648318  1
  O  O47  1  0.647205  0.643342  0.874752  1
  O  O48  1  0.849868  0.355038  0.378384  1
  O  O49  1  0.854384  0.121644  0.149144  1
  O  O50  1  0.862821  0.867209  0.864520  1
  O  O51  1  0.874940  0.649196  0.642203  1
  O  O52  1  0.875215  0.892177  0.399226  1
  O  O53  1  0.887217  0.114574  0.617088  1
  O  O54  1  0.895664  0.399105  0.871585  1
  O  O55  1  0.900098  0.628291  0.104858  1
