# generated using pymatgen
data_Li7V7(P4O17)2
_symmetry_space_group_name_H-M   'P 1'
_cell_length_a   8.07074633
_cell_length_b   20.04289991
_cell_length_c   10.23694285
_cell_angle_alpha   90.00000000
_cell_angle_beta   113.50830303
_cell_angle_gamma   90.00000000
_symmetry_Int_Tables_number   1
_chemical_formula_structural   Li7V7(P4O17)2
_chemical_formula_sum   'Li14 V14 P16 O68'
_cell_volume   1518.50053441
_cell_formula_units_Z   2
loop_
 _symmetry_equiv_pos_site_id
 _symmetry_equiv_pos_as_xyz
  1  'x, y, z'
loop_
 _atom_site_type_symbol
 _atom_site_label
 _atom_site_symmetry_multiplicity
 _atom_site_fract_x
 _atom_site_fract_y
 _atom_site_fract_z
 _atom_site_occupancy
  Li  Li0  1  0.000000  0.000000  0.500000  1
  Li  Li1  1  0.234272  0.636535  0.848890  1
  Li  Li2  1  0.000000  0.500000  0.000000  1
  Li  Li3  1  0.234272  0.863465  0.348890  1
  Li  Li4  1  0.453734  0.050216  0.813202  1
  Li  Li5  1  0.331535  0.757972  0.693563  1
  Li  Li6  1  0.668465  0.257972  0.806437  1
  Li  Li7  1  0.453734  0.449784  0.313202  1
  Li  Li8  1  0.546267  0.550216  0.686798  1
  Li  Li9  1  0.331535  0.742028  0.193563  1
  Li  Li10  1  0.668465  0.242028  0.306437  1
  Li  Li11  1  0.546267  0.949784  0.186798  1
  Li  Li12  1  0.765728  0.136535  0.651110  1
  Li  Li13  1  0.765728  0.363465  0.151110  1
  V  V14  1  0.026383  0.334887  0.952462  1
  V  V15  1  0.103082  0.921426  0.887862  1
  V  V16  1  0.026383  0.165113  0.452462  1
  V  V17  1  0.103082  0.578574  0.387862  1
  V  V18  1  0.281741  0.356616  0.797747  1
  V  V19  1  0.281741  0.143384  0.297747  1
  V  V20  1  0.500000  0.000000  0.500000  1
  V  V21  1  0.718259  0.856616  0.702253  1
  V  V22  1  0.500000  0.500000  0.000000  1
  V  V23  1  0.718259  0.643384  0.202253  1
  V  V24  1  0.896918  0.421426  0.612138  1
  V  V25  1  0.973617  0.834887  0.547538  1
  V  V26  1  0.896918  0.078574  0.112138  1
  V  V27  1  0.973617  0.665113  0.047538  1
  P  P28  1  0.945843  0.271601  0.645606  1
  P  P29  1  0.184238  0.508766  0.682455  1
  P  P30  1  0.945843  0.228399  0.145606  1
  P  P31  1  0.336225  0.916802  0.694750  1
  P  P32  1  0.391423  0.149907  0.593247  1
  P  P33  1  0.184238  0.991234  0.182455  1
  P  P34  1  0.336225  0.583198  0.194749  1
  P  P35  1  0.608577  0.649907  0.906753  1
  P  P36  1  0.391423  0.350093  0.093247  1
  P  P37  1  0.663775  0.416802  0.805250  1
  P  P38  1  0.815762  0.008766  0.817545  1
  P  P39  1  0.608577  0.850093  0.406753  1
  P  P40  1  0.663775  0.083198  0.305250  1
  P  P41  1  0.054157  0.771601  0.854394  1
  P  P42  1  0.815762  0.491234  0.317545  1
  P  P43  1  0.054157  0.728399  0.354394  1
  O  O44  1  0.114716  0.703094  0.931914  1
  O  O45  1  0.163803  0.827200  0.957545  1
  O  O46  1  0.060240  0.390439  0.807099  1
  O  O47  1  0.098140  0.769721  0.718022  1
  O  O48  1  0.976706  0.517253  0.633331  1
  O  O49  1  0.114716  0.796906  0.431914  1
  O  O50  1  0.163803  0.672800  0.457545  1
  O  O51  1  0.275619  0.299094  0.972073  1
  O  O52  1  0.060240  0.109561  0.307099  1
  O  O53  1  0.257886  0.118952  0.649582  1
  O  O54  1  0.098140  0.730279  0.218022  1
  O  O55  1  0.976706  0.982747  0.133331  1
  O  O56  1  0.149992  0.280143  0.675923  1
  O  O57  1  0.147728  0.911695  0.564774  1
  O  O58  1  0.316620  0.932431  0.835631  1
  O  O59  1  0.267030  0.530698  0.842123  1
  O  O60  1  0.212038  0.433475  0.655054  1
  O  O61  1  0.266740  0.553266  0.600294  1
  O  O62  1  0.435244  0.402666  0.994509  1
  O  O63  1  0.275619  0.200906  0.472073  1
  O  O64  1  0.422461  0.980813  0.662523  1
  O  O65  1  0.257886  0.381048  0.149582  1
  O  O66  1  0.149992  0.219858  0.175923  1
  O  O67  1  0.147728  0.588305  0.064774  1
  O  O68  1  0.316620  0.567569  0.335631  1
  O  O69  1  0.267030  0.969302  0.342123  1
  O  O70  1  0.212038  0.066525  0.155054  1
  O  O71  1  0.266740  0.946734  0.100294  1
  O  O72  1  0.435244  0.097334  0.494509  1
  O  O73  1  0.434334  0.678520  0.800661  1
  O  O74  1  0.551454  0.352330  0.794321  1
  O  O75  1  0.448546  0.852330  0.705679  1
  O  O76  1  0.565666  0.178520  0.699339  1
  O  O77  1  0.577539  0.480813  0.837477  1
  O  O78  1  0.422461  0.519187  0.162523  1
  O  O79  1  0.434334  0.821480  0.300661  1
  O  O80  1  0.551454  0.147670  0.294321  1
  O  O81  1  0.448546  0.647670  0.205679  1
  O  O82  1  0.565666  0.321480  0.199339  1
  O  O83  1  0.564756  0.902666  0.505491  1
  O  O84  1  0.733260  0.053266  0.899706  1
  O  O85  1  0.787962  0.933475  0.844946  1
  O  O86  1  0.732970  0.030698  0.657877  1
  O  O87  1  0.683380  0.432431  0.664369  1
  O  O88  1  0.852272  0.411695  0.935226  1
  O  O89  1  0.850008  0.780142  0.824077  1
  O  O90  1  0.742114  0.618952  0.850418  1
  O  O91  1  0.577539  0.019187  0.337477  1
  O  O92  1  0.724381  0.799094  0.527927  1
  O  O93  1  0.564756  0.597334  0.005491  1
  O  O94  1  0.733260  0.446734  0.399706  1
  O  O95  1  0.787962  0.566525  0.344946  1
  O  O96  1  0.732970  0.469302  0.157877  1
  O  O97  1  0.683380  0.067569  0.164369  1
  O  O98  1  0.852272  0.088305  0.435226  1
  O  O99  1  0.850008  0.719858  0.324077  1
  O  O100  1  0.023294  0.017253  0.866669  1
  O  O101  1  0.901860  0.269721  0.781978  1
  O  O102  1  0.742114  0.881048  0.350418  1
  O  O103  1  0.939760  0.890439  0.692901  1
  O  O104  1  0.724381  0.700906  0.027927  1
  O  O105  1  0.836197  0.327200  0.542455  1
  O  O106  1  0.885284  0.203094  0.568086  1
  O  O107  1  0.023294  0.482747  0.366669  1
  O  O108  1  0.901860  0.230279  0.281978  1
  O  O109  1  0.939760  0.609561  0.192901  1
  O  O110  1  0.836197  0.172800  0.042455  1
  O  O111  1  0.885284  0.296906  0.068086  1
