# generated using pymatgen
data_Li4Fe3Cu3(SnO8)2
_symmetry_space_group_name_H-M   'P 1'
_cell_length_a   5.95735873
_cell_length_b   5.98580626
_cell_length_c   9.77258663
_cell_angle_alpha   89.96885193
_cell_angle_beta   90.27061344
_cell_angle_gamma   119.85918135
_symmetry_Int_Tables_number   1
_chemical_formula_structural   Li4Fe3Cu3(SnO8)2
_chemical_formula_sum   'Li4 Fe3 Cu3 Sn2 O16'
_cell_volume   302.22145400
_cell_formula_units_Z   1
loop_
 _symmetry_equiv_pos_site_id
 _symmetry_equiv_pos_as_xyz
  1  'x, y, z'
loop_
 _atom_site_type_symbol
 _atom_site_label
 _atom_site_symmetry_multiplicity
 _atom_site_fract_x
 _atom_site_fract_y
 _atom_site_fract_z
 _atom_site_occupancy
  Li  Li0  1  0.317562  0.660446  0.897784  1
  Li  Li1  1  0.003515  0.003122  0.994344  1
  Li  Li2  1  0.014490  0.006741  0.491981  1
  Li  Li3  1  0.661241  0.327493  0.395892  1
  Fe  Fe4  1  0.661311  0.831873  0.213967  1
  Fe  Fe5  1  0.832386  0.662051  0.714427  1
  Fe  Fe6  1  0.831667  0.169710  0.715210  1
  Cu  Cu7  1  0.169336  0.829500  0.214804  1
  Cu  Cu8  1  0.172433  0.339592  0.214568  1
  Cu  Cu9  1  0.339558  0.170706  0.713869  1
  Sn  Sn10  1  0.340027  0.667751  0.490631  1
  Sn  Sn11  1  0.666385  0.336067  0.990470  1
  O  O12  1  0.155130  0.829259  0.596956  1
  O  O13  1  0.034142  0.510023  0.338886  1
  O  O14  1  0.320596  0.659668  0.112631  1
  O  O15  1  0.013869  0.007782  0.302647  1
  O  O16  1  0.018987  0.008795  0.806399  1
  O  O17  1  0.161031  0.321458  0.599116  1
  O  O18  1  0.478506  0.965541  0.338660  1
  O  O19  1  0.492857  0.521877  0.340965  1
  O  O20  1  0.318812  0.163639  0.098737  1
  O  O21  1  0.683512  0.843163  0.598452  1
  O  O22  1  0.517013  0.491254  0.841736  1
  O  O23  1  0.510086  0.031799  0.839382  1
  O  O24  1  0.650661  0.325212  0.609165  1
  O  O25  1  0.842207  0.682387  0.099589  1
  O  O26  1  0.962243  0.480180  0.839700  1
  O  O27  1  0.830435  0.153213  0.096874  1
