# generated using pymatgen
data_Li2Co4O7F
_symmetry_space_group_name_H-M   'P 1'
_cell_length_a   5.70236500
_cell_length_b   5.78460927
_cell_length_c   5.78480518
_cell_angle_alpha   119.89406392
_cell_angle_beta   89.09472057
_cell_angle_gamma   60.48225644
_symmetry_Int_Tables_number   1
_chemical_formula_structural   Li2Co4O7F
_chemical_formula_sum   'Li2 Co4 O7 F1'
_cell_volume   135.04206027
_cell_formula_units_Z   1
loop_
 _symmetry_equiv_pos_site_id
 _symmetry_equiv_pos_as_xyz
  1  'x, y, z'
loop_
 _atom_site_type_symbol
 _atom_site_label
 _atom_site_symmetry_multiplicity
 _atom_site_fract_x
 _atom_site_fract_y
 _atom_site_fract_z
 _atom_site_occupancy
  Li  Li0  1  0.000052  0.499554  0.500484  1
  Li  Li1  1  0.638388  0.246668  0.114987  1
  Co  Co2  1  0.362534  0.752948  0.884397  1
  Co  Co3  1  0.989091  0.503571  0.997753  1
  Co  Co4  1  0.988783  0.013516  0.507419  1
  Co  Co5  1  0.509603  0.992879  0.497488  1
  O  O6  1  0.768644  0.972470  0.258963  1
  O  O7  1  0.755545  0.999552  0.706332  1
  O  O8  1  0.755156  0.538402  0.245136  1
  O  O9  1  0.247467  0.461291  0.752141  1
  O  O10  1  0.783303  0.467000  0.749350  1
  O  O11  1  0.247135  0.000716  0.291339  1
  O  O12  1  0.228758  0.028661  0.742646  1
  F  F13  1  0.225544  0.522773  0.251566  1
