# generated using pymatgen
data_Li2Cr2(PO4)3
_symmetry_space_group_name_H-M   'P 1'
_cell_length_a   8.63498439
_cell_length_b   8.69399176
_cell_length_c   8.63498474
_cell_angle_alpha   59.68722742
_cell_angle_beta   60.31840052
_cell_angle_gamma   59.68722659
_symmetry_Int_Tables_number   1
_chemical_formula_structural   Li2Cr2(PO4)3
_chemical_formula_sum   'Li4 Cr4 P6 O24'
_cell_volume   457.27981664
_cell_formula_units_Z   2
loop_
 _symmetry_equiv_pos_site_id
 _symmetry_equiv_pos_as_xyz
  1  'x, y, z'
loop_
 _atom_site_type_symbol
 _atom_site_label
 _atom_site_symmetry_multiplicity
 _atom_site_fract_x
 _atom_site_fract_y
 _atom_site_fract_z
 _atom_site_occupancy
  Li  Li0  1  0.323698  0.448439  0.675005  1
  Li  Li1  1  0.824995  0.051561  0.176302  1
  Li  Li2  1  0.175005  0.948439  0.823698  1
  Li  Li3  1  0.676302  0.551561  0.324995  1
  Cr  Cr4  1  0.138953  0.143377  0.138894  1
  Cr  Cr5  1  0.361106  0.356623  0.361047  1
  Cr  Cr6  1  0.638894  0.643377  0.638953  1
  Cr  Cr7  1  0.861047  0.856623  0.861106  1
  P  P8  1  0.034184  0.750000  0.465816  1
  P  P9  1  0.965816  0.250000  0.534184  1
  P  P10  1  0.461491  0.033401  0.753083  1
  P  P11  1  0.746917  0.466599  0.038509  1
  P  P12  1  0.253083  0.533401  0.961491  1
  P  P13  1  0.538509  0.966599  0.246917  1
  O  O14  1  0.134245  0.287794  0.508185  1
  O  O15  1  0.299940  0.493942  0.128341  1
  O  O16  1  0.048638  0.921080  0.277703  1
  O  O17  1  0.527531  0.119615  0.296428  1
  O  O18  1  0.008185  0.787794  0.634245  1
  O  O19  1  0.222297  0.578920  0.451362  1
  O  O20  1  0.269789  0.055313  0.918489  1
  O  O21  1  0.437973  0.229536  0.591007  1
  O  O22  1  0.581511  0.444687  0.230211  1
  O  O23  1  0.203572  0.380385  0.972469  1
  O  O24  1  0.091007  0.729536  0.937973  1
  O  O25  1  0.371659  0.006058  0.200060  1
  O  O26  1  0.628341  0.993942  0.799940  1
  O  O27  1  0.908993  0.270464  0.062027  1
  O  O28  1  0.796428  0.619615  0.027531  1
  O  O29  1  0.418490  0.555313  0.769789  1
  O  O30  1  0.562027  0.770464  0.408993  1
  O  O31  1  0.730211  0.944687  0.081510  1
  O  O32  1  0.777703  0.421080  0.548638  1
  O  O33  1  0.991815  0.212206  0.365755  1
  O  O34  1  0.472469  0.880385  0.703572  1
  O  O35  1  0.951362  0.078920  0.722297  1
  O  O36  1  0.700060  0.506058  0.871659  1
  O  O37  1  0.865755  0.712206  0.491815  1
