# generated using pymatgen
data_K4ZrH10C8O21
_symmetry_space_group_name_H-M   'P 1'
_cell_length_a   11.08438766
_cell_length_b   12.65425967
_cell_length_c   16.56091252
_cell_angle_alpha   90.00000000
_cell_angle_beta   96.51246767
_cell_angle_gamma   90.00000000
_symmetry_Int_Tables_number   1
_chemical_formula_structural   K4ZrH10C8O21
_chemical_formula_sum   'K16 Zr4 H40 C32 O84'
_cell_volume   2307.92246466
_cell_formula_units_Z   4
loop_
 _symmetry_equiv_pos_site_id
 _symmetry_equiv_pos_as_xyz
  1  'x, y, z'
loop_
 _atom_site_type_symbol
 _atom_site_label
 _atom_site_symmetry_multiplicity
 _atom_site_fract_x
 _atom_site_fract_y
 _atom_site_fract_z
 _atom_site_occupancy
  K  K0  1  0.504835  0.577131  0.816653  1
  K  K1  1  0.495165  0.077131  0.683347  1
  K  K2  1  0.495165  0.422869  0.183347  1
  K  K3  1  0.504835  0.922869  0.316653  1
  K  K4  1  0.865249  0.346403  0.761090  1
  K  K5  1  0.134751  0.846403  0.738910  1
  K  K6  1  0.134751  0.653597  0.238910  1
  K  K7  1  0.865249  0.153596  0.261090  1
  K  K8  1  0.596790  0.160571  0.093252  1
  K  K9  1  0.403210  0.660571  0.406748  1
  K  K10  1  0.403210  0.839429  0.906748  1
  K  K11  1  0.596790  0.339429  0.593252  1
  K  K12  1  0.016209  0.738017  0.005856  1
  K  K13  1  0.983791  0.238017  0.494144  1
  K  K14  1  0.983791  0.261983  0.994144  1
  K  K15  1  0.016209  0.761983  0.505856  1
  Zr  Zr16  1  0.250808  0.343999  0.827394  1
  Zr  Zr17  1  0.749192  0.843999  0.672606  1
  Zr  Zr18  1  0.749192  0.656001  0.172606  1
  Zr  Zr19  1  0.250808  0.156001  0.327394  1
  H  H20  1  0.895407  0.388392  0.341547  1
  H  H21  1  0.104593  0.888392  0.158453  1
  H  H22  1  0.104593  0.611608  0.658453  1
  H  H23  1  0.895407  0.111608  0.841547  1
  H  H24  1  0.789097  0.370555  0.396817  1
  H  H25  1  0.210903  0.870555  0.103183  1
  H  H26  1  0.210903  0.629445  0.603183  1
  H  H27  1  0.789097  0.129445  0.896817  1
  H  H28  1  0.679693  0.204713  0.776051  1
  H  H29  1  0.320307  0.704713  0.723949  1
  H  H30  1  0.320307  0.795287  0.223949  1
  H  H31  1  0.679693  0.295287  0.276051  1
  H  H32  1  0.631435  0.324057  0.775977  1
  H  H33  1  0.368565  0.824057  0.724023  1
  H  H34  1  0.368565  0.675943  0.224023  1
  H  H35  1  0.631435  0.175943  0.275977  1
  H  H36  1  0.175254  0.504099  0.503535  1
  H  H37  1  0.824746  0.004099  0.996465  1
  H  H38  1  0.824746  0.495901  0.496465  1
  H  H39  1  0.175254  0.995901  0.003535  1
  H  H40  1  0.095522  0.555051  0.431208  1
  H  H41  1  0.904478  0.055051  0.068792  1
  H  H42  1  0.904478  0.444949  0.568792  1
  H  H43  1  0.095522  0.944949  0.931208  1
  H  H44  1  0.559222  0.053068  0.915811  1
  H  H45  1  0.440778  0.553068  0.584189  1
  H  H46  1  0.440778  0.946932  0.084189  1
  H  H47  1  0.559222  0.446932  0.415811  1
  H  H48  1  0.486507  0.154446  0.885197  1
  H  H49  1  0.513493  0.654446  0.614803  1
  H  H50  1  0.513493  0.845554  0.114803  1
  H  H51  1  0.486507  0.345554  0.385197  1
  H  H52  1  0.268449  0.631563  0.012895  1
  H  H53  1  0.731551  0.131563  0.487105  1
  H  H54  1  0.731551  0.368437  0.987105  1
  H  H55  1  0.268449  0.868437  0.512895  1
  H  H56  1  0.255055  0.585000  0.101522  1
  H  H57  1  0.744945  0.085000  0.398478  1
  H  H58  1  0.744945  0.415000  0.898478  1
  H  H59  1  0.255055  0.915000  0.601522  1
  C  C60  1  0.170608  0.387898  0.646629  1
  C  C61  1  0.829392  0.887898  0.853371  1
  C  C62  1  0.829392  0.612102  0.353371  1
  C  C63  1  0.170608  0.112102  0.146629  1
  C  C64  1  0.309880  0.405562  0.657293  1
  C  C65  1  0.690120  0.905562  0.842707  1
  C  C66  1  0.690120  0.594438  0.342707  1
  C  C67  1  0.309880  0.094438  0.157293  1
  C  C68  1  0.439884  0.356874  0.975928  1
  C  C69  1  0.560116  0.856874  0.524072  1
  C  C70  1  0.560116  0.643126  0.024072  1
  C  C71  1  0.439884  0.143126  0.475928  1
  C  C72  1  0.318258  0.335083  0.011366  1
  C  C73  1  0.681742  0.835083  0.488634  1
  C  C74  1  0.681742  0.664917  0.988634  1
  C  C75  1  0.318258  0.164917  0.511366  1
  C  C76  1  0.173730  0.581153  0.860210  1
  C  C77  1  0.826270  0.081153  0.639790  1
  C  C78  1  0.826270  0.418847  0.139790  1
  C  C79  1  0.173730  0.918847  0.360210  1
  C  C80  1  0.052645  0.516787  0.874547  1
  C  C81  1  0.947355  0.016787  0.625453  1
  C  C82  1  0.947355  0.483213  0.125453  1
  C  C83  1  0.052645  0.983213  0.374547  1
  C  C84  1  0.112701  0.133063  0.822994  1
  C  C85  1  0.887299  0.633063  0.677006  1
  C  C86  1  0.887299  0.866937  0.177006  1
  C  C87  1  0.112701  0.366937  0.322994  1
  C  C88  1  0.247141  0.103035  0.817007  1
  C  C89  1  0.752859  0.603035  0.682993  1
  C  C90  1  0.752859  0.896965  0.182993  1
  C  C91  1  0.247141  0.396965  0.317007  1
  O  O92  1  0.127529  0.364657  0.714231  1
  O  O93  1  0.872471  0.864657  0.785769  1
  O  O94  1  0.872471  0.635343  0.285769  1
  O  O95  1  0.127529  0.135343  0.214231  1
  O  O96  1  0.110294  0.396967  0.579153  1
  O  O97  1  0.889706  0.896967  0.920847  1
  O  O98  1  0.889706  0.603033  0.420847  1
  O  O99  1  0.110294  0.103033  0.079153  1
  O  O100  1  0.361126  0.386895  0.730074  1
  O  O101  1  0.638874  0.886895  0.769926  1
  O  O102  1  0.638874  0.613105  0.269926  1
  O  O103  1  0.361126  0.113105  0.230074  1
  O  O104  1  0.362255  0.436749  0.599250  1
  O  O105  1  0.637745  0.936749  0.900750  1
  O  O106  1  0.637745  0.563251  0.400750  1
  O  O107  1  0.362255  0.063251  0.099250  1
  O  O108  1  0.426886  0.367263  0.897392  1
  O  O109  1  0.573114  0.867263  0.602608  1
  O  O110  1  0.573114  0.632737  0.102608  1
  O  O111  1  0.426886  0.132737  0.397392  1
  O  O112  1  0.536688  0.360866  0.021285  1
  O  O113  1  0.463312  0.860866  0.478715  1
  O  O114  1  0.463312  0.639134  0.978715  1
  O  O115  1  0.536688  0.139134  0.521285  1
  O  O116  1  0.224490  0.335467  0.955171  1
  O  O117  1  0.775510  0.835467  0.544829  1
  O  O118  1  0.775510  0.664533  0.044829  1
  O  O119  1  0.224490  0.164533  0.455171  1
  O  O120  1  0.315095  0.316166  0.083790  1
  O  O121  1  0.684905  0.816166  0.416210  1
  O  O122  1  0.684905  0.683834  0.916210  1
  O  O123  1  0.315095  0.183834  0.583790  1
  O  O124  1  0.254789  0.520374  0.836632  1
  O  O125  1  0.745211  0.020374  0.663368  1
  O  O126  1  0.745211  0.479626  0.163368  1
  O  O127  1  0.254789  0.979626  0.336632  1
  O  O128  1  0.174245  0.677617  0.870878  1
  O  O129  1  0.825755  0.177617  0.629122  1
  O  O130  1  0.825755  0.322383  0.129122  1
  O  O131  1  0.174245  0.822383  0.370878  1
  O  O132  1  0.662780  0.425613  0.821570  1
  O  O133  1  0.337220  0.925613  0.678430  1
  O  O134  1  0.337220  0.574387  0.178430  1
  O  O135  1  0.662780  0.074387  0.321570  1
  O  O136  1  0.961395  0.553911  0.892379  1
  O  O137  1  0.038605  0.053911  0.607621  1
  O  O138  1  0.038605  0.446089  0.107621  1
  O  O139  1  0.961395  0.946089  0.392379  1
  O  O140  1  0.095111  0.233254  0.832773  1
  O  O141  1  0.904889  0.733254  0.667227  1
  O  O142  1  0.904889  0.766746  0.167227  1
  O  O143  1  0.095111  0.266746  0.332773  1
  O  O144  1  0.033514  0.062816  0.819558  1
  O  O145  1  0.966486  0.562816  0.680442  1
  O  O146  1  0.966486  0.937184  0.180442  1
  O  O147  1  0.033514  0.437184  0.319558  1
  O  O148  1  0.318323  0.185412  0.815410  1
  O  O149  1  0.681677  0.685412  0.684590  1
  O  O150  1  0.681677  0.814588  0.184590  1
  O  O151  1  0.318323  0.314588  0.315410  1
  O  O152  1  0.279832  0.010140  0.815176  1
  O  O153  1  0.720168  0.510140  0.684824  1
  O  O154  1  0.720168  0.989860  0.184824  1
  O  O155  1  0.279832  0.489860  0.315176  1
  O  O156  1  0.175504  0.657314  0.650023  1
  O  O157  1  0.824496  0.157314  0.849977  1
  O  O158  1  0.824496  0.342686  0.349977  1
  O  O159  1  0.175504  0.842686  0.150023  1
  O  O160  1  0.378559  0.751718  0.755002  1
  O  O161  1  0.621441  0.251718  0.744998  1
  O  O162  1  0.621441  0.248282  0.244998  1
  O  O163  1  0.378559  0.748282  0.255002  1
  O  O164  1  0.165472  0.930335  0.971536  1
  O  O165  1  0.834528  0.430335  0.528464  1
  O  O166  1  0.834528  0.069665  0.028464  1
  O  O167  1  0.165472  0.569665  0.471536  1
  O  O168  1  0.467390  0.623203  0.567096  1
  O  O169  1  0.532610  0.123203  0.932904  1
  O  O170  1  0.532610  0.376797  0.432904  1
  O  O171  1  0.467390  0.876797  0.067096  1
  O  O172  1  0.206460  0.608402  0.046371  1
  O  O173  1  0.793540  0.108402  0.453629  1
  O  O174  1  0.793540  0.391598  0.953629  1
  O  O175  1  0.206460  0.891598  0.546371  1
