# generated using pymatgen
data_NaSbAsCO7
_symmetry_space_group_name_H-M   'P 1'
_cell_length_a   9.40365601
_cell_length_b   6.91753589
_cell_length_c   5.67436272
_cell_angle_alpha   90.00000000
_cell_angle_beta   88.99676625
_cell_angle_gamma   90.00000000
_symmetry_Int_Tables_number   1
_chemical_formula_structural   NaSbAsCO7
_chemical_formula_sum   'Na2 Sb2 As2 C2 O14'
_cell_volume   369.06143829
_cell_formula_units_Z   2
loop_
 _symmetry_equiv_pos_site_id
 _symmetry_equiv_pos_as_xyz
  1  'x, y, z'
loop_
 _atom_site_type_symbol
 _atom_site_label
 _atom_site_symmetry_multiplicity
 _atom_site_fract_x
 _atom_site_fract_y
 _atom_site_fract_z
 _atom_site_occupancy
  Na  Na0  1  0.208696  0.491355  0.236420  1
  Na  Na1  1  0.791304  0.991355  0.763580  1
  Sb  Sb2  1  0.342644  0.759616  0.793727  1
  Sb  Sb3  1  0.657356  0.259616  0.206273  1
  As  As4  1  0.428344  0.253203  0.716949  1
  As  As5  1  0.571656  0.753203  0.283051  1
  C  C6  1  0.074600  0.742742  0.723152  1
  C  C7  1  0.925400  0.242742  0.276848  1
  O  O8  1  0.053484  0.255746  0.309560  1
  O  O9  1  0.135443  0.744457  0.937390  1
  O  O10  1  0.174066  0.729709  0.548692  1
  O  O11  1  0.320865  0.059627  0.794597  1
  O  O12  1  0.334254  0.451572  0.820511  1
  O  O13  1  0.405879  0.736394  0.155146  1
  O  O14  1  0.458355  0.273428  0.414209  1
  O  O15  1  0.541645  0.773428  0.585791  1
  O  O16  1  0.594121  0.236394  0.844854  1
  O  O17  1  0.665746  0.951572  0.179489  1
  O  O18  1  0.679135  0.559627  0.205403  1
  O  O19  1  0.825934  0.229709  0.451308  1
  O  O20  1  0.864557  0.244457  0.062610  1
  O  O21  1  0.946516  0.755746  0.690440  1
