# generated using pymatgen
data_Li8Mn13Cr3O32
_symmetry_space_group_name_H-M   'P 1'
_cell_length_a   8.28480192
_cell_length_b   10.38461570
_cell_length_c   8.28546853
_cell_angle_alpha   66.28776040
_cell_angle_beta   89.30470799
_cell_angle_gamma   112.70328451
_symmetry_Int_Tables_number   1
_chemical_formula_structural   Li8Mn13Cr3O32
_chemical_formula_sum   'Li8 Mn13 Cr3 O32'
_cell_volume   590.14997345
_cell_formula_units_Z   1
loop_
 _symmetry_equiv_pos_site_id
 _symmetry_equiv_pos_as_xyz
  1  'x, y, z'
loop_
 _atom_site_type_symbol
 _atom_site_label
 _atom_site_symmetry_multiplicity
 _atom_site_fract_x
 _atom_site_fract_y
 _atom_site_fract_z
 _atom_site_occupancy
  Li  Li0  1  0.934370  0.115626  0.819124  1
  Li  Li1  1  0.431952  0.112132  0.320036  1
  Li  Li2  1  0.815340  0.383031  0.933079  1
  Li  Li3  1  0.316081  0.382932  0.432534  1
  Li  Li4  1  0.683990  0.615758  0.567516  1
  Li  Li5  1  0.183129  0.615872  0.068213  1
  Li  Li6  1  0.564783  0.883248  0.681684  1
  Li  Li7  1  0.067088  0.886552  0.180885  1
  Mn  Mn8  1  0.249476  0.999490  0.750496  1
  Mn  Mn9  1  0.749644  0.999422  0.250361  1
  Mn  Mn10  1  0.622800  0.244631  0.626608  1
  Mn  Mn11  1  0.871068  0.244884  0.378151  1
  Mn  Mn12  1  0.375112  0.249641  0.875296  1
  Mn  Mn13  1  0.124822  0.249785  0.125587  1
  Mn  Mn14  1  0.749655  0.499337  0.250413  1
  Mn  Mn15  1  0.998301  0.498438  0.500179  1
  Mn  Mn16  1  0.500935  0.500335  0.000583  1
  Mn  Mn17  1  0.124126  0.749300  0.625399  1
  Mn  Mn18  1  0.628116  0.753908  0.122543  1
  Mn  Mn19  1  0.876342  0.754105  0.874207  1
  Mn  Mn20  1  0.374383  0.748985  0.375187  1
  Cr  Cr21  1  0.000943  0.999512  0.499090  1
  Cr  Cr22  1  0.498108  0.999329  0.001837  1
  Cr  Cr23  1  0.249605  0.499444  0.750365  1
  O  O24  1  0.495329  0.019716  0.750343  1
  O  O25  1  0.769675  0.019940  0.475640  1
  O  O26  1  0.268506  0.023581  0.974239  1
  O  O27  1  0.997488  0.023718  0.245145  1
  O  O28  1  0.104730  0.235940  0.368592  1
  O  O29  1  0.604190  0.235649  0.869220  1
  O  O30  1  0.394456  0.254710  0.638922  1
  O  O31  1  0.893492  0.254887  0.139774  1
  O  O32  1  0.145255  0.263777  0.881828  1
  O  O33  1  0.638130  0.245633  0.392690  1
  O  O34  1  0.854835  0.241574  0.613315  1
  O  O35  1  0.355526  0.243328  0.112355  1
  O  O36  1  0.481290  0.476534  0.776915  1
  O  O37  1  0.253489  0.476629  0.004904  1
  O  O38  1  0.974620  0.473701  0.275846  1
  O  O39  1  0.749227  0.473526  0.501250  1
  O  O40  1  0.017963  0.522386  0.723804  1
  O  O41  1  0.245728  0.522175  0.495915  1
  O  O42  1  0.524672  0.525024  0.224985  1
  O  O43  1  0.750007  0.525165  0.999557  1
  O  O44  1  0.353974  0.735122  0.618881  1
  O  O45  1  0.143712  0.755520  0.388364  1
  O  O46  1  0.644337  0.757133  0.887471  1
  O  O47  1  0.861037  0.753056  0.108126  1
  O  O48  1  0.605751  0.743899  0.360934  1
  O  O49  1  0.894961  0.763201  0.631568  1
  O  O50  1  0.394451  0.762877  0.132184  1
  O  O51  1  0.104788  0.744140  0.861805  1
  O  O52  1  0.501750  0.975079  0.255719  1
  O  O53  1  0.003610  0.979042  0.750669  1
  O  O54  1  0.230567  0.975391  0.526777  1
  O  O55  1  0.729417  0.978864  0.025070  1
