# generated using pymatgen
data_LiSbWO6
_symmetry_space_group_name_H-M   'P 1'
_cell_length_a   7.33310860
_cell_length_b   7.33310860
_cell_length_c   10.32179305
_cell_angle_alpha   90.00000000
_cell_angle_beta   90.00000000
_cell_angle_gamma   90.00000000
_symmetry_Int_Tables_number   1
_chemical_formula_structural   LiSbWO6
_chemical_formula_sum   'Li4 Sb4 W4 O24'
_cell_volume   555.04907226
_cell_formula_units_Z   4
loop_
 _symmetry_equiv_pos_site_id
 _symmetry_equiv_pos_as_xyz
  1  'x, y, z'
loop_
 _atom_site_type_symbol
 _atom_site_label
 _atom_site_symmetry_multiplicity
 _atom_site_fract_x
 _atom_site_fract_y
 _atom_site_fract_z
 _atom_site_occupancy
  Li  Li0  1  0.750000  0.482512  0.125000  1
  Li  Li1  1  0.017488  0.750000  0.375000  1
  Li  Li2  1  0.750000  0.017488  0.625000  1
  Li  Li3  1  0.482512  0.750000  0.875000  1
  Sb  Sb4  1  0.750000  0.992400  0.125000  1
  Sb  Sb5  1  0.507600  0.750000  0.375000  1
  Sb  Sb6  1  0.750000  0.507600  0.625000  1
  Sb  Sb7  1  0.992400  0.750000  0.875000  1
  W  W8  1  0.250000  0.992681  0.125000  1
  W  W9  1  0.507319  0.250000  0.375000  1
  W  W10  1  0.250000  0.507319  0.625000  1
  W  W11  1  0.992681  0.250000  0.875000  1
  O  O12  1  0.789452  0.789452  0.000000  1
  O  O13  1  0.176584  0.176584  0.000000  1
  O  O14  1  0.807271  0.197531  0.004275  1
  O  O15  1  0.197531  0.807271  0.995725  1
  O  O16  1  0.984117  0.494706  0.942749  1
  O  O17  1  0.515883  0.494706  0.307251  1
  O  O18  1  0.302468  0.807271  0.254275  1
  O  O19  1  0.710548  0.789452  0.250000  1
  O  O20  1  0.323416  0.176584  0.250000  1
  O  O21  1  0.692729  0.197531  0.245725  1
  O  O22  1  0.005294  0.984117  0.192749  1
  O  O23  1  0.005294  0.515883  0.557251  1
  O  O24  1  0.323416  0.323416  0.500000  1
  O  O25  1  0.302468  0.692729  0.495725  1
  O  O26  1  0.710548  0.710548  0.500000  1
  O  O27  1  0.692729  0.302468  0.504275  1
  O  O28  1  0.515883  0.005294  0.442749  1
  O  O29  1  0.984117  0.005294  0.807251  1
  O  O30  1  0.176584  0.323416  0.750000  1
  O  O31  1  0.807271  0.302468  0.745725  1
  O  O32  1  0.789452  0.710548  0.750000  1
  O  O33  1  0.197531  0.692729  0.754275  1
  O  O34  1  0.494706  0.515883  0.692749  1
  O  O35  1  0.494706  0.984117  0.057251  1
