# generated using pymatgen
data_Ba2La3Ti2Cr3O15
_symmetry_space_group_name_H-M   'P 1'
_cell_length_a   3.97560635
_cell_length_b   19.85146719
_cell_length_c   5.64384631
_cell_angle_alpha   44.70326674
_cell_angle_beta   90.00000000
_cell_angle_gamma   90.00000000
_symmetry_Int_Tables_number   1
_chemical_formula_structural   Ba2La3Ti2Cr3O15
_chemical_formula_sum   'Ba2 La3 Ti2 Cr3 O15'
_cell_volume   313.32516618
_cell_formula_units_Z   1
loop_
 _symmetry_equiv_pos_site_id
 _symmetry_equiv_pos_as_xyz
  1  'x, y, z'
loop_
 _atom_site_type_symbol
 _atom_site_label
 _atom_site_symmetry_multiplicity
 _atom_site_fract_x
 _atom_site_fract_y
 _atom_site_fract_z
 _atom_site_occupancy
  Ba  Ba0  1  0.000000  0.996881  0.007798  1
  Ba  Ba1  1  0.000000  0.203119  0.992202  1
  La  La2  1  0.000000  0.406649  0.983378  1
  La  La3  1  0.000000  0.600000  0.000000  1
  La  La4  1  0.000000  0.793351  0.016622  1
  Ti  Ti5  1  0.500000  0.203521  0.491198  1
  Ti  Ti6  1  0.500000  0.996479  0.508802  1
  Cr  Cr7  1  0.500000  0.600000  0.500000  1
  Cr  Cr8  1  0.500000  0.401767  0.495582  1
  Cr  Cr9  1  0.500000  0.798233  0.504418  1
  O  O10  1  0.500000  0.100000  0.500000  1
  O  O11  1  0.500000  0.305732  0.471363  1
  O  O12  1  0.500000  0.500921  0.498877  1
  O  O13  1  0.500000  0.100000  0.000000  1
  O  O14  1  0.500000  0.699079  0.501123  1
  O  O15  1  0.500000  0.305732  -0.000022  1
  O  O16  1  0.500000  0.894268  0.528637  1
  O  O17  1  0.500000  0.500921  0.996518  1
  O  O18  1  0.500000  0.699079  0.003482  1
  O  O19  1  0.500000  0.894268  0.000022  1
  O  O20  1  0.000000  0.992946  0.517634  1
  O  O21  1  0.000000  0.207054  0.482366  1
  O  O22  1  0.000000  0.410969  0.472577  1
  O  O23  1  0.000000  0.600000  0.500000  1
  O  O24  1  0.000000  0.789031  0.527423  1
