# generated using pymatgen
data_Li5Fe8(BO3)8
_symmetry_space_group_name_H-M   'P 1'
_cell_length_a   5.26757106
_cell_length_b   9.08061526
_cell_length_c   10.21422965
_cell_angle_alpha   89.99919445
_cell_angle_beta   91.34515450
_cell_angle_gamma   90.01995430
_symmetry_Int_Tables_number   1
_chemical_formula_structural   Li5Fe8(BO3)8
_chemical_formula_sum   'Li5 Fe8 B8 O24'
_cell_volume   488.44039055
_cell_formula_units_Z   1
loop_
 _symmetry_equiv_pos_site_id
 _symmetry_equiv_pos_as_xyz
  1  'x, y, z'
loop_
 _atom_site_type_symbol
 _atom_site_label
 _atom_site_symmetry_multiplicity
 _atom_site_fract_x
 _atom_site_fract_y
 _atom_site_fract_z
 _atom_site_occupancy
  Li  Li0  1  0.338833  0.014589  0.844304  1
  Li  Li1  1  0.656372  0.997665  0.119857  1
  Li  Li2  1  0.157889  0.494663  0.596533  1
  Li  Li3  1  0.844668  0.484429  0.337356  1
  Li  Li4  1  0.837246  0.505484  0.835409  1
  Fe  Fe5  1  0.159256  0.172954  0.124975  1
  Fe  Fe6  1  0.833922  0.153967  0.370953  1
  Fe  Fe7  1  0.334894  0.342368  0.872596  1
  Fe  Fe8  1  0.646901  0.320742  0.618603  1
  Fe  Fe9  1  0.347728  0.667440  0.370154  1
  Fe  Fe10  1  0.161208  0.836840  0.620005  1
  Fe  Fe11  1  0.657523  0.663659  0.119338  1
  Fe  Fe12  1  0.838906  0.843364  0.868089  1
  B  B13  1  0.150636  0.167644  0.625328  1
  B  B14  1  0.332468  0.341267  0.367731  1
  B  B15  1  0.830277  0.169718  0.881604  1
  B  B16  1  0.658024  0.330134  0.122105  1
  B  B17  1  0.335438  0.669768  0.868859  1
  B  B18  1  0.672801  0.667077  0.627777  1
  B  B19  1  0.164915  0.837296  0.117897  1
  B  B20  1  0.840856  0.825053  0.361428  1
  O  O21  1  0.264270  0.034679  0.652401  1
  O  O22  1  0.089690  0.168676  0.917751  1
  O  O23  1  0.690686  0.042320  0.891960  1
  O  O24  1  0.203445  0.218408  0.315574  1
  O  O25  1  0.280636  0.297693  0.659725  1
  O  O26  1  0.793272  0.200201  0.147938  1
  O  O27  1  0.912964  0.176504  0.568830  1
  O  O28  1  0.409050  0.317106  0.076902  1
  O  O29  1  0.195104  0.467223  0.394675  1
  O  O30  1  0.589669  0.335105  0.396977  1
  O  O31  1  0.720568  0.300389  0.837055  1
  O  O32  1  0.194881  0.544399  0.857025  1
  O  O33  1  0.768398  0.464538  0.140666  1
  O  O34  1  0.306429  0.715093  0.155696  1
  O  O35  1  0.416306  0.678841  0.589181  1
  O  O36  1  0.790236  0.531796  0.633970  1
  O  O37  1  0.590127  0.664918  0.916885  1
  O  O38  1  0.074675  0.814422  0.429645  1
  O  O39  1  0.231921  0.805575  0.830086  1
  O  O40  1  0.728349  0.689502  0.319536  1
  O  O41  1  0.807350  0.793542  0.664445  1
  O  O42  1  0.278534  0.973378  0.113327  1
  O  O43  1  0.907394  0.821115  0.082207  1
  O  O44  1  0.722854  0.951607  0.330684  1
