# generated using pymatgen
data_Ti3FeNi2(PO4)6
_symmetry_space_group_name_H-M   'P 1'
_cell_length_a   8.49322554
_cell_length_b   8.49322543
_cell_length_c   8.49322616
_cell_angle_alpha   61.11989244
_cell_angle_beta   61.11989448
_cell_angle_gamma   61.11989259
_symmetry_Int_Tables_number   1
_chemical_formula_structural   Ti3FeNi2(PO4)6
_chemical_formula_sum   'Ti3 Fe1 Ni2 P6 O24'
_cell_volume   444.13364585
_cell_formula_units_Z   1
loop_
 _symmetry_equiv_pos_site_id
 _symmetry_equiv_pos_as_xyz
  1  'x, y, z'
loop_
 _atom_site_type_symbol
 _atom_site_label
 _atom_site_symmetry_multiplicity
 _atom_site_fract_x
 _atom_site_fract_y
 _atom_site_fract_z
 _atom_site_occupancy
  Ti  Ti0  1  0.142938  0.142938  0.142938  1
  Ti  Ti1  1  0.355020  0.355020  0.355020  1
  Ti  Ti2  1  0.646033  0.646033  0.646033  1
  Fe  Fe3  1  0.856970  0.856970  0.856970  1
  Ni  Ni4  1  0.996760  0.996760  0.996760  1
  Ni  Ni5  1  0.499229  0.499229  0.499229  1
  P  P6  1  0.252326  0.544087  0.953885  1
  P  P7  1  0.544087  0.953885  0.252326  1
  P  P8  1  0.953885  0.252326  0.544087  1
  P  P9  1  0.047925  0.752689  0.453359  1
  P  P10  1  0.453359  0.047925  0.752689  1
  P  P11  1  0.752689  0.453359  0.047925  1
  O  O12  1  0.112933  0.330053  0.485013  1
  O  O13  1  0.330053  0.485013  0.112933  1
  O  O14  1  0.057688  0.910252  0.253110  1
  O  O15  1  0.485013  0.112933  0.330053  1
  O  O16  1  0.016656  0.818607  0.602645  1
  O  O17  1  0.244494  0.588038  0.431856  1
  O  O18  1  0.253110  0.057688  0.910252  1
  O  O19  1  0.431856  0.244494  0.588038  1
  O  O20  1  0.185008  0.380095  0.002300  1
  O  O21  1  0.588038  0.431856  0.244494  1
  O  O22  1  0.099126  0.737155  0.949566  1
  O  O23  1  0.380095  0.002300  0.185008  1
  O  O24  1  0.602645  0.016656  0.818607  1
  O  O25  1  0.910252  0.253110  0.057688  1
  O  O26  1  0.414287  0.552107  0.757432  1
  O  O27  1  0.818607  0.602645  0.016656  1
  O  O28  1  0.552107  0.757432  0.414287  1
  O  O29  1  0.737155  0.949566  0.099126  1
  O  O30  1  0.757432  0.414287  0.552107  1
  O  O31  1  0.002300  0.185008  0.380095  1
  O  O32  1  0.502957  0.881991  0.685411  1
  O  O33  1  0.949566  0.099126  0.737155  1
  O  O34  1  0.685411  0.502957  0.881991  1
  O  O35  1  0.881991  0.685411  0.502957  1
