# generated using pymatgen
data_Li2Ti3NbO8
_symmetry_space_group_name_H-M   'P 1'
_cell_length_a   8.55784020
_cell_length_b   8.55851404
_cell_length_c   8.55919795
_cell_angle_alpha   90.05361016
_cell_angle_beta   89.94272399
_cell_angle_gamma   90.00199565
_symmetry_Int_Tables_number   1
_chemical_formula_structural   Li2Ti3NbO8
_chemical_formula_sum   'Li8 Ti12 Nb4 O32'
_cell_volume   626.89557299
_cell_formula_units_Z   4
loop_
 _symmetry_equiv_pos_site_id
 _symmetry_equiv_pos_as_xyz
  1  'x, y, z'
loop_
 _atom_site_type_symbol
 _atom_site_label
 _atom_site_symmetry_multiplicity
 _atom_site_fract_x
 _atom_site_fract_y
 _atom_site_fract_z
 _atom_site_occupancy
  Li  Li0  1  0.996796  0.997036  0.996805  1
  Li  Li1  1  0.253209  0.253001  0.253123  1
  Li  Li2  1  0.246875  0.746643  0.753211  1
  Li  Li3  1  0.502815  0.003334  0.496804  1
  Li  Li4  1  0.496669  0.503064  0.002783  1
  Li  Li5  1  0.753389  0.247088  0.747055  1
  Li  Li6  1  0.747096  0.753208  0.246782  1
  Li  Li7  1  0.003195  0.496760  0.503456  1
  Ti  Ti8  1  0.123223  0.126487  0.624941  1
  Ti  Ti9  1  0.124986  0.376697  0.873397  1
  Ti  Ti10  1  0.126826  0.624928  0.123490  1
  Ti  Ti11  1  0.373402  0.374964  0.623108  1
  Ti  Ti12  1  0.375180  0.623263  0.373225  1
  Ti  Ti13  1  0.376604  0.873263  0.124917  1
  Ti  Ti14  1  0.623437  0.373426  0.374929  1
  Ti  Ti15  1  0.624798  0.123382  0.126840  1
  Ti  Ti16  1  0.626707  0.875150  0.876757  1
  Ti  Ti17  1  0.873192  0.125058  0.376820  1
  Ti  Ti18  1  0.874950  0.876646  0.626612  1
  Ti  Ti19  1  0.876754  0.626861  0.875129  1
  Nb  Nb20  1  0.125018  0.874816  0.374926  1
  Nb  Nb21  1  0.374876  0.124906  0.874866  1
  Nb  Nb22  1  0.625191  0.625074  0.624702  1
  Nb  Nb23  1  0.874879  0.375217  0.125332  1
  O  O24  1  0.109079  0.119334  0.387756  1
  O  O25  1  0.112224  0.890749  0.619477  1
  O  O26  1  0.111991  0.611970  0.888187  1
  O  O27  1  0.130420  0.140758  0.862146  1
  O  O28  1  0.119359  0.387648  0.109254  1
  O  O29  1  0.138107  0.361805  0.638178  1
  O  O30  1  0.137870  0.630321  0.359300  1
  O  O31  1  0.140849  0.862114  0.130386  1
  O  O32  1  0.359208  0.137657  0.630444  1
  O  O33  1  0.362224  0.369442  0.859023  1
  O  O34  1  0.362135  0.637905  0.137980  1
  O  O35  1  0.380606  0.612269  0.609059  1
  O  O36  1  0.369520  0.859150  0.362181  1
  O  O37  1  0.388059  0.387971  0.387892  1
  O  O38  1  0.387552  0.109140  0.119420  1
  O  O39  1  0.390775  0.880407  0.887670  1
  O  O40  1  0.609241  0.380639  0.612224  1
  O  O41  1  0.612467  0.609289  0.380300  1
  O  O42  1  0.611996  0.888041  0.111870  1
  O  O43  1  0.630407  0.359207  0.137672  1
  O  O44  1  0.619403  0.112343  0.890967  1
  O  O45  1  0.637900  0.138052  0.362019  1
  O  O46  1  0.637699  0.869514  0.640869  1
  O  O47  1  0.640832  0.637925  0.869132  1
  O  O48  1  0.859265  0.362338  0.369863  1
  O  O49  1  0.862136  0.130695  0.140915  1
  O  O50  1  0.861954  0.862123  0.861961  1
  O  O51  1  0.880503  0.887740  0.390794  1
  O  O52  1  0.869690  0.640770  0.637829  1
  O  O53  1  0.887899  0.111980  0.612069  1
  O  O54  1  0.887732  0.390950  0.880833  1
  O  O55  1  0.890829  0.619621  0.112461  1
