# generated using pymatgen
data_Li8Mn3Fe5(BO3)8
_symmetry_space_group_name_H-M   'P 1'
_cell_length_a   6.03815794
_cell_length_b   5.24509082
_cell_length_c   16.14375455
_cell_angle_alpha   90.71345817
_cell_angle_beta   98.38978766
_cell_angle_gamma   88.91434651
_symmetry_Int_Tables_number   1
_chemical_formula_structural   Li8Mn3Fe5(BO3)8
_chemical_formula_sum   'Li8 Mn3 Fe5 B8 O24'
_cell_volume   505.69716194
_cell_formula_units_Z   1
loop_
 _symmetry_equiv_pos_site_id
 _symmetry_equiv_pos_as_xyz
  1  'x, y, z'
loop_
 _atom_site_type_symbol
 _atom_site_label
 _atom_site_symmetry_multiplicity
 _atom_site_fract_x
 _atom_site_fract_y
 _atom_site_fract_z
 _atom_site_occupancy
  Li  Li0  1  0.063667  0.847503  0.610331  1
  Li  Li1  1  0.435087  0.152288  0.890915  1
  Li  Li2  1  0.186681  0.650752  0.139426  1
  Li  Li3  1  0.312787  0.349408  0.359653  1
  Li  Li4  1  0.685032  0.651730  0.641111  1
  Li  Li5  1  0.814753  0.347643  0.859132  1
  Li  Li6  1  0.565070  0.848313  0.109499  1
  Li  Li7  1  0.935470  0.151527  0.389866  1
  Mn  Mn8  1  0.524847  0.167665  0.709238  1
  Mn  Mn9  1  0.770226  0.668453  0.459249  1
  Mn  Mn10  1  0.727461  0.331917  0.041127  1
  Fe  Fe11  1  0.274314  0.662989  0.958153  1
  Fe  Fe12  1  0.029023  0.162454  0.211905  1
  Fe  Fe13  1  0.223529  0.339345  0.540835  1
  Fe  Fe14  1  0.472649  0.828109  0.287510  1
  Fe  Fe15  1  0.974812  0.835673  0.792100  1
  B  B16  1  0.036847  0.328356  0.702237  1
  B  B17  1  0.286121  0.832318  0.452479  1
  B  B18  1  0.463277  0.669650  0.798221  1
  B  B19  1  0.214293  0.171383  0.047992  1
  B  B20  1  0.786679  0.830844  0.952027  1
  B  B21  1  0.537565  0.326386  0.204421  1
  B  B22  1  0.713319  0.171002  0.546978  1
  B  B23  1  0.962480  0.670877  0.295981  1
  O  O24  1  0.012976  0.587415  0.691775  1
  O  O25  1  0.168323  0.182670  0.653442  1
  O  O26  1  0.175055  0.708320  0.510175  1
  O  O27  1  0.327476  0.297773  0.991221  1
  O  O28  1  0.078635  0.791488  0.238943  1
  O  O29  1  0.329351  0.819012  0.845292  1
  O  O30  1  0.083217  0.316097  0.096643  1
  O  O31  1  0.261921  0.091337  0.441077  1
  O  O32  1  0.485841  0.410265  0.811240  1
  O  O33  1  0.238683  0.912010  0.058107  1
  O  O34  1  0.415860  0.686381  0.403515  1
  O  O35  1  0.419453  0.207642  0.260483  1
  O  O36  1  0.579898  0.786948  0.741567  1
  O  O37  1  0.578932  0.321157  0.593016  1
  O  O38  1  0.764128  0.090010  0.938895  1
  O  O39  1  0.514681  0.588225  0.191991  1
  O  O40  1  0.736268  0.911700  0.561256  1
  O  O41  1  0.919954  0.681501  0.904585  1
  O  O42  1  0.671213  0.181432  0.157312  1
  O  O43  1  0.924109  0.202401  0.758936  1
  O  O44  1  0.671769  0.713552  0.009200  1
  O  O45  1  0.830613  0.286987  0.490122  1
  O  O46  1  0.829560  0.817643  0.343007  1
  O  O47  1  0.986099  0.411454  0.307811  1
