# generated using pymatgen
data_LiFe2(BO3)2
_symmetry_space_group_name_H-M   'P 1'
_cell_length_a   5.24991226
_cell_length_b   9.08730800
_cell_length_c   10.20399730
_cell_angle_alpha   90.78653293
_cell_angle_beta   90.04837740
_cell_angle_gamma   89.52470429
_symmetry_Int_Tables_number   1
_chemical_formula_structural   LiFe2(BO3)2
_chemical_formula_sum   'Li4 Fe8 B8 O24'
_cell_volume   486.74516568
_cell_formula_units_Z   4
loop_
 _symmetry_equiv_pos_site_id
 _symmetry_equiv_pos_as_xyz
  1  'x, y, z'
loop_
 _atom_site_type_symbol
 _atom_site_label
 _atom_site_symmetry_multiplicity
 _atom_site_fract_x
 _atom_site_fract_y
 _atom_site_fract_z
 _atom_site_occupancy
  Li  Li0  1  0.819858  0.833858  0.157182  1
  Li  Li1  1  0.679496  0.670226  0.416968  1
  Li  Li2  1  0.663515  0.672455  0.907990  1
  Li  Li3  1  0.339708  0.322712  0.655906  1
  Fe  Fe4  1  0.849773  0.151778  0.628954  1
  Fe  Fe5  1  0.817135  0.493388  0.131988  1
  Fe  Fe6  1  0.681090  0.008962  0.874119  1
  Fe  Fe7  1  0.670099  0.326638  0.376676  1
  Fe  Fe8  1  0.318069  0.667459  0.631090  1
  Fe  Fe9  1  0.330685  0.006087  0.128514  1
  Fe  Fe10  1  0.162274  0.853496  0.383951  1
  Fe  Fe11  1  0.171524  0.492659  0.889267  1
  B  B12  1  0.824114  0.495848  0.620150  1
  B  B13  1  0.834704  0.162792  0.130506  1
  B  B14  1  0.656715  0.000554  0.370672  1
  B  B15  1  0.667431  0.337630  0.870896  1
  B  B16  1  0.345799  0.999765  0.635357  1
  B  B17  1  0.324132  0.676069  0.124413  1
  B  B18  1  0.172582  0.503678  0.384071  1
  B  B19  1  0.179631  0.833060  0.880532  1
  O  O20  1  0.908802  0.500932  0.353758  1
  O  O21  1  0.918292  0.841282  0.887039  1
  O  O22  1  0.804904  0.206045  0.847339  1
  O  O23  1  0.764464  0.125541  0.423826  1
  O  O24  1  0.786660  0.867959  0.362697  1
  O  O25  1  0.793077  0.462132  0.919133  1
  O  O26  1  0.677447  0.622877  0.619582  1
  O  O27  1  0.692489  0.040402  0.083208  1
  O  O28  1  0.714970  0.362271  0.582913  1
  O  O29  1  0.708375  0.284442  0.182303  1
  O  O30  1  0.588585  0.676597  0.116179  1
  O  O31  1  0.592782  0.992649  0.686792  1
  O  O32  1  0.411172  0.008272  0.320770  1
  O  O33  1  0.416448  0.342725  0.841552  1
  O  O34  1  0.304808  0.707231  0.830571  1
  O  O35  1  0.280225  0.638408  0.425787  1
  O  O36  1  0.321360  0.381145  0.378534  1
  O  O37  1  0.334160  0.946317  0.928597  1
  O  O38  1  0.184753  0.556056  0.089479  1
  O  O39  1  0.219367  0.128813  0.625705  1
  O  O40  1  0.236832  0.868986  0.589373  1
  O  O41  1  0.192886  0.806740  0.162944  1
  O  O42  1  0.091094  0.155486  0.125437  1
  O  O43  1  0.081290  0.501151  0.655765  1
