# generated using pymatgen
data_Li4Co3TeO8
_symmetry_space_group_name_H-M   'P 1'
_cell_length_a   10.36727745
_cell_length_b   10.36841529
_cell_length_c   14.62555817
_cell_angle_alpha   19.86588668
_cell_angle_beta   19.86225876
_cell_angle_gamma   34.23141411
_symmetry_Int_Tables_number   1
_chemical_formula_structural   Li4Co3TeO8
_chemical_formula_sum   'Li4 Co3 Te1 O8'
_cell_volume   157.15771151
_cell_formula_units_Z   1
loop_
 _symmetry_equiv_pos_site_id
 _symmetry_equiv_pos_as_xyz
  1  'x, y, z'
loop_
 _atom_site_type_symbol
 _atom_site_label
 _atom_site_symmetry_multiplicity
 _atom_site_fract_x
 _atom_site_fract_y
 _atom_site_fract_z
 _atom_site_occupancy
  Li  Li0  1  -0.000002  -0.000006  0.500005  1
  Li  Li1  1  0.000001  0.499999  0.500000  1
  Li  Li2  1  0.500005  0.000004  0.499993  1
  Li  Li3  1  0.499994  0.499997  0.500005  1
  Co  Co4  1  -0.000006  0.499998  0.000005  1
  Co  Co5  1  0.499987  -0.000020  0.000023  1
  Co  Co6  1  0.500014  0.499999  -0.000007  1
  Te  Te7  1  0.000020  0.000077  -0.000056  1
  O  O8  1  0.000282  0.000211  0.260664  1
  O  O9  1  0.997319  0.541330  0.229334  1
  O  O10  1  0.543923  0.002293  0.224280  1
  O  O11  1  0.999720  -0.000210  0.739334  1
  O  O12  1  0.458244  0.455668  0.312491  1
  O  O13  1  0.002679  0.458638  0.770681  1
  O  O14  1  0.456072  0.997701  0.775726  1
  O  O15  1  0.541748  0.544320  0.687523  1
