# generated using pymatgen
data_Na2MnPCO7
_symmetry_space_group_name_H-M   'P 1'
_cell_length_a   8.88033170
_cell_length_b   8.53902089
_cell_length_c   8.49170294
_cell_angle_alpha   104.70731425
_cell_angle_beta   89.16747547
_cell_angle_gamma   89.17215998
_symmetry_Int_Tables_number   1
_chemical_formula_structural   Na2MnPCO7
_chemical_formula_sum   'Na8 Mn4 P4 C4 O28'
_cell_volume   622.64712853
_cell_formula_units_Z   4
loop_
 _symmetry_equiv_pos_site_id
 _symmetry_equiv_pos_as_xyz
  1  'x, y, z'
loop_
 _atom_site_type_symbol
 _atom_site_label
 _atom_site_symmetry_multiplicity
 _atom_site_fract_x
 _atom_site_fract_y
 _atom_site_fract_z
 _atom_site_occupancy
  Na  Na0  1  0.759571  0.377999  0.371141  1
  Na  Na1  1  0.750835  0.115532  0.642046  1
  Na  Na2  1  0.745523  0.622534  0.135671  1
  Na  Na3  1  0.247299  0.130981  0.135749  1
  Na  Na4  1  0.244715  0.365384  0.861012  1
  Na  Na5  1  0.245209  0.612081  0.616277  1
  Na  Na6  1  0.248836  0.886737  0.381410  1
  Na  Na7  1  0.068181  0.767454  0.997122  1
  Mn  Mn8  1  0.649617  0.492265  0.736310  1
  Mn  Mn9  1  0.648218  0.984897  0.227446  1
  Mn  Mn10  1  0.351566  0.517501  0.264319  1
  Mn  Mn11  1  0.354151  0.014501  0.766913  1
  P  P12  1  0.580646  0.273953  0.021707  1
  P  P13  1  0.578884  0.768683  0.517930  1
  P  P14  1  0.424548  0.228496  0.477604  1
  P  P15  1  0.417159  0.727312  0.979317  1
  C  C16  1  0.928959  0.007775  0.261632  1
  C  C17  1  0.930454  0.513907  0.767606  1
  C  C18  1  0.073449  0.490183  0.238579  1
  C  C19  1  0.075572  0.989795  0.739299  1
  O  O20  1  0.933317  0.489973  0.233134  1
  O  O21  1  0.937160  0.986490  0.733426  1
  O  O22  1  0.855748  0.410954  0.654101  1
  O  O23  1  0.853042  0.898768  0.153978  1
  O  O24  1  0.845759  0.111740  0.364026  1
  O  O25  1  0.846652  0.610355  0.876941  1
  O  O26  1  0.673606  0.157355  0.093870  1
  O  O27  1  0.666625  0.634952  0.572618  1
  O  O28  1  0.670172  0.330117  0.889477  1
  O  O29  1  0.672131  0.826459  0.389634  1
  O  O30  1  0.544477  0.430180  0.166304  1
  O  O31  1  0.579158  0.293298  0.544222  1
  O  O32  1  0.567147  0.792174  0.053893  1
  O  O33  1  0.542514  0.918320  0.665214  1
  O  O34  1  0.453863  0.076550  0.325261  1
  O  O35  1  0.427502  0.200818  0.955066  1
  O  O36  1  0.423800  0.702422  0.447392  1
  O  O37  1  0.451779  0.578560  0.826913  1
  O  O38  1  0.330291  0.170495  0.604965  1
  O  O39  1  0.332391  0.355880  0.417723  1
  O  O40  1  0.313722  0.667056  0.099693  1
  O  O41  1  0.320736  0.854470  0.922676  1
  O  O42  1  0.164467  0.389614  0.137683  1
  O  O43  1  0.169845  0.887347  0.641803  1
  O  O44  1  0.150079  0.098492  0.851211  1
  O  O45  1  0.147365  0.598611  0.349514  1
  O  O46  1  0.071565  0.001548  0.253799  1
  O  O47  1  0.073255  0.517986  0.767433  1
