# generated using pymatgen
data_LiFe2P5O16
_symmetry_space_group_name_H-M   'P 1'
_cell_length_a   7.55536643
_cell_length_b   9.44866271
_cell_length_c   10.32005709
_cell_angle_alpha   90.00000000
_cell_angle_beta   111.19054967
_cell_angle_gamma   90.00000000
_symmetry_Int_Tables_number   1
_chemical_formula_structural   LiFe2P5O16
_chemical_formula_sum   'Li2 Fe4 P10 O32'
_cell_volume   686.91425183
_cell_formula_units_Z   2
loop_
 _symmetry_equiv_pos_site_id
 _symmetry_equiv_pos_as_xyz
  1  'x, y, z'
loop_
 _atom_site_type_symbol
 _atom_site_label
 _atom_site_symmetry_multiplicity
 _atom_site_fract_x
 _atom_site_fract_y
 _atom_site_fract_z
 _atom_site_occupancy
  Li  Li0  1  0.248949  0.799960  0.247296  1
  Li  Li1  1  0.748949  0.200040  0.747296  1
  Fe  Fe2  1  0.155762  0.140732  0.533993  1
  Fe  Fe3  1  0.207094  0.369464  0.141312  1
  Fe  Fe4  1  0.707094  0.630536  0.641312  1
  Fe  Fe5  1  0.655762  0.859268  0.033993  1
  P  P6  1  0.010371  0.861504  0.630142  1
  P  P7  1  0.300410  0.294920  0.873553  1
  P  P8  1  0.417652  0.874239  0.699676  1
  P  P9  1  0.352078  0.416622  0.475615  1
  P  P10  1  0.852078  0.583378  0.975615  1
  P  P11  1  0.510371  0.138496  0.130142  1
  P  P12  1  0.493703  0.541760  0.012583  1
  P  P13  1  0.800410  0.705080  0.373553  1
  P  P14  1  0.993703  0.458240  0.512583  1
  P  P15  1  0.917652  0.125761  0.199676  1
  O  O16  1  0.144488  0.297556  0.932756  1
  O  O17  1  0.222145  0.819774  0.720268  1
  O  O18  1  0.043373  0.065247  0.340198  1
  O  O19  1  0.259483  0.231679  0.733327  1
  O  O20  1  0.212184  0.494324  0.544578  1
  O  O21  1  0.384540  0.452259  0.871097  1
  O  O22  1  0.460300  0.697900  0.981283  1
  O  O23  1  0.483310  0.213673  0.982425  1
  O  O24  1  0.050385  0.534202  0.061771  1
  O  O25  1  0.355565  0.988868  0.587414  1
  O  O26  1  0.342868  0.256885  0.493965  1
  O  O27  1  0.278192  0.464727  0.324615  1
  O  O28  1  0.543373  0.934753  0.840198  1
  O  O29  1  0.495097  0.744371  0.652133  1
  O  O30  1  0.550385  0.465798  0.561771  1
  O  O31  1  0.381486  0.200301  0.197111  1
  O  O32  1  0.842868  0.743115  0.993965  1
  O  O33  1  0.438522  0.480437  0.126815  1
  O  O34  1  0.778192  0.535273  0.824615  1
  O  O35  1  0.644488  0.702444  0.432756  1
  O  O36  1  0.488255  0.979504  0.106634  1
  O  O37  1  0.881485  0.799699  0.697111  1
  O  O38  1  0.722145  0.180226  0.220268  1
  O  O39  1  0.938522  0.519563  0.626815  1
  O  O40  1  0.759483  0.768321  0.233327  1
  O  O41  1  0.712184  0.505676  0.044578  1
  O  O42  1  0.988255  0.020496  0.606634  1
  O  O43  1  0.884540  0.547741  0.371097  1
  O  O44  1  0.960300  0.302100  0.481283  1
  O  O45  1  0.983310  0.786327  0.482425  1
  O  O46  1  0.855565  0.011132  0.087414  1
  O  O47  1  0.995097  0.255629  0.152133  1
