# generated using pymatgen
data_Na7(WO3)12
_symmetry_space_group_name_H-M   'P 1'
_cell_length_a   9.58027330
_cell_length_b   9.58073160
_cell_length_c   9.58004525
_cell_angle_alpha   80.40971935
_cell_angle_beta   70.53572775
_cell_angle_gamma   60.00158521
_symmetry_Int_Tables_number   1
_chemical_formula_structural   Na7(WO3)12
_chemical_formula_sum   'Na7 W12 O36'
_cell_volume   717.99936092
_cell_formula_units_Z   1
loop_
 _symmetry_equiv_pos_site_id
 _symmetry_equiv_pos_as_xyz
  1  'x, y, z'
loop_
 _atom_site_type_symbol
 _atom_site_label
 _atom_site_symmetry_multiplicity
 _atom_site_fract_x
 _atom_site_fract_y
 _atom_site_fract_z
 _atom_site_occupancy
  Na  Na0  1  0.750161  0.000465  0.749495  1
  Na  Na1  1  0.416288  0.666667  0.749798  1
  Na  Na2  1  0.917043  0.666667  0.250202  1
  Na  Na3  1  0.083965  0.332864  0.749493  1
  Na  Na4  1  0.583172  0.332864  0.250507  1
  Na  Na5  1  0.666667  0.666667  0.000000  1
  Na  Na6  1  0.249374  0.000465  0.250505  1
  W  W7  1  0.708615  0.331526  0.873754  1
  W  W8  1  0.792984  0.666658  0.622416  1
  W  W9  1  0.373473  0.001817  0.873733  1
  W  W10  1  0.458571  0.332835  0.624349  1
  W  W11  1  0.874745  0.000510  0.375665  1
  W  W12  1  0.959859  0.331526  0.126246  1
  W  W13  1  0.540358  0.666658  0.377584  1
  W  W14  1  0.044226  0.666664  0.873587  1
  W  W15  1  0.624711  0.001817  0.126267  1
  W  W16  1  0.124746  0.000510  0.624335  1
  W  W17  1  0.289110  0.666664  0.126413  1
  W  W18  1  0.208594  0.332835  0.375651  1
  O  O19  1  0.914636  0.666690  0.752078  1
  O  O20  1  0.916389  0.166672  0.750082  1
  O  O21  1  0.584111  0.831867  0.751951  1
  O  O22  1  0.749338  0.501445  0.751944  1
  O  O23  1  0.833418  0.833171  0.499865  1
  O  O24  1  0.666673  0.666654  0.500000  1
  O  O25  1  0.583470  0.333050  0.749958  1
  O  O26  1  0.916939  0.166672  0.249918  1
  O  O27  1  0.333411  0.833171  0.500135  1
  O  O28  1  0.584021  0.831867  0.248049  1
  O  O29  1  0.416366  0.166688  0.750090  1
  O  O30  1  0.250131  0.500124  0.749973  1
  O  O31  1  0.666656  0.166671  0.500005  1
  O  O32  1  0.499908  0.500160  0.500138  1
  O  O33  1  0.749218  0.501445  0.248056  1
  O  O34  1  0.832061  0.831908  0.999984  1
  O  O35  1  0.083608  0.833202  0.749966  1
  O  O36  1  0.249866  0.000264  0.749955  1
  O  O37  1  0.749870  0.000264  0.250045  1
  O  O38  1  0.831951  0.336098  1.000000  1
  O  O39  1  0.418674  0.666690  0.247922  1
  O  O40  1  0.333361  0.333277  0.500000  1
  O  O41  1  0.666671  0.166667  0.999997  1
  O  O42  1  0.249745  0.500124  0.250027  1
  O  O43  1  0.336031  0.831908  0.000016  1
  O  O44  1  0.166672  0.166671  0.499995  1
  O  O45  1  0.999933  0.500160  0.499862  1
  O  O46  1  0.416946  0.166688  0.249910  1
  O  O47  1  0.501269  0.501426  0.000025  1
  O  O48  1  0.083191  0.833202  0.250034  1
  O  O49  1  0.166671  0.666658  0.000000  1
  O  O50  1  0.501385  0.997230  0.000000  1
  O  O51  1  0.999969  0.000063  0.500000  1
  O  O52  1  0.083480  0.333050  0.250042  1
  O  O53  1  0.166661  0.166667  0.000003  1
  O  O54  1  0.997305  0.501426  0.999975  1
