# generated using pymatgen
data_Ni3OF5
_symmetry_space_group_name_H-M   'P 1'
_cell_length_a   7.27774776
_cell_length_b   5.62918355
_cell_length_c   5.62918355
_cell_angle_alpha   73.10411190
_cell_angle_beta   72.86956636
_cell_angle_gamma   72.86956636
_symmetry_Int_Tables_number   1
_chemical_formula_structural   Ni3OF5
_chemical_formula_sum   'Ni6 O2 F10'
_cell_volume   205.29216975
_cell_formula_units_Z   2
loop_
 _symmetry_equiv_pos_site_id
 _symmetry_equiv_pos_as_xyz
  1  'x, y, z'
loop_
 _atom_site_type_symbol
 _atom_site_label
 _atom_site_symmetry_multiplicity
 _atom_site_fract_x
 _atom_site_fract_y
 _atom_site_fract_z
 _atom_site_occupancy
  Ni  Ni0  1  0.839000  0.670502  0.670502  1
  Ni  Ni1  1  0.325788  0.661828  0.661828  1
  Ni  Ni2  1  0.660717  0.336147  0.336147  1
  Ni  Ni3  1  0.172177  0.336067  0.336067  1
  Ni  Ni4  1  0.500555  0.999263  0.999263  1
  Ni  Ni5  1  0.999187  0.995357  0.995357  1
  O  O6  1  0.035541  0.767840  0.767840  1
  O  O7  1  0.369506  0.434185  0.434185  1
  F  F8  1  0.666496  0.031226  0.636488  1
  F  F9  1  0.333319  0.363240  0.969840  1
  F  F10  1  0.299494  0.895871  0.895871  1
  F  F11  1  0.632351  0.569992  0.569992  1
  F  F12  1  0.964488  0.231985  0.231985  1
  F  F13  1  0.702298  0.101529  0.101529  1
  F  F14  1  0.999634  0.302352  0.696290  1
  F  F15  1  0.333319  0.969840  0.363240  1
  F  F16  1  0.666496  0.636488  0.031226  1
  F  F17  1  0.999634  0.696290  0.302352  1
