# generated using pymatgen
data_Li3MnCr2O6
_symmetry_space_group_name_H-M   'P 1'
_cell_length_a   15.65588281
_cell_length_b   9.90794506
_cell_length_c   9.90794513
_cell_angle_alpha   17.07579074
_cell_angle_beta   16.72168659
_cell_angle_gamma   16.72168427
_symmetry_Int_Tables_number   1
_chemical_formula_structural   Li3MnCr2O6
_chemical_formula_sum   'Li3 Mn1 Cr2 O6'
_cell_volume   112.47163840
_cell_formula_units_Z   1
loop_
 _symmetry_equiv_pos_site_id
 _symmetry_equiv_pos_as_xyz
  1  'x, y, z'
loop_
 _atom_site_type_symbol
 _atom_site_label
 _atom_site_symmetry_multiplicity
 _atom_site_fract_x
 _atom_site_fract_y
 _atom_site_fract_z
 _atom_site_occupancy
  Li  Li0  1  0.166667  0.500000  0.500000  1
  Li  Li1  1  0.476718  0.516149  0.516149  1
  Li  Li2  1  0.856615  0.483851  0.483851  1
  Mn  Mn3  1  0.666667  0.000000  0.000000  1
  Cr  Cr4  1  0.995173  0.001554  0.001554  1
  Cr  Cr5  1  0.338160  0.998446  0.998446  1
  O  O6  1  0.229423  0.268164  0.268164  1
  O  O7  1  0.581740  0.257861  0.257861  1
  O  O8  1  0.103910  0.731836  0.731836  1
  O  O9  1  0.923557  0.254046  0.254046  1
  O  O10  1  0.409777  0.745954  0.745954  1
  O  O11  1  0.751593  0.742139  0.742139  1
