# generated using pymatgen
data_Li4Cr2Si3O10
_symmetry_space_group_name_H-M   'P 1'
_cell_length_a   5.44228453
_cell_length_b   5.44228453
_cell_length_c   16.67646745
_cell_angle_alpha   82.22380148
_cell_angle_beta   97.77619852
_cell_angle_gamma   118.09513566
_symmetry_Int_Tables_number   1
_chemical_formula_structural   Li4Cr2Si3O10
_chemical_formula_sum   'Li8 Cr4 Si6 O20'
_cell_volume   430.27258442
_cell_formula_units_Z   2
loop_
 _symmetry_equiv_pos_site_id
 _symmetry_equiv_pos_as_xyz
  1  'x, y, z'
loop_
 _atom_site_type_symbol
 _atom_site_label
 _atom_site_symmetry_multiplicity
 _atom_site_fract_x
 _atom_site_fract_y
 _atom_site_fract_z
 _atom_site_occupancy
  Li  Li0  1  0.166792  0.672430  0.946760  1
  Li  Li1  1  0.415894  0.788693  0.766465  1
  Li  Li2  1  0.327570  0.833208  0.446760  1
  Li  Li3  1  0.211307  0.584106  0.266465  1
  Li  Li4  1  0.788693  0.415894  0.733535  1
  Li  Li5  1  0.672430  0.166792  0.553240  1
  Li  Li6  1  0.584106  0.211307  0.233535  1
  Li  Li7  1  0.833208  0.327570  0.053240  1
  Cr  Cr8  1  0.801182  0.976345  0.917009  1
  Cr  Cr9  1  0.023655  0.198818  0.417009  1
  Cr  Cr10  1  0.976345  0.801182  0.582991  1
  Cr  Cr11  1  0.198818  0.023655  0.082991  1
  Si  Si12  1  0.343606  0.468795  0.598474  1
  Si  Si13  1  0.112451  0.112451  0.750000  1
  Si  Si14  1  0.468795  0.343606  0.901526  1
  Si  Si15  1  0.531205  0.656394  0.098474  1
  Si  Si16  1  0.887549  0.887549  0.250000  1
  Si  Si17  1  0.656394  0.531205  0.401526  1
  O  O18  1  0.071957  0.842217  0.708161  1
  O  O19  1  0.157783  0.928043  0.208161  1
  O  O20  1  0.396506  0.780823  0.565601  1
  O  O21  1  0.425579  0.626250  0.884483  1
  O  O22  1  0.201242  0.402290  0.687853  1
  O  O23  1  0.228200  0.098188  0.957737  1
  O  O24  1  0.098188  0.228200  0.542263  1
  O  O25  1  0.219177  0.603494  0.065601  1
  O  O26  1  0.373750  0.574421  0.384483  1
  O  O27  1  0.402290  0.201242  0.812147  1
  O  O28  1  0.597710  0.798758  0.187853  1
  O  O29  1  0.626250  0.425579  0.615517  1
  O  O30  1  0.780823  0.396506  0.934399  1
  O  O31  1  0.901812  0.771800  0.457737  1
  O  O32  1  0.771800  0.901812  0.042263  1
  O  O33  1  0.798758  0.597710  0.312147  1
  O  O34  1  0.574421  0.373750  0.115517  1
  O  O35  1  0.603494  0.219177  0.434399  1
  O  O36  1  0.842217  0.071957  0.791839  1
  O  O37  1  0.928043  0.157783  0.291839  1
