# generated using pymatgen
data_Rb3Mn16O32
_symmetry_space_group_name_H-M   'P 1'
_cell_length_a   10.26783262
_cell_length_b   8.38786970
_cell_length_c   8.39065853
_cell_angle_alpha   73.69419933
_cell_angle_beta   67.48968322
_cell_angle_gamma   101.78856194
_symmetry_Int_Tables_number   1
_chemical_formula_structural   Rb3Mn16O32
_chemical_formula_sum   'Rb3 Mn16 O32'
_cell_volume   599.81406491
_cell_formula_units_Z   1
loop_
 _symmetry_equiv_pos_site_id
 _symmetry_equiv_pos_as_xyz
  1  'x, y, z'
loop_
 _atom_site_type_symbol
 _atom_site_label
 _atom_site_symmetry_multiplicity
 _atom_site_fract_x
 _atom_site_fract_y
 _atom_site_fract_z
 _atom_site_occupancy
  Rb  Rb0  1  0.669505  0.669840  0.000322  1
  Rb  Rb1  1  0.080495  0.080160  0.999678  1
  Rb  Rb2  1  0.375000  0.375000  0.000000  1
  Mn  Mn3  1  0.873684  0.360480  0.183939  1
  Mn  Mn4  1  0.623253  0.110686  0.184444  1
  Mn  Mn5  1  0.988453  0.172607  0.512658  1
  Mn  Mn6  1  0.761547  0.577393  0.487342  1
  Mn  Mn7  1  0.510654  0.327115  0.488026  1
  Mn  Mn8  1  0.261306  0.077719  0.485806  1
  Mn  Mn9  1  0.876316  0.389520  0.816061  1
  Mn  Mn10  1  0.626095  0.140644  0.816381  1
  Mn  Mn11  1  0.123905  0.609356  0.183619  1
  Mn  Mn12  1  0.372925  0.860872  0.184052  1
  Mn  Mn13  1  0.738152  0.922100  0.513579  1
  Mn  Mn14  1  0.239346  0.422885  0.511974  1
  Mn  Mn15  1  0.488694  0.672281  0.514194  1
  Mn  Mn16  1  0.011848  0.827900  0.486421  1
  Mn  Mn17  1  0.377075  0.889128  0.815948  1
  Mn  Mn18  1  0.126747  0.639314  0.815556  1
  O  O19  1  0.843787  0.208177  0.049520  1
  O  O20  1  0.874974  0.166023  0.373835  1
  O  O21  1  0.906593  0.529793  0.292834  1
  O  O22  1  0.405962  0.032691  0.291002  1
  O  O23  1  0.656251  0.282635  0.291743  1
  O  O24  1  0.843407  0.220207  0.707166  1
  O  O25  1  0.632262  0.583064  0.365308  1
  O  O26  1  0.384693  0.335275  0.360127  1
  O  O27  1  0.133223  0.082951  0.359028  1
  O  O28  1  0.880922  0.831608  0.364255  1
  O  O29  1  0.374074  0.082800  0.625447  1
  O  O30  1  0.624060  0.333261  0.626444  1
  O  O31  1  0.875026  0.583977  0.626166  1
  O  O32  1  0.095813  0.455026  0.050425  1
  O  O33  1  0.347521  0.707230  0.049926  1
  O  O34  1  0.594566  0.960121  0.049495  1
  O  O35  1  0.906213  0.541823  0.950480  1
  O  O36  1  0.402479  0.042770  0.950074  1
  O  O37  1  0.654187  0.294974  0.949575  1
  O  O38  1  0.375926  0.667200  0.374553  1
  O  O39  1  0.125940  0.416739  0.373556  1
  O  O40  1  0.623737  0.916795  0.377037  1
  O  O41  1  0.365307  0.414725  0.639873  1
  O  O42  1  0.117738  0.166936  0.634692  1
  O  O43  1  0.616777  0.667049  0.640972  1
  O  O44  1  0.869078  0.918392  0.635745  1
  O  O45  1  0.155740  0.781580  0.290554  1
  O  O46  1  0.594260  0.968420  0.709446  1
  O  O47  1  0.093749  0.467365  0.708257  1
  O  O48  1  0.344038  0.717309  0.708998  1
  O  O49  1  0.126263  0.833205  0.622963  1
  O  O50  1  0.155434  0.789879  0.950505  1
