# generated using pymatgen
data_LiV2O2F3
_symmetry_space_group_name_H-M   'P 1'
_cell_length_a   3.95895520
_cell_length_b   5.36821574
_cell_length_c   10.14719083
_cell_angle_alpha   89.85177034
_cell_angle_beta   89.97862024
_cell_angle_gamma   68.33262877
_symmetry_Int_Tables_number   1
_chemical_formula_structural   LiV2O2F3
_chemical_formula_sum   'Li2 V4 O4 F6'
_cell_volume   200.41529491
_cell_formula_units_Z   2
loop_
 _symmetry_equiv_pos_site_id
 _symmetry_equiv_pos_as_xyz
  1  'x, y, z'
loop_
 _atom_site_type_symbol
 _atom_site_label
 _atom_site_symmetry_multiplicity
 _atom_site_fract_x
 _atom_site_fract_y
 _atom_site_fract_z
 _atom_site_occupancy
  Li  Li0  1  0.127333  0.738041  0.053184  1
  Li  Li1  1  0.864502  0.264306  0.945018  1
  V  V2  1  0.136649  0.725113  0.444761  1
  V  V3  1  0.187322  0.622662  0.743560  1
  V  V4  1  0.809381  0.379415  0.254766  1
  V  V5  1  0.861327  0.276540  0.553678  1
  O  O6  1  0.040586  0.917033  0.618734  1
  O  O7  1  0.692899  0.612758  0.421027  1
  O  O8  1  0.304960  0.388631  0.577522  1
  O  O9  1  0.958360  0.084680  0.379511  1
  F  F10  1  0.047900  0.902584  0.879194  1
  F  F11  1  0.690442  0.617150  0.095515  1
  F  F12  1  0.260994  0.476195  0.259736  1
  F  F13  1  0.734921  0.527673  0.738685  1
  F  F14  1  0.306564  0.383918  0.902259  1
  F  F15  1  0.948407  0.099642  0.118976  1
