# generated using pymatgen
data_FeOF
_symmetry_space_group_name_H-M   'P 1'
_cell_length_a   7.40620234
_cell_length_b   9.50074654
_cell_length_c   6.23529667
_cell_angle_alpha   90.00000000
_cell_angle_beta   114.89464317
_cell_angle_gamma   50.10334781
_symmetry_Int_Tables_number   1
_chemical_formula_structural   FeOF
_chemical_formula_sum   'Fe8 O8 F8'
_cell_volume   281.41201542
_cell_formula_units_Z   8
loop_
 _symmetry_equiv_pos_site_id
 _symmetry_equiv_pos_as_xyz
  1  'x, y, z'
loop_
 _atom_site_type_symbol
 _atom_site_label
 _atom_site_symmetry_multiplicity
 _atom_site_fract_x
 _atom_site_fract_y
 _atom_site_fract_z
 _atom_site_occupancy
  Fe  Fe0  1  0.982005  0.999085  0.009113  1
  Fe  Fe1  1  0.017995  0.000915  0.490887  1
  Fe  Fe2  1  0.017995  0.500915  0.027107  1
  Fe  Fe3  1  0.982005  0.499085  0.472893  1
  Fe  Fe4  1  0.480176  0.018909  0.508198  1
  Fe  Fe5  1  0.519824  0.981091  0.991802  1
  Fe  Fe6  1  0.480176  0.518909  0.471978  1
  Fe  Fe7  1  0.519824  0.481091  0.028022  1
  O  O8  1  0.193819  0.306265  0.344430  1
  O  O9  1  0.193819  0.806265  0.349388  1
  O  O10  1  0.306349  -0.000083  0.655654  1
  O  O11  1  0.306349  0.499917  0.150695  1
  O  O12  1  0.693651  0.000083  0.844346  1
  O  O13  1  0.693651  0.500083  0.349305  1
  O  O14  1  0.806181  0.693735  0.155570  1
  O  O15  1  0.806181  0.193735  0.150612  1
  F  F16  1  0.191887  0.307001  0.849768  1
  F  F17  1  0.191887  0.807001  0.842119  1
  F  F18  1  0.305889  0.001112  0.149120  1
  F  F19  1  0.305889  0.501112  0.656769  1
  F  F20  1  0.694111  0.998888  0.350880  1
  F  F21  1  0.694111  0.498888  0.843231  1
  F  F22  1  0.808113  0.692999  0.650232  1
  F  F23  1  0.808113  0.192999  0.657881  1
