# generated using pymatgen
data_LiSn2(SO4)3
_symmetry_space_group_name_H-M   'P 1'
_cell_length_a   8.94153686
_cell_length_b   9.42520510
_cell_length_c   12.90353982
_cell_angle_alpha   90.00000000
_cell_angle_beta   89.41482118
_cell_angle_gamma   90.00000000
_symmetry_Int_Tables_number   1
_chemical_formula_structural   LiSn2(SO4)3
_chemical_formula_sum   'Li4 Sn8 S12 O48'
_cell_volume   1087.39966795
_cell_formula_units_Z   4
loop_
 _symmetry_equiv_pos_site_id
 _symmetry_equiv_pos_as_xyz
  1  'x, y, z'
loop_
 _atom_site_type_symbol
 _atom_site_label
 _atom_site_symmetry_multiplicity
 _atom_site_fract_x
 _atom_site_fract_y
 _atom_site_fract_z
 _atom_site_occupancy
  Li  Li0  1  0.190420  0.721361  0.816193  1
  Li  Li1  1  0.309580  0.221361  0.683807  1
  Li  Li2  1  0.690420  0.778639  0.316193  1
  Li  Li3  1  0.809580  0.278639  0.183807  1
  Sn  Sn4  1  0.246978  0.967849  0.381559  1
  Sn  Sn5  1  0.238724  0.543744  0.596276  1
  Sn  Sn6  1  0.253022  0.467849  0.118441  1
  Sn  Sn7  1  0.261276  0.043744  0.903724  1
  Sn  Sn8  1  0.738724  0.956256  0.096276  1
  Sn  Sn9  1  0.746978  0.532151  0.881559  1
  Sn  Sn10  1  0.761276  0.456255  0.403724  1
  Sn  Sn11  1  0.753022  0.032151  0.618441  1
  S  S12  1  0.050787  0.235182  0.512288  1
  S  S13  1  0.096350  0.129133  0.159613  1
  S  S14  1  0.112359  0.395082  0.854439  1
  S  S15  1  0.387641  0.895082  0.645561  1
  S  S16  1  0.403650  0.629133  0.340387  1
  S  S17  1  0.449212  0.735182  0.987712  1
  S  S18  1  0.550787  0.264818  0.012288  1
  S  S19  1  0.596350  0.370867  0.659613  1
  S  S20  1  0.612359  0.104918  0.354439  1
  S  S21  1  0.887641  0.604918  0.145561  1
  S  S22  1  0.903650  0.870867  0.840387  1
  S  S23  1  0.949213  0.764818  0.487712  1
  O  O24  1  0.002792  0.638584  0.544519  1
  O  O25  1  0.049780  0.626277  0.119780  1
  O  O26  1  0.061128  0.898010  0.807724  1
  O  O27  1  0.058137  0.805192  0.403500  1
  O  O28  1  0.068393  0.115764  0.436361  1
  O  O29  1  0.129148  0.280373  0.189036  1
  O  O30  1  0.111643  0.108931  0.045937  1
  O  O31  1  0.132080  0.522351  0.787295  1
  O  O32  1  0.196993  0.270269  0.560329  1
  O  O33  1  0.169500  0.265465  0.800600  1
  O  O34  1  0.200588  0.413304  0.951327  1
  O  O35  1  0.201101  0.029326  0.212523  1
  O  O36  1  0.298899  0.529326  0.287477  1
  O  O37  1  0.299412  0.913304  0.548673  1
  O  O38  1  0.330500  0.765465  0.699400  1
  O  O39  1  0.303007  0.770269  0.939671  1
  O  O40  1  0.388357  0.608931  0.454063  1
  O  O41  1  0.367920  0.022351  0.712705  1
  O  O42  1  0.370852  0.780373  0.310964  1
  O  O43  1  0.431607  0.615764  0.063639  1
  O  O44  1  0.441863  0.305192  0.096500  1
  O  O45  1  0.450220  0.126277  0.380220  1
  O  O46  1  0.438872  0.398010  0.692276  1
  O  O47  1  0.497208  0.138584  0.955481  1
  O  O48  1  0.502792  0.861416  0.044519  1
  O  O49  1  0.561128  0.601990  0.307724  1
  O  O50  1  0.549780  0.873723  0.619780  1
  O  O51  1  0.558137  0.694808  0.903500  1
  O  O52  1  0.568393  0.384236  0.936361  1
  O  O53  1  0.629148  0.219627  0.689036  1
  O  O54  1  0.632080  0.977649  0.287295  1
  O  O55  1  0.611643  0.391069  0.545937  1
  O  O56  1  0.696993  0.229731  0.060329  1
  O  O57  1  0.669500  0.234535  0.300600  1
  O  O58  1  0.700588  0.086696  0.451327  1
  O  O59  1  0.701101  0.470673  0.712523  1
  O  O60  1  0.798899  0.970674  0.787477  1
  O  O61  1  0.799412  0.586696  0.048673  1
  O  O62  1  0.830500  0.734535  0.199400  1
  O  O63  1  0.803007  0.729731  0.439671  1
  O  O64  1  0.867920  0.477649  0.212705  1
  O  O65  1  0.888357  0.891069  0.954063  1
  O  O66  1  0.870852  0.719627  0.810964  1
  O  O67  1  0.931607  0.884236  0.563639  1
  O  O68  1  0.941863  0.194808  0.596500  1
  O  O69  1  0.938872  0.101990  0.192276  1
  O  O70  1  0.950220  0.373723  0.880220  1
  O  O71  1  0.997208  0.361416  0.455481  1
