# generated using pymatgen
data_LiMn3NiO8
_symmetry_space_group_name_H-M   'P 1'
_cell_length_a   5.96992337
_cell_length_b   5.81738506
_cell_length_c   5.81061009
_cell_angle_alpha   59.08794731
_cell_angle_beta   61.87180837
_cell_angle_gamma   88.71207997
_symmetry_Int_Tables_number   1
_chemical_formula_structural   LiMn3NiO8
_chemical_formula_sum   'Li1 Mn3 Ni1 O8'
_cell_volume   146.10709539
_cell_formula_units_Z   1
loop_
 _symmetry_equiv_pos_site_id
 _symmetry_equiv_pos_as_xyz
  1  'x, y, z'
loop_
 _atom_site_type_symbol
 _atom_site_label
 _atom_site_symmetry_multiplicity
 _atom_site_fract_x
 _atom_site_fract_y
 _atom_site_fract_z
 _atom_site_occupancy
  Li  Li0  1  0.500011  0.000009  0.999993  1
  Mn  Mn1  1  0.999947  0.000013  0.499980  1
  Mn  Mn2  1  -0.000028  0.499970  0.000024  1
  Mn  Mn3  1  0.000026  0.499988  0.499999  1
  Ni  Ni4  1  0.000035  0.000003  -0.000027  1
  O  O5  1  0.204015  0.237416  0.048695  1
  O  O6  1  0.195549  0.727061  0.043697  1
  O  O7  1  0.186925  0.221233  0.551638  1
  O  O8  1  0.198378  0.729118  0.533499  1
  O  O9  1  0.801606  0.270908  0.466500  1
  O  O10  1  0.812990  0.778734  0.448418  1
  O  O11  1  0.804499  0.272953  0.956310  1
  O  O12  1  0.796048  0.762592  0.951274  1
