# generated using pymatgen
data_Li3NiPCO7
_symmetry_space_group_name_H-M   'P 1'
_cell_length_a   8.37128344
_cell_length_b   9.91434278
_cell_length_c   6.39534561
_cell_angle_alpha   89.92673371
_cell_angle_beta   90.11139775
_cell_angle_gamma   85.20229269
_symmetry_Int_Tables_number   1
_chemical_formula_structural   Li3NiPCO7
_chemical_formula_sum   'Li12 Ni4 P4 C4 O28'
_cell_volume   528.92533622
_cell_formula_units_Z   4
loop_
 _symmetry_equiv_pos_site_id
 _symmetry_equiv_pos_as_xyz
  1  'x, y, z'
loop_
 _atom_site_type_symbol
 _atom_site_label
 _atom_site_symmetry_multiplicity
 _atom_site_fract_x
 _atom_site_fract_y
 _atom_site_fract_z
 _atom_site_occupancy
  Li  Li0  1  0.089252  0.380610  0.252282  1
  Li  Li1  1  0.097162  0.880482  0.254185  1
  Li  Li2  1  0.278163  0.123003  0.479758  1
  Li  Li3  1  0.275684  0.622901  0.020222  1
  Li  Li4  1  0.276057  0.623276  0.477935  1
  Li  Li5  1  0.660967  0.105129  0.250838  1
  Li  Li6  1  0.723157  0.370057  0.514036  1
  Li  Li7  1  0.722395  0.370210  0.985536  1
  Li  Li8  1  0.722807  0.886598  0.509799  1
  Li  Li9  1  0.723637  0.886707  0.990937  1
  Li  Li10  1  0.894635  0.113027  0.749595  1
  Li  Li11  1  0.900645  0.617132  0.749273  1
  Ni  Ni12  1  0.276506  0.125114  0.015760  1
  Ni  Ni13  1  0.335047  0.397830  0.749169  1
  Ni  Ni14  1  0.334349  0.892573  0.748183  1
  Ni  Ni15  1  0.666948  0.603307  0.249032  1
  P  P16  1  0.411003  0.360472  0.246799  1
  P  P17  1  0.418206  0.859958  0.251878  1
  P  P18  1  0.589334  0.139896  0.753721  1
  P  P19  1  0.585581  0.639380  0.749355  1
  C  C20  1  0.040148  0.350290  0.754687  1
  C  C21  1  0.040168  0.852149  0.752076  1
  C  C22  1  0.963815  0.146995  0.246585  1
  C  C23  1  0.959754  0.649017  0.249656  1
  O  O24  1  0.077025  0.473847  0.748530  1
  O  O25  1  0.117180  0.178010  0.238779  1
  O  O26  1  0.078210  0.976852  0.753423  1
  O  O27  1  0.160215  0.254865  0.761072  1
  O  O28  1  0.107685  0.678863  0.249963  1
  O  O29  1  0.157144  0.756622  0.751994  1
  O  O30  1  0.306423  0.416744  0.060531  1
  O  O31  1  0.307577  0.410922  0.436987  1
  O  O32  1  0.310757  0.916717  0.062865  1
  O  O33  1  0.309521  0.911311  0.437394  1
  O  O34  1  0.417488  0.085259  0.760303  1
  O  O35  1  0.427609  0.202437  0.237098  1
  O  O36  1  0.417819  0.585504  0.748287  1
  O  O37  1  0.433468  0.702133  0.244470  1
  O  O38  1  0.560905  0.297973  0.752170  1
  O  O39  1  0.580001  0.411164  0.249755  1
  O  O40  1  0.561238  0.796990  0.749884  1
  O  O41  1  0.582939  0.913028  0.250684  1
  O  O42  1  0.692941  0.091589  0.942065  1
  O  O43  1  0.682753  0.089180  0.559392  1
  O  O44  1  0.690703  0.587491  0.561487  1
  O  O45  1  0.691138  0.586867  0.937130  1
  O  O46  1  0.857014  0.246744  0.256001  1
  O  O47  1  0.894803  0.317646  0.751528  1
  O  O48  1  0.843571  0.744314  0.249524  1
  O  O49  1  0.933069  0.023360  0.248095  1
  O  O50  1  0.893124  0.822452  0.749650  1
  O  O51  1  0.922261  0.525001  0.249637  1
