# generated using pymatgen
data_Mn6OF11
_symmetry_space_group_name_H-M   'P 1'
_cell_length_a   4.95835036
_cell_length_b   5.91164414
_cell_length_c   16.21647654
_cell_angle_alpha   89.39767027
_cell_angle_beta   90.02336923
_cell_angle_gamma   89.95304687
_symmetry_Int_Tables_number   1
_chemical_formula_structural   Mn6OF11
_chemical_formula_sum   'Mn12 O2 F22'
_cell_volume   475.31093967
_cell_formula_units_Z   2
loop_
 _symmetry_equiv_pos_site_id
 _symmetry_equiv_pos_as_xyz
  1  'x, y, z'
loop_
 _atom_site_type_symbol
 _atom_site_label
 _atom_site_symmetry_multiplicity
 _atom_site_fract_x
 _atom_site_fract_y
 _atom_site_fract_z
 _atom_site_occupancy
  Mn  Mn0  1  0.004225  0.145172  0.416983  1
  Mn  Mn1  1  0.007141  0.830836  0.249279  1
  Mn  Mn2  1  0.029833  0.189712  0.089981  1
  Mn  Mn3  1  0.000134  0.162386  0.749329  1
  Mn  Mn4  1  0.014958  0.833567  0.576477  1
  Mn  Mn5  1  0.988586  0.831834  0.922011  1
  Mn  Mn6  1  0.494520  0.332362  0.581327  1
  Mn  Mn7  1  0.497962  0.330126  0.916632  1
  Mn  Mn8  1  0.498675  0.334728  0.249212  1
  Mn  Mn9  1  0.494193  0.641089  0.087536  1
  Mn  Mn10  1  0.472288  0.687499  0.420860  1
  Mn  Mn11  1  0.501292  0.670785  0.748336  1
  O  O12  1  0.206151  0.913703  0.466579  1
  O  O13  1  0.300179  0.409311  0.138151  1
  F  F14  1  0.221613  0.113459  0.307317  1
  F  F15  1  0.236432  0.103920  0.641525  1
  F  F16  1  0.213728  0.110774  0.974562  1
  F  F17  1  0.241755  0.889685  0.138412  1
  F  F18  1  0.226326  0.888454  0.809915  1
  F  F19  1  0.282842  0.611753  0.307389  1
  F  F20  1  0.254216  0.394064  0.470309  1
  F  F21  1  0.267605  0.604300  0.639138  1
  F  F22  1  0.270051  0.391911  0.806989  1
  F  F23  1  0.278888  0.611457  0.977450  1
  F  F24  1  0.737276  0.390960  0.025962  1
  F  F25  1  0.734914  0.615872  0.191424  1
  F  F26  1  0.742283  0.365311  0.361578  1
  F  F27  1  0.710431  0.617692  0.525706  1
  F  F28  1  0.728594  0.607172  0.860427  1
  F  F29  1  0.724786  0.388760  0.692871  1
  F  F30  1  0.788381  0.115575  0.194450  1
  F  F31  1  0.770834  0.121835  0.521849  1
  F  F32  1  0.766313  0.885293  0.357360  1
  F  F33  1  0.747809  0.868979  0.034587  1
  F  F34  1  0.765547  0.101807  0.860493  1
  F  F35  1  0.779238  0.887856  0.687591  1
