# generated using pymatgen
data_Hf2N2O
_symmetry_space_group_name_H-M   'P 1'
_cell_length_a   8.70837079
_cell_length_b   8.73775555
_cell_length_c   8.74286068
_cell_angle_alpha   109.42236659
_cell_angle_beta   109.43455132
_cell_angle_gamma   109.52239310
_symmetry_Int_Tables_number   1
_chemical_formula_structural   Hf2N2O
_chemical_formula_sum   'Hf16 N16 O8'
_cell_volume   512.33278831
_cell_formula_units_Z   8
loop_
 _symmetry_equiv_pos_site_id
 _symmetry_equiv_pos_as_xyz
  1  'x, y, z'
loop_
 _atom_site_type_symbol
 _atom_site_label
 _atom_site_symmetry_multiplicity
 _atom_site_fract_x
 _atom_site_fract_y
 _atom_site_fract_z
 _atom_site_occupancy
  Hf  Hf0  1  0.750733  0.966039  0.206688  1
  Hf  Hf1  1  0.030916  0.775129  0.242975  1
  Hf  Hf2  1  0.995472  0.987502  0.990235  1
  Hf  Hf3  1  0.533554  0.276926  0.255676  1
  Hf  Hf4  1  0.502306  0.502193  0.993343  1
  Hf  Hf5  1  0.496735  0.999469  0.498735  1
  Hf  Hf6  1  0.252284  0.542688  0.288165  1
  Hf  Hf7  1  0.293497  0.264348  0.546244  1
  Hf  Hf8  1  0.719366  0.752980  0.467069  1
  Hf  Hf9  1  0.785596  0.250126  0.037917  1
  Hf  Hf10  1  0.206320  0.748505  0.960934  1
  Hf  Hf11  1  0.749147  0.456927  0.718349  1
  Hf  Hf12  1  0.009628  0.499240  0.501378  1
  Hf  Hf13  1  0.965663  0.218717  0.751341  1
  Hf  Hf14  1  0.466034  0.717370  0.741475  1
  Hf  Hf15  1  0.242785  0.031289  0.788927  1
  N  N16  1  0.731617  0.968141  0.960266  1
  N  N17  1  0.755165  0.223543  0.275563  1
  N  N18  1  0.724682  0.233497  0.774898  1
  N  N19  1  0.769777  0.730976  0.240580  1
  N  N20  1  0.489435  0.228291  0.457438  1
  N  N21  1  0.230630  0.272980  0.765811  1
  N  N22  1  0.988196  0.531758  0.258247  1
  N  N23  1  0.513416  0.771724  0.540981  1
  N  N24  1  0.952966  0.729065  0.967166  1
  N  N25  1  0.547598  0.515334  0.778713  1
  N  N26  1  0.224637  0.449410  0.483531  1
  N  N27  1  0.277551  0.764697  0.227009  1
  N  N28  1  0.961363  0.951542  0.726065  1
  N  N29  1  0.241565  0.774890  0.724417  1
  N  N30  1  0.008823  0.464965  0.736218  1
  N  N31  1  0.272493  0.038786  0.043539  1
  O  O32  1  0.539268  0.269782  0.993451  1
  O  O33  1  0.740069  0.014958  0.467746  1
  O  O34  1  0.050326  0.275269  0.034740  1
  O  O35  1  0.451213  0.481532  0.224329  1
  O  O36  1  0.768372  0.546981  0.508501  1
  O  O37  1  0.035738  0.046386  0.276389  1
  O  O38  1  0.465142  0.738023  0.013673  1
  O  O39  1  0.259920  0.988024  0.531279  1
