# generated using pymatgen
data_LiMnF3
_symmetry_space_group_name_H-M   'P 1'
_cell_length_a   6.20844455
_cell_length_b   6.20843598
_cell_length_c   6.20846308
_cell_angle_alpha   89.99984404
_cell_angle_beta   89.99994675
_cell_angle_gamma   89.99997370
_symmetry_Int_Tables_number   1
_chemical_formula_structural   LiMnF3
_chemical_formula_sum   'Li4 Mn4 F12'
_cell_volume   239.30353639
_cell_formula_units_Z   4
loop_
 _symmetry_equiv_pos_site_id
 _symmetry_equiv_pos_as_xyz
  1  'x, y, z'
loop_
 _atom_site_type_symbol
 _atom_site_label
 _atom_site_symmetry_multiplicity
 _atom_site_fract_x
 _atom_site_fract_y
 _atom_site_fract_z
 _atom_site_occupancy
  Li  Li0  1  0.089723  0.089723  0.089722  1
  Li  Li1  1  0.410277  0.910277  0.589722  1
  Li  Li2  1  0.589724  0.410276  0.910276  1
  Li  Li3  1  0.910278  0.589724  0.410275  1
  Mn  Mn4  1  0.141320  0.641320  0.858686  1
  Mn  Mn5  1  0.358675  0.358677  0.358679  1
  Mn  Mn6  1  0.641316  0.858681  0.141319  1
  Mn  Mn7  1  0.858679  0.141320  0.641321  1
  F  F8  1  0.517705  0.232121  0.631095  1
  F  F9  1  0.482294  0.732121  0.868908  1
  F  F10  1  0.267883  0.368904  0.017708  1
  F  F11  1  0.631093  0.517708  0.232122  1
  F  F12  1  0.868911  0.482294  0.732123  1
  F  F13  1  0.232123  0.631091  0.517706  1
  F  F14  1  0.017709  0.267882  0.368907  1
  F  F15  1  0.982292  0.767876  0.131089  1
  F  F16  1  0.767877  0.131096  0.982293  1
  F  F17  1  0.131091  0.982293  0.767879  1
  F  F18  1  0.368910  0.017705  0.267879  1
  F  F19  1  0.732122  0.868909  0.482291  1
