# generated using pymatgen
data_Na7(FeO4)2
_symmetry_space_group_name_H-M   'P 1'
_cell_length_a   5.81618051
_cell_length_b   9.22473124
_cell_length_c   18.05785668
_cell_angle_alpha   90.24582424
_cell_angle_beta   90.98816387
_cell_angle_gamma   89.67438046
_symmetry_Int_Tables_number   1
_chemical_formula_structural   Na7(FeO4)2
_chemical_formula_sum   'Na28 Fe8 O32'
_cell_volume   968.68455543
_cell_formula_units_Z   4
loop_
 _symmetry_equiv_pos_site_id
 _symmetry_equiv_pos_as_xyz
  1  'x, y, z'
loop_
 _atom_site_type_symbol
 _atom_site_label
 _atom_site_symmetry_multiplicity
 _atom_site_fract_x
 _atom_site_fract_y
 _atom_site_fract_z
 _atom_site_occupancy
  Na  Na0  1  0.093229  0.159804  0.889460  1
  Na  Na1  1  0.120571  0.996824  0.718744  1
  Na  Na2  1  0.092292  0.338258  0.389721  1
  Na  Na3  1  0.223549  0.802245  0.864338  1
  Na  Na4  1  0.121954  0.500996  0.218384  1
  Na  Na5  1  0.173453  0.100726  0.539201  1
  Na  Na6  1  0.221875  0.697431  0.365406  1
  Na  Na7  1  0.175989  0.398444  0.039673  1
  Na  Na8  1  0.270414  0.447299  0.541457  1
  Na  Na9  1  0.429838  0.459092  0.863340  1
  Na  Na10  1  0.390947  0.662239  0.687655  1
  Na  Na11  1  0.270463  0.053060  0.042154  1
  Na  Na12  1  0.432026  0.040927  0.363439  1
  Na  Na13  1  0.395751  0.841367  0.186639  1
  Na  Na14  1  0.604249  0.158633  0.813361  1
  Na  Na15  1  0.567974  0.959073  0.636561  1
  Na  Na16  1  0.729537  0.946940  0.957846  1
  Na  Na17  1  0.609053  0.337761  0.312345  1
  Na  Na18  1  0.570162  0.540908  0.136660  1
  Na  Na19  1  0.729586  0.552701  0.458543  1
  Na  Na20  1  0.824011  0.601556  0.960327  1
  Na  Na21  1  0.778125  0.302569  0.634594  1
  Na  Na22  1  0.826547  0.899274  0.460799  1
  Na  Na23  1  0.878046  0.499004  0.781616  1
  Na  Na24  1  0.776451  0.197755  0.135662  1
  Na  Na25  1  0.907708  0.661742  0.610279  1
  Na  Na26  1  0.879429  0.003176  0.281256  1
  Na  Na27  1  0.906771  0.840196  0.110540  1
  Fe  Fe28  1  0.284640  0.329133  0.703057  1
  Fe  Fe29  1  0.290324  0.781233  0.522830  1
  Fe  Fe30  1  0.282847  0.172585  0.202722  1
  Fe  Fe31  1  0.290010  0.718364  0.022942  1
  Fe  Fe32  1  0.709990  0.281636  0.977058  1
  Fe  Fe33  1  0.717153  0.827415  0.797278  1
  Fe  Fe34  1  0.709676  0.218767  0.477170  1
  Fe  Fe35  1  0.715360  0.670867  0.296943  1
  O  O36  1  0.092981  0.853812  0.988245  1
  O  O37  1  0.114992  0.475541  0.667642  1
  O  O38  1  0.128832  0.245156  0.772527  1
  O  O39  1  0.094443  0.646295  0.487446  1
  O  O40  1  0.203834  0.867440  0.606184  1
  O  O41  1  0.108898  0.025996  0.167778  1
  O  O42  1  0.112772  0.253576  0.271462  1
  O  O43  1  0.241583  0.585132  0.952448  1
  O  O44  1  0.204322  0.635025  0.106951  1
  O  O45  1  0.244337  0.913753  0.451924  1
  O  O46  1  0.361018  0.182477  0.645984  1
  O  O47  1  0.371459  0.317185  0.146538  1
  O  O48  1  0.458518  0.183690  0.944159  1
  O  O49  1  0.453337  0.912481  0.768927  1
  O  O50  1  0.545595  0.416132  0.730260  1
  O  O51  1  0.540200  0.682150  0.556718  1
  O  O52  1  0.459800  0.317850  0.443282  1
  O  O53  1  0.454405  0.583868  0.269740  1
  O  O54  1  0.546663  0.087519  0.231073  1
  O  O55  1  0.541482  0.816310  0.055841  1
  O  O56  1  0.628541  0.682815  0.853462  1
  O  O57  1  0.638982  0.817523  0.354016  1
  O  O58  1  0.755663  0.086247  0.548076  1
  O  O59  1  0.795678  0.364975  0.893049  1
  O  O60  1  0.758417  0.414868  0.047552  1
  O  O61  1  0.887228  0.746424  0.728538  1
  O  O62  1  0.891102  0.974004  0.832222  1
  O  O63  1  0.796166  0.132560  0.393816  1
  O  O64  1  0.905557  0.353705  0.512554  1
  O  O65  1  0.871168  0.754844  0.227473  1
  O  O66  1  0.885008  0.524459  0.332358  1
  O  O67  1  0.907019  0.146188  0.011755  1
