# generated using pymatgen
data_K2B6H5NO2
_symmetry_space_group_name_H-M   'P 1'
_cell_length_a   6.05413275
_cell_length_b   8.21937801
_cell_length_c   9.02089447
_cell_angle_alpha   90.00000000
_cell_angle_beta   109.57297267
_cell_angle_gamma   90.00000000
_symmetry_Int_Tables_number   1
_chemical_formula_structural   K2B6H5NO2
_chemical_formula_sum   'K4 B12 H10 N2 O4'
_cell_volume   422.95170463
_cell_formula_units_Z   2
loop_
 _symmetry_equiv_pos_site_id
 _symmetry_equiv_pos_as_xyz
  1  'x, y, z'
loop_
 _atom_site_type_symbol
 _atom_site_label
 _atom_site_symmetry_multiplicity
 _atom_site_fract_x
 _atom_site_fract_y
 _atom_site_fract_z
 _atom_site_occupancy
  K  K0  1  0.789207  0.250000  0.078495  1
  K  K1  1  0.210793  0.750000  0.921505  1
  K  K2  1  0.500000  0.500000  0.500000  1
  K  K3  1  0.500000  0.000000  0.500000  1
  B  B4  1  0.075959  0.250000  0.655231  1
  B  B5  1  0.924041  0.750000  0.344769  1
  B  B6  1  0.708632  0.644982  0.203988  1
  B  B7  1  0.291368  0.144982  0.796012  1
  B  B8  1  0.291368  0.355018  0.796012  1
  B  B9  1  0.708632  0.855018  0.203988  1
  B  B10  1  0.000317  0.354468  0.795985  1
  B  B11  1  0.999683  0.854468  0.204015  1
  B  B12  1  0.999683  0.645532  0.204015  1
  B  B13  1  0.000317  0.145532  0.795985  1
  B  B14  1  0.216753  0.250000  0.937333  1
  B  B15  1  0.783247  0.750000  0.062667  1
  H  H16  1  0.429834  0.460542  0.798553  1
  H  H17  1  0.570166  0.960542  0.201447  1
  H  H18  1  0.570166  0.539458  0.201447  1
  H  H19  1  0.429834  0.039458  0.798553  1
  H  H20  1  0.861002  0.457306  0.799498  1
  H  H21  1  0.138998  0.957306  0.200502  1
  H  H22  1  0.138998  0.542694  0.200502  1
  H  H23  1  0.861002  0.042694  0.799498  1
  H  H24  1  0.287013  0.250000  0.078381  1
  H  H25  1  0.712987  0.750000  0.921619  1
  N  N26  1  0.988843  0.250000  0.478302  1
  N  N27  1  0.011157  0.750000  0.521698  1
  O  O28  1  0.131066  0.250000  0.402240  1
  O  O29  1  0.868934  0.750000  0.597760  1
  O  O30  1  0.770713  0.250000  0.401701  1
  O  O31  1  0.229288  0.750000  0.598299  1
