# generated using pymatgen
data_LuSeO3
_symmetry_space_group_name_H-M   'P 1'
_cell_length_a   5.85703860
_cell_length_b   12.42827110
_cell_length_c   8.65812715
_cell_angle_alpha   90.00000000
_cell_angle_beta   105.81202993
_cell_angle_gamma   90.00000000
_symmetry_Int_Tables_number   1
_chemical_formula_structural   LuSeO3
_chemical_formula_sum   'Lu8 Se8 O24'
_cell_volume   606.40171999
_cell_formula_units_Z   8
loop_
 _symmetry_equiv_pos_site_id
 _symmetry_equiv_pos_as_xyz
  1  'x, y, z'
loop_
 _atom_site_type_symbol
 _atom_site_label
 _atom_site_symmetry_multiplicity
 _atom_site_fract_x
 _atom_site_fract_y
 _atom_site_fract_z
 _atom_site_occupancy
  Lu  Lu0  1  0.242420  0.440637  0.915278  1
  Lu  Lu1  1  0.242420  0.059363  0.415278  1
  Lu  Lu2  1  0.363747  0.754421  0.855974  1
  Lu  Lu3  1  0.363747  0.745579  0.355974  1
  Lu  Lu4  1  0.636253  0.254421  0.644026  1
  Lu  Lu5  1  0.636253  0.245579  0.144026  1
  Lu  Lu6  1  0.757580  0.940637  0.584722  1
  Lu  Lu7  1  0.757580  0.559363  0.084722  1
  Se  Se8  1  0.046899  0.161006  0.003743  1
  Se  Se9  1  0.046899  0.338994  0.503743  1
  Se  Se10  1  0.370632  0.015297  0.827086  1
  Se  Se11  1  0.370632  0.484703  0.327086  1
  Se  Se12  1  0.629368  0.515297  0.672914  1
  Se  Se13  1  0.629368  0.984703  0.172914  1
  Se  Se14  1  0.953101  0.661006  0.496257  1
  Se  Se15  1  0.953101  0.838994  0.996257  1
  O  O16  1  0.989618  0.828262  0.805054  1
  O  O17  1  0.989618  0.671738  0.305054  1
  O  O18  1  0.128331  0.018294  0.645711  1
  O  O19  1  0.220687  0.728811  0.587092  1
  O  O20  1  0.254025  0.239183  0.503472  1
  O  O21  1  0.128331  0.481706  0.145711  1
  O  O22  1  0.403328  0.593442  0.918987  1
  O  O23  1  0.220687  0.771189  0.087092  1
  O  O24  1  0.254025  0.260817  0.003472  1
  O  O25  1  0.450067  0.404841  0.715680  1
  O  O26  1  0.403328  0.906558  0.418987  1
  O  O27  1  0.549933  0.904841  0.784320  1
  O  O28  1  0.450067  0.095159  0.215680  1
  O  O29  1  0.596672  0.093442  0.581013  1
  O  O30  1  0.549933  0.595159  0.284320  1
  O  O31  1  0.745975  0.739183  0.996528  1
  O  O32  1  0.779313  0.228811  0.912908  1
  O  O33  1  0.596672  0.406558  0.081013  1
  O  O34  1  0.871669  0.518294  0.854289  1
  O  O35  1  0.745975  0.760817  0.496528  1
  O  O36  1  0.779313  0.271189  0.412908  1
  O  O37  1  0.871669  0.981706  0.354289  1
  O  O38  1  0.010382  0.328262  0.694946  1
  O  O39  1  0.010382  0.171738  0.194946  1
