# generated using pymatgen
data_Mg2PHO5
_symmetry_space_group_name_H-M   'P 1'
_cell_length_a   11.69089427
_cell_length_b   11.69035326
_cell_length_c   4.87253307
_cell_angle_alpha   90.00897234
_cell_angle_beta   89.99569211
_cell_angle_gamma   119.99914187
_symmetry_Int_Tables_number   1
_chemical_formula_structural   Mg2PHO5
_chemical_formula_sum   'Mg12 P6 H6 O30'
_cell_volume   576.71937820
_cell_formula_units_Z   6
loop_
 _symmetry_equiv_pos_site_id
 _symmetry_equiv_pos_as_xyz
  1  'x, y, z'
loop_
 _atom_site_type_symbol
 _atom_site_label
 _atom_site_symmetry_multiplicity
 _atom_site_fract_x
 _atom_site_fract_y
 _atom_site_fract_z
 _atom_site_occupancy
  Mg  Mg0  1  0.506099  0.859677  0.929241  1
  Mg  Mg1  1  0.353517  0.493833  0.929191  1
  Mg  Mg2  1  0.140305  0.646354  0.928938  1
  Mg  Mg3  1  0.493904  0.353578  0.929243  1
  Mg  Mg4  1  0.859698  0.506054  0.928938  1
  Mg  Mg5  1  0.646480  0.140316  0.929182  1
  Mg  Mg6  1  0.661562  0.828880  0.481812  1
  Mg  Mg7  1  0.167274  0.338383  0.481634  1
  Mg  Mg8  1  0.171269  0.832825  0.481582  1
  Mg  Mg9  1  0.338438  0.167320  0.481813  1
  Mg  Mg10  1  0.828729  0.661556  0.481585  1
  Mg  Mg11  1  0.832725  0.171108  0.481644  1
  P  P12  1  0.333273  0.666650  0.426372  1
  P  P13  1  0.666724  0.333377  0.426372  1
  P  P14  1  0.000002  0.349023  0.009203  1
  P  P15  1  0.348889  -0.000061  0.009055  1
  P  P16  1  0.651109  0.651045  0.009061  1
  P  P17  1  0.000001  0.000071  0.968749  1
  H  H18  1  0.000001  0.503725  0.463589  1
  H  H19  1  0.503790  0.999975  0.463847  1
  H  H20  1  0.496209  0.496184  0.463860  1
  H  H21  1  0.000001  0.108590  0.844545  1
  H  H22  1  0.108546  0.000044  0.844729  1
  H  H23  1  0.891455  0.891498  0.844727  1
  O  O24  1  0.000000  0.762590  0.678021  1
  O  O25  1  0.762771  -0.000005  0.678720  1
  O  O26  1  0.237229  0.237226  0.678716  1
  O  O27  1  0.475719  0.760257  0.317229  1
  O  O28  1  0.284527  0.524293  0.317235  1
  O  O29  1  0.239724  0.715425  0.317093  1
  O  O30  1  0.524281  0.284537  0.317231  1
  O  O31  1  0.760275  0.475700  0.317095  1
  O  O32  1  0.715472  0.239765  0.317231  1
  O  O33  1  -0.000003  0.266166  0.266570  1
  O  O34  1  0.266199  0.000104  0.266452  1
  O  O35  1  0.733801  0.733908  0.266456  1
  O  O36  1  0.607595  0.735476  0.843458  1
  O  O37  1  0.127747  0.392246  0.843422  1
  O  O38  1  0.264603  0.872378  0.843564  1
  O  O39  1  0.392403  0.127878  0.843451  1
  O  O40  1  0.735398  0.607777  0.843575  1
  O  O41  1  0.872251  0.264498  0.843414  1
  O  O42  1  0.000001  0.471674  0.132395  1
  O  O43  1  0.471756  0.000030  0.132550  1
  O  O44  1  0.528246  0.528274  0.132557  1
  O  O45  1  0.333271  0.666664  0.749490  1
  O  O46  1  0.666730  0.333393  0.749489  1
  O  O47  1  0.000001  0.709237  0.963661  1
  O  O48  1  0.709262  -0.000004  0.964151  1
  O  O49  1  0.290738  0.290731  0.964153  1
  O  O50  1  0.000002  0.535321  0.649216  1
  O  O51  1  0.535670  0.999966  0.649303  1
  O  O52  1  0.464333  0.464298  0.649315  1
  O  O53  1  0.000001  0.000196  0.279772  1
