# generated using pymatgen
data_YbSmO3
_symmetry_space_group_name_H-M   'P 1'
_cell_length_a   5.98130377
_cell_length_b   5.88304586
_cell_length_c   8.43025469
_cell_angle_alpha   89.99819244
_cell_angle_beta   89.90479419
_cell_angle_gamma   89.89393817
_symmetry_Int_Tables_number   1
_chemical_formula_structural   YbSmO3
_chemical_formula_sum   'Yb4 Sm4 O12'
_cell_volume   296.64528176
_cell_formula_units_Z   4
loop_
 _symmetry_equiv_pos_site_id
 _symmetry_equiv_pos_as_xyz
  1  'x, y, z'
loop_
 _atom_site_type_symbol
 _atom_site_label
 _atom_site_symmetry_multiplicity
 _atom_site_fract_x
 _atom_site_fract_y
 _atom_site_fract_z
 _atom_site_occupancy
  Yb  Yb0  1  0.021607  -0.000378  0.733389  1
  Yb  Yb1  1  0.478202  0.499740  0.233039  1
  Yb  Yb2  1  0.521854  0.500445  0.733380  1
  Yb  Yb3  1  0.978427  0.000177  0.233035  1
  Sm  Sm4  1  0.041691  0.499234  0.464158  1
  Sm  Sm5  1  0.458615  0.999017  0.963511  1
  Sm  Sm6  1  0.541527  0.001076  0.464299  1
  Sm  Sm7  1  0.958557  0.500629  0.963371  1
  O  O8  1  0.094465  0.138707  0.991525  1
  O  O9  1  0.115212  0.640218  0.196226  1
  O  O10  1  0.235346  0.708146  0.839505  1
  O  O11  1  0.264509  0.208328  0.339476  1
  O  O12  1  0.384829  0.140024  0.695631  1
  O  O13  1  0.405935  0.638759  0.491121  1
  O  O14  1  0.594307  0.361591  0.991522  1
  O  O15  1  0.614887  0.859988  0.196147  1
  O  O16  1  0.735252  0.792070  0.839854  1
  O  O17  1  0.764491  0.291483  0.339196  1
  O  O18  1  0.884578  0.359810  0.695711  1
  O  O19  1  0.905711  0.860936  0.491108  1
