# generated using pymatgen
data_Sn2N2O
_symmetry_space_group_name_H-M   'P 1'
_cell_length_a   8.83730547
_cell_length_b   8.85100588
_cell_length_c   8.84177490
_cell_angle_alpha   109.45514478
_cell_angle_beta   109.27718355
_cell_angle_gamma   109.55654093
_symmetry_Int_Tables_number   1
_chemical_formula_structural   Sn2N2O
_chemical_formula_sum   'Sn16 N16 O8'
_cell_volume   533.20613467
_cell_formula_units_Z   8
loop_
 _symmetry_equiv_pos_site_id
 _symmetry_equiv_pos_as_xyz
  1  'x, y, z'
loop_
 _atom_site_type_symbol
 _atom_site_label
 _atom_site_symmetry_multiplicity
 _atom_site_fract_x
 _atom_site_fract_y
 _atom_site_fract_z
 _atom_site_occupancy
  Sn  Sn0  1  0.966506  0.247731  0.215702  1
  Sn  Sn1  1  0.505329  0.003846  0.996145  1
  Sn  Sn2  1  0.790423  0.026345  0.760274  1
  Sn  Sn3  1  0.713265  0.464503  0.248373  1
  Sn  Sn4  1  0.756022  0.290263  0.530378  1
  Sn  Sn5  1  0.748205  0.773860  0.027872  1
  Sn  Sn6  1  0.013115  0.505271  0.998795  1
  Sn  Sn7  1  0.004573  0.991420  0.504183  1
  Sn  Sn8  1  0.505351  0.511802  0.511542  1
  Sn  Sn9  1  0.458224  0.250198  0.719592  1
  Sn  Sn10  1  0.535981  0.753147  0.288561  1
  Sn  Sn11  1  0.264569  0.725336  0.475473  1
  Sn  Sn12  1  0.243502  0.218575  0.957222  1
  Sn  Sn13  1  0.271831  0.525118  0.735060  1
  Sn  Sn14  1  0.218840  0.955641  0.250778  1
  Sn  Sn15  1  0.026613  0.742467  0.776816  1
  N  N16  1  0.737480  0.228272  0.270618  1
  N  N17  1  0.763914  0.729875  0.264566  1
  N  N18  1  0.037353  0.274077  0.002856  1
  N  N19  1  0.760271  0.539257  0.529672  1
  N  N20  1  0.224576  0.456832  0.451420  1
  N  N21  1  0.503347  0.239597  0.966680  1
  N  N22  1  0.277611  0.730294  0.228539  1
  N  N23  1  0.998861  0.954723  0.734918  1
  N  N24  1  0.962835  0.733516  0.999591  1
  N  N25  1  0.537862  0.533290  0.771942  1
  N  N26  1  0.548589  0.779747  0.546624  1
  N  N27  1  0.216615  0.268046  0.724935  1
  N  N28  1  0.030653  0.489694  0.759047  1
  N  N29  1  0.734442  0.986889  0.964661  1
  N  N30  1  0.270453  0.775366  0.736237  1
  N  N31  1  0.238342  0.963134  0.504123  1
  O  O32  1  0.767950  0.044923  0.496060  1
  O  O33  1  0.956695  0.512738  0.228798  1
  O  O34  1  0.283197  0.018615  0.061610  1
  O  O35  1  0.462006  0.223117  0.450601  1
  O  O36  1  0.443780  0.457617  0.224830  1
  O  O37  1  0.015547  0.049735  0.282000  1
  O  O38  1  0.715734  0.257166  0.760139  1
  O  O39  1  0.489537  0.767956  0.042766  1
