# generated using pymatgen
data_Ba2YBr7
_symmetry_space_group_name_H-M   'P 1'
_cell_length_a   13.18367819
_cell_length_b   12.05825548
_cell_length_c   13.18367819
_cell_angle_alpha   93.15405990
_cell_angle_beta   117.64771890
_cell_angle_gamma   122.07088020
_symmetry_Int_Tables_number   1
_chemical_formula_structural   Ba2YBr7
_chemical_formula_sum   'Ba8 Y4 Br28'
_cell_volume   1440.81081991
_cell_formula_units_Z   4
loop_
 _symmetry_equiv_pos_site_id
 _symmetry_equiv_pos_as_xyz
  1  'x, y, z'
loop_
 _atom_site_type_symbol
 _atom_site_label
 _atom_site_symmetry_multiplicity
 _atom_site_fract_x
 _atom_site_fract_y
 _atom_site_fract_z
 _atom_site_occupancy
  Ba  Ba0  1  0.723885  0.124809  0.260455  1
  Ba  Ba1  1  0.788241  0.724660  0.320261  1
  Ba  Ba2  1  0.404399  0.224660  0.436419  1
  Ba  Ba3  1  0.135646  0.375191  0.099075  1
  Ba  Ba4  1  0.864354  0.624809  0.900925  1
  Ba  Ba5  1  0.595601  0.775340  0.563581  1
  Ba  Ba6  1  0.211759  0.275340  0.679739  1
  Ba  Ba7  1  0.276115  0.875191  0.739545  1
  Y  Y8  1  0.336738  0.168312  0.011641  1
  Y  Y9  1  0.843328  0.331688  0.668426  1
  Y  Y10  1  0.156672  0.668312  0.331574  1
  Y  Y11  1  0.663262  0.831688  0.988359  1
  Br  Br12  1  0.929529  0.052735  0.218864  1
  Br  Br13  1  0.915483  0.453302  0.091648  1
  Br  Br14  1  0.700918  0.626168  0.036783  1
  Br  Br15  1  0.008274  0.638491  0.439498  1
  Br  Br16  1  0.620891  0.353164  0.225428  1
  Br  Br17  1  0.589386  0.126168  0.425250  1
  Br  Br18  1  0.198993  0.138491  0.130217  1
  Br  Br19  1  0.872264  0.146836  0.767727  1
  Br  Br20  1  0.553134  0.778925  0.131850  1
  Br  Br21  1  0.833871  0.552735  0.623206  1
  Br  Br22  1  0.647075  0.278925  0.725790  1
  Br  Br23  1  0.504414  0.524452  0.352815  1
  Br  Br24  1  0.638346  0.046698  0.962180  1
  Br  Br25  1  0.171637  0.024452  0.520037  1
  Br  Br26  1  0.828363  0.975548  0.479963  1
  Br  Br27  1  0.361654  0.953302  0.037820  1
  Br  Br28  1  0.495586  0.475548  0.647185  1
  Br  Br29  1  0.352925  0.721075  0.274210  1
  Br  Br30  1  0.166129  0.447265  0.376794  1
  Br  Br31  1  0.446866  0.221075  0.868150  1
  Br  Br32  1  0.127736  0.853164  0.232273  1
  Br  Br33  1  0.801007  0.861509  0.869783  1
  Br  Br34  1  0.410614  0.873832  0.574750  1
  Br  Br35  1  0.379109  0.646836  0.774572  1
  Br  Br36  1  0.991726  0.361509  0.560502  1
  Br  Br37  1  0.299082  0.373832  0.963217  1
  Br  Br38  1  0.084517  0.546698  0.908352  1
  Br  Br39  1  0.070471  0.947265  0.781136  1
