# generated using pymatgen
data_K3VC5N5O
_symmetry_space_group_name_H-M   'P 1'
_cell_length_a   8.61473663
_cell_length_b   9.88744951
_cell_length_c   13.55932883
_cell_angle_alpha   90.00000000
_cell_angle_beta   90.00000000
_cell_angle_gamma   90.00000000
_symmetry_Int_Tables_number   1
_chemical_formula_structural   K3VC5N5O
_chemical_formula_sum   'K12 V4 C20 N20 O4'
_cell_volume   1154.95343950
_cell_formula_units_Z   4
loop_
 _symmetry_equiv_pos_site_id
 _symmetry_equiv_pos_as_xyz
  1  'x, y, z'
loop_
 _atom_site_type_symbol
 _atom_site_label
 _atom_site_symmetry_multiplicity
 _atom_site_fract_x
 _atom_site_fract_y
 _atom_site_fract_z
 _atom_site_occupancy
  K  K0  1  0.630282  0.717392  0.979026  1
  K  K1  1  0.375398  0.000850  0.752395  1
  K  K2  1  0.875398  0.500850  0.747605  1
  K  K3  1  0.365129  0.742454  0.490299  1
  K  K4  1  0.369718  0.217392  0.020974  1
  K  K5  1  0.134871  0.742454  0.990299  1
  K  K6  1  0.865129  0.242454  0.009701  1
  K  K7  1  0.130282  0.217392  0.520974  1
  K  K8  1  0.869718  0.717392  0.479026  1
  K  K9  1  0.124602  0.000850  0.252395  1
  K  K10  1  0.634871  0.242454  0.509701  1
  K  K11  1  0.624602  0.500850  0.247605  1
  V  V12  1  0.872842  0.920434  0.774624  1
  V  V13  1  0.627158  0.920434  0.274624  1
  V  V14  1  0.372842  0.420434  0.725376  1
  V  V15  1  0.127158  0.420434  0.225376  1
  C  C16  1  0.798753  0.013359  0.364987  1
  C  C17  1  0.800261  0.898779  0.162817  1
  C  C18  1  0.454139  0.904890  0.162491  1
  C  C19  1  0.953179  0.512492  0.135569  1
  C  C20  1  0.046821  0.012492  0.864431  1
  C  C21  1  0.699739  0.898779  0.662817  1
  C  C22  1  0.199739  0.398779  0.837183  1
  C  C23  1  0.129613  0.631437  0.293858  1
  C  C24  1  0.546821  0.512492  0.635569  1
  C  C25  1  0.701247  0.013359  0.864987  1
  C  C26  1  0.298753  0.513359  0.135013  1
  C  C27  1  0.045861  0.904890  0.662491  1
  C  C28  1  0.300261  0.398779  0.337183  1
  C  C29  1  0.370387  0.631437  0.793858  1
  C  C30  1  0.870387  0.131437  0.706142  1
  C  C31  1  0.954139  0.404890  0.337509  1
  C  C32  1  0.545861  0.404890  0.837509  1
  C  C33  1  0.201247  0.513359  0.635013  1
  C  C34  1  0.453179  0.012492  0.364431  1
  C  C35  1  0.629613  0.131437  0.206142  1
  N  N36  1  0.630216  0.236167  0.165007  1
  N  N37  1  0.369784  0.736167  0.834993  1
  N  N38  1  0.644990  0.558513  0.585747  1
  N  N39  1  0.855010  0.558513  0.085747  1
  N  N40  1  0.130216  0.736167  0.334993  1
  N  N41  1  0.896479  0.060740  0.414583  1
  N  N42  1  0.869784  0.236167  0.665007  1
  N  N43  1  0.644393  0.400478  0.897238  1
  N  N44  1  0.601531  0.887381  0.603364  1
  N  N45  1  0.603521  0.060740  0.914583  1
  N  N46  1  0.103521  0.560740  0.585417  1
  N  N47  1  0.101531  0.387381  0.896636  1
  N  N48  1  0.355010  0.058513  0.414253  1
  N  N49  1  0.898469  0.887381  0.103364  1
  N  N50  1  0.396479  0.560740  0.085417  1
  N  N51  1  0.855607  0.400478  0.397238  1
  N  N52  1  0.144393  0.900478  0.602762  1
  N  N53  1  0.144990  0.058513  0.914253  1
  N  N54  1  0.355607  0.900478  0.102762  1
  N  N55  1  0.398469  0.387381  0.396636  1
  O  O56  1  0.869655  0.765633  0.825734  1
  O  O57  1  0.130345  0.265633  0.174266  1
  O  O58  1  0.630345  0.765633  0.325734  1
  O  O59  1  0.369655  0.265633  0.674266  1
