# generated using pymatgen
data_Li4V2(PO4)3
_symmetry_space_group_name_H-M   'P 1'
_cell_length_a   9.08722382
_cell_length_b   9.08722382
_cell_length_c   8.43120330
_cell_angle_alpha   57.41831173
_cell_angle_beta   122.58168827
_cell_angle_gamma   119.75211778
_symmetry_Int_Tables_number   1
_chemical_formula_structural   Li4V2(PO4)3
_chemical_formula_sum   'Li8 V4 P6 O24'
_cell_volume   473.01449559
_cell_formula_units_Z   2
loop_
 _symmetry_equiv_pos_site_id
 _symmetry_equiv_pos_as_xyz
  1  'x, y, z'
loop_
 _atom_site_type_symbol
 _atom_site_label
 _atom_site_symmetry_multiplicity
 _atom_site_fract_x
 _atom_site_fract_y
 _atom_site_fract_z
 _atom_site_occupancy
  Li  Li0  1  0.250563  0.843423  0.751083  1
  Li  Li1  1  0.156577  0.749437  0.251083  1
  Li  Li2  1  0.000000  0.500000  0.000000  1
  Li  Li3  1  0.656327  0.656327  0.750000  1
  Li  Li4  1  0.343673  0.343673  0.250000  1
  Li  Li5  1  0.843423  0.250563  0.748917  1
  Li  Li6  1  0.500000  0.000000  0.500000  1
  Li  Li7  1  0.749437  0.156577  0.248917  1
  V  V8  1  0.643996  0.855585  0.932527  1
  V  V9  1  0.144415  0.356004  0.432527  1
  V  V10  1  0.855585  0.643996  0.567473  1
  V  V11  1  0.356004  0.144415  0.067473  1
  P  P12  1  0.250241  0.553988  0.748789  1
  P  P13  1  0.946793  0.946793  0.750000  1
  P  P14  1  0.446012  0.749759  0.248789  1
  P  P15  1  0.553988  0.250241  0.751211  1
  P  P16  1  0.053207  0.053207  0.250000  1
  P  P17  1  0.749759  0.446012  0.251211  1
  O  O18  1  0.106009  0.974547  0.943162  1
  O  O19  1  0.025453  0.893991  0.443162  1
  O  O20  1  0.099254  0.571777  0.769956  1
  O  O21  1  0.400143  0.743611  0.728153  1
  O  O22  1  0.313788  0.394085  0.941231  1
  O  O23  1  0.187746  0.525575  0.554626  1
  O  O24  1  0.756082  0.926835  0.730510  1
  O  O25  1  0.428223  0.900746  0.269956  1
  O  O26  1  0.256389  0.599857  0.228153  1
  O  O27  1  0.605915  0.686212  0.441231  1
  O  O28  1  0.474425  0.812254  0.054626  1
  O  O29  1  0.926835  0.756082  0.769490  1
  O  O30  1  0.073165  0.243918  0.230510  1
  O  O31  1  0.525575  0.187746  0.945374  1
  O  O32  1  0.394085  0.313788  0.558769  1
  O  O33  1  0.743611  0.400143  0.771847  1
  O  O34  1  0.571777  0.099254  0.730044  1
  O  O35  1  0.243918  0.073165  0.269490  1
  O  O36  1  0.812254  0.474425  0.445374  1
  O  O37  1  0.686212  0.605915  0.058769  1
  O  O38  1  0.599857  0.256389  0.271847  1
  O  O39  1  0.900746  0.428223  0.230044  1
  O  O40  1  0.974547  0.106009  0.556838  1
  O  O41  1  0.893991  0.025453  0.056838  1
