# generated using pymatgen
data_Li4Nb2Co3Sn3O16
_symmetry_space_group_name_H-M   'P 1'
_cell_length_a   6.18288094
_cell_length_b   6.16844686
_cell_length_c   9.89427769
_cell_angle_alpha   90.00205685
_cell_angle_beta   89.78322482
_cell_angle_gamma   119.94170856
_symmetry_Int_Tables_number   1
_chemical_formula_structural   Li4Nb2Co3Sn3O16
_chemical_formula_sum   'Li4 Nb2 Co3 Sn3 O16'
_cell_volume   326.98824121
_cell_formula_units_Z   1
loop_
 _symmetry_equiv_pos_site_id
 _symmetry_equiv_pos_as_xyz
  1  'x, y, z'
loop_
 _atom_site_type_symbol
 _atom_site_label
 _atom_site_symmetry_multiplicity
 _atom_site_fract_x
 _atom_site_fract_y
 _atom_site_fract_z
 _atom_site_occupancy
  Li  Li0  1  0.350454  0.674903  0.900982  1
  Li  Li1  1  0.977580  0.988616  0.983048  1
  Li  Li2  1  0.989383  0.995257  0.498297  1
  Li  Li3  1  0.662239  0.331809  0.405394  1
  Nb  Nb4  1  0.351549  0.676168  0.498109  1
  Nb  Nb5  1  0.701004  0.350007  0.979309  1
  Co  Co6  1  0.656149  0.828601  0.213766  1
  Co  Co7  1  0.835028  0.660534  0.711984  1
  Co  Co8  1  0.834880  0.173957  0.711729  1
  Sn  Sn9  1  0.167760  0.831389  0.214197  1
  Sn  Sn10  1  0.168683  0.336639  0.214323  1
  Sn  Sn11  1  0.345293  0.172816  0.715622  1
  O  O12  1  0.178521  0.835678  0.588331  1
  O  O13  1  0.024684  0.512213  0.339648  1
  O  O14  1  0.327651  0.663899  0.102182  1
  O  O15  1  0.993120  0.996649  0.311810  1
  O  O16  1  0.999177  0.999405  0.797343  1
  O  O17  1  0.178857  0.343153  0.588143  1
  O  O18  1  0.469592  0.955881  0.346770  1
  O  O19  1  0.470443  0.514947  0.346597  1
  O  O20  1  0.317513  0.158566  0.094755  1
  O  O21  1  0.658109  0.829330  0.588194  1
  O  O22  1  0.517640  0.475522  0.853187  1
  O  O23  1  0.517353  0.041651  0.853107  1
  O  O24  1  0.670406  0.335156  0.609894  1
  O  O25  1  0.831258  0.661810  0.092181  1
  O  O26  1  0.974221  0.486377  0.856482  1
  O  O27  1  0.831452  0.169368  0.092453  1
