# generated using pymatgen
data_Ba4Hf3O10
_symmetry_space_group_name_H-M   'P 1'
_cell_length_a   5.93499656
_cell_length_b   15.50927085
_cell_length_c   30.44162772
_cell_angle_alpha   11.06770836
_cell_angle_beta   89.99999484
_cell_angle_gamma   89.99995772
_symmetry_Int_Tables_number   1
_chemical_formula_structural   Ba4Hf3O10
_chemical_formula_sum   'Ba8 Hf6 O20'
_cell_volume   537.91116966
_cell_formula_units_Z   2
loop_
 _symmetry_equiv_pos_site_id
 _symmetry_equiv_pos_as_xyz
  1  'x, y, z'
loop_
 _atom_site_type_symbol
 _atom_site_label
 _atom_site_symmetry_multiplicity
 _atom_site_fract_x
 _atom_site_fract_y
 _atom_site_fract_z
 _atom_site_occupancy
  Ba  Ba0  1  -0.000003  0.000019  0.568781  1
  Ba  Ba1  1  0.000001  0.999994  0.296326  1
  Ba  Ba2  1  0.000001  0.999994  0.703601  1
  Ba  Ba3  1  0.000000  0.000020  0.431190  1
  Ba  Ba4  1  0.500003  0.000005  0.796321  1
  Ba  Ba5  1  0.499997  0.999978  0.068791  1
  Ba  Ba6  1  0.500003  0.000005  0.203592  1
  Ba  Ba7  1  0.500000  0.999984  0.931207  1
  Hf  Hf8  1  0.999984  0.000019  0.999986  1
  Hf  Hf9  1  0.999997  -0.000002  0.139089  1
  Hf  Hf10  1  0.999997  0.999997  0.860885  1
  Hf  Hf11  1  0.499997  0.000003  0.360879  1
  Hf  Hf12  1  0.499984  0.999981  0.500001  1
  Hf  Hf13  1  0.499997  0.000003  0.639084  1
  O  O14  1  0.000002  0.000041  0.069061  1
  O  O15  1  -0.000001  0.999956  0.207651  1
  O  O16  1  0.000000  0.999955  0.792355  1
  O  O17  1  0.000002  0.000043  0.930899  1
  O  O18  1  0.229548  0.540665  0.729672  1
  O  O19  1  0.239159  0.478469  0.122379  1
  O  O20  1  0.239166  0.478497  0.399133  1
  O  O21  1  0.260776  0.478556  0.899127  1
  O  O22  1  0.260790  0.478540  0.622320  1
  O  O23  1  0.270240  0.540434  0.229787  1
  O  O24  1  0.500002  0.999959  0.569101  1
  O  O25  1  0.500000  0.000044  0.292306  1
  O  O26  1  0.500001  0.000045  0.707607  1
  O  O27  1  0.500003  0.999958  0.430939  1
  O  O28  1  0.729545  0.459338  0.770335  1
  O  O29  1  0.739170  0.521504  0.377629  1
  O  O30  1  0.739154  0.521524  0.100851  1
  O  O31  1  0.760778  0.521440  0.877685  1
  O  O32  1  0.760786  0.521467  0.600855  1
  O  O33  1  0.770237  0.459567  0.270221  1
