# generated using pymatgen
data_LiEuPSe4
_symmetry_space_group_name_H-M   'P 1'
_cell_length_a   9.71258636
_cell_length_b   6.28293507
_cell_length_c   6.28293507
_cell_angle_alpha   105.64553723
_cell_angle_beta   90.00000000
_cell_angle_gamma   90.00000000
_symmetry_Int_Tables_number   1
_chemical_formula_structural   LiEuPSe4
_chemical_formula_sum   'Li2 Eu2 P2 Se8'
_cell_volume   369.20120698
_cell_formula_units_Z   2
loop_
 _symmetry_equiv_pos_site_id
 _symmetry_equiv_pos_as_xyz
  1  'x, y, z'
loop_
 _atom_site_type_symbol
 _atom_site_label
 _atom_site_symmetry_multiplicity
 _atom_site_fract_x
 _atom_site_fract_y
 _atom_site_fract_z
 _atom_site_occupancy
  Eu  Eu0  1  0.000000  0.106639  0.106639  1
  Eu  Eu1  1  0.500000  0.106639  0.106639  1
  Li  Li2  1  0.000000  0.632035  0.632035  1
  Li  Li3  1  0.500000  0.632035  0.632035  1
  P  P4  1  0.250000  0.415078  0.846824  1
  P  P5  1  0.750000  0.846824  0.415078  1
  Se  Se6  1  0.056884  0.253828  0.679910  1
  Se  Se7  1  0.250000  0.401608  0.200681  1
  Se  Se8  1  0.250000  0.772417  0.830573  1
  Se  Se9  1  0.443116  0.253828  0.679910  1
  Se  Se10  1  0.556884  0.679910  0.253828  1
  Se  Se11  1  0.750000  0.200681  0.401608  1
  Se  Se12  1  0.750000  0.830573  0.772417  1
  Se  Se13  1  0.943116  0.679910  0.253828  1
