# generated using pymatgen
data_LiCoSiO4
_symmetry_space_group_name_H-M   'P 1'
_cell_length_a   5.79042591
_cell_length_b   5.61051636
_cell_length_c   5.57675558
_cell_angle_alpha   60.19885553
_cell_angle_beta   90.00000000
_cell_angle_gamma   121.06653753
_symmetry_Int_Tables_number   1
_chemical_formula_structural   LiCoSiO4
_chemical_formula_sum   'Li2 Co2 Si2 O8'
_cell_volume   126.39498315
_cell_formula_units_Z   2
loop_
 _symmetry_equiv_pos_site_id
 _symmetry_equiv_pos_as_xyz
  1  'x, y, z'
loop_
 _atom_site_type_symbol
 _atom_site_label
 _atom_site_symmetry_multiplicity
 _atom_site_fract_x
 _atom_site_fract_y
 _atom_site_fract_z
 _atom_site_occupancy
  Li  Li0  1  0.000000  0.500000  0.000000  1
  Li  Li1  1  0.000000  0.500000  0.500000  1
  Co  Co2  1  0.000000  0.000000  0.000000  1
  Co  Co3  1  0.500000  0.000000  0.000000  1
  Si  Si4  1  0.390623  0.281245  0.359377  1
  Si  Si5  1  0.609377  0.718755  0.640623  1
  O  O6  1  0.260637  0.021274  0.248065  1
  O  O7  1  0.739363  0.978726  0.269339  1
  O  O8  1  0.266111  0.511543  0.244228  1
  O  O9  1  0.745432  0.511543  0.244228  1
  O  O10  1  0.260637  0.021274  0.730661  1
  O  O11  1  0.739363  0.978726  0.751935  1
  O  O12  1  0.733889  0.488457  0.755772  1
  O  O13  1  0.254568  0.488457  0.755772  1
