# generated using pymatgen
data_Ba4Li4Ti19O44
_symmetry_space_group_name_H-M   'P 1'
_cell_length_a   5.86254953
_cell_length_b   10.03204497
_cell_length_c   14.24870292
_cell_angle_alpha   89.92202240
_cell_angle_beta   90.08694597
_cell_angle_gamma   90.03193430
_symmetry_Int_Tables_number   1
_chemical_formula_structural   Ba4Li4Ti19O44
_chemical_formula_sum   'Ba4 Li4 Ti19 O44'
_cell_volume   838.01223091
_cell_formula_units_Z   1
loop_
 _symmetry_equiv_pos_site_id
 _symmetry_equiv_pos_as_xyz
  1  'x, y, z'
loop_
 _atom_site_type_symbol
 _atom_site_label
 _atom_site_symmetry_multiplicity
 _atom_site_fract_x
 _atom_site_fract_y
 _atom_site_fract_z
 _atom_site_occupancy
  Ba  Ba0  1  0.254483  0.088480  0.409306  1
  Ba  Ba1  1  0.248672  0.393871  0.907603  1
  Ba  Ba2  1  0.752945  0.602450  0.099569  1
  Ba  Ba3  1  0.744155  0.901116  0.590656  1
  Li  Li4  1  0.250704  0.403357  0.332644  1
  Li  Li5  1  0.252008  0.430942  0.481834  1
  Li  Li6  1  0.747909  0.576125  0.535821  1
  Li  Li7  1  0.750769  0.925757  0.039093  1
  Ti  Ti8  1  0.001353  0.834229  0.829263  1
  Ti  Ti9  1  0.999232  0.163887  0.171836  1
  Ti  Ti10  1  0.997709  0.331728  0.671099  1
  Ti  Ti11  1  0.252182  0.891613  0.176333  1
  Ti  Ti12  1  0.248142  0.062307  0.666433  1
  Ti  Ti13  1  0.242465  0.430280  0.155516  1
  Ti  Ti14  1  0.250811  0.744377  0.003710  1
  Ti  Ti15  1  0.227633  0.752595  0.486580  1
  Ti  Ti16  1  0.258569  0.613345  0.665563  1
  Ti  Ti17  1  0.502840  0.332147  0.672036  1
  Ti  Ti18  1  0.501955  0.160063  0.174766  1
  Ti  Ti19  1  0.498479  0.834883  0.829752  1
  Ti  Ti20  1  0.493887  0.664691  0.328458  1
  Ti  Ti21  1  0.742427  0.235231  0.489489  1
  Ti  Ti22  1  0.769750  0.414395  0.328732  1
  Ti  Ti23  1  0.752581  0.566119  0.832598  1
  Ti  Ti24  1  0.752102  0.107935  0.834444  1
  Ti  Ti25  1  0.743291  0.265223  0.997567  1
  Ti  Ti26  1  0.771676  0.908958  0.333343  1
  O  O27  1  0.007398  0.474900  0.242784  1
  O  O28  1  0.002018  0.998217  0.748284  1
  O  O29  1  0.009693  0.325035  0.084909  1
  O  O30  1  0.007180  0.176733  0.590237  1
  O  O31  1  0.032665  0.822185  0.082897  1
  O  O32  1  0.030436  0.675517  0.582137  1
  O  O33  1  0.248171  0.076872  0.109580  1
  O  O34  1  0.249507  0.428999  0.609472  1
  O  O35  1  0.253426  0.254754  0.238677  1
  O  O36  1  0.247640  0.567376  0.068239  1
  O  O37  1  0.270569  0.748936  0.250351  1
  O  O38  1  0.254353  0.935764  0.576171  1
  O  O39  1  0.249392  0.890147  0.909804  1
  O  O40  1  0.251053  0.247916  0.737978  1
  O  O41  1  0.263758  0.600090  0.416554  1
  O  O42  1  0.248947  0.757306  0.753422  1
  O  O43  1  0.469076  0.823462  0.081111  1
  O  O44  1  0.469142  0.677843  0.585245  1
  O  O45  1  0.495832  0.328109  0.085759  1
  O  O46  1  0.495897  0.177499  0.588993  1
  O  O47  1  0.496410  0.998338  0.748773  1
  O  O48  1  0.490993  0.495754  0.249748  1
  O  O49  1  0.500992  0.000939  0.250314  1
  O  O50  1  0.504155  0.500368  0.752498  1
  O  O51  1  0.500241  0.826078  0.414150  1
  O  O52  1  0.505849  0.675828  0.910335  1
  O  O53  1  0.524469  0.322505  0.415416  1
  O  O54  1  0.536886  0.182176  0.914127  1
  O  O55  1  0.728420  0.566469  0.396794  1
  O  O56  1  0.743056  0.072654  0.431424  1
  O  O57  1  0.750993  0.108078  0.087772  1
  O  O58  1  0.750453  0.241633  0.245188  1
  O  O59  1  0.749645  0.255756  0.746015  1
  O  O60  1  0.749795  0.395087  0.590182  1
  O  O61  1  0.750232  0.435707  0.930083  1
  O  O62  1  0.733541  0.761060  0.263655  1
  O  O63  1  0.749567  0.746492  0.762759  1
  O  O64  1  0.750531  0.927173  0.896249  1
  O  O65  1  0.978578  0.327757  0.415785  1
  O  O66  1  0.960766  0.182240  0.914332  1
  O  O67  1  0.992386  0.675218  0.910066  1
  O  O68  1  0.998561  0.848442  0.422132  1
  O  O69  1  0.990428  0.498316  0.754121  1
  O  O70  1  0.998230  0.997856  0.251482  1
