# generated using pymatgen
data_V4O7F5
_symmetry_space_group_name_H-M   'P 1'
_cell_length_a   5.26960494
_cell_length_b   5.36717486
_cell_length_c   9.02109998
_cell_angle_alpha   73.73288549
_cell_angle_beta   89.93343380
_cell_angle_gamma   60.23558550
_symmetry_Int_Tables_number   1
_chemical_formula_structural   V4O7F5
_chemical_formula_sum   'V4 O7 F5'
_cell_volume   209.68473627
_cell_formula_units_Z   1
loop_
 _symmetry_equiv_pos_site_id
 _symmetry_equiv_pos_as_xyz
  1  'x, y, z'
loop_
 _atom_site_type_symbol
 _atom_site_label
 _atom_site_symmetry_multiplicity
 _atom_site_fract_x
 _atom_site_fract_y
 _atom_site_fract_z
 _atom_site_occupancy
  V  V0  1  0.731079  0.523509  0.264108  1
  V  V1  1  0.452646  0.040014  0.509983  1
  V  V2  1  0.246067  0.547021  0.752288  1
  V  V3  1  0.041178  0.002961  0.014960  1
  O  O4  1  0.951320  0.237416  0.119637  1
  O  O5  1  0.565161  0.740406  0.374934  1
  O  O6  1  0.406414  0.750376  0.082154  1
  O  O7  1  0.411721  0.741203  0.662381  1
  O  O8  1  0.449227  0.237517  0.624632  1
  O  O9  1  0.052619  0.743352  0.867559  1
  O  O10  1  0.102254  0.240308  0.411903  1
  F  F11  1  0.921971  0.734122  0.586558  1
  F  F12  1  0.920700  0.744702  0.152679  1
  F  F13  1  0.599018  0.229861  0.338553  1
  F  F14  1  0.574871  0.237674  0.908274  1
  F  F15  1  0.073755  0.249561  0.829395  1
