# generated using pymatgen
data_Al10ZnO16
_symmetry_space_group_name_H-M   'P 1'
_cell_length_a   5.71554867
_cell_length_b   5.71554867
_cell_length_c   9.70320883
_cell_angle_alpha   90.00000000
_cell_angle_beta   72.87133431
_cell_angle_gamma   120.00000000
_symmetry_Int_Tables_number   1
_chemical_formula_structural   Al10ZnO16
_chemical_formula_sum   'Al10 Zn1 O16'
_cell_volume   258.15037687
_cell_formula_units_Z   1
loop_
 _symmetry_equiv_pos_site_id
 _symmetry_equiv_pos_as_xyz
  1  'x, y, z'
loop_
 _atom_site_type_symbol
 _atom_site_label
 _atom_site_symmetry_multiplicity
 _atom_site_fract_x
 _atom_site_fract_y
 _atom_site_fract_z
 _atom_site_occupancy
  Al  Al0  1  0.496707  0.998353  0.004940  1
  Al  Al1  1  0.884509  0.192254  0.423238  1
  Al  Al2  1  0.494920  0.250262  0.260422  1
  Al  Al3  1  0.494920  0.744658  0.260422  1
  Al  Al4  1  0.503546  0.259431  0.737023  1
  Al  Al5  1  0.877784  0.688892  0.933324  1
  Al  Al6  1  0.018862  0.259431  0.737023  1
  Al  Al7  1  0.989315  0.744658  0.260422  1
  Al  Al8  1  0.503546  0.744115  0.737023  1
  Al  Al9  1  0.119421  0.809711  0.570868  1
  Zn  Zn10  1  0.120391  0.310196  0.069413  1
  O  O11  1  0.700710  0.100355  0.135316  1
  O  O12  1  0.264329  0.100355  0.135316  1
  O  O13  1  0.746486  0.123243  0.630271  1
  O  O14  1  0.759406  0.382405  0.358189  1
  O  O15  1  0.744571  0.622285  0.133144  1
  O  O16  1  0.264810  0.382405  0.358189  1
  O  O17  1  0.739258  0.350763  0.872249  1
  O  O18  1  0.759406  0.877001  0.358189  1
  O  O19  1  0.264329  0.663973  0.135316  1
  O  O20  1  0.741028  0.620515  0.640399  1
  O  O21  1  0.239088  0.118573  0.640399  1
  O  O22  1  0.239088  0.620515  0.640399  1
  O  O23  1  0.250810  0.875405  0.373784  1
  O  O24  1  0.266517  0.383259  0.850224  1
  O  O25  1  0.739258  0.888493  0.872249  1
  O  O26  1  0.276987  0.888493  0.872249  1
