# generated using pymatgen
data_Li3Mn4(PO4)6
_symmetry_space_group_name_H-M   'P 1'
_cell_length_a   8.76351305
_cell_length_b   8.60378355
_cell_length_c   8.51115330
_cell_angle_alpha   90.27783510
_cell_angle_beta   60.11505764
_cell_angle_gamma   121.08264334
_symmetry_Int_Tables_number   1
_chemical_formula_structural   Li3Mn4(PO4)6
_chemical_formula_sum   'Li3 Mn4 P6 O24'
_cell_volume   448.14541059
_cell_formula_units_Z   1
loop_
 _symmetry_equiv_pos_site_id
 _symmetry_equiv_pos_as_xyz
  1  'x, y, z'
loop_
 _atom_site_type_symbol
 _atom_site_label
 _atom_site_symmetry_multiplicity
 _atom_site_fract_x
 _atom_site_fract_y
 _atom_site_fract_z
 _atom_site_occupancy
  Li  Li0  1  0.977704  0.027640  0.652913  1
  Li  Li1  1  0.413260  0.751411  0.693491  1
  Li  Li2  1  0.805265  0.358188  0.163376  1
  Mn  Mn3  1  0.290370  0.356388  0.863325  1
  Mn  Mn4  1  0.719919  0.153408  0.635929  1
  Mn  Mn5  1  0.278929  0.852043  0.363222  1
  Mn  Mn6  1  0.711539  0.643946  0.137942  1
  P  P7  1  0.508296  0.750283  0.970056  1
  P  P8  1  0.780588  0.035879  0.254700  1
  P  P9  1  0.225128  0.473713  0.531908  1
  P  P10  1  0.787913  0.532077  0.463460  1
  P  P11  1  0.198430  0.953024  0.756683  1
  P  P12  1  0.494695  0.249693  0.033269  1
  O  O13  1  0.189722  0.126116  0.796848  1
  O  O14  1  0.650997  0.258333  0.835282  1
  O  O15  1  0.773331  0.027078  0.440546  1
  O  O16  1  0.358453  0.595840  0.920427  1
  O  O17  1  0.028853  0.275235  0.582817  1
  O  O18  1  0.577640  0.020400  0.294459  1
  O  O19  1  0.674080  0.722258  0.958719  1
  O  O20  1  0.011004  0.763768  0.932343  1
  O  O21  1  0.271274  0.484019  0.687630  1
  O  O22  1  0.596576  0.494493  0.660773  1
  O  O23  1  0.344888  0.055620  0.192792  1
  O  O24  1  0.819507  0.370771  0.452488  1
  O  O25  1  0.192158  0.636448  0.536806  1
  O  O26  1  0.660335  0.940845  0.802918  1
  O  O27  1  0.973347  0.235840  0.088911  1
  O  O28  1  0.414128  0.512478  0.334308  1
  O  O29  1  0.401744  0.974925  0.707976  1
  O  O30  1  0.332911  0.281660  0.039674  1
  O  O31  1  0.173405  0.940995  0.585463  1
  O  O32  1  0.755563  0.538223  0.300972  1
  O  O33  1  0.646948  0.405589  0.080962  1
  O  O34  1  0.987813  0.727117  0.422207  1
  O  O35  1  0.350534  0.744493  0.165790  1
  O  O36  1  0.795358  0.873398  0.198054  1
