# generated using pymatgen
data_Na5Bi2P(CO4)4
_symmetry_space_group_name_H-M   'P 1'
_cell_length_a   10.37028643
_cell_length_b   10.35559446
_cell_length_c   17.92346481
_cell_angle_alpha   106.30574361
_cell_angle_beta   73.76720121
_cell_angle_gamma   119.68911127
_symmetry_Int_Tables_number   1
_chemical_formula_structural   Na5Bi2P(CO4)4
_chemical_formula_sum   'Na20 Bi8 P4 C16 O64'
_cell_volume   1581.93033851
_cell_formula_units_Z   4
loop_
 _symmetry_equiv_pos_site_id
 _symmetry_equiv_pos_as_xyz
  1  'x, y, z'
loop_
 _atom_site_type_symbol
 _atom_site_label
 _atom_site_symmetry_multiplicity
 _atom_site_fract_x
 _atom_site_fract_y
 _atom_site_fract_z
 _atom_site_occupancy
  Na  Na0  1  0.282400  0.216540  0.033212  1
  Na  Na1  1  0.216892  0.899618  0.464846  1
  Na  Na2  1  0.517201  0.589293  0.155409  1
  Na  Na3  1  0.589884  0.906594  0.341982  1
  Na  Na4  1  0.914927  0.596385  0.159507  1
  Na  Na5  1  0.903694  0.217670  0.031975  1
  Na  Na6  1  0.592861  0.529179  0.342806  1
  Na  Na7  1  0.215416  0.284236  0.465737  1
  Na  Na8  1  0.783116  0.716674  0.532873  1
  Na  Na9  1  0.604183  0.285374  0.466671  1
  Na  Na10  1  0.907726  0.971933  0.162635  1
  Na  Na11  1  0.100245  0.783174  0.965141  1
  Na  Na12  1  0.410359  0.483268  0.655467  1
  Na  Na13  1  0.093959  0.410086  0.841978  1
  Na  Na14  1  0.403942  0.084887  0.659125  1
  Na  Na15  1  0.470683  0.407915  0.842502  1
  Na  Na16  1  0.781976  0.096357  0.531992  1
  Na  Na17  1  0.716339  0.784738  0.965440  1
  Na  Na18  1  0.028490  0.093201  0.662576  1
  Na  Na19  1  0.714683  0.395565  0.966637  1
  Bi  Bi20  1  0.246110  0.749421  0.248279  1
  Bi  Bi21  1  0.008502  0.503827  0.499341  1
  Bi  Bi22  1  0.245003  0.245491  0.252532  1
  Bi  Bi23  1  0.497012  0.992373  0.999502  1
  Bi  Bi24  1  0.754877  0.253003  0.250002  1
  Bi  Bi25  1  0.249858  0.754029  0.748230  1
  Bi  Bi26  1  0.752904  0.754698  0.751988  1
  Bi  Bi27  1  0.746106  0.246413  0.750644  1
  P  P28  1  0.810660  0.685546  0.062484  1
  P  P29  1  0.687384  0.812724  0.437539  1
  P  P30  1  0.314450  0.189405  0.562488  1
  P  P31  1  0.187310  0.312304  0.937488  1
  C  C32  1  0.193018  0.919365  0.136191  1
  C  C33  1  0.588281  0.919418  0.140912  1
  C  C34  1  0.108283  0.387126  0.168080  1
  C  C35  1  0.304426  0.582974  0.359272  1
  C  C36  1  0.079832  0.807186  0.636683  1
  C  C37  1  0.583077  0.306381  0.138734  1
  C  C38  1  0.395067  0.114663  0.334691  1
  C  C39  1  0.080055  0.410954  0.640343  1
  C  C40  1  0.918186  0.581573  0.361163  1
  C  C41  1  0.611546  0.889297  0.668249  1
  C  C42  1  0.916024  0.196800  0.361167  1
  C  C43  1  0.419618  0.695283  0.859034  1
  C  C44  1  0.693515  0.416697  0.638529  1
  C  C45  1  0.887161  0.605422  0.834510  1
  C  C46  1  0.419884  0.083516  0.860298  1
  C  C47  1  0.802345  0.082752  0.862384  1
  O  O48  1  0.256250  0.867102  0.069943  1
  O  O49  1  0.133581  0.846495  0.194723  1
  O  O50  1  0.643027  0.973768  0.075076  1
  O  O51  1  0.109214  0.515420  0.174593  1
  O  O52  1  0.464437  0.796660  0.147127  1
  O  O53  1  0.047661  0.699207  0.356180  1
  O  O54  1  0.384381  0.983657  0.333579  1
  O  O55  1  0.659019  0.594265  0.030035  1
  O  O56  1  0.902922  0.840775  0.033470  1
  O  O57  1  0.230555  0.379644  0.167181  1
  O  O58  1  0.369234  0.652787  0.298733  1
  O  O59  1  0.903502  0.594374  0.031996  1
  O  O60  1  0.776799  0.712698  0.154521  1
  O  O61  1  0.186707  0.045466  0.142896  1
  O  O62  1  0.528315  0.241875  0.073419  1
  O  O63  1  0.026568  0.740911  0.570418  1
  O  O64  1  0.234413  0.637805  0.421026  1
  O  O65  1  0.985433  0.145346  0.297505  1
  O  O66  1  0.512957  0.365029  0.198960  1
  O  O67  1  0.309238  0.458220  0.356910  1
  O  O68  1  0.598819  0.909033  0.466486  1
  O  O69  1  0.712650  0.779985  0.345096  1
  O  O70  1  0.710092  0.313518  0.143262  1
  O  O71  1  0.204298  0.814762  0.643343  1
  O  O72  1  0.276148  0.128186  0.336839  1
  O  O73  1  0.134756  0.461532  0.574150  1
  O  O74  1  0.599394  0.657392  0.467303  1
  O  O75  1  0.838597  0.904361  0.471170  1
  O  O76  1  0.362397  0.013685  0.796619  1
  O  O77  1  0.845980  0.515601  0.301521  1
  O  O78  1  0.016836  0.722222  0.834187  1
  O  O79  1  0.525939  0.234268  0.334996  1
  O  O80  1  0.483612  0.770360  0.675181  1
  O  O81  1  0.981367  0.263604  0.163624  1
  O  O82  1  0.149759  0.482852  0.700440  1
  O  O83  1  0.662147  0.990230  0.200119  1
  O  O84  1  0.159404  0.097026  0.533453  1
  O  O85  1  0.405892  0.341118  0.530018  1
  O  O86  1  0.859171  0.526196  0.426869  1
  O  O87  1  0.735351  0.881725  0.665594  1
  O  O88  1  0.294017  0.690776  0.855245  1
  O  O89  1  0.786960  0.188845  0.359761  1
  O  O90  1  0.405450  0.096320  0.531955  1
  O  O91  1  0.287421  0.223464  0.654506  1
  O  O92  1  0.688304  0.541917  0.643282  1
  O  O93  1  0.484922  0.629087  0.799710  1
  O  O94  1  0.758990  0.361768  0.574093  1
  O  O95  1  0.007796  0.867389  0.694576  1
  O  O96  1  0.796789  0.953472  0.859003  1
  O  O97  1  0.974253  0.258425  0.425490  1
  O  O98  1  0.483358  0.766646  0.921253  1
  O  O99  1  0.090994  0.400930  0.966565  1
  O  O100  1  0.220230  0.286883  0.845041  1
  O  O101  1  0.631283  0.345451  0.698616  1
  O  O102  1  0.767085  0.617101  0.834928  1
  O  O103  1  0.095328  0.161038  0.971263  1
  O  O104  1  0.342742  0.400313  0.967095  1
  O  O105  1  0.619960  0.017464  0.665003  1
  O  O106  1  0.955252  0.285116  0.646057  1
  O  O107  1  0.541622  0.212704  0.859189  1
  O  O108  1  0.873794  0.473422  0.835770  1
  O  O109  1  0.360132  0.026445  0.925127  1
  O  O110  1  0.865828  0.151720  0.801577  1
  O  O111  1  0.741199  0.142823  0.927067  1
