# generated using pymatgen
data_LiSn4(PO4)3
_symmetry_space_group_name_H-M   'P 1'
_cell_length_a   8.00524023
_cell_length_b   8.65205083
_cell_length_c   12.09387354
_cell_angle_alpha   122.01574816
_cell_angle_beta   108.13175267
_cell_angle_gamma   96.73127369
_symmetry_Int_Tables_number   1
_chemical_formula_structural   LiSn4(PO4)3
_chemical_formula_sum   'Li2 Sn8 P6 O24'
_cell_volume   632.22641222
_cell_formula_units_Z   2
loop_
 _symmetry_equiv_pos_site_id
 _symmetry_equiv_pos_as_xyz
  1  'x, y, z'
loop_
 _atom_site_type_symbol
 _atom_site_label
 _atom_site_symmetry_multiplicity
 _atom_site_fract_x
 _atom_site_fract_y
 _atom_site_fract_z
 _atom_site_occupancy
  Li  Li0  1  0.343895  0.166108  0.277051  1
  Li  Li1  1  0.656105  0.833892  0.722949  1
  Sn  Sn2  1  0.047329  0.786008  0.484457  1
  Sn  Sn3  1  0.222590  0.902414  0.899809  1
  Sn  Sn4  1  0.234765  0.440145  0.883845  1
  Sn  Sn5  1  0.333349  0.653013  0.276109  1
  Sn  Sn6  1  0.666651  0.346987  0.723891  1
  Sn  Sn7  1  0.765235  0.559855  0.116155  1
  Sn  Sn8  1  0.777410  0.097586  0.100191  1
  Sn  Sn9  1  0.952671  0.213992  0.515543  1
  P  P10  1  0.980011  0.225301  0.942392  1
  P  P11  1  0.285573  0.551254  0.601875  1
  P  P12  1  0.438508  0.099252  0.768175  1
  P  P13  1  0.561492  0.900748  0.231825  1
  P  P14  1  0.714427  0.448746  0.398125  1
  P  P15  1  0.019989  0.774699  0.057608  1
  O  O16  1  0.078054  0.690128  0.929452  1
  O  O17  1  0.926854  0.003884  0.857610  1
  O  O18  1  0.221402  0.037410  0.721374  1
  O  O19  1  0.208369  0.621264  0.720012  1
  O  O20  1  0.178981  0.323907  0.489556  1
  O  O21  1  0.106988  0.712256  0.155824  1
  O  O22  1  0.522531  0.332972  0.876400  1
  O  O23  1  0.227889  0.642601  0.520197  1
  O  O24  1  0.532116  0.014616  0.843767  1
  O  O25  1  0.198280  0.333414  0.012875  1
  O  O26  1  0.497078  0.598676  0.666584  1
  O  O27  1  0.477311  0.049371  0.637124  1
  O  O28  1  0.522689  0.950629  0.362876  1
  O  O29  1  0.502922  0.401324  0.333416  1
  O  O30  1  0.801720  0.666586  0.987125  1
  O  O31  1  0.467884  0.985384  0.156233  1
  O  O32  1  0.772111  0.357399  0.479803  1
  O  O33  1  0.477469  0.667028  0.123600  1
  O  O34  1  0.893012  0.287744  0.844176  1
  O  O35  1  0.821019  0.676093  0.510444  1
  O  O36  1  0.791631  0.378736  0.279988  1
  O  O37  1  0.778598  0.962590  0.278626  1
  O  O38  1  0.073146  0.996116  0.142390  1
  O  O39  1  0.921946  0.309872  0.070548  1
