# generated using pymatgen
data_LiFe2(BO3)2
_symmetry_space_group_name_H-M   'P 1'
_cell_length_a   5.22683641
_cell_length_b   9.10604233
_cell_length_c   11.39827003
_cell_angle_alpha   67.32540156
_cell_angle_beta   76.99915967
_cell_angle_gamma   89.63024446
_symmetry_Int_Tables_number   1
_chemical_formula_structural   LiFe2(BO3)2
_chemical_formula_sum   'Li4 Fe8 B8 O24'
_cell_volume   485.79929198
_cell_formula_units_Z   4
loop_
 _symmetry_equiv_pos_site_id
 _symmetry_equiv_pos_as_xyz
  1  'x, y, z'
loop_
 _atom_site_type_symbol
 _atom_site_label
 _atom_site_symmetry_multiplicity
 _atom_site_fract_x
 _atom_site_fract_y
 _atom_site_fract_z
 _atom_site_occupancy
  Li  Li0  1  0.715730  0.730570  0.899276  1
  Li  Li1  1  0.523000  0.501878  0.652135  1
  Li  Li2  1  0.470390  0.466849  0.407668  1
  Li  Li3  1  0.232554  0.242590  0.163975  1
  Fe  Fe4  1  0.966617  0.655703  0.378461  1
  Fe  Fe5  1  0.733228  0.072558  0.877616  1
  Fe  Fe6  1  0.525544  0.848673  0.627042  1
  Fe  Fe7  1  0.755429  0.441934  0.133585  1
  Fe  Fe8  1  0.228022  0.561459  0.876277  1
  Fe  Fe9  1  0.487097  0.141126  0.384151  1
  Fe  Fe10  1  0.029304  0.341495  0.630750  1
  Fe  Fe11  1  0.259281  0.922261  0.129411  1
  B  B12  1  0.992149  0.320012  0.373546  1
  B  B13  1  0.738614  0.401834  0.873469  1
  B  B14  1  0.530707  0.191018  0.624831  1
  B  B15  1  0.762861  0.103428  0.128788  1
  B  B16  1  0.466255  0.811138  0.376765  1
  B  B17  1  0.223849  0.889210  0.884992  1
  B  B18  1  0.008443  0.673509  0.639779  1
  B  B19  1  0.271698  0.606146  0.119185  1
  O  O20  1  0.967888  0.907736  0.878870  1
  O  O21  1  0.880674  0.285398  0.845870  1
  O  O22  1  0.851827  0.503792  0.917552  1
  O  O23  1  0.872626  0.793664  0.655102  1
  O  O24  1  0.917347  0.570172  0.590835  1
  O  O25  1  0.736852  0.157061  0.687474  1
  O  O26  1  0.739203  0.330101  0.346681  1
  O  O27  1  0.487463  0.420591  0.856462  1
  O  O28  1  0.363129  0.775010  0.848807  1
  O  O29  1  0.549238  0.921130  0.421031  1
  O  O30  1  0.583915  0.672615  0.394274  1
  O  O31  1  0.360090  0.979858  0.929753  1
  O  O32  1  0.632883  0.019866  0.075812  1
  O  O33  1  0.416727  0.332605  0.606349  1
  O  O34  1  0.446993  0.086314  0.576155  1
  O  O35  1  0.615521  0.205379  0.178399  1
  O  O36  1  0.536290  0.618669  0.107467  1
  O  O37  1  0.251711  0.644862  0.679032  1
  O  O38  1  0.254078  0.842846  0.317908  1
  O  O39  1  0.082888  0.426260  0.417610  1
  O  O40  1  0.150320  0.207804  0.350742  1
  O  O41  1  0.161359  0.491715  0.083350  1
  O  O42  1  0.111622  0.708498  0.160734  1
  O  O43  1  0.022915  0.088997  0.130512  1
