# generated using pymatgen
data_TiMn(PO4)2
_symmetry_space_group_name_H-M   'P 1'
_cell_length_a   10.07499139
_cell_length_b   6.02667749
_cell_length_c   4.98386561
_cell_angle_alpha   90.00000000
_cell_angle_beta   89.20921362
_cell_angle_gamma   90.00000000
_symmetry_Int_Tables_number   1
_chemical_formula_structural   TiMn(PO4)2
_chemical_formula_sum   'Ti2 Mn2 P4 O16'
_cell_volume   302.58513724
_cell_formula_units_Z   2
loop_
 _symmetry_equiv_pos_site_id
 _symmetry_equiv_pos_as_xyz
  1  'x, y, z'
loop_
 _atom_site_type_symbol
 _atom_site_label
 _atom_site_symmetry_multiplicity
 _atom_site_fract_x
 _atom_site_fract_y
 _atom_site_fract_z
 _atom_site_occupancy
  Ti  Ti0  1  0.222628  0.750000  0.473050  1
  Ti  Ti1  1  0.777372  0.250000  0.526950  1
  Mn  Mn2  1  0.270747  0.250000  0.966876  1
  Mn  Mn3  1  0.729253  0.750000  0.033124  1
  P  P4  1  0.093257  0.250000  0.442219  1
  P  P5  1  0.397150  0.750000  0.893115  1
  P  P6  1  0.602850  0.250000  0.106885  1
  P  P7  1  0.906743  0.750000  0.557781  1
  O  O8  1  0.054137  0.750000  0.651979  1
  O  O9  1  0.098716  0.250000  0.743393  1
  O  O10  1  0.167363  0.045281  0.309126  1
  O  O11  1  0.167363  0.454719  0.309126  1
  O  O12  1  0.323896  0.944488  0.740547  1
  O  O13  1  0.323896  0.555512  0.740547  1
  O  O14  1  0.355746  0.750000  0.194338  1
  O  O15  1  0.455551  0.250000  0.145033  1
  O  O16  1  0.544449  0.750000  0.854967  1
  O  O17  1  0.644254  0.250000  0.805662  1
  O  O18  1  0.676104  0.055512  0.259453  1
  O  O19  1  0.676104  0.444488  0.259453  1
  O  O20  1  0.832637  0.545280  0.690874  1
  O  O21  1  0.832637  0.954720  0.690874  1
  O  O22  1  0.901284  0.750000  0.256607  1
  O  O23  1  0.945863  0.250000  0.348021  1
