# generated using pymatgen
data_Li2Fe(PO3)4
_symmetry_space_group_name_H-M   'P 1'
_cell_length_a   9.37521345
_cell_length_b   9.37581787
_cell_length_c   4.66945613
_cell_angle_alpha   89.99467627
_cell_angle_beta   90.00912643
_cell_angle_gamma   89.95268150
_symmetry_Int_Tables_number   1
_chemical_formula_structural   Li2Fe(PO3)4
_chemical_formula_sum   'Li4 Fe2 P8 O24'
_cell_volume   410.44641868
_cell_formula_units_Z   2
loop_
 _symmetry_equiv_pos_site_id
 _symmetry_equiv_pos_as_xyz
  1  'x, y, z'
loop_
 _atom_site_type_symbol
 _atom_site_label
 _atom_site_symmetry_multiplicity
 _atom_site_fract_x
 _atom_site_fract_y
 _atom_site_fract_z
 _atom_site_occupancy
  Li  Li0  1  0.999983  0.000013  0.500030  1
  Li  Li1  1  0.000040  0.499947  0.499991  1
  Li  Li2  1  0.500006  0.500045  0.499970  1
  Li  Li3  1  0.499994  0.999983  0.500018  1
  Fe  Fe4  1  0.250033  0.249935  0.500003  1
  Fe  Fe5  1  0.750090  0.750024  0.499998  1
  P  P6  1  0.025907  0.750109  0.000073  1
  P  P7  1  0.250082  0.525878  0.000045  1
  P  P8  1  0.249910  0.974139  0.000066  1
  P  P9  1  0.474085  0.749914  0.000071  1
  P  P10  1  0.525857  0.250088  -0.000065  1
  P  P11  1  0.750091  0.025911  -0.000060  1
  P  P12  1  0.749914  0.474087  -0.000079  1
  P  P13  1  0.974142  0.249898  -0.000055  1
  O  O14  1  0.049773  0.319995  0.245635  1
  O  O15  1  0.049699  0.179911  0.754336  1
  O  O16  1  0.134557  0.865436  0.855050  1
  O  O17  1  0.134603  0.634620  0.144901  1
  O  O18  1  0.179937  0.049724  0.245673  1
  O  O19  1  0.179953  0.450282  0.754353  1
  O  O20  1  0.320090  0.450285  0.245682  1
  O  O21  1  0.320014  0.049744  0.754372  1
  O  O22  1  0.365396  0.865384  0.144932  1
  O  O23  1  0.365396  0.634617  0.855047  1
  O  O24  1  0.450285  0.179975  0.245645  1
  O  O25  1  0.450238  0.320074  0.754291  1
  O  O26  1  0.549748  0.679924  0.245651  1
  O  O27  1  0.549706  0.820078  0.754281  1
  O  O28  1  0.634594  0.134607  0.855088  1
  O  O29  1  0.634592  0.365419  0.144901  1
  O  O30  1  0.679956  0.950264  0.245748  1
  O  O31  1  0.679930  0.549747  0.754323  1
  O  O32  1  0.820079  0.549696  0.245737  1
  O  O33  1  0.820060  0.950290  0.754383  1
  O  O34  1  0.865411  0.134575  0.144976  1
  O  O35  1  0.865380  0.365392  0.855091  1
  O  O36  1  0.950248  0.679971  0.754264  1
  O  O37  1  0.950281  0.820077  0.245630  1
