# generated using pymatgen
data_Co3P6WO24
_symmetry_space_group_name_H-M   'P 1'
_cell_length_a   8.90410439
_cell_length_b   8.90410406
_cell_length_c   8.90410378
_cell_angle_alpha   58.59126809
_cell_angle_beta   58.59126816
_cell_angle_gamma   58.59126556
_symmetry_Int_Tables_number   1
_chemical_formula_structural   Co3P6WO24
_chemical_formula_sum   'Co3 P6 W1 O24'
_cell_volume   483.10004843
_cell_formula_units_Z   1
loop_
 _symmetry_equiv_pos_site_id
 _symmetry_equiv_pos_as_xyz
  1  'x, y, z'
loop_
 _atom_site_type_symbol
 _atom_site_label
 _atom_site_symmetry_multiplicity
 _atom_site_fract_x
 _atom_site_fract_y
 _atom_site_fract_z
 _atom_site_occupancy
  Co  Co0  1  0.141919  0.141919  0.141919  1
  Co  Co1  1  0.358289  0.358289  0.358289  1
  Co  Co2  1  0.641203  0.641203  0.641203  1
  P  P3  1  0.034349  0.748506  0.462529  1
  P  P4  1  0.462529  0.034349  0.748506  1
  P  P5  1  0.748506  0.462529  0.034349  1
  P  P6  1  0.254571  0.530774  0.966435  1
  P  P7  1  0.530774  0.966435  0.254571  1
  P  P8  1  0.966435  0.254571  0.530774  1
  W  W9  1  0.858511  0.858511  0.858511  1
  O  O10  1  0.138858  0.272551  0.509692  1
  O  O11  1  0.272551  0.509692  0.138858  1
  O  O12  1  0.067236  0.918507  0.285739  1
  O  O13  1  0.509692  0.138858  0.272551  1
  O  O14  1  0.213442  0.576715  0.443948  1
  O  O15  1  0.997693  0.784062  0.638206  1
  O  O16  1  0.285739  0.067236  0.918507  1
  O  O17  1  0.443948  0.213442  0.576715  1
  O  O18  1  0.576715  0.443948  0.213442  1
  O  O19  1  0.218705  0.365672  0.996941  1
  O  O20  1  0.075195  0.713833  0.933721  1
  O  O21  1  0.365672  0.996941  0.218705  1
  O  O22  1  0.638206  0.997693  0.784062  1
  O  O23  1  0.918507  0.285739  0.067236  1
  O  O24  1  0.784062  0.638206  0.997693  1
  O  O25  1  0.420867  0.564513  0.788617  1
  O  O26  1  0.564513  0.788617  0.420867  1
  O  O27  1  0.713833  0.933721  0.075195  1
  O  O28  1  0.996941  0.218705  0.365672  1
  O  O29  1  0.788617  0.420867  0.564513  1
  O  O30  1  0.492677  0.865221  0.720305  1
  O  O31  1  0.933721  0.075195  0.713833  1
  O  O32  1  0.720305  0.492677  0.865221  1
  O  O33  1  0.865221  0.720305  0.492677  1
