# generated using pymatgen
data_Na(BH)5
_symmetry_space_group_name_H-M   'P 1'
_cell_length_a   10.68494018
_cell_length_b   13.34220669
_cell_length_c   6.74343660
_cell_angle_alpha   90.00000000
_cell_angle_beta   93.58253331
_cell_angle_gamma   90.00000000
_symmetry_Int_Tables_number   1
_chemical_formula_structural   Na(BH)5
_chemical_formula_sum   'Na8 B40 H40'
_cell_volume   959.47026472
_cell_formula_units_Z   8
loop_
 _symmetry_equiv_pos_site_id
 _symmetry_equiv_pos_as_xyz
  1  'x, y, z'
loop_
 _atom_site_type_symbol
 _atom_site_label
 _atom_site_symmetry_multiplicity
 _atom_site_fract_x
 _atom_site_fract_y
 _atom_site_fract_z
 _atom_site_occupancy
  Na  Na0  1  0.998311  0.160602  0.825993  1
  Na  Na1  1  0.006288  0.378195  0.237615  1
  Na  Na2  1  0.501689  0.660602  0.674007  1
  Na  Na3  1  0.493712  0.878195  0.262385  1
  Na  Na4  1  0.506288  0.121805  0.737615  1
  Na  Na5  1  0.498311  0.339398  0.325993  1
  Na  Na6  1  0.993712  0.621805  0.762385  1
  Na  Na7  1  0.001689  0.839398  0.174008  1
  B  B8  1  0.077534  0.414893  0.816805  1
  B  B9  1  0.105631  0.836345  0.819375  1
  B  B10  1  0.122801  0.331560  0.642643  1
  B  B11  1  0.164437  0.952194  0.777796  1
  B  B12  1  0.164921  0.852798  0.595257  1
  B  B13  1  0.173272  0.321419  0.907824  1
  B  B14  1  0.172061  0.463050  0.645205  1
  B  B15  1  0.222542  0.452923  0.909999  1
  B  B16  1  0.234376  0.866739  0.968461  1
  B  B17  1  0.234546  0.766066  0.782714  1
  B  B18  1  0.265454  0.266066  0.717286  1
  B  B19  1  0.265624  0.366739  0.531539  1
  B  B20  1  0.277458  0.952923  0.590001  1
  B  B21  1  0.327939  0.963050  0.854795  1
  B  B22  1  0.326728  0.821419  0.592176  1
  B  B23  1  0.335079  0.352798  0.904743  1
  B  B24  1  0.335563  0.452194  0.722204  1
  B  B25  1  0.377199  0.831560  0.857357  1
  B  B26  1  0.394369  0.336345  0.680625  1
  B  B27  1  0.422466  0.914893  0.683195  1
  B  B28  1  0.577534  0.085107  0.316805  1
  B  B29  1  0.605631  0.663655  0.319375  1
  B  B30  1  0.622801  0.168440  0.142643  1
  B  B31  1  0.664437  0.547806  0.277796  1
  B  B32  1  0.664921  0.647202  0.095257  1
  B  B33  1  0.673272  0.178581  0.407824  1
  B  B34  1  0.672061  0.036950  0.145205  1
  B  B35  1  0.722542  0.047077  0.409999  1
  B  B36  1  0.734376  0.633261  0.468461  1
  B  B37  1  0.734546  0.733934  0.282715  1
  B  B38  1  0.765454  0.233934  0.217285  1
  B  B39  1  0.765624  0.133261  0.031539  1
  B  B40  1  0.777458  0.547077  0.090001  1
  B  B41  1  0.827939  0.536950  0.354795  1
  B  B42  1  0.826728  0.678581  0.092176  1
  B  B43  1  0.835079  0.147202  0.404743  1
  B  B44  1  0.835563  0.047806  0.222204  1
  B  B45  1  0.877199  0.668440  0.357357  1
  B  B46  1  0.894369  0.163655  0.180625  1
  B  B47  1  0.922466  0.585107  0.183195  1
  H  H48  1  -0.000026  0.187198  0.152701  1
  H  H49  1  0.026807  0.562435  0.144131  1
  H  H50  1  0.043189  0.287109  0.542902  1
  H  H51  1  0.096178  0.023084  0.786091  1
  H  H52  1  0.097140  0.834657  0.453341  1
  H  H53  1  0.139205  0.532742  0.540590  1
  H  H54  1  0.145454  0.265610  0.038807  1
  H  H55  1  0.232441  0.676391  0.796947  1
  H  H56  1  0.235545  0.514028  0.040165  1
  H  H57  1  0.233808  0.865504  0.147327  1
  H  H58  1  0.266192  0.365504  0.352673  1
  H  H59  1  0.267559  0.176391  0.703053  1
  H  H60  1  0.264455  0.014028  0.459835  1
  H  H61  1  0.360795  0.032742  0.959410  1
  H  H62  1  0.354546  0.765610  0.461193  1
  H  H63  1  0.403822  0.523084  0.713909  1
  H  H64  1  0.402860  0.334657  0.046659  1
  H  H65  1  0.456811  0.787109  0.957098  1
  H  H66  1  0.499974  0.312802  0.652701  1
  H  H67  1  0.526807  0.937565  0.644131  1
  H  H68  1  0.473193  0.062435  0.355868  1
  H  H69  1  0.500026  0.687198  0.347299  1
  H  H70  1  0.543189  0.212891  0.042902  1
  H  H71  1  0.597140  0.665343  0.953341  1
  H  H72  1  0.596178  0.476916  0.286091  1
  H  H73  1  0.645454  0.234390  0.538807  1
  H  H74  1  0.639205  0.967258  0.040590  1
  H  H75  1  0.735545  0.985972  0.540165  1
  H  H76  1  0.732441  0.823609  0.296947  1
  H  H77  1  0.733808  0.634496  0.647327  1
  H  H78  1  0.766192  0.134496  0.852673  1
  H  H79  1  0.764455  0.485972  0.959835  1
  H  H80  1  0.767559  0.323609  0.203053  1
  H  H81  1  0.854546  0.734390  0.961193  1
  H  H82  1  0.860795  0.467258  0.459410  1
  H  H83  1  0.902860  0.165343  0.546659  1
  H  H84  1  0.903822  0.976916  0.213909  1
  H  H85  1  0.956811  0.712891  0.457098  1
  H  H86  1  0.973193  0.437565  0.855869  1
  H  H87  1  0.000026  0.812802  0.847299  1
