# generated using pymatgen
data_Li3MnFeCo(PO4)3
_symmetry_space_group_name_H-M   'P 1'
_cell_length_a   10.43142368
_cell_length_b   6.08900989
_cell_length_c   14.29127276
_cell_angle_alpha   90.00000000
_cell_angle_beta   89.93187326
_cell_angle_gamma   90.00000000
_symmetry_Int_Tables_number   1
_chemical_formula_structural   Li3MnFeCo(PO4)3
_chemical_formula_sum   'Li12 Mn4 Fe4 Co4 P12 O48'
_cell_volume   907.73872959
_cell_formula_units_Z   4
loop_
 _symmetry_equiv_pos_site_id
 _symmetry_equiv_pos_as_xyz
  1  'x, y, z'
loop_
 _atom_site_type_symbol
 _atom_site_label
 _atom_site_symmetry_multiplicity
 _atom_site_fract_x
 _atom_site_fract_y
 _atom_site_fract_z
 _atom_site_occupancy
  Li  Li0  1  0.997506  0.497957  0.666998  1
  Li  Li1  1  0.999551  0.001678  0.998554  1
  Li  Li2  1  0.999551  0.498322  0.998554  1
  Li  Li3  1  0.997277  0.000361  0.333778  1
  Li  Li4  1  0.997277  0.499639  0.333778  1
  Li  Li5  1  0.997506  0.002043  0.666998  1
  Li  Li6  1  0.502633  0.000488  0.500849  1
  Li  Li7  1  0.502633  0.499512  0.500849  1
  Li  Li8  1  0.502072  0.000312  0.166779  1
  Li  Li9  1  0.502072  0.499688  0.166779  1
  Li  Li10  1  0.501320  0.000528  0.832960  1
  Li  Li11  1  0.501320  0.499472  0.832960  1
  Mn  Mn12  1  0.218559  0.750000  0.159396  1
  Mn  Mn13  1  0.218303  0.750000  0.493778  1
  Mn  Mn14  1  0.280911  0.250000  0.326485  1
  Mn  Mn15  1  0.719112  0.750000  0.006371  1
  Fe  Fe16  1  0.218448  0.750000  0.823924  1
  Fe  Fe17  1  0.281372  0.250000  0.659813  1
  Fe  Fe18  1  0.280168  0.250000  0.990936  1
  Fe  Fe19  1  0.720100  0.750000  0.341532  1
  Co  Co20  1  0.723217  0.750000  0.671005  1
  Co  Co21  1  0.778767  0.250000  0.838704  1
  Co  Co22  1  0.779600  0.250000  0.506091  1
  Co  Co23  1  0.780829  0.250000  0.172172  1
  P  P24  1  0.094612  0.250000  0.806034  1
  P  P25  1  0.091661  0.250000  0.137556  1
  P  P26  1  0.090787  0.250000  0.473257  1
  P  P27  1  0.409484  0.750000  0.305712  1
  P  P28  1  0.406875  0.750000  0.641512  1
  P  P29  1  0.404309  0.750000  0.971790  1
  P  P30  1  0.597269  0.250000  0.360705  1
  P  P31  1  0.594453  0.250000  0.028204  1
  P  P32  1  0.596848  0.250000  0.694448  1
  P  P33  1  0.907322  0.750000  0.858599  1
  P  P34  1  0.903889  0.750000  0.194927  1
  P  P35  1  0.902344  0.750000  0.528308  1
  O  O36  1  0.041107  0.750000  0.237852  1
  O  O37  1  0.039963  0.750000  0.569935  1
  O  O38  1  0.046433  0.750000  0.898521  1
  O  O39  1  0.096797  0.250000  0.580768  1
  O  O40  1  0.097699  0.250000  0.913509  1
  O  O41  1  0.095891  0.250000  0.245274  1
  O  O42  1  0.162051  0.047867  0.092647  1
  O  O43  1  0.162051  0.452133  0.092647  1
  O  O44  1  0.160297  0.047652  0.427642  1
  O  O45  1  0.160297  0.452348  0.427642  1
  O  O46  1  0.165819  0.047029  0.761351  1
  O  O47  1  0.165819  0.452971  0.761351  1
  O  O48  1  0.336837  0.546993  0.596477  1
  O  O49  1  0.336837  0.953007  0.596477  1
  O  O50  1  0.339270  0.547492  0.261075  1
  O  O51  1  0.339270  0.952508  0.261075  1
  O  O52  1  0.332578  0.547351  0.928221  1
  O  O53  1  0.332578  0.952649  0.928221  1
  O  O54  1  0.405433  0.750000  0.413530  1
  O  O55  1  0.404239  0.750000  0.079464  1
  O  O56  1  0.399899  0.750000  0.749099  1
  O  O57  1  0.459945  0.250000  0.403320  1
  O  O58  1  0.455545  0.250000  0.067682  1
  O  O59  1  0.457917  0.250000  0.734579  1
  O  O60  1  0.547602  0.750000  0.264768  1
  O  O61  1  0.541854  0.750000  0.929300  1
  O  O62  1  0.546086  0.750000  0.601098  1
  O  O63  1  0.599485  0.250000  0.253144  1
  O  O64  1  0.600314  0.250000  0.920291  1
  O  O65  1  0.600742  0.250000  0.586609  1
  O  O66  1  0.664572  0.048557  0.074195  1
  O  O67  1  0.668639  0.047941  0.405808  1
  O  O68  1  0.666673  0.046580  0.740040  1
  O  O69  1  0.666673  0.453420  0.740040  1
  O  O70  1  0.664572  0.451443  0.074195  1
  O  O71  1  0.668639  0.452059  0.405808  1
  O  O72  1  0.837875  0.545531  0.903279  1
  O  O73  1  0.837875  0.954469  0.903279  1
  O  O74  1  0.832754  0.545435  0.238587  1
  O  O75  1  0.830882  0.546219  0.572958  1
  O  O76  1  0.832754  0.954565  0.238587  1
  O  O77  1  0.830882  0.953781  0.572958  1
  O  O78  1  0.901875  0.750000  0.750668  1
  O  O79  1  0.901028  0.750000  0.420801  1
  O  O80  1  0.903852  0.750000  0.087220  1
  O  O81  1  0.955784  0.250000  0.765439  1
  O  O82  1  0.952520  0.250000  0.097707  1
  O  O83  1  0.951540  0.250000  0.433769  1
