# generated using pymatgen
data_Li3Fe2(CO3)4
_symmetry_space_group_name_H-M   'P 1'
_cell_length_a   7.12630777
_cell_length_b   9.72572503
_cell_length_c   8.46502943
_cell_angle_alpha   90.00000000
_cell_angle_beta   70.41814116
_cell_angle_gamma   90.00000000
_symmetry_Int_Tables_number   1
_chemical_formula_structural   Li3Fe2(CO3)4
_chemical_formula_sum   'Li6 Fe4 C8 O24'
_cell_volume   552.76605178
_cell_formula_units_Z   2
loop_
 _symmetry_equiv_pos_site_id
 _symmetry_equiv_pos_as_xyz
  1  'x, y, z'
loop_
 _atom_site_type_symbol
 _atom_site_label
 _atom_site_symmetry_multiplicity
 _atom_site_fract_x
 _atom_site_fract_y
 _atom_site_fract_z
 _atom_site_occupancy
  Li  Li0  1  0.063077  0.182460  0.062895  1
  Li  Li1  1  0.003939  0.892527  0.340609  1
  Li  Li2  1  0.496061  0.392527  0.159391  1
  Li  Li3  1  0.436924  0.682460  0.437105  1
  Li  Li4  1  0.501380  0.606002  0.843218  1
  Li  Li5  1  0.998620  0.106002  0.656782  1
  Fe  Fe6  1  0.046899  0.369221  0.438430  1
  Fe  Fe7  1  0.453101  0.869221  0.061570  1
  Fe  Fe8  1  0.549781  0.132725  0.926248  1
  Fe  Fe9  1  0.950219  0.632725  0.573752  1
  C  C10  1  0.247413  0.111861  0.282168  1
  C  C11  1  0.252587  0.611861  0.217832  1
  C  C12  1  0.276371  0.483855  0.643105  1
  C  C13  1  0.223629  0.983855  0.856895  1
  C  C14  1  0.779811  0.014078  0.134461  1
  C  C15  1  0.720189  0.514078  0.365539  1
  C  C16  1  0.748841  0.385274  0.782142  1
  C  C17  1  0.751159  0.885274  0.717858  1
  O  O18  1  0.114565  0.158074  0.417030  1
  O  O19  1  0.224730  0.480477  0.235552  1
  O  O20  1  0.158705  0.698248  0.334642  1
  O  O21  1  0.341295  0.198248  0.165358  1
  O  O22  1  0.275270  0.980477  0.264448  1
  O  O23  1  0.112600  0.975528  0.770440  1
  O  O24  1  0.385435  0.658074  0.082970  1
  O  O25  1  0.202042  0.607101  0.621592  1
  O  O26  1  0.233656  0.378567  0.566158  1
  O  O27  1  0.266344  0.878567  0.933842  1
  O  O28  1  0.297959  0.107101  0.878408  1
  O  O29  1  0.584224  0.522074  0.298884  1
  O  O30  1  0.387400  0.475528  0.729560  1
  O  O31  1  0.668331  0.904825  0.153573  1
  O  O32  1  0.757994  0.119010  0.044621  1
  O  O33  1  0.742006  0.619010  0.455379  1
  O  O34  1  0.831669  0.404825  0.346427  1
  O  O35  1  0.616665  0.341162  0.918771  1
  O  O36  1  0.915776  0.022074  0.201116  1
  O  O37  1  0.722883  0.017244  0.735908  1
  O  O38  1  0.652174  0.799293  0.830925  1
  O  O39  1  0.847826  0.299293  0.669075  1
  O  O40  1  0.777117  0.517244  0.764092  1
  O  O41  1  0.883335  0.841162  0.581229  1
