# generated using pymatgen
data_LiMnF3
_symmetry_space_group_name_H-M   'P 1'
_cell_length_a   7.00625957
_cell_length_b   7.99902840
_cell_length_c   16.63921149
_cell_angle_alpha   88.72612875
_cell_angle_beta   83.13856406
_cell_angle_gamma   91.53134070
_symmetry_Int_Tables_number   1
_chemical_formula_structural   LiMnF3
_chemical_formula_sum   'Li14 Mn14 F42'
_cell_volume   925.20274106
_cell_formula_units_Z   14
loop_
 _symmetry_equiv_pos_site_id
 _symmetry_equiv_pos_as_xyz
  1  'x, y, z'
loop_
 _atom_site_type_symbol
 _atom_site_label
 _atom_site_symmetry_multiplicity
 _atom_site_fract_x
 _atom_site_fract_y
 _atom_site_fract_z
 _atom_site_occupancy
  Li  Li0  1  0.218864  0.837422  0.031985  1
  Li  Li1  1  0.118411  0.218258  0.755635  1
  Li  Li2  1  0.254130  0.289064  0.567307  1
  Li  Li3  1  0.323848  0.450025  0.308729  1
  Li  Li4  1  0.431995  0.535667  0.119538  1
  Li  Li5  1  0.322431  0.920767  0.837336  1
  Li  Li6  1  0.491968  0.842093  0.599085  1
  Li  Li7  1  0.508032  0.157907  0.400915  1
  Li  Li8  1  0.677569  0.079233  0.162664  1
  Li  Li9  1  0.568005  0.464333  0.880462  1
  Li  Li10  1  0.676152  0.549975  0.691271  1
  Li  Li11  1  0.745870  0.710936  0.432694  1
  Li  Li12  1  0.881589  0.781742  0.244365  1
  Li  Li13  1  0.781136  0.162578  0.968015  1
  Mn  Mn14  1  0.054356  0.043008  0.391578  1
  Mn  Mn15  1  0.171467  0.139402  0.186331  1
  Mn  Mn16  1  0.048394  0.543452  0.900722  1
  Mn  Mn17  1  0.235996  0.700403  0.487835  1
  Mn  Mn18  1  0.165832  0.619274  0.693736  1
  Mn  Mn19  1  0.426215  0.817532  0.283540  1
  Mn  Mn20  1  0.298232  0.187895  0.959592  1
  Mn  Mn21  1  0.701768  0.812105  0.040408  1
  Mn  Mn22  1  0.573785  0.182468  0.716460  1
  Mn  Mn23  1  0.834168  0.380726  0.306264  1
  Mn  Mn24  1  0.764004  0.299597  0.512165  1
  Mn  Mn25  1  0.951606  0.456548  0.099278  1
  Mn  Mn26  1  0.828533  0.860598  0.813669  1
  Mn  Mn27  1  0.945644  0.956992  0.608422  1
  F  F28  1  0.012235  0.680210  0.018543  1
  F  F29  1  0.074635  0.933833  0.274490  1
  F  F30  1  0.037400  0.165638  0.520308  1
  F  F31  1  0.154691  0.054080  0.071568  1
  F  F32  1  0.121730  0.273548  0.311503  1
  F  F33  1  0.059309  0.438687  0.779539  1
  F  F34  1  0.228210  0.371937  0.119644  1
  F  F35  1  0.155442  0.510557  0.575808  1
  F  F36  1  0.129959  0.766040  0.807528  1
  F  F37  1  0.250167  0.640133  0.370356  1
  F  F38  1  0.214969  0.854072  0.598157  1
  F  F39  1  0.416225  0.747194  0.076677  1
  F  F40  1  0.421296  0.597073  0.226000  1
  F  F41  1  0.313609  0.210247  0.667830  1
  F  F42  1  0.241321  0.144357  0.838597  1
  F  F43  1  0.334574  0.974999  0.396643  1
  F  F44  1  0.359862  0.929845  0.942065  1
  F  F45  1  0.431928  0.053778  0.223772  1
  F  F46  1  0.313918  0.480295  0.926192  1
  F  F47  1  0.476806  0.273482  0.497943  1
  F  F48  1  0.543747  0.339661  0.327503  1
  F  F49  1  0.456253  0.660339  0.672497  1
  F  F50  1  0.523194  0.726518  0.502057  1
  F  F51  1  0.686082  0.519705  0.073808  1
  F  F52  1  0.568072  0.946222  0.776228  1
  F  F53  1  0.640138  0.070155  0.057935  1
  F  F54  1  0.665426  0.025001  0.603357  1
  F  F55  1  0.758679  0.855643  0.161403  1
  F  F56  1  0.686391  0.789753  0.332170  1
  F  F57  1  0.578704  0.402927  0.774000  1
  F  F58  1  0.583775  0.252806  0.923323  1
  F  F59  1  0.785031  0.145928  0.401843  1
  F  F60  1  0.749833  0.359867  0.629644  1
  F  F61  1  0.870041  0.233960  0.192472  1
  F  F62  1  0.844558  0.489443  0.424192  1
  F  F63  1  0.771790  0.628063  0.880356  1
  F  F64  1  0.940691  0.561313  0.220461  1
  F  F65  1  0.878270  0.726452  0.688497  1
  F  F66  1  0.845309  0.945920  0.928432  1
  F  F67  1  0.962600  0.834362  0.479692  1
  F  F68  1  0.925365  0.066167  0.725510  1
  F  F69  1  0.987765  0.319790  0.981457  1
