# generated using pymatgen
data_LiMnPCO7
_symmetry_space_group_name_H-M   'P 1'
_cell_length_a   8.37365919
_cell_length_b   10.22981889
_cell_length_c   6.23225445
_cell_angle_alpha   90.00000000
_cell_angle_beta   90.00000000
_cell_angle_gamma   85.80593314
_symmetry_Int_Tables_number   1
_chemical_formula_structural   LiMnPCO7
_chemical_formula_sum   'Li4 Mn4 P4 C4 O28'
_cell_volume   532.43160327
_cell_formula_units_Z   4
loop_
 _symmetry_equiv_pos_site_id
 _symmetry_equiv_pos_as_xyz
  1  'x, y, z'
loop_
 _atom_site_type_symbol
 _atom_site_label
 _atom_site_symmetry_multiplicity
 _atom_site_fract_x
 _atom_site_fract_y
 _atom_site_fract_z
 _atom_site_occupancy
  Li  Li0  1  0.256700  0.123475  0.469430  1
  Li  Li1  1  0.256700  0.623475  0.030570  1
  Li  Li2  1  0.743300  0.376525  0.969430  1
  Li  Li3  1  0.743300  0.876525  0.530570  1
  Mn  Mn4  1  0.329956  0.397091  0.747730  1
  Mn  Mn5  1  0.329956  0.897091  0.752270  1
  Mn  Mn6  1  0.670044  0.102909  0.247730  1
  Mn  Mn7  1  0.670044  0.602909  0.252270  1
  P  P8  1  0.426201  0.362161  0.246808  1
  P  P9  1  0.426201  0.862161  0.253192  1
  P  P10  1  0.573799  0.137839  0.746808  1
  P  P11  1  0.573799  0.637839  0.753192  1
  C  C12  1  0.050622  0.355073  0.749514  1
  C  C13  1  0.050622  0.855073  0.750486  1
  C  C14  1  0.949378  0.144927  0.249513  1
  C  C15  1  0.949378  0.644927  0.250487  1
  O  O16  1  0.105204  0.472522  0.756439  1
  O  O17  1  0.090542  0.169457  0.264355  1
  O  O18  1  0.105204  0.972522  0.743561  1
  O  O19  1  0.172208  0.264619  0.727543  1
  O  O20  1  0.090542  0.669457  0.235645  1
  O  O21  1  0.172208  0.764619  0.772457  1
  O  O22  1  0.312012  0.402236  0.057671  1
  O  O23  1  0.327671  0.409103  0.443963  1
  O  O24  1  0.327671  0.909103  0.056037  1
  O  O25  1  0.312012  0.902236  0.442329  1
  O  O26  1  0.414644  0.071560  0.722703  1
  O  O27  1  0.465529  0.210975  0.259169  1
  O  O28  1  0.414644  0.571560  0.777297  1
  O  O29  1  0.465529  0.710975  0.240831  1
  O  O30  1  0.534471  0.289025  0.759169  1
  O  O31  1  0.585356  0.428440  0.222703  1
  O  O32  1  0.534471  0.789025  0.740831  1
  O  O33  1  0.585356  0.928440  0.277297  1
  O  O34  1  0.672329  0.090897  0.943963  1
  O  O35  1  0.687988  0.097764  0.557671  1
  O  O36  1  0.672329  0.590897  0.556037  1
  O  O37  1  0.687988  0.597764  0.942329  1
  O  O38  1  0.827792  0.235381  0.227543  1
  O  O39  1  0.909458  0.330543  0.764355  1
  O  O40  1  0.827792  0.735381  0.272457  1
  O  O41  1  0.894796  0.027478  0.256439  1
  O  O42  1  0.909458  0.830543  0.735645  1
  O  O43  1  0.894796  0.527478  0.243561  1
