# generated using pymatgen
data_Na3(W3O8)4
_symmetry_space_group_name_H-M   'P 1'
_cell_length_a   17.87693966
_cell_length_b   17.87693966
_cell_length_c   3.88802799
_cell_angle_alpha   90.00000000
_cell_angle_beta   90.00000000
_cell_angle_gamma   90.00000000
_symmetry_Int_Tables_number   1
_chemical_formula_structural   Na3(W3O8)4
_chemical_formula_sum   'Na6 W24 O64'
_cell_volume   1242.55531479
_cell_formula_units_Z   2
loop_
 _symmetry_equiv_pos_site_id
 _symmetry_equiv_pos_as_xyz
  1  'x, y, z'
loop_
 _atom_site_type_symbol
 _atom_site_label
 _atom_site_symmetry_multiplicity
 _atom_site_fract_x
 _atom_site_fract_y
 _atom_site_fract_z
 _atom_site_occupancy
  Na  Na0  1  0.000000  0.500000  0.577494  1
  Na  Na1  1  0.265855  0.428087  0.545928  1
  Na  Na2  1  0.428087  0.734145  0.545928  1
  Na  Na3  1  0.500000  0.000000  0.577494  1
  Na  Na4  1  0.571913  0.265855  0.545928  1
  Na  Na5  1  0.734145  0.571913  0.545928  1
  W  W6  1  0.067307  0.363594  0.074040  1
  W  W7  1  0.072877  0.141804  0.068207  1
  W  W8  1  0.078953  0.748321  0.071004  1
  W  W9  1  0.141804  0.927123  0.068207  1
  W  W10  1  0.145526  0.567434  0.076015  1
  W  W11  1  0.250655  0.264796  0.072620  1
  W  W12  1  0.251679  0.078953  0.071004  1
  W  W13  1  0.264796  0.749345  0.072620  1
  W  W14  1  0.359680  0.559913  0.079739  1
  W  W15  1  0.363594  0.932693  0.074040  1
  W  W16  1  0.432566  0.145526  0.076015  1
  W  W17  1  0.440087  0.359680  0.079739  1
  W  W18  1  0.559913  0.640320  0.079739  1
  W  W19  1  0.567434  0.854474  0.076015  1
  W  W20  1  0.636406  0.067307  0.074040  1
  W  W21  1  0.640320  0.440087  0.079739  1
  W  W22  1  0.735204  0.250655  0.072620  1
  W  W23  1  0.748321  0.921047  0.071004  1
  W  W24  1  0.749345  0.735204  0.072620  1
  W  W25  1  0.854474  0.432566  0.076015  1
  W  W26  1  0.858196  0.072877  0.068207  1
  W  W27  1  0.921047  0.251679  0.071004  1
  W  W28  1  0.927123  0.858196  0.068207  1
  W  W29  1  0.932693  0.636406  0.074040  1
  O  O30  1  0.035497  0.252440  0.070903  1
  O  O31  1  0.046922  0.631657  0.073947  1
  O  O32  1  0.041913  0.867025  0.068706  1
  O  O33  1  0.066910  0.367143  0.574129  1
  O  O34  1  0.072909  0.141102  0.568696  1
  O  O35  1  0.079410  0.748259  0.571028  1
  O  O36  1  0.087046  0.478091  0.075727  1
  O  O37  1  0.141102  0.927091  0.568696  1
  O  O38  1  0.132975  0.041913  0.068706  1
  O  O39  1  0.144886  0.566409  0.576006  1
  O  O40  1  0.173496  0.816078  0.070645  1
  O  O41  1  0.177778  0.342564  0.074673  1
  O  O42  1  0.175762  0.677048  0.073545  1
  O  O43  1  0.183922  0.173496  0.070645  1
  O  O44  1  0.250253  0.530248  0.079529  1
  O  O45  1  0.252440  0.964503  0.070903  1
  O  O46  1  0.251741  0.079410  0.571028  1
  O  O47  1  0.249971  0.263933  0.573377  1
  O  O48  1  0.263933  0.750029  0.573377  1
  O  O49  1  0.322952  0.175762  0.073545  1
  O  O50  1  0.330434  0.666703  0.077465  1
  O  O51  1  0.333297  0.330434  0.077465  1
  O  O52  1  0.342564  0.822222  0.074673  1
  O  O53  1  0.357050  0.558858  0.580038  1
  O  O54  1  0.367143  0.933090  0.574129  1
  O  O55  1  0.368343  0.046922  0.073947  1
  O  O56  1  0.396742  0.459090  0.081889  1
  O  O57  1  0.433591  0.144886  0.576006  1
  O  O58  1  0.441142  0.357050  0.580038  1
  O  O59  1  0.459090  0.603258  0.081889  1
  O  O60  1  0.469752  0.250253  0.079529  1
  O  O61  1  0.478091  0.912954  0.075727  1
  O  O62  1  0.521909  0.087046  0.075727  1
  O  O63  1  0.530248  0.749747  0.079529  1
  O  O64  1  0.540910  0.396742  0.081889  1
  O  O65  1  0.558858  0.642950  0.580038  1
  O  O66  1  0.566409  0.855114  0.576006  1
  O  O67  1  0.603258  0.540910  0.081889  1
  O  O68  1  0.631657  0.953078  0.073947  1
  O  O69  1  0.632857  0.066910  0.574129  1
  O  O70  1  0.642950  0.441142  0.580038  1
  O  O71  1  0.657436  0.177778  0.074673  1
  O  O72  1  0.666703  0.669566  0.077465  1
  O  O73  1  0.669566  0.333297  0.077465  1
  O  O74  1  0.677048  0.824238  0.073545  1
  O  O75  1  0.736067  0.249971  0.573377  1
  O  O76  1  0.750029  0.736067  0.573377  1
  O  O77  1  0.748259  0.920590  0.571028  1
  O  O78  1  0.747560  0.035497  0.070903  1
  O  O79  1  0.749747  0.469752  0.079529  1
  O  O80  1  0.816078  0.826504  0.070645  1
  O  O81  1  0.824238  0.322952  0.073545  1
  O  O82  1  0.822222  0.657436  0.074673  1
  O  O83  1  0.826504  0.183922  0.070645  1
  O  O84  1  0.855114  0.433591  0.576006  1
  O  O85  1  0.867025  0.958087  0.068706  1
  O  O86  1  0.858898  0.072909  0.568696  1
  O  O87  1  0.912954  0.521909  0.075727  1
  O  O88  1  0.920590  0.251741  0.571028  1
  O  O89  1  0.927091  0.858898  0.568696  1
  O  O90  1  0.933090  0.632857  0.574129  1
  O  O91  1  0.958087  0.132975  0.068706  1
  O  O92  1  0.953078  0.368343  0.073947  1
  O  O93  1  0.964503  0.747560  0.070903  1
