# generated using pymatgen
data_LiMnOF2
_symmetry_space_group_name_H-M   'P 1'
_cell_length_a   3.75075944
_cell_length_b   9.86363956
_cell_length_c   6.40956034
_cell_angle_alpha   89.98929871
_cell_angle_beta   90.00058448
_cell_angle_gamma   89.99967307
_symmetry_Int_Tables_number   1
_chemical_formula_structural   LiMnOF2
_chemical_formula_sum   'Li4 Mn4 O4 F8'
_cell_volume   237.12898220
_cell_formula_units_Z   4
loop_
 _symmetry_equiv_pos_site_id
 _symmetry_equiv_pos_as_xyz
  1  'x, y, z'
loop_
 _atom_site_type_symbol
 _atom_site_label
 _atom_site_symmetry_multiplicity
 _atom_site_fract_x
 _atom_site_fract_y
 _atom_site_fract_z
 _atom_site_occupancy
  Li  Li0  1  0.249986  0.760688  0.410775  1
  Li  Li1  1  0.249984  0.739307  0.910789  1
  Li  Li2  1  0.750016  0.260693  0.089211  1
  Li  Li3  1  0.750014  0.239312  0.589225  1
  Mn  Mn4  1  0.249996  0.456888  0.338166  1
  Mn  Mn5  1  0.249994  0.043079  0.838093  1
  Mn  Mn6  1  0.750006  0.956921  0.161907  1
  Mn  Mn7  1  0.750004  0.543112  0.661834  1
  O  O8  1  0.250007  0.925091  0.081771  1
  O  O9  1  0.250002  0.574909  0.581750  1
  O  O10  1  0.749998  0.425091  0.418250  1
  O  O11  1  0.749993  0.074909  0.918229  1
  F  F12  1  0.250018  0.307042  0.154611  1
  F  F13  1  0.250008  0.192928  0.654631  1
  F  F14  1  0.249984  0.620489  0.156581  1
  F  F15  1  0.249983  0.879489  0.656550  1
  F  F16  1  0.750017  0.120511  0.343450  1
  F  F17  1  0.750016  0.379511  0.843419  1
  F  F18  1  0.749992  0.807072  0.345369  1
  F  F19  1  0.749982  0.692958  0.845389  1
