# generated using pymatgen
data_Li2CuSiO4
_symmetry_space_group_name_H-M   'P 1'
_cell_length_a   6.15391558
_cell_length_b   10.84543408
_cell_length_c   5.04816597
_cell_angle_alpha   89.98376980
_cell_angle_beta   89.99318060
_cell_angle_gamma   89.98770109
_symmetry_Int_Tables_number   1
_chemical_formula_structural   Li2CuSiO4
_chemical_formula_sum   'Li8 Cu4 Si4 O16'
_cell_volume   336.92409260
_cell_formula_units_Z   4
loop_
 _symmetry_equiv_pos_site_id
 _symmetry_equiv_pos_as_xyz
  1  'x, y, z'
loop_
 _atom_site_type_symbol
 _atom_site_label
 _atom_site_symmetry_multiplicity
 _atom_site_fract_x
 _atom_site_fract_y
 _atom_site_fract_z
 _atom_site_occupancy
  Li  Li0  1  0.997751  0.827123  0.760081  1
  Li  Li1  1  0.254299  0.085784  0.759465  1
  Li  Li2  1  0.245686  0.585765  0.759439  1
  Li  Li3  1  0.502223  0.327188  0.760096  1
  Li  Li4  1  0.497950  0.672757  0.260205  1
  Li  Li5  1  0.754299  0.414317  0.259551  1
  Li  Li6  1  0.745698  0.914301  0.259528  1
  Li  Li7  1  0.002045  0.172814  0.260172  1
  Cu  Cu8  1  0.256623  0.417303  0.252234  1
  Cu  Cu9  1  0.243418  0.917271  0.252145  1
  Cu  Cu10  1  0.756659  0.082708  0.752318  1
  Cu  Cu11  1  0.743331  0.582689  0.752420  1
  Si  Si12  1  0.994583  0.662915  0.263951  1
  Si  Si13  1  0.505449  0.162925  0.263930  1
  Si  Si14  1  0.494871  0.836995  0.763515  1
  Si  Si15  1  0.005149  0.336995  0.763563  1
  O  O16  1  0.003720  0.335116  0.090532  1
  O  O17  1  0.003698  0.807136  0.157981  1
  O  O18  1  0.284777  0.090249  0.160233  1
  O  O19  1  0.228319  0.407171  0.658773  1
  O  O20  1  0.271607  0.907204  0.658727  1
  O  O21  1  0.215269  0.590261  0.160140  1
  O  O22  1  0.496358  0.307130  0.157969  1
  O  O23  1  0.496227  0.835126  0.090629  1
  O  O24  1  0.503608  0.164916  0.590285  1
  O  O25  1  0.503475  0.692945  0.657979  1
  O  O26  1  0.784796  0.409607  0.660185  1
  O  O27  1  0.728202  0.092880  0.158942  1
  O  O28  1  0.771833  0.592883  0.159025  1
  O  O29  1  0.715163  0.909640  0.660186  1
  O  O30  1  0.996462  0.192956  0.658023  1
  O  O31  1  0.996449  0.664930  0.590277  1
