# generated using pymatgen
data_LiLa3Ti2O9
_symmetry_space_group_name_H-M   'P 1'
_cell_length_a   16.75120130
_cell_length_b   5.64916774
_cell_length_c   7.90302740
_cell_angle_alpha   90.00000000
_cell_angle_beta   90.09635629
_cell_angle_gamma   90.00000000
_symmetry_Int_Tables_number   1
_chemical_formula_structural   LiLa3Ti2O9
_chemical_formula_sum   'Li4 La12 Ti8 O36'
_cell_volume   747.86515920
_cell_formula_units_Z   4
loop_
 _symmetry_equiv_pos_site_id
 _symmetry_equiv_pos_as_xyz
  1  'x, y, z'
loop_
 _atom_site_type_symbol
 _atom_site_label
 _atom_site_symmetry_multiplicity
 _atom_site_fract_x
 _atom_site_fract_y
 _atom_site_fract_z
 _atom_site_occupancy
  Li  Li0  1  0.001109  0.501071  0.001170  1
  Li  Li1  1  0.332224  0.498929  0.998830  1
  Li  Li2  1  0.501109  0.998929  0.501170  1
  Li  Li3  1  0.832224  0.001071  0.498830  1
  La  La4  1  0.998906  0.041955  0.240571  1
  La  La5  1  0.163699  0.531981  0.238594  1
  La  La6  1  0.169634  0.468019  0.761406  1
  La  La7  1  0.334428  0.958045  0.759429  1
  La  La8  1  0.338843  0.050494  0.245591  1
  La  La9  1  0.494491  0.550494  0.254409  1
  La  La10  1  0.498906  0.458045  0.740571  1
  La  La11  1  0.663699  0.968019  0.738594  1
  La  La12  1  0.669634  0.031981  0.261406  1
  La  La13  1  0.834428  0.541955  0.259429  1
  La  La14  1  0.838843  0.449506  0.745591  1
  La  La15  1  0.994491  0.949506  0.754409  1
  Ti  Ti16  1  0.997645  0.491572  0.503894  1
  Ti  Ti17  1  0.166667  0.000000  0.000000  1
  Ti  Ti18  1  0.166667  0.000000  0.500000  1
  Ti  Ti19  1  0.335688  0.508428  0.496106  1
  Ti  Ti20  1  0.497645  0.008428  0.003894  1
  Ti  Ti21  1  0.666667  0.500000  0.000000  1
  Ti  Ti22  1  0.666667  0.500000  0.500000  1
  Ti  Ti23  1  0.835688  0.991572  0.996106  1
  O  O24  1  0.030716  0.526063  0.738253  1
  O  O25  1  0.073775  0.803774  0.043246  1
  O  O26  1  0.073964  0.794820  0.453862  1
  O  O27  1  0.100852  0.279569  0.039519  1
  O  O28  1  0.099030  0.282681  0.456861  1
  O  O29  1  0.138776  0.014529  0.746783  1
  O  O30  1  0.194557  0.985471  0.253217  1
  O  O31  1  0.234303  0.717319  0.543139  1
  O  O32  1  0.232481  0.720431  0.960481  1
  O  O33  1  0.259370  0.205180  0.546138  1
  O  O34  1  0.259558  0.196226  0.956754  1
  O  O35  1  0.302617  0.473937  0.261747  1
  O  O36  1  0.357467  0.521296  0.737725  1
  O  O37  1  0.409674  0.801722  0.042609  1
  O  O38  1  0.397559  0.781924  0.453169  1
  O  O39  1  0.435775  0.281924  0.046831  1
  O  O40  1  0.423659  0.301722  0.457391  1
  O  O41  1  0.475866  0.021296  0.762275  1
  O  O42  1  0.530716  0.973937  0.238253  1
  O  O43  1  0.573775  0.696226  0.543246  1
  O  O44  1  0.573964  0.705180  0.953862  1
  O  O45  1  0.600852  0.220431  0.539519  1
  O  O46  1  0.599030  0.217319  0.956861  1
  O  O47  1  0.638776  0.485471  0.246783  1
  O  O48  1  0.694557  0.514529  0.753217  1
  O  O49  1  0.734303  0.782681  0.043139  1
  O  O50  1  0.732482  0.779569  0.460481  1
  O  O51  1  0.759370  0.294820  0.046138  1
  O  O52  1  0.759558  0.303775  0.456754  1
  O  O53  1  0.802617  0.026063  0.761747  1
  O  O54  1  0.857467  0.978704  0.237725  1
  O  O55  1  0.909674  0.698278  0.542609  1
  O  O56  1  0.897559  0.718076  0.953169  1
  O  O57  1  0.935775  0.218076  0.546831  1
  O  O58  1  0.923659  0.198278  0.957391  1
  O  O59  1  0.975866  0.478704  0.262275  1
