# generated using pymatgen
data_LiMnPCO7
_symmetry_space_group_name_H-M   'P 1'
_cell_length_a   16.67242962
_cell_length_b   5.11668129
_cell_length_c   6.23710413
_cell_angle_alpha   90.27143187
_cell_angle_beta   89.03988616
_cell_angle_gamma   85.74101945
_symmetry_Int_Tables_number   1
_chemical_formula_structural   LiMnPCO7
_chemical_formula_sum   'Li4 Mn4 P4 C4 O28'
_cell_volume   530.51848622
_cell_formula_units_Z   4
loop_
 _symmetry_equiv_pos_site_id
 _symmetry_equiv_pos_as_xyz
  1  'x, y, z'
loop_
 _atom_site_type_symbol
 _atom_site_label
 _atom_site_symmetry_multiplicity
 _atom_site_fract_x
 _atom_site_fract_y
 _atom_site_fract_z
 _atom_site_occupancy
  Li  Li0  1  0.130701  0.244012  0.032932  1
  Li  Li1  1  0.369018  0.757620  0.527573  1
  Li  Li2  1  0.630820  0.246286  0.471992  1
  Li  Li3  1  0.871393  0.752205  0.531165  1
  Mn  Mn4  1  0.164678  0.793856  0.745925  1
  Mn  Mn5  1  0.335364  0.205615  0.238136  1
  Mn  Mn6  1  0.664685  0.793819  0.752307  1
  Mn  Mn7  1  0.835090  0.205864  0.252888  1
  P  P8  1  0.212658  0.723439  0.248535  1
  P  P9  1  0.287448  0.276454  0.746988  1
  P  P10  1  0.713153  0.723700  0.255756  1
  P  P11  1  0.786829  0.276151  0.748062  1
  C  C12  1  0.024794  0.710402  0.754635  1
  C  C13  1  0.474740  0.289365  0.263497  1
  C  C14  1  0.524817  0.709964  0.739187  1
  C  C15  1  0.974916  0.290888  0.248769  1
  O  O16  1  0.052126  0.945592  0.753217  1
  O  O17  1  0.046092  0.339548  0.236876  1
  O  O18  1  0.085882  0.528840  0.770757  1
  O  O19  1  0.161311  0.825150  0.057214  1
  O  O20  1  0.156907  0.792053  0.443248  1
  O  O21  1  0.207594  0.143355  0.766036  1
  O  O22  1  0.232483  0.421785  0.226480  1
  O  O23  1  0.267648  0.577897  0.726957  1
  O  O24  1  0.292398  0.856873  0.260339  1
  O  O25  1  0.343593  0.208256  0.935645  1
  O  O26  1  0.338342  0.173107  0.550420  1
  O  O27  1  0.413459  0.471515  0.264108  1
  O  O28  1  0.453955  0.663050  0.722969  1
  O  O29  1  0.447911  0.054810  0.245777  1
  O  O30  1  0.552053  0.944210  0.759044  1
  O  O31  1  0.545929  0.337596  0.277588  1
  O  O32  1  0.586263  0.527634  0.737655  1
  O  O33  1  0.665050  0.792743  0.055176  1
  O  O34  1  0.655138  0.824253  0.442178  1
  O  O35  1  0.707090  0.141921  0.735430  1
  O  O36  1  0.732511  0.422387  0.280317  1
  O  O37  1  0.767346  0.577138  0.722433  1
  O  O38  1  0.792959  0.857560  0.267738  1
  O  O39  1  0.834796  0.208687  0.949031  1
  O  O40  1  0.844958  0.174454  0.561877  1
  O  O41  1  0.913599  0.472147  0.268534  1
  O  O42  1  0.953883  0.661867  0.737601  1
  O  O43  1  0.947624  0.055932  0.239380  1
