# generated using pymatgen
data_Li2Co2P2O9
_symmetry_space_group_name_H-M   'P 1'
_cell_length_a   4.83737582
_cell_length_b   7.16730585
_cell_length_c   7.70477270
_cell_angle_alpha   100.31545496
_cell_angle_beta   114.78430387
_cell_angle_gamma   103.62247483
_symmetry_Int_Tables_number   1
_chemical_formula_structural   Li2Co2P2O9
_chemical_formula_sum   'Li2 Co2 P2 O9'
_cell_volume   223.71751924
_cell_formula_units_Z   1
loop_
 _symmetry_equiv_pos_site_id
 _symmetry_equiv_pos_as_xyz
  1  'x, y, z'
loop_
 _atom_site_type_symbol
 _atom_site_label
 _atom_site_symmetry_multiplicity
 _atom_site_fract_x
 _atom_site_fract_y
 _atom_site_fract_z
 _atom_site_occupancy
  Li  Li0  1  0.148870  0.868271  0.489415  1
  Li  Li1  1  0.851130  0.131729  0.510585  1
  Co  Co2  1  0.200392  0.241741  0.000461  1
  Co  Co3  1  0.799608  0.758259  -0.000461  1
  P  P4  1  0.437725  0.692004  0.253172  1
  P  P5  1  0.562275  0.307996  0.746828  1
  O  O6  1  0.113109  0.718005  0.237557  1
  O  O7  1  0.528725  0.250174  0.923993  1
  O  O8  1  0.281194  0.167941  0.541611  1
  O  O9  1  0.000000  0.000000  0.000000  1
  O  O10  1  0.405836  0.465776  0.229221  1
  O  O11  1  0.594164  0.534224  0.770779  1
  O  O12  1  0.718806  0.832059  0.458389  1
  O  O13  1  0.471275  0.749826  0.076007  1
  O  O14  1  0.886891  0.281995  0.762443  1
