# generated using pymatgen
data_ZrTlCuSe3
_symmetry_space_group_name_H-M   'P 1'
_cell_length_a   3.87546958
_cell_length_b   7.70405320
_cell_length_c   10.20102539
_cell_angle_alpha   90.00000000
_cell_angle_beta   90.00000000
_cell_angle_gamma   104.56756325
_symmetry_Int_Tables_number   1
_chemical_formula_structural   ZrTlCuSe3
_chemical_formula_sum   'Zr2 Tl2 Cu2 Se6'
_cell_volume   294.77880878
_cell_formula_units_Z   2
loop_
 _symmetry_equiv_pos_site_id
 _symmetry_equiv_pos_as_xyz
  1  'x, y, z'
loop_
 _atom_site_type_symbol
 _atom_site_label
 _atom_site_symmetry_multiplicity
 _atom_site_fract_x
 _atom_site_fract_y
 _atom_site_fract_z
 _atom_site_occupancy
  Cu  Cu0  1  0.466064  0.932127  0.750000  1
  Cu  Cu1  1  0.533936  0.067873  0.250000  1
  Se  Se2  1  0.624672  0.249345  0.052093  1
  Se  Se3  1  0.375328  0.750655  0.947907  1
  Se  Se4  1  0.375328  0.750655  0.552093  1
  Se  Se5  1  0.624672  0.249345  0.447907  1
  Se  Se6  1  0.067905  0.135809  0.750000  1
  Se  Se7  1  0.932095  0.864191  0.250000  1
  Zr  Zr8  1  0.000000  0.000000  0.500000  1
  Zr  Zr9  1  0.000000  0.000000  0.000000  1
  Tl  Tl10  1  0.247941  0.495881  0.250000  1
  Tl  Tl11  1  0.752059  0.504119  0.750000  1
