# generated using pymatgen
data_SbAsO4
_symmetry_space_group_name_H-M   'P 1'
_cell_length_a   4.94454161
_cell_length_b   5.66557495
_cell_length_c   7.10932949
_cell_angle_alpha   90.00000000
_cell_angle_beta   90.00000000
_cell_angle_gamma   96.35041612
_symmetry_Int_Tables_number   1
_chemical_formula_structural   SbAsO4
_chemical_formula_sum   'Sb2 As2 O8'
_cell_volume   197.93638425
_cell_formula_units_Z   2
loop_
 _symmetry_equiv_pos_site_id
 _symmetry_equiv_pos_as_xyz
  1  'x, y, z'
loop_
 _atom_site_type_symbol
 _atom_site_label
 _atom_site_symmetry_multiplicity
 _atom_site_fract_x
 _atom_site_fract_y
 _atom_site_fract_z
 _atom_site_occupancy
  O  O0  1  0.182894  0.718460  0.559535  1
  O  O1  1  0.817106  0.281540  0.059535  1
  O  O2  1  0.817106  0.281540  0.440465  1
  O  O3  1  0.182894  0.718460  0.940465  1
  O  O4  1  0.184704  0.175591  0.750000  1
  O  O5  1  0.815296  0.824409  0.250000  1
  O  O6  1  0.636910  0.955242  0.750000  1
  O  O7  1  0.363090  0.044758  0.250000  1
  As  As8  1  0.283886  0.888296  0.750000  1
  As  As9  1  0.716114  0.111704  0.250000  1
  Sb  Sb10  1  0.815459  0.301046  0.750000  1
  Sb  Sb11  1  0.184541  0.698954  0.250000  1
