# generated using pymatgen
data_Mn3CoSn2(PO4)6
_symmetry_space_group_name_H-M   'P 1'
_cell_length_a   8.58531112
_cell_length_b   8.77834143
_cell_length_c   8.77834173
_cell_angle_alpha   60.00000237
_cell_angle_beta   59.25341511
_cell_angle_gamma   59.25341210
_symmetry_Int_Tables_number   1
_chemical_formula_structural   Mn3CoSn2(PO4)6
_chemical_formula_sum   'Mn3 Co1 Sn2 P6 O24'
_cell_volume   462.45750656
_cell_formula_units_Z   1
loop_
 _symmetry_equiv_pos_site_id
 _symmetry_equiv_pos_as_xyz
  1  'x, y, z'
loop_
 _atom_site_type_symbol
 _atom_site_label
 _atom_site_symmetry_multiplicity
 _atom_site_fract_x
 _atom_site_fract_y
 _atom_site_fract_z
 _atom_site_occupancy
  Mn  Mn0  1  0.045136  0.651621  0.651621  1
  Mn  Mn1  1  0.451818  0.849394  0.849394  1
  Mn  Mn2  1  0.949483  0.350173  0.350173  1
  Co  Co3  1  0.546939  0.151020  0.151020  1
  Sn  Sn4  1  0.997511  0.000829  0.000829  1
  Sn  Sn5  1  0.500489  0.499837  0.499837  1
  P  P6  1  0.252850  0.248376  0.547128  1
  P  P7  1  0.252850  0.951646  0.248376  1
  P  P8  1  0.252850  0.547128  0.951646  1
  P  P9  1  0.748493  0.446583  0.053765  1
  P  P10  1  0.748493  0.053765  0.751158  1
  P  P11  1  0.748493  0.751158  0.446583  1
  O  O12  1  0.067834  0.095688  0.323860  1
  O  O13  1  0.067834  0.512618  0.095688  1
  O  O14  1  0.067834  0.323860  0.512618  1
  O  O15  1  0.219154  0.095814  0.750618  1
  O  O16  1  0.433746  0.173031  0.394957  1
  O  O17  1  0.291522  0.398403  0.560526  1
  O  O18  1  0.219154  0.934414  0.095814  1
  O  O19  1  0.291522  0.749551  0.398403  1
  O  O20  1  0.565378  0.596888  0.017792  1
  O  O21  1  0.291522  0.560526  0.749551  1
  O  O22  1  0.773475  0.245106  0.072238  1
  O  O23  1  0.565378  0.017792  0.819942  1
  O  O24  1  0.433746  0.998266  0.173031  1
  O  O25  1  0.219154  0.750618  0.934414  1
  O  O26  1  0.716784  0.427736  0.256559  1
  O  O27  1  0.433746  0.394957  0.998266  1
  O  O28  1  0.716784  0.256559  0.598921  1
  O  O29  1  0.773475  0.072238  0.909180  1
  O  O30  1  0.716784  0.598921  0.427736  1
  O  O31  1  0.565378  0.819942  0.596888  1
  O  O32  1  0.773475  0.909180  0.245106  1
  O  O33  1  0.933638  0.680591  0.477856  1
  O  O34  1  0.933638  0.477856  0.907916  1
  O  O35  1  0.933638  0.907916  0.680591  1
