# generated using pymatgen
data_Li2CoBO4
_symmetry_space_group_name_H-M   'P 1'
_cell_length_a   6.03720137
_cell_length_b   10.20043050
_cell_length_c   4.78822833
_cell_angle_alpha   90.00063187
_cell_angle_beta   89.99996426
_cell_angle_gamma   90.00049061
_symmetry_Int_Tables_number   1
_chemical_formula_structural   Li2CoBO4
_chemical_formula_sum   'Li8 Co4 B4 O16'
_cell_volume   294.86893073
_cell_formula_units_Z   4
loop_
 _symmetry_equiv_pos_site_id
 _symmetry_equiv_pos_as_xyz
  1  'x, y, z'
loop_
 _atom_site_type_symbol
 _atom_site_label
 _atom_site_symmetry_multiplicity
 _atom_site_fract_x
 _atom_site_fract_y
 _atom_site_fract_z
 _atom_site_occupancy
  Li  Li0  1  0.005085  0.842002  0.758255  1
  Li  Li1  1  0.239594  0.074434  0.755608  1
  Li  Li2  1  0.260421  0.574445  0.755615  1
  Li  Li3  1  0.494916  0.342000  0.758256  1
  Li  Li4  1  0.505087  0.658000  0.258255  1
  Li  Li5  1  0.739576  0.425569  0.255616  1
  Li  Li6  1  0.760411  0.925562  0.255619  1
  Li  Li7  1  0.994915  0.157993  0.258256  1
  Co  Co8  1  0.015100  0.663345  0.260788  1
  Co  Co9  1  0.484900  0.163346  0.260782  1
  Co  Co10  1  0.515094  0.836659  0.760791  1
  Co  Co11  1  0.984911  0.336660  0.760785  1
  B  B12  1  0.239118  0.408089  0.263959  1
  B  B13  1  0.260883  0.908081  0.263963  1
  B  B14  1  0.739113  0.091913  0.763961  1
  B  B15  1  0.760886  0.591918  0.763961  1
  O  O16  1  0.036966  0.342457  0.149706  1
  O  O17  1  0.052516  0.841328  0.169558  1
  O  O18  1  0.253129  0.048197  0.171869  1
  O  O19  1  0.230688  0.402516  0.573370  1
  O  O20  1  0.269316  0.902509  0.573375  1
  O  O21  1  0.246873  0.548204  0.171876  1
  O  O22  1  0.447486  0.341333  0.169555  1
  O  O23  1  0.463029  0.842450  0.149711  1
  O  O24  1  0.536953  0.157535  0.649712  1
  O  O25  1  0.552522  0.658673  0.669551  1
  O  O26  1  0.753128  0.451798  0.671879  1
  O  O27  1  0.730676  0.097479  0.073374  1
  O  O28  1  0.769319  0.597494  0.073369  1
  O  O29  1  0.746875  0.951796  0.671868  1
  O  O30  1  0.947479  0.158671  0.669557  1
  O  O31  1  0.963036  0.657545  0.649702  1
