# generated using pymatgen
data_NaGePCO7
_symmetry_space_group_name_H-M   'P 1'
_cell_length_a   8.98422595
_cell_length_b   6.32079228
_cell_length_c   5.13051686
_cell_angle_alpha   90.00000000
_cell_angle_beta   87.32249604
_cell_angle_gamma   90.00000000
_symmetry_Int_Tables_number   1
_chemical_formula_structural   NaGePCO7
_chemical_formula_sum   'Na2 Ge2 P2 C2 O14'
_cell_volume   291.03077921
_cell_formula_units_Z   2
loop_
 _symmetry_equiv_pos_site_id
 _symmetry_equiv_pos_as_xyz
  1  'x, y, z'
loop_
 _atom_site_type_symbol
 _atom_site_label
 _atom_site_symmetry_multiplicity
 _atom_site_fract_x
 _atom_site_fract_y
 _atom_site_fract_z
 _atom_site_occupancy
  Na  Na0  1  0.224974  0.477460  0.237608  1
  Na  Na1  1  0.775026  0.977460  0.762392  1
  Ge  Ge2  1  0.339044  0.764666  0.783415  1
  Ge  Ge3  1  0.660956  0.264666  0.216585  1
  P  P4  1  0.435246  0.255184  0.727057  1
  P  P5  1  0.564754  0.755184  0.272943  1
  C  C6  1  0.079937  0.743739  0.724310  1
  C  C7  1  0.920063  0.243739  0.275690  1
  O  O8  1  0.054364  0.240581  0.309984  1
  O  O9  1  0.144252  0.748911  0.954946  1
  O  O10  1  0.188716  0.744601  0.531822  1
  O  O11  1  0.334387  0.062910  0.787143  1
  O  O12  1  0.338803  0.449771  0.797564  1
  O  O13  1  0.420684  0.746865  0.118248  1
  O  O14  1  0.481504  0.263160  0.427829  1
  O  O15  1  0.518496  0.763160  0.572171  1
  O  O16  1  0.579316  0.246865  0.881752  1
  O  O17  1  0.661197  0.949771  0.202436  1
  O  O18  1  0.665613  0.562910  0.212857  1
  O  O19  1  0.811284  0.244601  0.468178  1
  O  O20  1  0.855748  0.248911  0.045054  1
  O  O21  1  0.945636  0.740581  0.690016  1
