# generated using pymatgen
data_Li2FeF6
_symmetry_space_group_name_H-M   'P 1'
_cell_length_a   8.67525911
_cell_length_b   8.76081314
_cell_length_c   4.50803215
_cell_angle_alpha   89.29903877
_cell_angle_beta   90.00000000
_cell_angle_gamma   119.67748109
_symmetry_Int_Tables_number   1
_chemical_formula_structural   Li2FeF6
_chemical_formula_sum   'Li6 Fe3 F18'
_cell_volume   297.64851232
_cell_formula_units_Z   3
loop_
 _symmetry_equiv_pos_site_id
 _symmetry_equiv_pos_as_xyz
  1  'x, y, z'
loop_
 _atom_site_type_symbol
 _atom_site_label
 _atom_site_symmetry_multiplicity
 _atom_site_fract_x
 _atom_site_fract_y
 _atom_site_fract_z
 _atom_site_occupancy
  Li  Li0  1  0.992842  0.651816  0.005142  1
  Li  Li1  1  0.007346  0.348077  0.991154  1
  Li  Li2  1  0.341026  0.348184  0.994858  1
  Li  Li3  1  0.348851  0.000000  0.000000  1
  Li  Li4  1  0.659269  0.651923  0.008846  1
  Li  Li5  1  0.651002  0.000000  0.000000  1
  Fe  Fe6  1  0.333013  0.666173  0.494241  1
  Fe  Fe7  1  0.000061  0.000000  0.000000  1
  Fe  Fe8  1  0.666840  0.333827  0.505759  1
  F  F9  1  0.105572  0.897566  0.218572  1
  F  F10  1  0.128367  0.564978  0.253860  1
  F  F11  1  0.227409  0.764959  0.730099  1
  F  F12  1  0.227948  0.455279  0.744603  1
  F  F13  1  0.103018  0.206681  0.217046  1
  F  F14  1  0.438088  0.876122  0.242059  1
  F  F15  1  0.208006  0.102434  0.781428  1
  F  F16  1  0.537272  0.764879  0.729158  1
  F  F17  1  0.437013  0.564874  0.253192  1
  F  F18  1  0.563389  0.435022  0.746140  1
  F  F19  1  0.462449  0.235041  0.269901  1
  F  F20  1  0.791611  0.897610  0.218727  1
  F  F21  1  0.896337  0.793319  0.782954  1
  F  F22  1  0.772670  0.544721  0.255397  1
  F  F23  1  0.561966  0.123878  0.757941  1
  F  F24  1  0.772393  0.235121  0.270842  1
  F  F25  1  0.872139  0.435126  0.746808  1
  F  F26  1  0.894001  0.102390  0.781273  1
