# generated using pymatgen
data_Li3V3(BO5)2
_symmetry_space_group_name_H-M   'P 1'
_cell_length_a   9.11917695
_cell_length_b   12.27952961
_cell_length_c   3.11792945
_cell_angle_alpha   89.99981868
_cell_angle_beta   89.99925080
_cell_angle_gamma   90.02888487
_symmetry_Int_Tables_number   1
_chemical_formula_structural   Li3V3(BO5)2
_chemical_formula_sum   'Li6 V6 B4 O20'
_cell_volume   349.14321132
_cell_formula_units_Z   2
loop_
 _symmetry_equiv_pos_site_id
 _symmetry_equiv_pos_as_xyz
  1  'x, y, z'
loop_
 _atom_site_type_symbol
 _atom_site_label
 _atom_site_symmetry_multiplicity
 _atom_site_fract_x
 _atom_site_fract_y
 _atom_site_fract_z
 _atom_site_occupancy
  Li  Li0  1  0.989280  0.497465  0.499995  1
  Li  Li1  1  0.251116  0.116714  0.500002  1
  Li  Li2  1  0.522316  0.490844  -0.000000  1
  Li  Li3  1  0.493270  0.007710  0.499998  1
  Li  Li4  1  0.720887  0.385038  0.499997  1
  Li  Li5  1  0.757476  0.888902  0.499996  1
  V  V6  1  0.003404  0.001877  0.999993  1
  V  V7  1  0.994552  0.291547  0.000004  1
  V  V8  1  0.262754  0.609578  0.499990  1
  V  V9  1  0.506989  0.791901  0.999988  1
  V  V10  1  0.499743  0.213539  0.999992  1
  V  V11  1  0.990514  0.714133  -0.000001  1
  B  B12  1  0.221734  0.859054  0.500002  1
  B  B13  1  0.281276  0.359499  0.500010  1
  B  B14  1  0.713454  0.636372  0.499995  1
  B  B15  1  0.782724  0.141505  0.499996  1
  O  O16  1  0.076145  0.139373  0.999994  1
  O  O17  1  0.116582  0.584648  0.999947  1
  O  O18  1  0.125953  0.343629  0.500000  1
  O  O19  1  0.144131  0.760999  0.500000  1
  O  O20  1  0.145224  0.957412  0.499996  1
  O  O21  1  0.343091  0.459969  0.500055  1
  O  O22  1  0.362062  0.264197  0.499996  1
  O  O23  1  0.372698  0.855628  0.500006  1
  O  O24  1  0.394985  0.087741  0.000003  1
  O  O25  1  0.389017  0.661751  0.000053  1
  O  O26  1  0.597501  0.336515  0.000003  1
  O  O27  1  0.606117  0.912649  0.000016  1
  O  O28  1  0.632935  0.142839  0.499994  1
  O  O29  1  0.630703  0.735605  0.499998  1
  O  O30  1  0.654545  0.539051  0.500002  1
  O  O31  1  0.860057  0.042217  0.499991  1
  O  O32  1  0.864079  0.237539  0.500006  1
  O  O33  1  0.869034  0.655273  0.499987  1
  O  O34  1  0.900416  0.412020  0.999999  1
  O  O35  1  0.923232  0.865266  0.999997  1
