# generated using pymatgen
data_KCoPCO7
_symmetry_space_group_name_H-M   'P 1'
_cell_length_a   9.92521768
_cell_length_b   6.08359312
_cell_length_c   5.28126349
_cell_angle_alpha   90.00000000
_cell_angle_beta   88.27583841
_cell_angle_gamma   90.00000000
_symmetry_Int_Tables_number   1
_chemical_formula_structural   KCoPCO7
_chemical_formula_sum   'K2 Co2 P2 C2 O14'
_cell_volume   318.74352368
_cell_formula_units_Z   2
loop_
 _symmetry_equiv_pos_site_id
 _symmetry_equiv_pos_as_xyz
  1  'x, y, z'
loop_
 _atom_site_type_symbol
 _atom_site_label
 _atom_site_symmetry_multiplicity
 _atom_site_fract_x
 _atom_site_fract_y
 _atom_site_fract_z
 _atom_site_occupancy
  K  K0  1  0.237723  0.402580  0.244586  1
  K  K1  1  0.762277  0.902580  0.755414  1
  Co  Co2  1  0.349643  0.770578  0.774291  1
  Co  Co3  1  0.650358  0.270578  0.225709  1
  P  P4  1  0.443541  0.265432  0.721092  1
  P  P5  1  0.556459  0.765432  0.278908  1
  C  C6  1  0.114036  0.748925  0.719760  1
  C  C7  1  0.885964  0.248925  0.280240  1
  O  O8  1  0.006694  0.221543  0.312212  1
  O  O9  1  0.173814  0.758613  0.939189  1
  O  O10  1  0.207960  0.768024  0.536392  1
  O  O11  1  0.339816  0.074975  0.776036  1
  O  O12  1  0.342519  0.460439  0.769229  1
  O  O13  1  0.435700  0.761841  0.107704  1
  O  O14  1  0.486501  0.264900  0.437012  1
  O  O15  1  0.513499  0.764900  0.562988  1
  O  O16  1  0.564300  0.261841  0.892296  1
  O  O17  1  0.657481  0.960439  0.230771  1
  O  O18  1  0.660184  0.574975  0.223964  1
  O  O19  1  0.792040  0.268024  0.463608  1
  O  O20  1  0.826186  0.258613  0.060811  1
  O  O21  1  0.993306  0.721543  0.687788  1
