# generated using pymatgen
data_Nb4ReO4
_symmetry_space_group_name_H-M   'P 1'
_cell_length_a   5.46850282
_cell_length_b   5.11914447
_cell_length_c   8.81208386
_cell_angle_alpha   79.80122594
_cell_angle_beta   84.53099997
_cell_angle_gamma   75.73863964
_symmetry_Int_Tables_number   1
_chemical_formula_structural   Nb4ReO4
_chemical_formula_sum   'Nb8 Re2 O8'
_cell_volume   234.96023135
_cell_formula_units_Z   2
loop_
 _symmetry_equiv_pos_site_id
 _symmetry_equiv_pos_as_xyz
  1  'x, y, z'
loop_
 _atom_site_type_symbol
 _atom_site_label
 _atom_site_symmetry_multiplicity
 _atom_site_fract_x
 _atom_site_fract_y
 _atom_site_fract_z
 _atom_site_occupancy
  Nb  Nb0  1  0.136369  0.608943  0.361543  1
  Nb  Nb1  1  0.822540  0.844168  0.793271  1
  Nb  Nb2  1  0.697257  0.213906  0.042315  1
  Nb  Nb3  1  0.302743  0.786094  0.957685  1
  Nb  Nb4  1  0.741250  0.076740  0.373218  1
  Nb  Nb5  1  0.258750  0.923260  0.626781  1
  Nb  Nb6  1  0.177460  0.155832  0.206729  1
  Nb  Nb7  1  0.863631  0.391057  0.638457  1
  Re  Re8  1  0.312824  0.332010  0.807728  1
  Re  Re9  1  0.687176  0.667990  0.192272  1
  O  O10  1  0.910415  0.805426  0.014933  1
  O  O11  1  0.089584  0.194574  0.985067  1
  O  O12  1  0.060703  0.211834  0.448643  1
  O  O13  1  0.939297  0.788166  0.551357  1
  O  O14  1  0.531625  0.632990  0.759275  1
  O  O15  1  0.468375  0.367010  0.240725  1
  O  O16  1  0.424495  0.831819  0.369177  1
  O  O17  1  0.575506  0.168181  0.630823  1
