# generated using pymatgen
data_LiNbCuO4
_symmetry_space_group_name_H-M   'P 1'
_cell_length_a   6.22398788
_cell_length_b   6.22397197
_cell_length_c   8.23351843
_cell_angle_alpha   89.99903686
_cell_angle_beta   89.99867812
_cell_angle_gamma   89.99796803
_symmetry_Int_Tables_number   1
_chemical_formula_structural   LiNbCuO4
_chemical_formula_sum   'Li4 Nb4 Cu4 O16'
_cell_volume   318.94942837
_cell_formula_units_Z   4
loop_
 _symmetry_equiv_pos_site_id
 _symmetry_equiv_pos_as_xyz
  1  'x, y, z'
loop_
 _atom_site_type_symbol
 _atom_site_label
 _atom_site_symmetry_multiplicity
 _atom_site_fract_x
 _atom_site_fract_y
 _atom_site_fract_z
 _atom_site_occupancy
  Li  Li0  1  0.999965  0.217002  0.000028  1
  Li  Li1  1  -0.000024  0.783018  0.499967  1
  Li  Li2  1  0.216981  0.000032  0.250037  1
  Li  Li3  1  0.782996  0.000043  0.749969  1
  Nb  Nb4  1  0.212497  0.499997  0.250043  1
  Nb  Nb5  1  0.500016  0.212506  0.000008  1
  Nb  Nb6  1  0.499973  0.787512  0.499975  1
  Nb  Nb7  1  0.787505  0.499956  0.749975  1
  Cu  Cu8  1  0.256843  0.256807  0.625004  1
  Cu  Cu9  1  0.256820  0.743198  0.874992  1
  Cu  Cu10  1  0.743137  0.256874  0.375006  1
  Cu  Cu11  1  0.743203  0.743177  0.124998  1
  O  O12  1  0.018998  0.262816  0.260026  1
  O  O13  1  0.018933  0.737145  0.239932  1
  O  O14  1  0.262863  0.018880  0.989889  1
  O  O15  1  0.262863  0.981011  0.510057  1
  O  O16  1  0.265367  0.475729  0.008891  1
  O  O17  1  0.265367  0.524328  0.491042  1
  O  O18  1  0.475603  0.265368  0.241005  1
  O  O19  1  0.475701  0.734635  0.258936  1
  O  O20  1  0.524369  0.265369  0.758952  1
  O  O21  1  0.524275  0.734632  0.741111  1
  O  O22  1  0.734631  0.524402  0.508991  1
  O  O23  1  0.734631  0.475662  0.991071  1
  O  O24  1  0.737160  0.018921  0.010075  1
  O  O25  1  0.737182  0.980995  0.489973  1
  O  O26  1  0.981029  0.262848  0.739937  1
  O  O27  1  0.981113  0.737135  0.760112  1
