# generated using pymatgen
data_Li5V4(PO4)6
_symmetry_space_group_name_H-M   'P 1'
_cell_length_a   8.69277549
_cell_length_b   8.80156756
_cell_length_c   12.18576878
_cell_angle_alpha   90.00000000
_cell_angle_beta   90.11896937
_cell_angle_gamma   90.00000000
_symmetry_Int_Tables_number   1
_chemical_formula_structural   Li5V4(PO4)6
_chemical_formula_sum   'Li10 V8 P12 O48'
_cell_volume   932.33177747
_cell_formula_units_Z   2
loop_
 _symmetry_equiv_pos_site_id
 _symmetry_equiv_pos_as_xyz
  1  'x, y, z'
loop_
 _atom_site_type_symbol
 _atom_site_label
 _atom_site_symmetry_multiplicity
 _atom_site_fract_x
 _atom_site_fract_y
 _atom_site_fract_z
 _atom_site_occupancy
  Li  Li0  1  0.088353  0.704113  0.767003  1
  Li  Li1  1  0.217375  0.772365  0.181299  1
  Li  Li2  1  0.293110  0.273709  0.317479  1
  Li  Li3  1  0.389103  0.208503  0.722893  1
  Li  Li4  1  0.424559  0.592363  0.801193  1
  Li  Li5  1  0.588353  0.795887  0.267003  1
  Li  Li6  1  0.717375  0.727635  0.681299  1
  Li  Li7  1  0.793110  0.226291  0.817479  1
  Li  Li8  1  0.889103  0.291497  0.222893  1
  Li  Li9  1  0.924559  0.907637  0.301193  1
  V  V10  1  0.255528  0.030949  0.886033  1
  V  V11  1  0.255018  0.961499  0.389507  1
  V  V12  1  0.250862  0.459174  0.114058  1
  V  V13  1  0.244151  0.529494  0.611494  1
  V  V14  1  0.755528  0.469051  0.386033  1
  V  V15  1  0.755018  0.538501  0.889507  1
  V  V16  1  0.750862  0.040826  0.614058  1
  V  V17  1  0.744151  0.970506  0.111494  1
  P  P18  1  0.036158  0.249092  0.495122  1
  P  P19  1  0.107188  0.386357  0.856864  1
  P  P20  1  0.109342  0.099162  0.146358  1
  P  P21  1  0.394660  0.599112  0.353248  1
  P  P22  1  0.396764  0.885227  0.649570  1
  P  P23  1  0.461780  0.749994  0.006438  1
  P  P24  1  0.536158  0.250908  0.995122  1
  P  P25  1  0.607188  0.113643  0.356864  1
  P  P26  1  0.609342  0.400838  0.646358  1
  P  P27  1  0.894660  0.900888  0.853248  1
  P  P28  1  0.896764  0.614773  0.149570  1
  P  P29  1  0.961780  0.750006  0.506438  1
  O  O30  1  0.053419  0.858489  0.430516  1
  O  O31  1  0.061723  0.667757  0.592395  1
  O  O32  1  0.076029  0.901581  0.850668  1
  O  O33  1  0.072842  0.600404  0.163668  1
  O  O34  1  0.118726  0.353251  0.576222  1
  O  O35  1  0.141930  0.421830  0.975970  1
  O  O36  1  0.156625  0.221691  0.825064  1
  O  O37  1  0.156090  0.975571  0.232306  1
  O  O38  1  0.157988  0.167294  0.423383  1
  O  O39  1  0.161561  0.258532  0.183812  1
  O  O40  1  0.174780  0.053223  0.034383  1
  O  O41  1  0.195555  0.504843  0.782935  1
  O  O42  1  0.319515  0.003452  0.728893  1
  O  O43  1  0.332702  0.560010  0.465006  1
  O  O44  1  0.353649  0.764572  0.316509  1
  O  O45  1  0.336482  0.666447  0.070645  1
  O  O46  1  0.335085  0.481862  0.269513  1
  O  O47  1  0.349364  0.720955  0.682004  1
  O  O48  1  0.346311  0.923332  0.533216  1
  O  O49  1  0.378112  0.858376  0.924330  1
  O  O50  1  0.431802  0.096510  0.335237  1
  O  O51  1  0.430823  0.396235  0.647876  1
  O  O52  1  0.434822  0.158505  0.909855  1
  O  O53  1  0.438015  0.362592  0.059437  1
  O  O54  1  0.553419  0.641511  0.930516  1
  O  O55  1  0.561723  0.832243  0.092395  1
  O  O56  1  0.576029  0.598419  0.350668  1
  O  O57  1  0.572842  0.899596  0.663668  1
  O  O58  1  0.618726  0.146749  0.076222  1
  O  O59  1  0.641930  0.078170  0.475970  1
  O  O60  1  0.656625  0.278309  0.325064  1
  O  O61  1  0.656090  0.524429  0.732306  1
  O  O62  1  0.657988  0.332706  0.923383  1
  O  O63  1  0.661561  0.241468  0.683812  1
  O  O64  1  0.674780  0.446777  0.534383  1
  O  O65  1  0.695555  0.995157  0.282935  1
  O  O66  1  0.819515  0.496548  0.228893  1
  O  O67  1  0.832702  0.939990  0.965006  1
  O  O68  1  0.853649  0.735428  0.816509  1
  O  O69  1  0.836482  0.833553  0.570645  1
  O  O70  1  0.835085  0.018138  0.769513  1
  O  O71  1  0.849364  0.779045  0.182004  1
  O  O72  1  0.846311  0.576668  0.033216  1
  O  O73  1  0.878112  0.641624  0.424330  1
  O  O74  1  0.931802  0.403490  0.835237  1
  O  O75  1  0.930823  0.103765  0.147876  1
  O  O76  1  0.934822  0.341495  0.409855  1
  O  O77  1  0.938015  0.137408  0.559437  1
