# generated using pymatgen
data_Li8Mn5Fe3(BO3)8
_symmetry_space_group_name_H-M   'P 1'
_cell_length_a   6.02796086
_cell_length_b   5.24304523
_cell_length_c   16.18618080
_cell_angle_alpha   91.22316192
_cell_angle_beta   98.21350511
_cell_angle_gamma   89.19914764
_symmetry_Int_Tables_number   1
_chemical_formula_structural   Li8Mn5Fe3(BO3)8
_chemical_formula_sum   'Li8 Mn5 Fe3 B8 O24'
_cell_volume   506.16861951
_cell_formula_units_Z   1
loop_
 _symmetry_equiv_pos_site_id
 _symmetry_equiv_pos_as_xyz
  1  'x, y, z'
loop_
 _atom_site_type_symbol
 _atom_site_label
 _atom_site_symmetry_multiplicity
 _atom_site_fract_x
 _atom_site_fract_y
 _atom_site_fract_z
 _atom_site_occupancy
  Li  Li0  1  0.064909  0.846195  0.610776  1
  Li  Li1  1  0.436018  0.151547  0.890789  1
  Li  Li2  1  0.187750  0.652008  0.139920  1
  Li  Li3  1  0.311862  0.350661  0.359550  1
  Li  Li4  1  0.688536  0.651476  0.641234  1
  Li  Li5  1  0.813434  0.348152  0.859761  1
  Li  Li6  1  0.563565  0.846931  0.110062  1
  Li  Li7  1  0.934739  0.151191  0.389456  1
  Mn  Mn8  1  0.023321  0.167156  0.210317  1
  Mn  Mn9  1  0.224276  0.331445  0.538829  1
  Mn  Mn10  1  0.524722  0.167260  0.709368  1
  Mn  Mn11  1  0.772596  0.669368  0.458501  1
  Mn  Mn12  1  0.723867  0.331570  0.039514  1
  Fe  Fe13  1  0.272036  0.667014  0.956835  1
  Fe  Fe14  1  0.472745  0.838110  0.289449  1
  Fe  Fe15  1  0.972576  0.837715  0.791414  1
  B  B16  1  0.036780  0.327030  0.703836  1
  B  B17  1  0.283701  0.828714  0.450929  1
  B  B18  1  0.463128  0.670217  0.798141  1
  B  B19  1  0.216494  0.172181  0.047089  1
  B  B20  1  0.786900  0.828074  0.951958  1
  B  B21  1  0.536280  0.327493  0.204040  1
  B  B22  1  0.716560  0.171367  0.547683  1
  B  B23  1  0.964067  0.673094  0.296962  1
  O  O24  1  0.011999  0.586187  0.691877  1
  O  O25  1  0.170325  0.180151  0.656360  1
  O  O26  1  0.168184  0.714160  0.508555  1
  O  O27  1  0.331809  0.296701  0.991148  1
  O  O28  1  0.083114  0.786525  0.240082  1
  O  O29  1  0.326769  0.818407  0.845159  1
  O  O30  1  0.080423  0.318843  0.093919  1
  O  O31  1  0.261211  0.087415  0.436485  1
  O  O32  1  0.487440  0.411409  0.812152  1
  O  O33  1  0.240806  0.912139  0.059176  1
  O  O34  1  0.419615  0.679286  0.404866  1
  O  O35  1  0.421722  0.207389  0.261538  1
  O  O36  1  0.579015  0.787360  0.741139  1
  O  O37  1  0.580212  0.322229  0.593257  1
  O  O38  1  0.762519  0.086424  0.936952  1
  O  O39  1  0.511407  0.586472  0.191207  1
  O  O40  1  0.739506  0.912834  0.562693  1
  O  O41  1  0.920812  0.677568  0.904873  1
  O  O42  1  0.669066  0.179568  0.156610  1
  O  O43  1  0.922508  0.204468  0.760788  1
  O  O44  1  0.673444  0.713599  0.010025  1
  O  O45  1  0.833464  0.286982  0.490533  1
  O  O46  1  0.826894  0.823494  0.342075  1
  O  O47  1  0.986874  0.414421  0.312119  1
