# generated using pymatgen
data_Fe3(O2F)2
_symmetry_space_group_name_H-M   'P 1'
_cell_length_a   4.77240159
_cell_length_b   7.65431920
_cell_length_c   5.66201819
_cell_angle_alpha   95.93323360
_cell_angle_beta   95.19231641
_cell_angle_gamma   86.99748217
_symmetry_Int_Tables_number   1
_chemical_formula_structural   Fe3(O2F)2
_chemical_formula_sum   'Fe6 O8 F4'
_cell_volume   204.68509660
_cell_formula_units_Z   2
loop_
 _symmetry_equiv_pos_site_id
 _symmetry_equiv_pos_as_xyz
  1  'x, y, z'
loop_
 _atom_site_type_symbol
 _atom_site_label
 _atom_site_symmetry_multiplicity
 _atom_site_fract_x
 _atom_site_fract_y
 _atom_site_fract_z
 _atom_site_occupancy
  Fe  Fe0  1  0.500000  0.666667  0.166667  1
  Fe  Fe1  1  0.459524  0.988401  0.524046  1
  Fe  Fe2  1  0.540476  0.344932  0.809287  1
  Fe  Fe3  1  0.000000  0.666667  0.666667  1
  Fe  Fe4  1  0.988133  0.332371  0.346972  1
  Fe  Fe5  1  0.011867  0.000963  0.986361  1
  O  O6  1  0.820736  0.444860  0.624570  1
  O  O7  1  0.695625  0.102623  0.792755  1
  O  O8  1  0.690076  0.767082  0.466096  1
  O  O9  1  0.696617  0.438122  0.126989  1
  O  O10  1  0.309924  0.566251  0.867237  1
  O  O11  1  0.304375  0.230710  0.540578  1
  O  O12  1  0.303383  0.895211  0.206344  1
  O  O13  1  0.179264  0.888474  0.708764  1
  F  F14  1  0.802652  0.769311  0.967092  1
  F  F15  1  0.812592  0.099721  0.283325  1
  F  F16  1  0.187408  0.233613  0.050008  1
  F  F17  1  0.197348  0.564023  0.366242  1
