# generated using pymatgen
data_RbFeO2
_symmetry_space_group_name_H-M   'P 1'
_cell_length_a   5.94924526
_cell_length_b   5.94924946
_cell_length_c   8.32682118
_cell_angle_alpha   90.00028788
_cell_angle_beta   90.00009779
_cell_angle_gamma   89.99978302
_symmetry_Int_Tables_number   1
_chemical_formula_structural   RbFeO2
_chemical_formula_sum   'Rb4 Fe4 O8'
_cell_volume   294.71571306
_cell_formula_units_Z   4
loop_
 _symmetry_equiv_pos_site_id
 _symmetry_equiv_pos_as_xyz
  1  'x, y, z'
loop_
 _atom_site_type_symbol
 _atom_site_label
 _atom_site_symmetry_multiplicity
 _atom_site_fract_x
 _atom_site_fract_y
 _atom_site_fract_z
 _atom_site_occupancy
  Rb  Rb0  1  0.222837  0.222843  0.499994  1
  Rb  Rb1  1  0.277187  0.722868  0.749996  1
  Rb  Rb2  1  0.722820  0.277131  0.249996  1
  Rb  Rb3  1  0.777212  0.777124  0.000011  1
  Fe  Fe4  1  0.211610  0.211617  0.999998  1
  Fe  Fe5  1  0.288394  0.711616  0.249998  1
  Fe  Fe6  1  0.711620  0.288377  0.750000  1
  Fe  Fe7  1  0.788388  0.788367  0.499998  1
  O  O8  1  0.093668  0.756186  0.428869  1
  O  O9  1  0.243829  0.906343  0.071134  1
  O  O10  1  0.256178  0.406335  0.178865  1
  O  O11  1  0.406332  0.256236  0.821129  1
  O  O12  1  0.593671  0.743771  0.321137  1
  O  O13  1  0.743820  0.593660  0.678876  1
  O  O14  1  0.756205  0.093654  0.571134  1
  O  O15  1  0.906329  0.243771  0.928865  1
