# generated using pymatgen
data_Na6Mn2B4SO16
_symmetry_space_group_name_H-M   'P 1'
_cell_length_a   9.83437645
_cell_length_b   9.83437629
_cell_length_c   9.83437639
_cell_angle_alpha   90.00000501
_cell_angle_beta   60.00000319
_cell_angle_gamma   60.00000285
_symmetry_Int_Tables_number   1
_chemical_formula_structural   Na6Mn2B4SO16
_chemical_formula_sum   'Na12 Mn4 B8 S2 O32'
_cell_volume   672.55142765
_cell_formula_units_Z   2
loop_
 _symmetry_equiv_pos_site_id
 _symmetry_equiv_pos_as_xyz
  1  'x, y, z'
loop_
 _atom_site_type_symbol
 _atom_site_label
 _atom_site_symmetry_multiplicity
 _atom_site_fract_x
 _atom_site_fract_y
 _atom_site_fract_z
 _atom_site_occupancy
  Na  Na0  1  0.750000  0.907354  0.657354  1
  Na  Na1  1  0.685292  0.657354  0.907354  1
  Na  Na2  1  0.750000  0.342646  0.657354  1
  Na  Na3  1  0.750000  0.907354  0.092646  1
  Na  Na4  1  0.250000  0.657354  0.907354  1
  Na  Na5  1  0.814708  0.092646  0.342646  1
  Na  Na6  1  0.750000  0.342646  0.092646  1
  Na  Na7  1  0.185292  0.907354  0.657354  1
  Na  Na8  1  0.250000  0.092646  0.907354  1
  Na  Na9  1  0.250000  0.657354  0.342646  1
  Na  Na10  1  0.314708  0.342646  0.092646  1
  Na  Na11  1  0.250000  0.092646  0.342646  1
  Mn  Mn12  1  0.500000  0.500000  0.500000  1
  Mn  Mn13  1  0.500000  0.000000  0.500000  1
  Mn  Mn14  1  0.000000  0.500000  0.500000  1
  Mn  Mn15  1  0.000000  0.500000  0.000000  1
  B  B16  1  0.922109  0.711054  0.288946  1
  B  B17  1  0.577891  0.711054  0.633163  1
  B  B18  1  0.922109  0.366837  0.288946  1
  B  B19  1  0.577891  0.711054  0.288946  1
  B  B20  1  0.422109  0.288946  0.711054  1
  B  B21  1  0.422109  0.288946  0.366837  1
  B  B22  1  0.077891  0.633163  0.711054  1
  B  B23  1  0.077891  0.288946  0.711054  1
  S  S24  1  0.750000  0.125000  0.875000  1
  S  S25  1  0.250000  0.875000  0.125000  1
  O  O26  1  0.950756  0.640272  0.682487  1
  O  O27  1  0.950756  0.408970  0.866757  1
  O  O28  1  0.957787  0.682487  0.408970  1
  O  O29  1  0.773516  0.866757  0.317513  1
  O  O30  1  0.874268  0.062867  0.937133  1
  O  O31  1  0.726484  0.591030  0.640272  1
  O  O32  1  0.542213  0.866757  0.640272  1
  O  O33  1  0.625732  0.311401  0.937133  1
  O  O34  1  0.874268  0.062867  0.688599  1
  O  O35  1  0.957787  0.359728  0.133243  1
  O  O36  1  0.773516  0.359728  0.408970  1
  O  O37  1  0.625732  0.062867  0.937133  1
  O  O38  1  0.726484  0.682487  0.133243  1
  O  O39  1  0.450756  0.682487  0.640272  1
  O  O40  1  0.450756  0.866757  0.408970  1
  O  O41  1  0.457787  0.408970  0.682487  1
  O  O42  1  0.542213  0.591030  0.317513  1
  O  O43  1  0.549244  0.133243  0.591030  1
  O  O44  1  0.549244  0.317513  0.359728  1
  O  O45  1  0.273516  0.317513  0.866757  1
  O  O46  1  0.374268  0.937133  0.062867  1
  O  O47  1  0.226484  0.640272  0.591030  1
  O  O48  1  0.042213  0.640272  0.866757  1
  O  O49  1  0.374268  0.688599  0.062867  1
  O  O50  1  0.125732  0.937133  0.311401  1
  O  O51  1  0.457787  0.133243  0.359728  1
  O  O52  1  0.273516  0.408970  0.359728  1
  O  O53  1  0.125732  0.937133  0.062867  1
  O  O54  1  0.226484  0.133243  0.682487  1
  O  O55  1  0.042213  0.317513  0.591030  1
  O  O56  1  0.049244  0.591030  0.133243  1
  O  O57  1  0.049244  0.359728  0.317513  1
