# generated using pymatgen
data_Mn2O3F
_symmetry_space_group_name_H-M   'P 1'
_cell_length_a   4.57351662
_cell_length_b   9.62393267
_cell_length_c   6.05903159
_cell_angle_alpha   71.57485705
_cell_angle_beta   90.00441426
_cell_angle_gamma   89.03144234
_symmetry_Int_Tables_number   1
_chemical_formula_structural   Mn2O3F
_chemical_formula_sum   'Mn8 O12 F4'
_cell_volume   252.97810477
_cell_formula_units_Z   4
loop_
 _symmetry_equiv_pos_site_id
 _symmetry_equiv_pos_as_xyz
  1  'x, y, z'
loop_
 _atom_site_type_symbol
 _atom_site_label
 _atom_site_symmetry_multiplicity
 _atom_site_fract_x
 _atom_site_fract_y
 _atom_site_fract_z
 _atom_site_occupancy
  Mn  Mn0  1  0.471206  0.238490  0.628306  1
  Mn  Mn1  1  0.521812  0.263119  0.121428  1
  Mn  Mn2  1  0.508913  0.743919  0.383992  1
  Mn  Mn3  1  0.529529  0.753902  0.864229  1
  Mn  Mn4  1  0.990997  0.994964  0.504074  1
  Mn  Mn5  1  0.010971  0.497504  0.747783  1
  Mn  Mn6  1  0.969800  0.005466  0.996145  1
  Mn  Mn7  1  0.002692  0.500915  0.252894  1
  O  O8  1  0.812118  0.408586  0.045886  1
  O  O9  1  0.804336  0.901652  0.797912  1
  O  O10  1  0.806520  0.902149  0.298181  1
  O  O11  1  0.683775  0.156061  0.924064  1
  O  O12  1  0.689792  0.153957  0.421547  1
  O  O13  1  0.700205  0.650868  0.672966  1
  O  O14  1  0.694278  0.655509  0.171306  1
  O  O15  1  0.305798  0.343221  0.828470  1
  O  O16  1  0.314865  0.844840  0.576469  1
  O  O17  1  0.304366  0.344877  0.327597  1
  O  O18  1  0.192237  0.596594  0.451496  1
  O  O19  1  0.185729  0.090525  0.705518  1
  F  F20  1  0.779500  0.389616  0.555637  1
  F  F21  1  0.301760  0.851708  0.076302  1
  F  F22  1  0.215678  0.609672  0.946684  1
  F  F23  1  0.203124  0.101887  0.201110  1
