# generated using pymatgen
data_Li8Mn6(FeO6)3
_symmetry_space_group_name_H-M   'P 1'
_cell_length_a   8.96609077
_cell_length_b   8.96609047
_cell_length_c   10.16524033
_cell_angle_alpha   88.70768676
_cell_angle_beta   91.29231211
_cell_angle_gamma   59.49653564
_symmetry_Int_Tables_number   1
_chemical_formula_structural   Li8Mn6(FeO6)3
_chemical_formula_sum   'Li16 Mn12 Fe6 O36'
_cell_volume   703.36335673
_cell_formula_units_Z   2
loop_
 _symmetry_equiv_pos_site_id
 _symmetry_equiv_pos_as_xyz
  1  'x, y, z'
loop_
 _atom_site_type_symbol
 _atom_site_label
 _atom_site_symmetry_multiplicity
 _atom_site_fract_x
 _atom_site_fract_y
 _atom_site_fract_z
 _atom_site_occupancy
  Li  Li0  1  0.841647  0.740825  0.245420  1
  Li  Li1  1  0.805562  0.087344  0.230806  1
  Li  Li2  1  0.775267  0.432911  0.219996  1
  Li  Li3  1  0.752025  0.038910  0.721010  1
  Li  Li4  1  0.733756  0.391400  0.719996  1
  Li  Li5  1  0.552519  0.906275  0.773384  1
  Li  Li6  1  0.461724  0.768965  0.228300  1
  Li  Li7  1  0.425842  0.325020  0.745420  1
  Li  Li8  1  0.462056  0.103556  0.229059  1
  Li  Li9  1  0.397701  0.704943  0.728300  1
  Li  Li10  1  0.260392  0.614148  0.273384  1
  Li  Li11  1  0.152762  0.070309  0.236491  1
  Li  Li12  1  0.127756  0.414641  0.221010  1
  Li  Li13  1  0.096357  0.013905  0.736491  1
  Li  Li14  1  0.079323  0.361105  0.730806  1
  Li  Li15  1  0.063110  0.704610  0.729059  1
  Mn  Mn16  1  -0.000966  0.333016  0.001273  1
  Mn  Mn17  1  0.833364  0.506488  0.500110  1
  Mn  Mn18  1  0.833651  0.167632  0.501273  1
  Mn  Mn19  1  0.660179  0.333302  0.000110  1
  Mn  Mn20  1  0.670740  0.000445  0.001634  1
  Mn  Mn21  1  0.498457  0.163955  0.497968  1
  Mn  Mn22  1  0.500362  0.834306  0.496437  1
  Mn  Mn23  1  0.338434  0.005539  0.995147  1
  Mn  Mn24  1  0.332360  0.666305  0.996437  1
  Mn  Mn25  1  0.161128  0.828233  0.495147  1
  Mn  Mn26  1  0.166221  0.495926  0.501634  1
  Mn  Mn27  1  0.002711  0.668210  0.997968  1
  Fe  Fe28  1  0.834018  0.834744  0.504065  1
  Fe  Fe29  1  0.671799  0.662407  0.989176  1
  Fe  Fe30  1  0.504260  0.494868  0.489176  1
  Fe  Fe31  1  0.331922  0.332649  0.004065  1
  Fe  Fe32  1  0.168464  0.160653  0.499034  1
  Fe  Fe33  1  0.006014  0.998203  0.999034  1
  O  O34  1  0.962895  0.589177  0.606582  1
  O  O35  1  0.937466  0.287164  0.608946  1
  O  O36  1  0.970406  0.923254  0.616924  1
  O  O37  1  0.885462  0.538562  0.113916  1
  O  O38  1  0.879503  0.229200  0.108946  1
  O  O39  1  0.880835  0.882292  0.108103  1
  O  O40  1  0.753549  0.444076  0.895219  1
  O  O41  1  0.762233  0.119433  0.900795  1
  O  O42  1  0.775987  0.793395  0.896226  1
  O  O43  1  0.722590  0.413118  0.395219  1
  O  O44  1  0.714772  0.071929  0.400178  1
  O  O45  1  0.719460  0.722377  0.398487  1
  O  O46  1  0.628105  0.281204  0.613916  1
  O  O47  1  0.615748  0.610846  0.600501  1
  O  O48  1  0.613892  0.960665  0.611005  1
  O  O49  1  0.577489  0.203771  0.106582  1
  O  O50  1  0.555821  0.550919  0.100501  1
  O  O51  1  0.561518  0.890192  0.102156  1
  O  O52  1  0.453386  0.108388  0.897084  1
  O  O53  1  0.444290  0.447207  0.898487  1
  O  O54  1  0.448170  0.803035  0.885197  1
  O  O55  1  0.388029  0.036312  0.383649  1
  O  O56  1  0.373271  0.390680  0.396226  1
  O  O57  1  0.363632  0.718497  0.385197  1
  O  O58  1  0.284375  0.285832  0.608103  1
  O  O59  1  0.280250  0.918010  0.599752  1
  O  O60  1  0.276475  0.605149  0.602156  1
  O  O61  1  0.243412  0.196260  0.116924  1
  O  O62  1  0.248656  0.886416  0.099752  1
  O  O63  1  0.206001  0.552775  0.111005  1
  O  O64  1  0.121739  0.125583  0.895700  1
  O  O65  1  0.130354  0.778638  0.883649  1
  O  O66  1  0.094737  0.451894  0.900178  1
  O  O67  1  0.041084  0.044928  0.395700  1
  O  O68  1  0.058278  0.713281  0.397084  1
  O  O69  1  0.047233  0.404434  0.400795  1
