# generated using pymatgen
data_Fe5O3F7
_symmetry_space_group_name_H-M   'P 1'
_cell_length_a   4.80415902
_cell_length_b   4.80415902
_cell_length_c   15.61296564
_cell_angle_alpha   89.82833506
_cell_angle_beta   90.17166494
_cell_angle_gamma   90.72008374
_symmetry_Int_Tables_number   1
_chemical_formula_structural   Fe5O3F7
_chemical_formula_sum   'Fe10 O6 F14'
_cell_volume   360.31471774
_cell_formula_units_Z   2
loop_
 _symmetry_equiv_pos_site_id
 _symmetry_equiv_pos_as_xyz
  1  'x, y, z'
loop_
 _atom_site_type_symbol
 _atom_site_label
 _atom_site_symmetry_multiplicity
 _atom_site_fract_x
 _atom_site_fract_y
 _atom_site_fract_z
 _atom_site_occupancy
  Fe  Fe0  1  0.958373  0.977185  0.008330  1
  Fe  Fe1  1  0.006435  0.006435  0.200000  1
  Fe  Fe2  1  0.977185  0.958373  0.391670  1
  Fe  Fe3  1  0.026007  0.025817  0.598238  1
  Fe  Fe4  1  0.025817  0.026007  0.801762  1
  Fe  Fe5  1  0.540978  0.476207  0.096349  1
  Fe  Fe6  1  0.505864  0.496569  0.500071  1
  Fe  Fe7  1  0.476207  0.540978  0.303651  1
  Fe  Fe8  1  0.474833  0.474833  0.700000  1
  Fe  Fe9  1  0.496569  0.505864  0.899929  1
  O  O10  1  0.181039  0.812068  0.300946  1
  O  O11  1  0.323155  0.321440  0.597571  1
  O  O12  1  0.321440  0.323155  0.802429  1
  O  O13  1  0.686034  0.681687  0.993813  1
  O  O14  1  0.681687  0.686034  0.406187  1
  O  O15  1  0.812068  0.181039  0.099054  1
  F  F16  1  0.201856  0.791938  0.097284  1
  F  F17  1  0.197175  0.797400  0.495059  1
  F  F18  1  0.215672  0.801821  0.700160  1
  F  F19  1  0.194242  0.800425  0.906664  1
  F  F20  1  0.295867  0.287638  0.994797  1
  F  F21  1  0.320482  0.320482  0.200000  1
  F  F22  1  0.287638  0.295867  0.405203  1
  F  F23  1  0.689744  0.689744  0.200000  1
  F  F24  1  0.707165  0.704885  0.601476  1
  F  F25  1  0.704885  0.707165  0.798524  1
  F  F26  1  0.800425  0.194242  0.493336  1
  F  F27  1  0.791938  0.201856  0.302716  1
  F  F28  1  0.797400  0.197175  0.904941  1
  F  F29  1  0.801821  0.215672  0.699840  1
