# generated using pymatgen
data_Ba2LaCl7
_symmetry_space_group_name_H-M   'P 1'
_cell_length_a   10.79899471
_cell_length_b   16.01080488
_cell_length_c   7.07665587
_cell_angle_alpha   90.00000000
_cell_angle_beta   90.89578284
_cell_angle_gamma   90.00000000
_symmetry_Int_Tables_number   1
_chemical_formula_structural   Ba2LaCl7
_chemical_formula_sum   'Ba8 La4 Cl28'
_cell_volume   1223.40848919
_cell_formula_units_Z   4
loop_
 _symmetry_equiv_pos_site_id
 _symmetry_equiv_pos_as_xyz
  1  'x, y, z'
loop_
 _atom_site_type_symbol
 _atom_site_label
 _atom_site_symmetry_multiplicity
 _atom_site_fract_x
 _atom_site_fract_y
 _atom_site_fract_z
 _atom_site_occupancy
  Ba  Ba0  1  0.050362  0.221096  0.269395  1
  Ba  Ba1  1  0.175736  0.561747  0.268614  1
  Ba  Ba2  1  0.324264  0.061747  0.731386  1
  Ba  Ba3  1  0.449638  0.721095  0.730605  1
  Ba  Ba4  1  0.550362  0.278905  0.269395  1
  Ba  Ba5  1  0.675736  0.938253  0.268614  1
  Ba  Ba6  1  0.824264  0.438253  0.731386  1
  Ba  Ba7  1  0.949638  0.778905  0.730605  1
  La  La8  1  0.217426  0.873572  0.219076  1
  La  La9  1  0.282574  0.373572  0.780924  1
  La  La10  1  0.717426  0.626428  0.219076  1
  La  La11  1  0.782574  0.126428  0.780924  1
  Cl  Cl12  1  0.037445  0.141838  0.703261  1
  Cl  Cl13  1  0.066243  0.396533  0.004540  1
  Cl  Cl14  1  0.079677  0.396163  0.506369  1
  Cl  Cl15  1  0.123355  0.928931  0.859442  1
  Cl  Cl16  1  0.195291  0.740157  0.494582  1
  Cl  Cl17  1  0.205610  0.724058  0.996465  1
  Cl  Cl18  1  0.212534  0.044807  0.302574  1
  Cl  Cl19  1  0.287466  0.544807  0.697426  1
  Cl  Cl20  1  0.294390  0.224058  0.003535  1
  Cl  Cl21  1  0.304709  0.240157  0.505418  1
  Cl  Cl22  1  0.376645  0.428931  0.140558  1
  Cl  Cl23  1  0.420323  0.896163  0.493631  1
  Cl  Cl24  1  0.433757  0.896533  0.995460  1
  Cl  Cl25  1  0.462555  0.641838  0.296739  1
  Cl  Cl26  1  0.537445  0.358162  0.703261  1
  Cl  Cl27  1  0.566243  0.103467  0.004540  1
  Cl  Cl28  1  0.579677  0.103837  0.506369  1
  Cl  Cl29  1  0.623355  0.571069  0.859442  1
  Cl  Cl30  1  0.695291  0.759843  0.494582  1
  Cl  Cl31  1  0.705610  0.775942  0.996465  1
  Cl  Cl32  1  0.712534  0.455193  0.302574  1
  Cl  Cl33  1  0.787466  0.955193  0.697426  1
  Cl  Cl34  1  0.794390  0.275942  0.003535  1
  Cl  Cl35  1  0.804709  0.259843  0.505418  1
  Cl  Cl36  1  0.876645  0.071069  0.140558  1
  Cl  Cl37  1  0.920323  0.603837  0.493631  1
  Cl  Cl38  1  0.933757  0.603467  0.995460  1
  Cl  Cl39  1  0.962555  0.858162  0.296739  1
