# generated using pymatgen
data_NaVSiCO7
_symmetry_space_group_name_H-M   'P 1'
_cell_length_a   9.06236742
_cell_length_b   6.42612941
_cell_length_c   5.40774080
_cell_angle_alpha   90.00000000
_cell_angle_beta   86.73632075
_cell_angle_gamma   90.00000000
_symmetry_Int_Tables_number   1
_chemical_formula_structural   NaVSiCO7
_chemical_formula_sum   'Na2 V2 Si2 C2 O14'
_cell_volume   314.41412597
_cell_formula_units_Z   2
loop_
 _symmetry_equiv_pos_site_id
 _symmetry_equiv_pos_as_xyz
  1  'x, y, z'
loop_
 _atom_site_type_symbol
 _atom_site_label
 _atom_site_symmetry_multiplicity
 _atom_site_fract_x
 _atom_site_fract_y
 _atom_site_fract_z
 _atom_site_occupancy
  Na  Na0  1  0.223879  0.485814  0.235183  1
  Na  Na1  1  0.776121  0.985814  0.764817  1
  V  V2  1  0.343776  0.765915  0.798197  1
  V  V3  1  0.656224  0.265915  0.201803  1
  Si  Si4  1  0.438045  0.259842  0.724765  1
  Si  Si5  1  0.561955  0.759842  0.275235  1
  C  C6  1  0.080114  0.743460  0.722359  1
  C  C7  1  0.919886  0.243460  0.277641  1
  O  O8  1  0.053137  0.244511  0.310180  1
  O  O9  1  0.140172  0.749582  0.943124  1
  O  O10  1  0.188839  0.740471  0.546660  1
  O  O11  1  0.341364  0.046897  0.786356  1
  O  O12  1  0.337667  0.459875  0.794851  1
  O  O13  1  0.416498  0.745633  0.105179  1
  O  O14  1  0.498098  0.255851  0.431001  1
  O  O15  1  0.501902  0.755851  0.568999  1
  O  O16  1  0.583502  0.245633  0.894821  1
  O  O17  1  0.662333  0.959875  0.205149  1
  O  O18  1  0.658636  0.546897  0.213644  1
  O  O19  1  0.811161  0.240471  0.453340  1
  O  O20  1  0.859828  0.249582  0.056876  1
  O  O21  1  0.946863  0.744511  0.689820  1
