# generated using pymatgen
data_Li3Fe4SbO8
_symmetry_space_group_name_H-M   'P 1'
_cell_length_a   10.71215928
_cell_length_b   10.71215940
_cell_length_c   14.97615996
_cell_angle_alpha   19.69896100
_cell_angle_beta   19.69895734
_cell_angle_gamma   34.19078263
_symmetry_Int_Tables_number   1
_chemical_formula_structural   Li3Fe4SbO8
_chemical_formula_sum   'Li3 Fe4 Sb1 O8'
_cell_volume   166.65547305
_cell_formula_units_Z   1
loop_
 _symmetry_equiv_pos_site_id
 _symmetry_equiv_pos_as_xyz
  1  'x, y, z'
loop_
 _atom_site_type_symbol
 _atom_site_label
 _atom_site_symmetry_multiplicity
 _atom_site_fract_x
 _atom_site_fract_y
 _atom_site_fract_z
 _atom_site_occupancy
  Li  Li0  1  0.000000  0.500000  0.500000  1
  Li  Li1  1  0.500000  0.000000  0.500000  1
  Li  Li2  1  0.500000  0.500000  0.500000  1
  Fe  Fe3  1  0.000000  0.000000  0.000000  1
  Fe  Fe4  1  0.000000  0.500000  0.000000  1
  Fe  Fe5  1  0.500000  0.000000  0.000000  1
  Fe  Fe6  1  0.000000  0.000000  0.500000  1
  Sb  Sb7  1  0.500000  0.500000  0.000000  1
  O  O8  1  0.985051  0.985051  0.275775  1
  O  O9  1  0.053745  0.511561  0.210937  1
  O  O10  1  0.511561  0.053745  0.210937  1
  O  O11  1  0.014949  0.014949  0.724225  1
  O  O12  1  0.520481  0.520481  0.230309  1
  O  O13  1  0.946255  0.488439  0.789063  1
  O  O14  1  0.488439  0.946255  0.789063  1
  O  O15  1  0.479519  0.479519  0.769691  1
