# generated using pymatgen
data_Li3V6Fe4(CuO12)2
_symmetry_space_group_name_H-M   'P 1'
_cell_length_a   8.19832955
_cell_length_b   9.97774996
_cell_length_c   6.76997128
_cell_angle_alpha   104.28355227
_cell_angle_beta   103.08317400
_cell_angle_gamma   106.69839481
_symmetry_Int_Tables_number   1
_chemical_formula_structural   Li3V6Fe4(CuO12)2
_chemical_formula_sum   'Li3 V6 Fe4 Cu2 O24'
_cell_volume   486.96732155
_cell_formula_units_Z   1
loop_
 _symmetry_equiv_pos_site_id
 _symmetry_equiv_pos_as_xyz
  1  'x, y, z'
loop_
 _atom_site_type_symbol
 _atom_site_label
 _atom_site_symmetry_multiplicity
 _atom_site_fract_x
 _atom_site_fract_y
 _atom_site_fract_z
 _atom_site_occupancy
  Li  Li0  1  0.057476  0.099550  0.395238  1
  Li  Li1  1  0.000000  0.000000  0.000000  1
  Li  Li2  1  0.942524  0.900450  0.604762  1
  V  V3  1  0.161514  0.766390  0.221555  1
  V  V4  1  0.232060  0.379839  0.408349  1
  V  V5  1  0.389353  0.159651  0.878344  1
  V  V6  1  0.610647  0.840349  0.121656  1
  V  V7  1  0.767940  0.620161  0.591651  1
  V  V8  1  0.838486  0.233610  0.778445  1
  Fe  Fe9  1  0.296051  0.488970  0.955310  1
  Fe  Fe10  1  0.550386  0.893049  0.621674  1
  Fe  Fe11  1  0.449614  0.106951  0.378326  1
  Fe  Fe12  1  0.703949  0.511030  0.044690  1
  Cu  Cu13  1  0.214394  0.702040  0.717089  1
  Cu  Cu14  1  0.785606  0.297960  0.282911  1
  O  O15  1  0.058467  0.320471  0.812966  1
  O  O16  1  0.191785  0.953667  0.231739  1
  O  O17  1  0.215195  0.665141  0.005191  1
  O  O18  1  0.008064  0.259612  0.309256  1
  O  O19  1  0.280197  0.766678  0.476225  1
  O  O20  1  0.274865  0.511750  0.661097  1
  O  O21  1  0.165039  0.065321  0.805089  1
  O  O22  1  0.500674  0.854012  0.879661  1
  O  O23  1  0.286793  0.468118  0.231585  1
  O  O24  1  0.438454  0.352458  0.918189  1
  O  O25  1  0.530496  0.923187  0.328471  1
  O  O26  1  0.336685  0.251948  0.436059  1
  O  O27  1  0.663315  0.748052  0.563941  1
  O  O28  1  0.469504  0.076813  0.671529  1
  O  O29  1  0.561546  0.647542  0.081811  1
  O  O30  1  0.713207  0.531882  0.768415  1
  O  O31  1  0.499326  0.145988  0.120339  1
  O  O32  1  0.834961  0.934679  0.194911  1
  O  O33  1  0.725135  0.488250  0.338903  1
  O  O34  1  0.719803  0.233322  0.523775  1
  O  O35  1  0.991936  0.740388  0.690744  1
  O  O36  1  0.784805  0.334859  0.994809  1
  O  O37  1  0.808215  0.046333  0.768262  1
  O  O38  1  0.941533  0.679529  0.187034  1
