# generated using pymatgen
data_Li3V3P8O29
_symmetry_space_group_name_H-M   'P 1'
_cell_length_a   9.76891028
_cell_length_b   9.75860060
_cell_length_c   14.21974031
_cell_angle_alpha   90.00537445
_cell_angle_beta   90.37468131
_cell_angle_gamma   60.05061535
_symmetry_Int_Tables_number   1
_chemical_formula_structural   Li3V3P8O29
_chemical_formula_sum   'Li6 V6 P16 O58'
_cell_volume   1174.53252082
_cell_formula_units_Z   2
loop_
 _symmetry_equiv_pos_site_id
 _symmetry_equiv_pos_as_xyz
  1  'x, y, z'
loop_
 _atom_site_type_symbol
 _atom_site_label
 _atom_site_symmetry_multiplicity
 _atom_site_fract_x
 _atom_site_fract_y
 _atom_site_fract_z
 _atom_site_occupancy
  Li  Li0  1  0.766366  0.328182  0.058090  1
  Li  Li1  1  0.327346  0.906297  0.059994  1
  Li  Li2  1  0.327713  0.769600  0.558023  1
  Li  Li3  1  0.333376  0.326908  0.604071  1
  Li  Li4  1  0.984736  0.959914  0.002160  1
  Li  Li5  1  0.948769  0.035996  0.500606  1
  V  V6  1  0.565602  0.434754  0.254413  1
  V  V7  1  0.431861  0.566399  0.753706  1
  V  V8  1  0.572417  0.996342  0.751785  1
  V  V9  1  0.440645  0.002872  0.252119  1
  V  V10  1  0.996524  0.564588  0.248678  1
  V  V11  1  0.999252  0.435541  0.748917  1
  P  P12  1  0.922841  0.775325  0.840783  1
  P  P13  1  0.782434  0.914718  0.341818  1
  P  P14  1  0.919963  0.304084  0.344964  1
  P  P15  1  0.663275  0.664890  0.131685  1
  P  P16  1  0.662028  0.668710  0.631437  1
  P  P17  1  0.775799  0.311584  0.840853  1
  P  P18  1  0.689957  0.220722  0.659226  1
  P  P19  1  0.312130  0.916869  0.843906  1
  P  P20  1  0.695346  0.085611  0.157055  1
  P  P21  1  0.315533  0.775472  0.342833  1
  P  P22  1  0.221971  0.691295  0.162862  1
  P  P23  1  0.330889  0.336737  0.367718  1
  P  P24  1  0.334007  0.329653  0.868118  1
  P  P25  1  0.087172  0.693118  0.655083  1
  P  P26  1  0.221142  0.089130  0.661472  1
  P  P27  1  0.084219  0.221891  0.159751  1
  O  O28  1  0.010464  0.789842  0.570664  1
  O  O29  1  0.912489  0.739526  0.329703  1
  O  O30  1  0.788042  0.011256  0.071539  1
  O  O31  1  0.746309  0.910449  0.830110  1
  O  O32  1  0.927657  0.615342  0.827259  1
  O  O33  1  0.810429  0.663932  0.178892  1
  O  O34  1  0.923779  0.460187  0.330343  1
  O  O35  1  0.994149  0.212942  0.077362  1
  O  O36  1  0.913494  0.346381  0.828470  1
  O  O37  1  0.654103  0.818595  0.678608  1
  O  O38  1  0.619349  0.919790  0.326826  1
  O  O39  1  0.814266  0.528927  0.677849  1
  O  O40  1  0.663415  0.659787  0.027130  1
  O  O41  1  0.655532  0.674305  0.527485  1
  O  O42  1  0.668727  0.512340  0.173218  1
  O  O43  1  0.467611  0.917100  0.826638  1
  O  O44  1  0.513491  0.814955  0.171701  1
  O  O45  1  0.743118  0.347171  0.329353  1
  O  O46  1  0.790634  0.199196  0.755445  1
  O  O47  1  0.787171  0.204926  0.576755  1
  O  O48  1  0.780391  0.238465  0.933148  1
  O  O49  1  0.618224  0.469016  0.822499  1
  O  O50  1  0.516099  0.662135  0.672439  1
  O  O51  1  0.652219  0.262356  0.164653  1
  O  O52  1  0.473522  0.618149  0.325587  1
  O  O53  1  0.349867  0.913104  0.327421  1
  O  O54  1  0.798753  0.002746  0.250218  1
  O  O55  1  0.793743  0.992077  0.428047  1
  O  O56  1  0.212123  0.994211  0.582525  1
  O  O57  1  0.651792  0.083258  0.667139  1
  O  O58  1  0.527756  0.375733  0.668930  1
  O  O59  1  0.345162  0.743657  0.828450  1
  O  O60  1  0.479055  0.337581  0.325195  1
  O  O61  1  0.383138  0.537266  0.173756  1
  O  O62  1  0.208742  0.794374  0.081731  1
  O  O63  1  0.244875  0.779746  0.435276  1
  O  O64  1  0.198336  0.791116  0.259296  1
  O  O65  1  0.265047  0.653154  0.662193  1
  O  O66  1  0.478735  0.183213  0.822233  1
  O  O67  1  0.540279  0.078201  0.171198  1
  O  O68  1  0.338169  0.476597  0.821242  1
  O  O69  1  0.334888  0.332504  0.971839  1
  O  O70  1  0.334629  0.333347  0.472299  1
  O  O71  1  0.184286  0.480414  0.323761  1
  O  O72  1  0.374799  0.098859  0.668827  1
  O  O73  1  0.336638  0.185701  0.322694  1
  O  O74  1  0.087892  0.650556  0.166846  1
  O  O75  1  0.008771  0.793115  0.749469  1
  O  O76  1  0.996987  0.794534  0.926750  1
  O  O77  1  0.094782  0.529932  0.667147  1
  O  O78  1  0.185737  0.335399  0.820140  1
  O  O79  1  0.078397  0.383209  0.172009  1
  O  O80  1  0.260181  0.086927  0.161174  1
  O  O81  1  0.237039  0.979008  0.936329  1
  O  O82  1  0.196928  0.017071  0.759403  1
  O  O83  1  0.082413  0.264022  0.663979  1
  O  O84  1  0.988355  0.211820  0.431855  1
  O  O85  1  0.009818  0.196586  0.254678  1
