# generated using pymatgen
data_Li2Cr3FeO8
_symmetry_space_group_name_H-M   'P 1'
_cell_length_a   5.99533582
_cell_length_b   6.00304929
_cell_length_c   6.00382375
_cell_angle_alpha   58.70540303
_cell_angle_beta   120.78134175
_cell_angle_gamma   120.75552474
_symmetry_Int_Tables_number   1
_chemical_formula_structural   Li2Cr3FeO8
_chemical_formula_sum   'Li2 Cr3 Fe1 O8'
_cell_volume   149.49420929
_cell_formula_units_Z   1
loop_
 _symmetry_equiv_pos_site_id
 _symmetry_equiv_pos_as_xyz
  1  'x, y, z'
loop_
 _atom_site_type_symbol
 _atom_site_label
 _atom_site_symmetry_multiplicity
 _atom_site_fract_x
 _atom_site_fract_y
 _atom_site_fract_z
 _atom_site_occupancy
  Li  Li0  1  0.499979  0.999951  0.000015  1
  Li  Li1  1  0.499978  0.499955  0.500028  1
  Cr  Cr2  1  0.499991  0.000068  0.500010  1
  Cr  Cr3  1  0.499992  0.500065  -0.000134  1
  Cr  Cr4  1  -0.000164  0.500062  0.499814  1
  Fe  Fe5  1  0.000085  -0.000018  0.000043  1
  O  O6  1  0.726728  0.261218  0.260608  1
  O  O7  1  0.746455  0.228909  0.729201  1
  O  O8  1  0.279899  0.242066  0.242453  1
  O  O9  1  0.746686  0.729517  0.228902  1
  O  O10  1  0.253304  0.270482  0.771182  1
  O  O11  1  0.720154  0.757908  0.757599  1
  O  O12  1  0.253554  0.771051  0.270848  1
  O  O13  1  0.273358  0.738766  0.739430  1
