# generated using pymatgen
data_Mn6O7F5
_symmetry_space_group_name_H-M   'P 1'
_cell_length_a   4.59353046
_cell_length_b   5.64779094
_cell_length_c   15.30854208
_cell_angle_alpha   89.66359664
_cell_angle_beta   89.76842370
_cell_angle_gamma   88.65870180
_symmetry_Int_Tables_number   1
_chemical_formula_structural   Mn6O7F5
_chemical_formula_sum   'Mn12 O14 F10'
_cell_volume   397.03540277
_cell_formula_units_Z   2
loop_
 _symmetry_equiv_pos_site_id
 _symmetry_equiv_pos_as_xyz
  1  'x, y, z'
loop_
 _atom_site_type_symbol
 _atom_site_label
 _atom_site_symmetry_multiplicity
 _atom_site_fract_x
 _atom_site_fract_y
 _atom_site_fract_z
 _atom_site_occupancy
  Mn  Mn0  1  0.030542  0.160037  0.412196  1
  Mn  Mn1  1  0.996141  0.843596  0.242195  1
  Mn  Mn2  1  0.004405  0.154597  0.075349  1
  Mn  Mn3  1  0.015180  0.168890  0.750776  1
  Mn  Mn4  1  0.017038  0.824755  0.577112  1
  Mn  Mn5  1  0.045958  0.845011  0.912885  1
  Mn  Mn6  1  0.512171  0.373627  0.585938  1
  Mn  Mn7  1  0.482718  0.354714  0.925048  1
  Mn  Mn8  1  0.506497  0.345859  0.257527  1
  Mn  Mn9  1  0.498788  0.650781  0.086820  1
  Mn  Mn10  1  0.497970  0.637702  0.423331  1
  Mn  Mn11  1  0.483290  0.634596  0.751030  1
  O  O12  1  0.214117  0.112662  0.300406  1
  O  O13  1  0.232484  0.119088  0.969742  1
  O  O14  1  0.214390  0.884870  0.133332  1
  O  O15  1  0.236230  0.886348  0.467694  1
  O  O16  1  0.235083  0.882198  0.804631  1
  O  O17  1  0.284251  0.400561  0.480650  1
  O  O18  1  0.276632  0.606295  0.643807  1
  O  O19  1  0.281096  0.394960  0.813379  1
  O  O20  1  0.275020  0.611250  0.976913  1
  O  O21  1  0.718191  0.381377  0.028164  1
  O  O22  1  0.710999  0.615115  0.197251  1
  O  O23  1  0.724520  0.383491  0.364162  1
  O  O24  1  0.721375  0.615810  0.526836  1
  O  O25  1  0.726035  0.392833  0.693583  1
  F  F26  1  0.252009  0.117064  0.633342  1
  F  F27  1  0.250954  0.382765  0.152538  1
  F  F28  1  0.248878  0.616656  0.318591  1
  F  F29  1  0.739938  0.616356  0.858851  1
  F  F30  1  0.746680  0.114169  0.179425  1
  F  F31  1  0.778213  0.129325  0.527795  1
  F  F32  1  0.747905  0.871329  0.357786  1
  F  F33  1  0.775175  0.870651  0.013093  1
  F  F34  1  0.755157  0.117119  0.865062  1
  F  F35  1  0.763969  0.883541  0.692763  1
