# generated using pymatgen
data_Na3Li3Fe2P2(CO7)2
_symmetry_space_group_name_H-M   'P 1'
_cell_length_a   8.72233393
_cell_length_b   6.71274864
_cell_length_c   10.17081462
_cell_angle_alpha   89.41925811
_cell_angle_beta   87.60362226
_cell_angle_gamma   90.08348023
_symmetry_Int_Tables_number   1
_chemical_formula_structural   Na3Li3Fe2P2(CO7)2
_chemical_formula_sum   'Na6 Li6 Fe4 P4 C4 O28'
_cell_volume   594.95728576
_cell_formula_units_Z   2
loop_
 _symmetry_equiv_pos_site_id
 _symmetry_equiv_pos_as_xyz
  1  'x, y, z'
loop_
 _atom_site_type_symbol
 _atom_site_label
 _atom_site_symmetry_multiplicity
 _atom_site_fract_x
 _atom_site_fract_y
 _atom_site_fract_z
 _atom_site_occupancy
  Na  Na0  1  0.086403  0.257201  0.878796  1
  Na  Na1  1  0.259399  0.997613  0.629009  1
  Na  Na2  1  0.257323  0.000617  0.123176  1
  Na  Na3  1  0.255593  0.501295  0.128158  1
  Na  Na4  1  0.745731  0.499850  0.876223  1
  Na  Na5  1  0.739725  0.502128  0.372354  1
  Li  Li6  1  0.092848  0.240175  0.381605  1
  Li  Li7  1  0.289539  0.464095  0.611478  1
  Li  Li8  1  0.720147  0.972901  0.882890  1
  Li  Li9  1  0.723147  0.983201  0.375173  1
  Li  Li10  1  0.900456  0.760340  0.621354  1
  Li  Li11  1  0.897438  0.766898  0.124395  1
  Fe  Fe12  1  0.358312  0.744248  0.882510  1
  Fe  Fe13  1  0.347543  0.749273  0.391557  1
  Fe  Fe14  1  0.661156  0.242342  0.608682  1
  Fe  Fe15  1  0.647172  0.242357  0.111605  1
  P  P16  1  0.419635  0.246574  0.851588  1
  P  P17  1  0.410059  0.243764  0.357604  1
  P  P18  1  0.594872  0.746678  0.641795  1
  P  P19  1  0.591381  0.753124  0.142097  1
  C  C20  1  0.043576  0.760283  0.865101  1
  C  C21  1  0.040844  0.762489  0.363380  1
  C  C22  1  0.961546  0.262861  0.630492  1
  C  C23  1  0.938245  0.245083  0.151874  1
  O  O24  1  0.106098  0.283596  0.651217  1
  O  O25  1  0.081674  0.249162  0.179877  1
  O  O26  1  0.069200  0.753769  0.989563  1
  O  O27  1  0.072981  0.761725  0.486746  1
  O  O28  1  0.158642  0.744966  0.778800  1
  O  O29  1  0.153308  0.746623  0.274328  1
  O  O30  1  0.316117  0.062970  0.886418  1
  O  O31  1  0.329710  0.430910  0.903833  1
  O  O32  1  0.303695  0.063338  0.395246  1
  O  O33  1  0.317693  0.430265  0.406179  1
  O  O34  1  0.442445  0.266623  0.698227  1
  O  O35  1  0.432298  0.728076  0.585702  1
  O  O36  1  0.434047  0.253626  0.204486  1
  O  O37  1  0.435047  0.749624  0.075887  1
  O  O38  1  0.579756  0.227304  0.911502  1
  O  O39  1  0.575618  0.771288  0.794472  1
  O  O40  1  0.568834  0.229626  0.418957  1
  O  O41  1  0.563246  0.779545  0.294014  1
  O  O42  1  0.697006  0.561914  0.610691  1
  O  O43  1  0.688981  0.926665  0.582891  1
  O  O44  1  0.688068  0.562164  0.116020  1
  O  O45  1  0.695063  0.926497  0.085964  1
  O  O46  1  0.861741  0.244972  0.729965  1
  O  O47  1  0.832693  0.225845  0.245921  1
  O  O48  1  0.912221  0.256453  0.511889  1
  O  O49  1  0.894378  0.259417  0.031719  1
  O  O50  1  0.905810  0.780234  0.821986  1
  O  O51  1  0.901538  0.777411  0.324605  1
