# generated using pymatgen
data_Sr10Fe4Co(MoO6)5
_symmetry_space_group_name_H-M   'P 1'
_cell_length_a   28.06378786
_cell_length_b   7.97763143
_cell_length_c   9.73684396
_cell_angle_alpha   65.88230107
_cell_angle_beta   30.40347681
_cell_angle_gamma   44.78866132
_symmetry_Int_Tables_number   1
_chemical_formula_structural   Sr10Fe4Co(MoO6)5
_chemical_formula_sum   'Sr10 Fe4 Co1 Mo5 O30'
_cell_volume   638.17534717
_cell_formula_units_Z   1
loop_
 _symmetry_equiv_pos_site_id
 _symmetry_equiv_pos_as_xyz
  1  'x, y, z'
loop_
 _atom_site_type_symbol
 _atom_site_label
 _atom_site_symmetry_multiplicity
 _atom_site_fract_x
 _atom_site_fract_y
 _atom_site_fract_z
 _atom_site_occupancy
  Sr  Sr0  1  0.100620  0.250733  0.501385  1
  Sr  Sr1  1  0.100261  0.745565  0.502511  1
  Sr  Sr2  1  0.300716  0.243472  0.499242  1
  Sr  Sr3  1  0.299284  0.756528  0.500758  1
  Sr  Sr4  1  0.499739  0.254435  0.497489  1
  Sr  Sr5  1  0.499380  0.749267  0.498615  1
  Sr  Sr6  1  0.701777  0.245640  0.500546  1
  Sr  Sr7  1  0.701105  0.745455  0.502633  1
  Sr  Sr8  1  0.898895  0.254545  0.497366  1
  Sr  Sr9  1  0.898223  0.754360  0.499454  1
  Fe  Fe10  1  -0.001341  0.001025  0.005318  1
  Fe  Fe11  1  0.197161  0.003628  0.006127  1
  Fe  Fe12  1  0.402839  -0.003628  -0.006127  1
  Fe  Fe13  1  0.601341  -0.001025  -0.005318  1
  Co  Co14  1  0.800000  0.000000  0.000000  1
  Mo  Mo15  1  0.002375  0.497712  -0.005679  1
  Mo  Mo16  1  0.200827  0.498325  0.000676  1
  Mo  Mo17  1  0.399173  0.501675  -0.000676  1
  Mo  Mo18  1  0.597625  0.502288  0.005679  1
  Mo  Mo19  1  0.800000  0.500000  0.000000  1
  O  O20  1  0.015446  0.210509  -0.004147  1
  O  O21  1  0.093965  0.294464  0.006267  1
  O  O22  1  0.104684  0.706524  0.993642  1
  O  O23  1  0.213148  0.226433  0.000558  1
  O  O24  1  0.008053  0.739969  0.479180  1
  O  O25  1  0.186176  0.774889  0.000323  1
  O  O26  1  0.298858  0.289349  0.995063  1
  O  O27  1  0.198774  0.250192  0.502739  1
  O  O28  1  0.301142  0.710651  0.004937  1
  O  O29  1  0.413824  0.225111  -0.000323  1
  O  O30  1  0.204121  0.744870  0.489764  1
  O  O31  1  0.386852  0.773567  -0.000558  1
  O  O32  1  0.495316  0.293476  0.006358  1
  O  O33  1  0.395879  0.255130  0.510236  1
  O  O34  1  0.506035  0.705536  0.993733  1
  O  O35  1  0.612678  0.212862  0.004212  1
  O  O36  1  0.401226  0.749808  0.497261  1
  O  O37  1  0.584554  0.789491  0.004147  1
  O  O38  1  0.697566  0.290282  0.997652  1
  O  O39  1  0.591947  0.260031  0.520820  1
  O  O40  1  0.700350  0.712635  0.003660  1
  O  O41  1  0.813419  0.224196  0.000083  1
  O  O42  1  0.608847  0.738726  0.478482  1
  O  O43  1  0.786581  0.775804  0.999917  1
  O  O44  1  0.899650  0.287365  0.996340  1
  O  O45  1  0.801775  0.247534  0.496032  1
  O  O46  1  0.902434  0.709718  0.002348  1
  O  O47  1  0.798225  0.752466  0.503968  1
  O  O48  1  0.987322  0.787138  -0.004212  1
  O  O49  1  -0.008847  0.261274  0.521517  1
