# generated using pymatgen
data_Ba2Ce2O5
_symmetry_space_group_name_H-M   'P 1'
_cell_length_a   6.24336162
_cell_length_b   12.75001121
_cell_length_c   4.47663822
_cell_angle_alpha   90.00035971
_cell_angle_beta   89.99835602
_cell_angle_gamma   90.01359728
_symmetry_Int_Tables_number   1
_chemical_formula_structural   Ba2Ce2O5
_chemical_formula_sum   'Ba4 Ce4 O10'
_cell_volume   356.35351185
_cell_formula_units_Z   2
loop_
 _symmetry_equiv_pos_site_id
 _symmetry_equiv_pos_as_xyz
  1  'x, y, z'
loop_
 _atom_site_type_symbol
 _atom_site_label
 _atom_site_symmetry_multiplicity
 _atom_site_fract_x
 _atom_site_fract_y
 _atom_site_fract_z
 _atom_site_occupancy
  Ba  Ba0  1  0.247197  0.894804  0.499997  1
  Ba  Ba1  1  0.252787  0.394822  0.500013  1
  Ba  Ba2  1  0.747177  0.605282  0.499987  1
  Ba  Ba3  1  0.752817  0.105125  0.500000  1
  Ce  Ce4  1  0.243221  0.637604  0.000008  1
  Ce  Ce5  1  0.256811  0.137626  0.999986  1
  Ce  Ce6  1  0.743132  0.862402  0.000010  1
  Ce  Ce7  1  0.756888  0.362384  -0.000002  1
  O  O8  1  -0.000007  0.999975  0.000003  1
  O  O9  1  0.100226  0.293357  0.999998  1
  O  O10  1  0.193792  0.603885  0.500006  1
  O  O11  1  0.306211  0.103828  0.499991  1
  O  O12  1  0.399901  0.793422  0.000008  1
  O  O13  1  0.499947  0.500019  -0.000012  1
  O  O14  1  0.600119  0.206542  0.000012  1
  O  O15  1  0.693785  0.896129  0.500001  1
  O  O16  1  0.806188  0.396158  0.499995  1
  O  O17  1  0.899809  0.706633  -0.000001  1
