# generated using pymatgen
data_Mn3(O2F)2
_symmetry_space_group_name_H-M   'P 1'
_cell_length_a   7.69450172
_cell_length_b   5.56231234
_cell_length_c   5.56231234
_cell_angle_alpha   68.96065671
_cell_angle_beta   68.80212480
_cell_angle_gamma   68.80212480
_symmetry_Int_Tables_number   1
_chemical_formula_structural   Mn3(O2F)2
_chemical_formula_sum   'Mn6 O8 F4'
_cell_volume   199.67437102
_cell_formula_units_Z   2
loop_
 _symmetry_equiv_pos_site_id
 _symmetry_equiv_pos_as_xyz
  1  'x, y, z'
loop_
 _atom_site_type_symbol
 _atom_site_label
 _atom_site_symmetry_multiplicity
 _atom_site_fract_x
 _atom_site_fract_y
 _atom_site_fract_z
 _atom_site_occupancy
  Mn  Mn0  1  0.847836  0.673680  0.673680  1
  Mn  Mn1  1  0.657827  0.338130  0.338130  1
  Mn  Mn2  1  0.316990  0.660819  0.660819  1
  Mn  Mn3  1  0.179294  0.341169  0.341169  1
  Mn  Mn4  1  0.495524  0.997715  0.997715  1
  Mn  Mn5  1  0.000387  0.992833  0.992833  1
  O  O6  1  0.670639  0.033581  0.638716  1
  O  O7  1  0.332558  0.363428  0.971443  1
  O  O8  1  0.047472  0.768164  0.768164  1
  O  O9  1  0.366805  0.438814  0.438814  1
  O  O10  1  0.332558  0.971443  0.363428  1
  O  O11  1  0.670639  0.638716  0.033581  1
  O  O12  1  0.001539  0.304882  0.692245  1
  O  O13  1  0.001539  0.692245  0.304882  1
  F  F14  1  0.308167  0.880844  0.880844  1
  F  F15  1  0.614825  0.567226  0.567226  1
  F  F16  1  0.960813  0.224440  0.224440  1
  F  F17  1  0.694586  0.111871  0.111871  1
