# generated using pymatgen
data_Sr28In11
_symmetry_space_group_name_H-M   'P 1'
_cell_length_a   5.85696614
_cell_length_b   8.30861275
_cell_length_c   33.99467727
_cell_angle_alpha   97.01935272
_cell_angle_beta   94.94189389
_cell_angle_gamma   90.00000040
_symmetry_Int_Tables_number   1
_chemical_formula_structural   Sr28In11
_chemical_formula_sum   'Sr28 In11'
_cell_volume   1635.69658262
_cell_formula_units_Z   1
loop_
 _symmetry_equiv_pos_site_id
 _symmetry_equiv_pos_as_xyz
  1  'x, y, z'
loop_
 _atom_site_type_symbol
 _atom_site_label
 _atom_site_symmetry_multiplicity
 _atom_site_fract_x
 _atom_site_fract_y
 _atom_site_fract_z
 _atom_site_occupancy
  Sr  Sr0  1  0.823681  0.654163  0.647362  1
  Sr  Sr1  1  0.237567  0.984552  0.475135  1
  Sr  Sr2  1  0.224443  0.438837  0.448886  1
  Sr  Sr3  1  0.863169  0.071693  0.726338  1
  Sr  Sr4  1  0.136831  0.345355  0.273662  1
  Sr  Sr5  1  0.595977  0.255275  0.191955  1
  Sr  Sr6  1  0.353430  0.384284  0.706860  1
  Sr  Sr7  1  0.293718  0.361337  0.587436  1
  Sr  Sr8  1  0.762433  0.509417  0.524865  1
  Sr  Sr9  1  0.956346  0.578125  0.912692  1
  Sr  Sr10  1  0.775557  0.989951  0.551114  1
  Sr  Sr11  1  0.583103  0.717191  0.166206  1
  Sr  Sr12  1  0.706282  0.773901  0.412564  1
  Sr  Sr13  1  0.682015  0.329684  0.364029  1
  Sr  Sr14  1  0.940288  0.014234  0.880576  1
  Sr  Sr15  1  0.317985  0.965655  0.635971  1
  Sr  Sr16  1  0.117062  0.888572  0.234125  1
  Sr  Sr17  1  0.059712  0.133658  0.119424  1
  Sr  Sr18  1  0.500000  0.685962  0.000000  1
  Sr  Sr19  1  1.000000  0.002565  0.000000  1
  Sr  Sr20  1  0.043654  0.665433  0.087308  1
  Sr  Sr21  1  0.469878  0.258586  0.939756  1
  Sr  Sr22  1  0.530122  0.318830  0.060243  1
  Sr  Sr23  1  0.176319  0.006801  0.352638  1
  Sr  Sr24  1  0.646570  0.677424  0.293140  1
  Sr  Sr25  1  0.882938  0.654447  0.765875  1
  Sr  Sr26  1  0.404023  0.063321  0.808045  1
  Sr  Sr27  1  0.416897  0.550985  0.833794  1
  In  In28  1  0.090833  0.498926  0.181666  1
  In  In29  1  1.000000  0.410439  0.000000  1
  In  In30  1  0.273185  0.724389  0.546370  1
  In  In31  1  0.360896  0.796076  0.721792  1
  In  In32  1  0.639104  0.074284  0.278208  1
  In  In33  1  0.909167  0.317260  0.818334  1
  In  In34  1  0.726815  0.178019  0.453630  1
  In  In35  1  0.180108  0.603860  0.360216  1
  In  In36  1  0.543234  0.935215  0.086467  1
  In  In37  1  0.456766  0.848748  0.913533  1
  In  In38  1  0.819892  0.243644  0.639784  1
