# generated using pymatgen
data_Ag4Te(ClO3)2
_symmetry_space_group_name_H-M   'P 1'
_cell_length_a   9.73436955
_cell_length_b   9.73436538
_cell_length_c   9.73402479
_cell_angle_alpha   90.00158062
_cell_angle_beta   90.00846929
_cell_angle_gamma   90.00834948
_symmetry_Int_Tables_number   1
_chemical_formula_structural   Ag4Te(ClO3)2
_chemical_formula_sum   'Ag16 Te4 Cl8 O24'
_cell_volume   922.37582391
_cell_formula_units_Z   4
loop_
 _symmetry_equiv_pos_site_id
 _symmetry_equiv_pos_as_xyz
  1  'x, y, z'
loop_
 _atom_site_type_symbol
 _atom_site_label
 _atom_site_symmetry_multiplicity
 _atom_site_fract_x
 _atom_site_fract_y
 _atom_site_fract_z
 _atom_site_occupancy
  Ag  Ag0  1  0.500796  0.000796  0.499313  1
  Ag  Ag1  1  0.000733  0.499259  0.500810  1
  Ag  Ag2  1  0.499271  0.500782  0.000780  1
  Ag  Ag3  1  0.999230  0.999272  0.999229  1
  Ag  Ag4  1  0.249663  0.991715  0.642016  1
  Ag  Ag5  1  0.358011  0.749633  0.508343  1
  Ag  Ag6  1  0.491829  0.857975  0.750414  1
  Ag  Ag7  1  0.749589  0.508292  0.358028  1
  Ag  Ag8  1  0.858010  0.750423  0.491751  1
  Ag  Ag9  1  0.991734  0.642058  0.249699  1
  Ag  Ag10  1  0.750401  0.491749  0.857988  1
  Ag  Ag11  1  0.642045  0.249634  0.991673  1
  Ag  Ag12  1  0.508242  0.357949  0.749649  1
  Ag  Ag13  1  0.250356  0.008314  0.141984  1
  Ag  Ag14  1  0.141964  0.250431  0.008292  1
  Ag  Ag15  1  0.008193  0.142017  0.250358  1
  Te  Te16  1  0.900833  0.400856  0.099097  1
  Te  Te17  1  0.400850  0.099146  0.900904  1
  Te  Te18  1  0.099143  0.900872  0.400921  1
  Te  Te19  1  0.599165  0.599142  0.599099  1
  Cl  Cl20  1  0.668306  0.168364  0.331473  1
  Cl  Cl21  1  0.168483  0.331524  0.668302  1
  Cl  Cl22  1  0.331424  0.668427  0.168500  1
  Cl  Cl23  1  0.831747  0.831606  0.831667  1
  Cl  Cl24  1  0.185911  0.685724  0.814151  1
  Cl  Cl25  1  0.685692  0.814130  0.185781  1
  Cl  Cl26  1  0.814323  0.185695  0.685608  1
  Cl  Cl27  1  0.314083  0.314138  0.314017  1
  O  O28  1  0.678531  0.110428  0.188987  1
  O  O29  1  0.811020  0.178529  0.389524  1
  O  O30  1  0.610464  0.310997  0.321296  1
  O  O31  1  0.178634  0.389498  0.810942  1
  O  O32  1  0.311015  0.321346  0.610417  1
  O  O33  1  0.110471  0.188924  0.678540  1
  O  O34  1  0.321272  0.610484  0.310976  1
  O  O35  1  0.188936  0.678611  0.110460  1
  O  O36  1  0.389464  0.811041  0.178690  1
  O  O37  1  0.821536  0.889564  0.689039  1
  O  O38  1  0.689022  0.821453  0.889575  1
  O  O39  1  0.889582  0.688991  0.821443  1
  O  O40  1  0.337771  0.669908  0.846601  1
  O  O41  1  0.153415  0.837856  0.830130  1
  O  O42  1  0.169912  0.653394  0.662241  1
  O  O43  1  0.837873  0.830094  0.153414  1
  O  O44  1  0.653380  0.662232  0.169886  1
  O  O45  1  0.669890  0.846606  0.337822  1
  O  O46  1  0.662122  0.169909  0.653388  1
  O  O47  1  0.846638  0.337872  0.669893  1
  O  O48  1  0.830112  0.153377  0.837938  1
  O  O49  1  0.162243  0.330110  0.346547  1
  O  O50  1  0.346581  0.162257  0.330114  1
  O  O51  1  0.330092  0.346596  0.162290  1
