# generated using pymatgen
data_NaV4O10
_symmetry_space_group_name_H-M   'P 1'
_cell_length_a   10.63516188
_cell_length_b   8.35464969
_cell_length_c   14.58207830
_cell_angle_alpha   77.46200610
_cell_angle_beta   90.01315024
_cell_angle_gamma   105.82450190
_symmetry_Int_Tables_number   1
_chemical_formula_structural   NaV4O10
_chemical_formula_sum   'Na6 V24 O60'
_cell_volume   1214.42989010
_cell_formula_units_Z   6
loop_
 _symmetry_equiv_pos_site_id
 _symmetry_equiv_pos_as_xyz
  1  'x, y, z'
loop_
 _atom_site_type_symbol
 _atom_site_label
 _atom_site_symmetry_multiplicity
 _atom_site_fract_x
 _atom_site_fract_y
 _atom_site_fract_z
 _atom_site_occupancy
  Na  Na0  1  0.662398  0.899614  0.880684  1
  Na  Na1  1  0.662443  0.896933  0.398199  1
  Na  Na2  1  0.666921  0.890252  0.138726  1
  Na  Na3  1  0.337602  0.100386  0.869316  1
  Na  Na4  1  0.333079  0.109748  0.611274  1
  Na  Na5  1  0.337557  0.103067  0.351801  1
  V  V6  1  0.896010  0.350656  0.832255  1
  V  V7  1  0.891281  0.330318  0.583304  1
  V  V8  1  0.897475  0.346614  0.330342  1
  V  V9  1  0.890241  0.346325  0.081205  1
  V  V10  1  0.888940  0.754111  0.282244  1
  V  V11  1  0.896428  0.767090  0.777312  1
  V  V12  1  0.909088  0.787161  0.025790  1
  V  V13  1  0.911040  0.793089  0.526815  1
  V  V14  1  0.601410  0.440472  0.570224  1
  V  V15  1  0.595533  0.438952  0.320005  1
  V  V16  1  0.594517  0.436976  0.819920  1
  V  V17  1  0.590192  0.431583  0.072141  1
  V  V18  1  0.405483  0.563024  0.930080  1
  V  V19  1  0.409808  0.568417  0.677859  1
  V  V20  1  0.398590  0.559528  0.179776  1
  V  V21  1  0.404467  0.561048  0.429995  1
  V  V22  1  0.103572  0.232910  0.972688  1
  V  V23  1  0.090912  0.212839  0.724210  1
  V  V24  1  0.111060  0.245889  0.467756  1
  V  V25  1  0.088960  0.206911  0.223185  1
  V  V26  1  0.108719  0.669682  0.166696  1
  V  V27  1  0.102525  0.653386  0.419658  1
  V  V28  1  0.109759  0.653675  0.668795  1
  V  V29  1  0.103990  0.649344  0.917745  1
  O  O30  1  0.951266  0.366306  0.704578  1
  O  O31  1  0.952097  0.384696  0.953297  1
  O  O32  1  0.951241  0.372845  0.455073  1
  O  O33  1  0.949306  0.371709  0.199735  1
  O  O34  1  0.791524  0.162345  0.860756  1
  O  O35  1  0.789535  0.161292  0.353534  1
  O  O36  1  0.788523  0.156210  0.101322  1
  O  O37  1  0.788334  0.143500  0.604797  1
  O  O38  1  0.937422  0.730765  0.413026  1
  O  O39  1  0.934866  0.733876  0.906389  1
  O  O40  1  0.938554  0.737552  0.660163  1
  O  O41  1  0.935672  0.742093  0.152587  1
  O  O42  1  0.791588  0.490604  0.812718  1
  O  O43  1  0.779829  0.466939  0.568313  1
  O  O44  1  0.792535  0.489677  0.313227  1
  O  O45  1  0.776424  0.475528  0.065473  1
  O  O46  1  0.747607  0.787648  0.773969  1
  O  O47  1  0.755152  0.789124  0.527652  1
  O  O48  1  0.738826  0.784012  0.280313  1
  O  O49  1  0.755085  0.797939  0.021919  1
  O  O50  1  0.547453  0.232739  0.594654  1
  O  O51  1  0.551967  0.229221  0.348640  1
  O  O52  1  0.540655  0.225370  0.097456  1
  O  O53  1  0.550991  0.227503  0.845574  1
  O  O54  1  0.580165  0.508660  0.441081  1
  O  O55  1  0.582515  0.505880  0.683005  1
  O  O56  1  0.577373  0.503120  0.941368  1
  O  O57  1  0.581223  0.506029  0.182764  1
  O  O58  1  0.422627  0.496879  0.808632  1
  O  O59  1  0.418777  0.493971  0.567236  1
  O  O60  1  0.419835  0.491340  0.308919  1
  O  O61  1  0.417485  0.494120  0.066995  1
  O  O62  1  0.459345  0.774630  0.652544  1
  O  O63  1  0.449009  0.772497  0.904426  1
  O  O64  1  0.452547  0.767261  0.155346  1
  O  O65  1  0.448033  0.770779  0.401360  1
  O  O66  1  0.252393  0.212352  0.976031  1
  O  O67  1  0.244848  0.210876  0.222348  1
  O  O68  1  0.261174  0.215988  0.469687  1
  O  O69  1  0.244915  0.202061  0.728081  1
  O  O70  1  0.223576  0.524472  0.684527  1
  O  O71  1  0.207465  0.510323  0.436773  1
  O  O72  1  0.208412  0.509396  0.937282  1
  O  O73  1  0.220171  0.533061  0.181687  1
  O  O74  1  0.065134  0.266124  0.843611  1
  O  O75  1  0.064328  0.257907  0.597413  1
  O  O76  1  0.062578  0.269235  0.336974  1
  O  O77  1  0.061446  0.262448  0.089837  1
  O  O78  1  0.211477  0.843790  0.648678  1
  O  O79  1  0.210465  0.838708  0.396466  1
  O  O80  1  0.211666  0.856500  0.145203  1
  O  O81  1  0.208476  0.837655  0.889244  1
  O  O82  1  0.996001  0.995375  0.753545  1
  O  O83  1  0.000293  0.004574  0.499413  1
  O  O84  1  0.003999  0.004625  0.996455  1
  O  O85  1  0.999707  0.995426  0.250587  1
  O  O86  1  0.048759  0.627155  0.294927  1
  O  O87  1  0.047903  0.615304  0.796703  1
  O  O88  1  0.050694  0.628291  0.550265  1
  O  O89  1  0.048734  0.633694  0.045422  1
