# generated using pymatgen
data_B5H12C2NO10
_symmetry_space_group_name_H-M   'P 1'
_cell_length_a   8.93216046
_cell_length_b   8.93216046
_cell_length_c   17.36892778
_cell_angle_alpha   73.15340657
_cell_angle_beta   106.84659343
_cell_angle_gamma   98.29505854
_symmetry_Int_Tables_number   1
_chemical_formula_structural   B5H12C2NO10
_chemical_formula_sum   'B20 H48 C8 N4 O40'
_cell_volume   1266.61269070
_cell_formula_units_Z   4
loop_
 _symmetry_equiv_pos_site_id
 _symmetry_equiv_pos_as_xyz
  1  'x, y, z'
loop_
 _atom_site_type_symbol
 _atom_site_label
 _atom_site_symmetry_multiplicity
 _atom_site_fract_x
 _atom_site_fract_y
 _atom_site_fract_z
 _atom_site_occupancy
  B  B0  1  0.909963  0.273041  0.815404  1
  B  B1  1  0.273041  0.909963  0.684596  1
  B  B2  1  0.090037  0.726959  0.184596  1
  B  B3  1  0.726959  0.090037  0.315404  1
  B  B4  1  0.054721  0.199400  0.966375  1
  B  B5  1  0.199400  0.054721  0.533625  1
  B  B6  1  0.945279  0.800600  0.033626  1
  B  B7  1  0.800600  0.945279  0.466375  1
  B  B8  1  0.119394  0.082933  0.872843  1
  B  B9  1  0.082933  0.119394  0.627157  1
  B  B10  1  0.880606  0.917067  0.127157  1
  B  B11  1  0.917067  0.880606  0.372843  1
  B  B12  1  0.862730  0.525178  0.703726  1
  B  B13  1  0.525178  0.862730  0.796274  1
  B  B14  1  0.137270  0.474822  0.296274  1
  B  B15  1  0.474822  0.137270  0.203726  1
  B  B16  1  0.647642  0.331897  0.714128  1
  B  B17  1  0.331897  0.647642  0.785872  1
  B  B18  1  0.352358  0.668103  0.285872  1
  B  B19  1  0.668103  0.352358  0.214128  1
  H  H20  1  0.170135  0.173163  0.085722  1
  H  H21  1  0.173163  0.170135  0.414278  1
  H  H22  1  0.829865  0.826837  0.914278  1
  H  H23  1  0.826837  0.829865  0.585722  1
  H  H24  1  0.188106  0.980018  0.803722  1
  H  H25  1  0.980018  0.188106  0.696278  1
  H  H26  1  0.811894  0.019982  0.196278  1
  H  H27  1  0.019982  0.811894  0.303722  1
  H  H28  1  0.029012  0.695013  0.683492  1
  H  H29  1  0.695013  0.029012  0.816508  1
  H  H30  1  0.970988  0.304987  0.316508  1
  H  H31  1  0.304987  0.970988  0.183492  1
  H  H32  1  0.466480  0.177092  0.703800  1
  H  H33  1  0.177092  0.466480  0.796200  1
  H  H34  1  0.533520  0.822908  0.296200  1
  H  H35  1  0.822908  0.533520  0.203800  1
  H  H36  1  0.262974  0.781638  0.548867  1
  H  H37  1  0.781638  0.262974  0.951133  1
  H  H38  1  0.737026  0.218362  0.451133  1
  H  H39  1  0.218362  0.737026  0.048867  1
  H  H40  1  0.182324  0.739149  0.456800  1
  H  H41  1  0.739149  0.182324  0.043200  1
  H  H42  1  0.817676  0.260851  0.543200  1
  H  H43  1  0.260851  0.817676  0.956800  1
  H  H44  1  0.102311  0.543866  0.569494  1
  H  H45  1  0.543866  0.102311  0.930506  1
  H  H46  1  0.897689  0.456134  0.430506  1
  H  H47  1  0.456134  0.897689  0.069494  1
  H  H48  1  0.204256  0.462708  0.517567  1
  H  H49  1  0.462708  0.204256  0.982433  1
  H  H50  1  0.795744  0.537292  0.482433  1
  H  H51  1  0.537292  0.795744  0.017567  1
  H  H52  1  0.303692  0.500087  0.615899  1
  H  H53  1  0.500087  0.303692  0.884101  1
  H  H54  1  0.696308  0.499913  0.384101  1
  H  H55  1  0.499913  0.696308  0.115899  1
  H  H56  1  0.449816  0.841513  0.469629  1
  H  H57  1  0.841513  0.449816  0.030371  1
  H  H58  1  0.550184  0.158487  0.530371  1
  H  H59  1  0.158487  0.550184  0.969629  1
  H  H60  1  0.510319  0.684470  0.560880  1
  H  H61  1  0.684470  0.510319  0.939120  1
  H  H62  1  0.489681  0.315530  0.439120  1
  H  H63  1  0.315530  0.489681  0.060880  1
  H  H64  1  0.426903  0.643719  0.461191  1
  H  H65  1  0.643719  0.426903  0.038809  1
  H  H66  1  0.573097  0.356281  0.538809  1
  H  H67  1  0.356281  0.573097  0.961191  1
  C  C68  1  0.215256  0.541733  0.557221  1
  C  C69  1  0.541733  0.215256  0.942779  1
  C  C70  1  0.784744  0.458267  0.442779  1
  C  C71  1  0.458267  0.784744  0.057221  1
  C  C72  1  0.423981  0.719095  0.500528  1
  C  C73  1  0.719095  0.423981  0.999472  1
  C  C74  1  0.576019  0.280905  0.499472  1
  C  C75  1  0.280905  0.576019  0.000528  1
  N  N76  1  0.264650  0.703049  0.514113  1
  N  N77  1  0.703049  0.264650  0.985887  1
  N  N78  1  0.735350  0.296951  0.485887  1
  N  N79  1  0.296951  0.735350  0.014113  1
  O  O80  1  0.933002  0.270087  0.903273  1
  O  O81  1  0.270087  0.933002  0.596727  1
  O  O82  1  0.066998  0.729913  0.096727  1
  O  O83  1  0.729913  0.066998  0.403273  1
  O  O84  1  0.076700  0.221259  0.043477  1
  O  O85  1  0.221259  0.076700  0.456523  1
  O  O86  1  0.923300  0.778741  0.956523  1
  O  O87  1  0.778741  0.923300  0.543477  1
  O  O88  1  0.150833  0.105642  0.951967  1
  O  O89  1  0.105642  0.150833  0.548033  1
  O  O90  1  0.849167  0.894358  0.048033  1
  O  O91  1  0.894358  0.849167  0.451967  1
  O  O92  1  0.212289  0.982969  0.862907  1
  O  O93  1  0.982969  0.212289  0.637093  1
  O  O94  1  0.787711  0.017031  0.137093  1
  O  O95  1  0.017031  0.787711  0.362907  1
  O  O96  1  0.003811  0.157015  0.807602  1
  O  O97  1  0.157015  0.003811  0.692398  1
  O  O98  1  0.996189  0.842985  0.192398  1
  O  O99  1  0.842985  0.996189  0.307602  1
  O  O100  1  0.961554  0.429909  0.769243  1
  O  O101  1  0.429909  0.961554  0.730757  1
  O  O102  1  0.038446  0.570091  0.230757  1
  O  O103  1  0.570091  0.038446  0.269243  1
  O  O104  1  0.915693  0.668382  0.660925  1
  O  O105  1  0.668382  0.915693  0.839075  1
  O  O106  1  0.084307  0.331618  0.339075  1
  O  O107  1  0.331618  0.084307  0.160925  1
  O  O108  1  0.705015  0.480099  0.676102  1
  O  O109  1  0.480099  0.705015  0.823898  1
  O  O110  1  0.294985  0.519901  0.323898  1
  O  O111  1  0.519901  0.294985  0.176102  1
  O  O112  1  0.494393  0.289328  0.681206  1
  O  O113  1  0.289328  0.494393  0.818794  1
  O  O114  1  0.505607  0.710672  0.318794  1
  O  O115  1  0.710672  0.505607  0.181206  1
  O  O116  1  0.742520  0.232994  0.780472  1
  O  O117  1  0.232994  0.742520  0.719528  1
  O  O118  1  0.257480  0.767006  0.219528  1
  O  O119  1  0.767006  0.257480  0.280472  1
