# generated using pymatgen
data_Li3Mn4SbO8
_symmetry_space_group_name_H-M   'P 1'
_cell_length_a   10.88347225
_cell_length_b   10.88347299
_cell_length_c   15.25160369
_cell_angle_alpha   19.73213766
_cell_angle_beta   19.73213560
_cell_angle_gamma   34.17397487
_symmetry_Int_Tables_number   1
_chemical_formula_structural   Li3Mn4SbO8
_chemical_formula_sum   'Li3 Mn4 Sb1 O8'
_cell_volume   176.55177283
_cell_formula_units_Z   1
loop_
 _symmetry_equiv_pos_site_id
 _symmetry_equiv_pos_as_xyz
  1  'x, y, z'
loop_
 _atom_site_type_symbol
 _atom_site_label
 _atom_site_symmetry_multiplicity
 _atom_site_fract_x
 _atom_site_fract_y
 _atom_site_fract_z
 _atom_site_occupancy
  Li  Li0  1  0.000000  0.500000  0.500000  1
  Li  Li1  1  0.500000  0.000000  0.500000  1
  Li  Li2  1  0.500000  0.500000  0.500000  1
  Mn  Mn3  1  0.000000  0.000000  0.000000  1
  Mn  Mn4  1  0.000000  0.500000  0.000000  1
  Mn  Mn5  1  0.500000  0.000000  0.000000  1
  Mn  Mn6  1  0.000000  0.000000  0.500000  1
  Sb  Sb7  1  0.500000  0.500000  0.000000  1
  O  O8  1  0.967116  0.967116  0.299021  1
  O  O9  1  0.053986  0.509797  0.212954  1
  O  O10  1  0.509797  0.053986  0.212954  1
  O  O11  1  0.032884  0.032884  0.700979  1
  O  O12  1  0.515018  0.515018  0.235366  1
  O  O13  1  0.946014  0.490203  0.787046  1
  O  O14  1  0.490203  0.946014  0.787046  1
  O  O15  1  0.484982  0.484982  0.764634  1
