# generated using pymatgen
data_Li4Nb2V3Fe3O16
_symmetry_space_group_name_H-M   'P 1'
_cell_length_a   6.00461844
_cell_length_b   6.04090919
_cell_length_c   9.76706848
_cell_angle_alpha   89.59373996
_cell_angle_beta   89.77523908
_cell_angle_gamma   119.53593931
_symmetry_Int_Tables_number   1
_chemical_formula_structural   Li4Nb2V3Fe3O16
_chemical_formula_sum   'Li4 Nb2 V3 Fe3 O16'
_cell_volume   308.22494848
_cell_formula_units_Z   1
loop_
 _symmetry_equiv_pos_site_id
 _symmetry_equiv_pos_as_xyz
  1  'x, y, z'
loop_
 _atom_site_type_symbol
 _atom_site_label
 _atom_site_symmetry_multiplicity
 _atom_site_fract_x
 _atom_site_fract_y
 _atom_site_fract_z
 _atom_site_occupancy
  Li  Li0  1  0.344180  0.670626  0.900093  1
  Li  Li1  1  0.990131  0.995236  0.990811  1
  Li  Li2  1  0.990851  0.997462  0.491670  1
  Li  Li3  1  0.674856  0.338714  0.398934  1
  Nb  Nb4  1  0.323989  0.661712  0.497337  1
  Nb  Nb5  1  0.660205  0.330744  0.997413  1
  V  V6  1  0.651493  0.827192  0.223143  1
  V  V7  1  0.824095  0.654923  0.715004  1
  V  V8  1  0.824393  0.175358  0.722839  1
  Fe  Fe9  1  0.165314  0.820921  0.215735  1
  Fe  Fe10  1  0.167202  0.340407  0.213077  1
  Fe  Fe11  1  0.336327  0.167759  0.712376  1
  O  O12  1  0.154723  0.822995  0.589640  1
  O  O13  1  0.043481  0.535496  0.347302  1
  O  O14  1  0.369553  0.694053  0.107796  1
  O  O15  1  0.975709  0.979362  0.301222  1
  O  O16  1  0.985486  0.001704  0.800646  1
  O  O17  1  0.156838  0.335524  0.587782  1
  O  O18  1  0.487269  0.966503  0.339087  1
  O  O19  1  0.494385  0.535732  0.345623  1
  O  O20  1  0.329460  0.153716  0.086680  1
  O  O21  1  0.656456  0.835892  0.595165  1
  O  O22  1  0.539035  0.492793  0.847100  1
  O  O23  1  0.539977  0.041765  0.846006  1
  O  O24  1  0.685722  0.328170  0.608312  1
  O  O25  1  0.834545  0.660681  0.093752  1
  O  O26  1  0.967505  0.470663  0.841893  1
  O  O27  1  0.826819  0.164194  0.091400  1
