# generated using pymatgen
data_Ti3Fe2P6WO24
_symmetry_space_group_name_H-M   'P 1'
_cell_length_a   8.62736134
_cell_length_b   8.74549399
_cell_length_c   8.74549327
_cell_angle_alpha   59.99999635
_cell_angle_beta   59.54600436
_cell_angle_gamma   59.54600695
_symmetry_Int_Tables_number   1
_chemical_formula_structural   Ti3Fe2P6WO24
_chemical_formula_sum   'Ti3 Fe2 P6 W1 O24'
_cell_volume   463.35848050
_cell_formula_units_Z   1
loop_
 _symmetry_equiv_pos_site_id
 _symmetry_equiv_pos_as_xyz
  1  'x, y, z'
loop_
 _atom_site_type_symbol
 _atom_site_label
 _atom_site_symmetry_multiplicity
 _atom_site_fract_x
 _atom_site_fract_y
 _atom_site_fract_z
 _atom_site_occupancy
  Ti  Ti0  1  0.065285  0.644905  0.644905  1
  Ti  Ti1  1  0.431688  0.856104  0.856104  1
  Ti  Ti2  1  0.934431  0.355190  0.355190  1
  Fe  Fe3  1  0.006397  0.997868  0.997868  1
  Fe  Fe4  1  0.496520  0.501160  0.501160  1
  P  P5  1  0.247334  0.251207  0.547750  1
  P  P6  1  0.247334  0.953708  0.251207  1
  P  P7  1  0.247334  0.547750  0.953708  1
  P  P8  1  0.751293  0.462048  0.043714  1
  P  P9  1  0.751293  0.043714  0.742945  1
  P  P10  1  0.751293  0.742945  0.462048  1
  W  W11  1  0.580902  0.139699  0.139699  1
  O  O12  1  0.069378  0.117698  0.314039  1
  O  O13  1  0.069378  0.498886  0.117698  1
  O  O14  1  0.069378  0.314039  0.498886  1
  O  O15  1  0.225197  0.090665  0.741745  1
  O  O16  1  0.431291  0.188594  0.397335  1
  O  O17  1  0.259471  0.412740  0.568000  1
  O  O18  1  0.225197  0.942393  0.090665  1
  O  O19  1  0.259471  0.759788  0.412740  1
  O  O20  1  0.569365  0.616602  -0.000080  1
  O  O21  1  0.259471  0.568000  0.759788  1
  O  O22  1  0.786186  0.265794  0.051958  1
  O  O23  1  0.569365  -0.000080  0.814114  1
  O  O24  1  0.431291  0.982782  0.188594  1
  O  O25  1  0.225197  0.741745  0.942393  1
  O  O26  1  0.727528  0.448989  0.238599  1
  O  O27  1  0.431291  0.397335  0.982782  1
  O  O28  1  0.727528  0.238599  0.584883  1
  O  O29  1  0.786186  0.051958  0.896064  1
  O  O30  1  0.727528  0.584883  0.448989  1
  O  O31  1  0.569365  0.814114  0.616602  1
  O  O32  1  0.786186  0.896064  0.265794  1
  O  O33  1  0.927883  0.672930  0.513012  1
  O  O34  1  0.927883  0.513012  0.886176  1
  O  O35  1  0.927883  0.886176  0.672930  1
