# generated using pymatgen
data_Ga3NO3
_symmetry_space_group_name_H-M   'P 1'
_cell_length_a   8.24298765
_cell_length_b   8.24298507
_cell_length_c   6.36602915
_cell_angle_alpha   90.00000000
_cell_angle_beta   90.00000000
_cell_angle_gamma   120.00061217
_symmetry_Int_Tables_number   1
_chemical_formula_structural   Ga3NO3
_chemical_formula_sum   'Ga12 N4 O12'
_cell_volume   374.59824452
_cell_formula_units_Z   4
loop_
 _symmetry_equiv_pos_site_id
 _symmetry_equiv_pos_as_xyz
  1  'x, y, z'
loop_
 _atom_site_type_symbol
 _atom_site_label
 _atom_site_symmetry_multiplicity
 _atom_site_fract_x
 _atom_site_fract_y
 _atom_site_fract_z
 _atom_site_occupancy
  Ga  Ga0  1  0.171265  0.767375  0.625000  1
  Ga  Ga1  1  0.176991  0.764730  0.125000  1
  Ga  Ga2  1  0.232635  0.403915  0.625000  1
  Ga  Ga3  1  0.235255  0.412257  0.125000  1
  Ga  Ga4  1  0.587731  0.823001  0.125000  1
  Ga  Ga5  1  0.596078  0.828726  0.625000  1
  Ga  Ga6  1  0.403901  0.165645  0.382037  1
  Ga  Ga7  1  0.403901  0.165645  0.867963  1
  Ga  Ga8  1  0.761731  0.596103  0.382041  1
  Ga  Ga9  1  0.761731  0.596103  0.867959  1
  Ga  Ga10  1  0.834359  0.238259  0.867958  1
  Ga  Ga11  1  0.834359  0.238259  0.382042  1
  N  N12  1  0.333325  0.666662  0.125000  1
  N  N13  1  0.335548  0.025355  0.625000  1
  N  N14  1  0.689745  0.664416  0.625000  1
  N  N15  1  0.974656  0.310234  0.625000  1
  O  O16  1  0.026535  0.695551  0.371394  1
  O  O17  1  0.026535  0.695551  0.878606  1
  O  O18  1  0.333321  0.666674  0.625000  1
  O  O19  1  0.304438  0.330989  0.371393  1
  O  O20  1  0.304438  0.330989  0.878607  1
  O  O21  1  0.669004  0.973454  0.878605  1
  O  O22  1  0.669004  0.973454  0.371395  1
  O  O23  1  0.323505  0.033262  0.125000  1
  O  O24  1  0.709743  0.676489  0.125000  1
  O  O25  1  0.666670  0.333336  0.893263  1
  O  O26  1  0.666670  0.333336  0.356737  1
  O  O27  1  0.966727  0.290228  0.125000  1
