# generated using pymatgen
data_Li4Fe3Co7O20
_symmetry_space_group_name_H-M   'P 1'
_cell_length_a   20.04924634
_cell_length_b   2.98404940
_cell_length_c   6.19013337
_cell_angle_alpha   90.00000000
_cell_angle_beta   82.23061556
_cell_angle_gamma   90.00000000
_symmetry_Int_Tables_number   1
_chemical_formula_structural   Li4Fe3Co7O20
_chemical_formula_sum   'Li4 Fe3 Co7 O20'
_cell_volume   366.94326956
_cell_formula_units_Z   1
loop_
 _symmetry_equiv_pos_site_id
 _symmetry_equiv_pos_as_xyz
  1  'x, y, z'
loop_
 _atom_site_type_symbol
 _atom_site_label
 _atom_site_symmetry_multiplicity
 _atom_site_fract_x
 _atom_site_fract_y
 _atom_site_fract_z
 _atom_site_occupancy
  Li  Li0  1  0.100000  0.500000  0.200000  1
  Li  Li1  1  0.397185  0.000000  0.795704  1
  Li  Li2  1  0.600000  0.000000  0.200000  1
  Li  Li3  1  0.802815  0.000000  0.604296  1
  Fe  Fe4  1  0.397210  0.000000  0.300566  1
  Fe  Fe5  1  0.600000  0.000000  0.700000  1
  Fe  Fe6  1  0.802790  0.000000  0.099434  1
  Co  Co7  1  0.998235  0.000000  0.521541  1
  Co  Co8  1  0.100000  0.500000  0.700000  1
  Co  Co9  1  0.201765  0.000000  0.878459  1
  Co  Co10  1  0.292487  0.500000  0.116516  1
  Co  Co11  1  0.499352  0.500000  0.498425  1
  Co  Co12  1  0.700648  0.500000  0.901575  1
  Co  Co13  1  0.907513  0.500000  0.283484  1
  O  O14  1  0.007743  0.500000  0.720083  1
  O  O15  1  0.090314  0.000000  0.481403  1
  O  O16  1  0.109686  0.000000  0.918597  1
  O  O17  1  0.201171  0.500000  0.099849  1
  O  O18  1  0.192257  0.500000  0.679917  1
  O  O19  1  0.297975  0.000000  0.306188  1
  O  O20  1  0.291917  0.000000  0.882507  1
  O  O21  1  0.388918  0.500000  0.072077  1
  O  O22  1  0.405273  0.500000  0.520341  1
  O  O23  1  0.499171  0.000000  0.299441  1
  O  O24  1  0.498642  0.000000  0.697673  1
  O  O25  1  0.593314  0.500000  0.477025  1
  O  O26  1  0.606686  0.500000  0.922975  1
  O  O27  1  0.700829  0.000000  0.100559  1
  O  O28  1  0.701358  0.000000  0.702327  1
  O  O29  1  0.811082  0.500000  0.327923  1
  O  O30  1  0.794727  0.500000  0.879659  1
  O  O31  1  0.902025  0.000000  0.093812  1
  O  O32  1  0.908083  0.000000  0.517493  1
  O  O33  1  0.998829  0.500000  0.300151  1
