# generated using pymatgen
data_LiV2OF7
_symmetry_space_group_name_H-M   'P 1'
_cell_length_a   6.09014618
_cell_length_b   5.85251023
_cell_length_c   5.84941720
_cell_angle_alpha   62.50989685
_cell_angle_beta   58.78505588
_cell_angle_gamma   58.74738969
_symmetry_Int_Tables_number   1
_chemical_formula_structural   LiV2OF7
_chemical_formula_sum   'Li1 V2 O1 F7'
_cell_volume   147.04038754
_cell_formula_units_Z   1
loop_
 _symmetry_equiv_pos_site_id
 _symmetry_equiv_pos_as_xyz
  1  'x, y, z'
loop_
 _atom_site_type_symbol
 _atom_site_label
 _atom_site_symmetry_multiplicity
 _atom_site_fract_x
 _atom_site_fract_y
 _atom_site_fract_z
 _atom_site_occupancy
  Li  Li0  1  0.104192  0.134972  0.134982  1
  V  V1  1  0.516378  0.002384  0.490551  1
  V  V2  1  0.516284  0.490590  0.002381  1
  O  O3  1  0.704979  0.246456  0.246711  1
  F  F4  1  0.288589  0.247574  0.247227  1
  F  F5  1  0.268149  0.217503  0.737450  1
  F  F6  1  0.268151  0.737461  0.217530  1
  F  F7  1  0.298249  0.752725  0.752335  1
  F  F8  1  0.717405  0.283419  0.764898  1
  F  F9  1  0.717382  0.764965  0.283340  1
  F  F10  1  0.715691  0.750677  0.751044  1
