# generated using pymatgen
data_Li4Cr3FeO8
_symmetry_space_group_name_H-M   'P 1'
_cell_length_a   5.08914016
_cell_length_b   5.89912835
_cell_length_c   5.87859677
_cell_angle_alpha   60.11260316
_cell_angle_beta   90.00066328
_cell_angle_gamma   73.28439008
_symmetry_Int_Tables_number   1
_chemical_formula_structural   Li4Cr3FeO8
_chemical_formula_sum   'Li4 Cr3 Fe1 O8'
_cell_volume   144.34756324
_cell_formula_units_Z   1
loop_
 _symmetry_equiv_pos_site_id
 _symmetry_equiv_pos_as_xyz
  1  'x, y, z'
loop_
 _atom_site_type_symbol
 _atom_site_label
 _atom_site_symmetry_multiplicity
 _atom_site_fract_x
 _atom_site_fract_y
 _atom_site_fract_z
 _atom_site_occupancy
  Li  Li0  1  0.002530  0.998644  0.000676  1
  Li  Li1  1  0.997471  0.001353  0.499323  1
  Li  Li2  1  0.499997  0.000000  0.249998  1
  Li  Li3  1  0.500004  0.999999  0.750001  1
  Cr  Cr4  1  -0.000001  0.499999  0.001859  1
  Cr  Cr5  1  -0.000000  0.500002  0.498139  1
  Cr  Cr6  1  0.500000  0.500000  0.750002  1
  Fe  Fe7  1  0.500001  0.499999  0.250002  1
  O  O8  1  0.246271  0.274721  0.362651  1
  O  O9  1  0.241708  0.273489  0.863267  1
  O  O10  1  0.739575  0.275026  0.116018  1
  O  O11  1  0.260426  0.724975  0.383983  1
  O  O12  1  0.260425  0.724968  0.891030  1
  O  O13  1  0.753726  0.725280  0.137347  1
  O  O14  1  0.739576  0.275031  0.608973  1
  O  O15  1  0.758291  0.726514  0.636731  1
