# generated using pymatgen
data_Li3Mn2Fe(BO3)3
_symmetry_space_group_name_H-M   'P 1'
_cell_length_a   8.26571872
_cell_length_b   8.27554559
_cell_length_c   3.17474671
_cell_angle_alpha   90.00000000
_cell_angle_beta   90.00000000
_cell_angle_gamma   120.13455342
_symmetry_Int_Tables_number   1
_chemical_formula_structural   Li3Mn2Fe(BO3)3
_chemical_formula_sum   'Li3 Mn2 Fe1 B3 O9'
_cell_volume   187.81338292
_cell_formula_units_Z   1
loop_
 _symmetry_equiv_pos_site_id
 _symmetry_equiv_pos_as_xyz
  1  'x, y, z'
loop_
 _atom_site_type_symbol
 _atom_site_label
 _atom_site_symmetry_multiplicity
 _atom_site_fract_x
 _atom_site_fract_y
 _atom_site_fract_z
 _atom_site_occupancy
  Li  Li0  1  0.283383  0.981885  0.500000  1
  Li  Li1  1  0.017717  0.301293  0.500000  1
  Li  Li2  1  0.699264  0.714762  0.500000  1
  Mn  Mn3  1  0.372130  0.360548  0.000000  1
  Mn  Mn4  1  0.640251  0.011633  0.000000  1
  Fe  Fe5  1  0.992329  0.633584  0.000000  1
  B  B6  1  0.998466  0.997304  0.000000  1
  B  B7  1  0.331070  0.666984  0.500000  1
  B  B8  1  0.669697  0.335475  0.500000  1
  O  O9  1  0.111082  0.916580  0.000000  1
  O  O10  1  0.136544  0.580744  0.500000  1
  O  O11  1  0.079776  0.191444  0.000000  1
  O  O12  1  0.439443  0.860510  0.500000  1
  O  O13  1  0.417027  0.559194  0.500000  1
  O  O14  1  0.474949  0.252952  0.500000  1
  O  O15  1  0.804461  0.883834  0.000000  1
  O  O16  1  0.782606  0.528913  0.500000  1
  O  O17  1  0.749805  0.222364  0.500000  1
