# generated using pymatgen
data_TiH12N2(O2F3)2
_symmetry_space_group_name_H-M   'P 1'
_cell_length_a   6.27249120
_cell_length_b   10.13070231
_cell_length_c   7.49484985
_cell_angle_alpha   90.00000000
_cell_angle_beta   110.47799344
_cell_angle_gamma   90.00000000
_symmetry_Int_Tables_number   1
_chemical_formula_structural   TiH12N2(O2F3)2
_chemical_formula_sum   'Ti2 H24 N4 O8 F12'
_cell_volume   446.16192684
_cell_formula_units_Z   2
loop_
 _symmetry_equiv_pos_site_id
 _symmetry_equiv_pos_as_xyz
  1  'x, y, z'
loop_
 _atom_site_type_symbol
 _atom_site_label
 _atom_site_symmetry_multiplicity
 _atom_site_fract_x
 _atom_site_fract_y
 _atom_site_fract_z
 _atom_site_occupancy
  Ti  Ti0  1  0.000000  0.500000  0.500000  1
  Ti  Ti1  1  0.000000  0.000000  0.000000  1
  H  H2  1  0.515150  0.227033  0.320869  1
  H  H3  1  0.484850  0.727033  0.179131  1
  H  H4  1  0.484850  0.772967  0.679131  1
  H  H5  1  0.515150  0.272967  0.820869  1
  H  H6  1  0.444170  0.378718  0.380999  1
  H  H7  1  0.555830  0.878718  0.119001  1
  H  H8  1  0.555830  0.621282  0.619001  1
  H  H9  1  0.444170  0.121282  0.880999  1
  H  H10  1  0.235942  0.263487  0.279155  1
  H  H11  1  0.764058  0.763487  0.220845  1
  H  H12  1  0.764058  0.736513  0.720845  1
  H  H13  1  0.235942  0.236513  0.779155  1
  H  H14  1  0.329278  0.444542  0.098711  1
  H  H15  1  0.670722  0.944542  0.401289  1
  H  H16  1  0.670722  0.555458  0.901289  1
  H  H17  1  0.329278  0.055458  0.598711  1
  H  H18  1  0.843350  0.374455  0.833964  1
  H  H19  1  0.156650  0.874455  0.666036  1
  H  H20  1  0.156650  0.625545  0.166036  1
  H  H21  1  0.843350  0.125545  0.333964  1
  H  H22  1  0.820195  0.373365  0.039974  1
  H  H23  1  0.179805  0.873365  0.460026  1
  H  H24  1  0.179805  0.626635  0.960026  1
  H  H25  1  0.820195  0.126635  0.539974  1
  N  N26  1  0.390861  0.301973  0.282982  1
  N  N27  1  0.609139  0.801973  0.217018  1
  N  N28  1  0.609139  0.698027  0.717018  1
  N  N29  1  0.390861  0.198027  0.782982  1
  O  O30  1  0.369113  0.347775  0.098879  1
  O  O31  1  0.630887  0.847775  0.401121  1
  O  O32  1  0.630887  0.652225  0.901121  1
  O  O33  1  0.369113  0.152225  0.598879  1
  O  O34  1  0.738312  0.392773  0.903392  1
  O  O35  1  0.261688  0.892773  0.596608  1
  O  O36  1  0.261688  0.607227  0.096608  1
  O  O37  1  0.738312  0.107227  0.403392  1
  F  F38  1  0.057093  0.617858  0.706648  1
  F  F39  1  0.942907  0.117858  0.793352  1
  F  F40  1  0.942907  0.382142  0.293352  1
  F  F41  1  0.057093  0.882142  0.206648  1
  F  F42  1  0.993974  0.360495  0.668883  1
  F  F43  1  0.006026  0.860495  0.831117  1
  F  F44  1  0.006026  0.639505  0.331117  1
  F  F45  1  0.993974  0.139505  0.168883  1
  F  F46  1  0.316506  0.477673  0.559007  1
  F  F47  1  0.683494  0.977673  0.940993  1
  F  F48  1  0.683494  0.522327  0.440993  1
  F  F49  1  0.316506  0.022327  0.059007  1
