# generated using pymatgen
data_Sr3Rh2O7
_symmetry_space_group_name_H-M   'P 1'
_cell_length_a   5.54045681
_cell_length_b   5.54082142
_cell_length_c   10.98731841
_cell_angle_alpha   90.00000000
_cell_angle_beta   104.60356790
_cell_angle_gamma   90.00000000
_symmetry_Int_Tables_number   1
_chemical_formula_structural   Sr3Rh2O7
_chemical_formula_sum   'Sr6 Rh4 O14'
_cell_volume   326.39932251
_cell_formula_units_Z   2
loop_
 _symmetry_equiv_pos_site_id
 _symmetry_equiv_pos_as_xyz
  1  'x, y, z'
loop_
 _atom_site_type_symbol
 _atom_site_label
 _atom_site_symmetry_multiplicity
 _atom_site_fract_x
 _atom_site_fract_y
 _atom_site_fract_z
 _atom_site_occupancy
  Sr  Sr0  1  0.062795  0.250000  0.625591  1
  Sr  Sr1  1  0.437205  0.250000  0.374409  1
  Sr  Sr2  1  0.250000  0.250000  0.000000  1
  Sr  Sr3  1  0.562795  0.750000  0.625591  1
  Sr  Sr4  1  0.937205  0.750000  0.374409  1
  Sr  Sr5  1  0.750000  0.750000  0.000000  1
  Rh  Rh6  1  0.152543  0.750000  0.805086  1
  Rh  Rh7  1  0.652543  0.250000  0.805086  1
  Rh  Rh8  1  0.347457  0.750000  0.194914  1
  Rh  Rh9  1  0.847457  0.250000  0.194914  1
  O  O10  1  0.055512  0.750000  0.611023  1
  O  O11  1  0.037872  0.558803  0.193431  1
  O  O12  1  0.344441  0.058803  0.806569  1
  O  O13  1  0.155559  0.058803  0.193431  1
  O  O14  1  0.462128  0.558803  0.806569  1
  O  O15  1  0.250000  0.750000  0.000000  1
  O  O16  1  0.555512  0.250000  0.611023  1
  O  O17  1  0.444488  0.750000  0.388977  1
  O  O18  1  0.537872  0.441197  0.193431  1
  O  O19  1  0.844441  0.941197  0.806569  1
  O  O20  1  0.655559  0.941197  0.193431  1
  O  O21  1  0.962128  0.441197  0.806569  1
  O  O22  1  0.944488  0.250000  0.388977  1
  O  O23  1  0.750000  0.250000  0.000000  1
