# generated using pymatgen
data_Li14Cu9(P2O7)8
_symmetry_space_group_name_H-M   'P 1'
_cell_length_a   11.07044666
_cell_length_b   9.48872462
_cell_length_c   12.39608396
_cell_angle_alpha   67.91263874
_cell_angle_beta   115.88833588
_cell_angle_gamma   105.49348380
_symmetry_Int_Tables_number   1
_chemical_formula_structural   Li14Cu9(P2O7)8
_chemical_formula_sum   'Li14 Cu9 P16 O56'
_cell_volume   1077.18369653
_cell_formula_units_Z   1
loop_
 _symmetry_equiv_pos_site_id
 _symmetry_equiv_pos_as_xyz
  1  'x, y, z'
loop_
 _atom_site_type_symbol
 _atom_site_label
 _atom_site_symmetry_multiplicity
 _atom_site_fract_x
 _atom_site_fract_y
 _atom_site_fract_z
 _atom_site_occupancy
  Li  Li0  1  0.126035  0.929730  0.586261  1
  Li  Li1  1  0.028718  0.643261  0.411079  1
  Li  Li2  1  0.372799  0.039116  0.918303  1
  Li  Li3  1  0.117541  0.425496  0.079253  1
  Li  Li4  1  0.368217  0.529595  0.428966  1
  Li  Li5  1  0.514375  0.346754  0.826372  1
  Li  Li6  1  0.506785  0.851224  0.320163  1
  Li  Li7  1  0.493215  0.148776  0.679837  1
  Li  Li8  1  0.485625  0.653246  0.173628  1
  Li  Li9  1  0.631783  0.470405  0.571034  1
  Li  Li10  1  0.882459  0.574504  0.920747  1
  Li  Li11  1  0.627201  0.960884  0.081697  1
  Li  Li12  1  0.971282  0.356739  0.588921  1
  Li  Li13  1  0.873965  0.070270  0.413739  1
  Cu  Cu14  1  0.215215  0.700913  0.916641  1
  Cu  Cu15  1  0.256222  0.569164  0.701150  1
  Cu  Cu16  1  0.217801  0.198183  0.418086  1
  Cu  Cu17  1  0.000000  0.000000  0.000000  1
  Cu  Cu18  1  0.729249  0.923749  0.794237  1
  Cu  Cu19  1  0.270751  0.076251  0.205763  1
  Cu  Cu20  1  0.782199  0.801817  0.581914  1
  Cu  Cu21  1  0.743778  0.430836  0.298850  1
  Cu  Cu22  1  0.784785  0.299087  0.083359  1
  P  P23  1  0.059041  0.980426  0.775699  1
  P  P24  1  0.309759  0.372543  0.993147  1
  P  P25  1  0.057851  0.475312  0.276708  1
  P  P26  1  0.458521  0.805845  0.869320  1
  P  P27  1  0.213226  0.240447  0.657544  1
  P  P28  1  0.308092  0.870001  0.491375  1
  P  P29  1  0.201454  0.742746  0.151685  1
  P  P30  1  0.539985  0.688065  0.630051  1
  P  P31  1  0.460015  0.311935  0.369949  1
  P  P32  1  0.798546  0.257254  0.848315  1
  P  P33  1  0.691908  0.129999  0.508625  1
  P  P34  1  0.786774  0.759553  0.342456  1
  P  P35  1  0.541479  0.194155  0.130680  1
  P  P36  1  0.942149  0.524688  0.723292  1
  P  P37  1  0.690241  0.627457  0.006853  1
  P  P38  1  0.940959  0.019574  0.224301  1
  O  O39  1  0.010011  0.582355  0.837772  1
  O  O40  1  0.196464  0.919249  0.861010  1
  O  O41  1  0.028747  0.536857  0.652835  1
  O  O42  1  0.102734  0.165627  0.727599  1
  O  O43  1  0.308911  0.744990  0.793975  1
  O  O44  1  0.465033  0.840300  0.983925  1
  O  O45  1  0.210282  0.726001  0.526923  1
  O  O46  1  0.290945  0.001425  0.525395  1
  O  O47  1  0.296051  0.404788  0.858959  1
  O  O48  1  0.192706  0.409409  0.606219  1
  O  O49  1  0.104875  0.660973  0.232171  1
  O  O50  1  0.011769  0.077608  0.338586  1
  O  O51  1  0.153777  0.161880  0.553491  1
  O  O52  1  0.299673  0.906764  0.358278  1
  O  O53  1  0.196384  0.414075  0.361307  1
  O  O54  1  0.177582  0.913237  0.100544  1
  O  O55  1  0.524296  0.938855  0.790079  1
  O  O56  1  0.534216  0.657238  0.919504  1
  O  O57  1  0.354868  0.199824  0.748983  1
  O  O58  1  0.032644  0.039660  0.154857  1
  O  O59  1  0.141390  0.664798  0.046948  1
  O  O60  1  0.459699  0.832623  0.583170  1
  O  O61  1  0.479949  0.552258  0.711004  1
  O  O62  1  0.348102  0.716633  0.235201  1
  O  O63  1  0.710766  0.494791  0.976073  1
  O  O64  1  0.779365  0.773578  0.961689  1
  O  O65  1  0.311858  0.245000  0.297937  1
  O  O66  1  0.468702  0.340566  0.487969  1
  O  O67  1  0.531298  0.659434  0.512031  1
  O  O68  1  0.688142  0.755000  0.702063  1
  O  O69  1  0.220635  0.226422  0.038311  1
  O  O70  1  0.289234  0.505209  0.023927  1
  O  O71  1  0.651898  0.283367  0.764799  1
  O  O72  1  0.520051  0.447742  0.288996  1
  O  O73  1  0.540301  0.167377  0.416830  1
  O  O74  1  0.858610  0.335202  0.953052  1
  O  O75  1  0.967356  0.960340  0.845143  1
  O  O76  1  0.645132  0.800176  0.251017  1
  O  O77  1  0.465784  0.342762  0.080496  1
  O  O78  1  0.475704  0.061145  0.209921  1
  O  O79  1  0.822418  0.086763  0.899456  1
  O  O80  1  0.803616  0.585925  0.638693  1
  O  O81  1  0.700327  0.093236  0.641722  1
  O  O82  1  0.846223  0.838120  0.446509  1
  O  O83  1  0.988231  0.922392  0.661414  1
  O  O84  1  0.895125  0.339027  0.767829  1
  O  O85  1  0.807294  0.590591  0.393781  1
  O  O86  1  0.703949  0.595212  0.141041  1
  O  O87  1  0.709055  0.998575  0.474605  1
  O  O88  1  0.789718  0.273999  0.473077  1
  O  O89  1  0.534967  0.159700  0.016075  1
  O  O90  1  0.691089  0.255010  0.206025  1
  O  O91  1  0.897266  0.834373  0.272401  1
  O  O92  1  0.971253  0.463143  0.347165  1
  O  O93  1  0.803536  0.080751  0.138990  1
  O  O94  1  0.989989  0.417645  0.162228  1
