# generated using pymatgen
data_Fe3Cu2Sn(PO4)6
_symmetry_space_group_name_H-M   'P 1'
_cell_length_a   8.62515369
_cell_length_b   8.62515360
_cell_length_c   8.62515347
_cell_angle_alpha   60.24798072
_cell_angle_beta   60.24797402
_cell_angle_gamma   60.24797918
_symmetry_Int_Tables_number   1
_chemical_formula_structural   Fe3Cu2Sn(PO4)6
_chemical_formula_sum   'Fe3 Cu2 Sn1 P6 O24'
_cell_volume   456.26439184
_cell_formula_units_Z   1
loop_
 _symmetry_equiv_pos_site_id
 _symmetry_equiv_pos_as_xyz
  1  'x, y, z'
loop_
 _atom_site_type_symbol
 _atom_site_label
 _atom_site_symmetry_multiplicity
 _atom_site_fract_x
 _atom_site_fract_y
 _atom_site_fract_z
 _atom_site_occupancy
  Fe  Fe0  1  0.144935  0.144935  0.144935  1
  Fe  Fe1  1  0.355296  0.355296  0.355296  1
  Fe  Fe2  1  0.644119  0.644119  0.644119  1
  Cu  Cu3  1  0.004157  0.004157  0.004157  1
  Cu  Cu4  1  0.499711  0.499711  0.499711  1
  Sn  Sn5  1  0.856437  0.856437  0.856437  1
  P  P6  1  0.748463  0.451917  0.046121  1
  P  P7  1  0.046121  0.748463  0.451917  1
  P  P8  1  0.451917  0.046121  0.748463  1
  P  P9  1  0.253538  0.539983  0.955697  1
  P  P10  1  0.539983  0.955697  0.253538  1
  P  P11  1  0.955697  0.253538  0.539983  1
  O  O12  1  0.112336  0.313579  0.504406  1
  O  O13  1  0.313579  0.504406  0.112336  1
  O  O14  1  0.059893  0.913564  0.258519  1
  O  O15  1  0.504406  0.112336  0.313579  1
  O  O16  1  0.014565  0.809377  0.607657  1
  O  O17  1  0.240759  0.585699  0.439098  1
  O  O18  1  0.258519  0.059893  0.913564  1
  O  O19  1  0.439098  0.240759  0.585699  1
  O  O20  1  0.189315  0.386260  0.992955  1
  O  O21  1  0.585699  0.439098  0.240759  1
  O  O22  1  0.089217  0.738383  0.943162  1
  O  O23  1  0.386260  0.992955  0.189315  1
  O  O24  1  0.607657  0.014565  0.809377  1
  O  O25  1  0.913564  0.258519  0.059893  1
  O  O26  1  0.415089  0.556535  0.759544  1
  O  O27  1  0.809377  0.607657  0.014565  1
  O  O28  1  0.556535  0.759544  0.415089  1
  O  O29  1  0.738383  0.943162  0.089217  1
  O  O30  1  0.759544  0.415089  0.556535  1
  O  O31  1  0.992955  0.189315  0.386260  1
  O  O32  1  0.494001  0.885336  0.690378  1
  O  O33  1  0.943162  0.089217  0.738383  1
  O  O34  1  0.690378  0.494001  0.885336  1
  O  O35  1  0.885336  0.690378  0.494001  1
