# generated using pymatgen
data_Li5V3(FeO5)2
_symmetry_space_group_name_H-M   'P 1'
_cell_length_a   5.10557719
_cell_length_b   5.24227128
_cell_length_c   7.93920982
_cell_angle_alpha   108.13615889
_cell_angle_beta   102.28897218
_cell_angle_gamma   100.71425366
_symmetry_Int_Tables_number   1
_chemical_formula_structural   Li5V3(FeO5)2
_chemical_formula_sum   'Li5 V3 Fe2 O10'
_cell_volume   189.89278801
_cell_formula_units_Z   1
loop_
 _symmetry_equiv_pos_site_id
 _symmetry_equiv_pos_as_xyz
  1  'x, y, z'
loop_
 _atom_site_type_symbol
 _atom_site_label
 _atom_site_symmetry_multiplicity
 _atom_site_fract_x
 _atom_site_fract_y
 _atom_site_fract_z
 _atom_site_occupancy
  Li  Li0  1  0.205667  0.925731  0.414195  1
  Li  Li1  1  0.389702  0.281938  0.775590  1
  Li  Li2  1  0.500000  0.500000  0.500000  1
  Li  Li3  1  0.610298  0.718062  0.224410  1
  Li  Li4  1  0.794333  0.074269  0.585805  1
  V  V5  1  0.699934  0.897788  0.894402  1
  V  V6  1  0.300066  0.102212  0.105598  1
  V  V7  1  0.000000  0.500000  0.000000  1
  Fe  Fe8  1  0.092524  0.673204  0.672771  1
  Fe  Fe9  1  0.907476  0.326796  0.327229  1
  O  O10  1  0.056318  0.109605  0.865772  1
  O  O11  1  0.340372  0.727453  0.955483  1
  O  O12  1  0.146312  0.299810  0.549890  1
  O  O13  1  0.233094  0.472690  0.228859  1
  O  O14  1  0.468040  0.894866  0.674717  1
  O  O15  1  0.531960  0.105134  0.325283  1
  O  O16  1  0.766906  0.527310  0.771141  1
  O  O17  1  0.853688  0.700190  0.450110  1
  O  O18  1  0.659628  0.272547  0.044517  1
  O  O19  1  0.943682  0.890395  0.134228  1
