# generated using pymatgen
data_AgB11H6CBr6
_symmetry_space_group_name_H-M   'P 1'
_cell_length_a   12.04996996
_cell_length_b   11.36629550
_cell_length_c   13.16828271
_cell_angle_alpha   90.00000000
_cell_angle_beta   90.00000000
_cell_angle_gamma   90.00000000
_symmetry_Int_Tables_number   1
_chemical_formula_structural   AgB11H6CBr6
_chemical_formula_sum   'Ag4 B44 H24 C4 Br24'
_cell_volume   1803.57434351
_cell_formula_units_Z   4
loop_
 _symmetry_equiv_pos_site_id
 _symmetry_equiv_pos_as_xyz
  1  'x, y, z'
loop_
 _atom_site_type_symbol
 _atom_site_label
 _atom_site_symmetry_multiplicity
 _atom_site_fract_x
 _atom_site_fract_y
 _atom_site_fract_z
 _atom_site_occupancy
  Ag  Ag0  1  0.500000  0.000000  0.500000  1
  Ag  Ag1  1  0.000000  0.500000  0.000000  1
  Ag  Ag2  1  0.500000  0.500000  0.500000  1
  Ag  Ag3  1  0.000000  0.000000  0.000000  1
  B  B4  1  0.919256  0.171727  0.497002  1
  B  B5  1  0.419256  0.328273  0.002998  1
  B  B6  1  0.080744  0.671727  0.502998  1
  B  B7  1  0.580744  0.828273  0.997002  1
  B  B8  1  0.080744  0.828273  0.502998  1
  B  B9  1  0.580744  0.671727  0.997002  1
  B  B10  1  0.919256  0.328273  0.497002  1
  B  B11  1  0.419256  0.171727  0.002998  1
  B  B12  1  0.857726  0.123380  0.613043  1
  B  B13  1  0.357726  0.376620  0.886957  1
  B  B14  1  0.142274  0.623380  0.386957  1
  B  B15  1  0.642274  0.876620  0.113043  1
  B  B16  1  0.142274  0.876620  0.386957  1
  B  B17  1  0.642274  0.623380  0.113043  1
  B  B18  1  0.857726  0.376620  0.613043  1
  B  B19  1  0.357726  0.123380  0.886957  1
  B  B20  1  0.819625  0.250000  0.684976  1
  B  B21  1  0.319625  0.250000  0.815024  1
  B  B22  1  0.180375  0.750000  0.315024  1
  B  B23  1  0.680375  0.750000  0.184976  1
  B  B24  1  0.779609  0.122393  0.498785  1
  B  B25  1  0.279609  0.377607  0.001215  1
  B  B26  1  0.220391  0.622393  0.501215  1
  B  B27  1  0.720391  0.877607  0.998785  1
  B  B28  1  0.220391  0.877607  0.501215  1
  B  B29  1  0.720391  0.622393  0.998785  1
  B  B30  1  0.779609  0.377607  0.498785  1
  B  B31  1  0.279609  0.122393  0.001215  1
  B  B32  1  0.717661  0.171340  0.615173  1
  B  B33  1  0.217661  0.328660  0.884827  1
  B  B34  1  0.282339  0.671340  0.384827  1
  B  B35  1  0.782339  0.828660  0.115173  1
  B  B36  1  0.282339  0.828660  0.384827  1
  B  B37  1  0.782339  0.671340  0.115173  1
  B  B38  1  0.717661  0.328660  0.615173  1
  B  B39  1  0.217661  0.171340  0.884827  1
  B  B40  1  0.817764  0.250000  0.425215  1
  B  B41  1  0.317764  0.250000  0.074785  1
  B  B42  1  0.182236  0.750000  0.574785  1
  B  B43  1  0.682236  0.750000  0.925215  1
  B  B44  1  0.692907  0.250000  0.499397  1
  B  B45  1  0.192907  0.250000  0.000603  1
  B  B46  1  0.307093  0.750000  0.500603  1
  B  B47  1  0.807093  0.750000  0.999397  1
  H  H48  1  0.012627  0.250000  0.643151  1
  H  H49  1  0.512627  0.250000  0.856849  1
  H  H50  1  0.987373  0.750000  0.356849  1
  H  H51  1  0.487373  0.750000  0.143151  1
  H  H52  1  0.997092  0.120660  0.463857  1
  H  H53  1  0.497092  0.379340  0.036143  1
  H  H54  1  0.002908  0.620660  0.536143  1
  H  H55  1  0.502908  0.879340  0.963857  1
  H  H56  1  0.002908  0.879340  0.536143  1
  H  H57  1  0.502908  0.620660  0.963857  1
  H  H58  1  0.997092  0.379340  0.463857  1
  H  H59  1  0.497092  0.120660  0.036143  1
  H  H60  1  0.893804  0.039438  0.655142  1
  H  H61  1  0.393804  0.460562  0.844858  1
  H  H62  1  0.106196  0.539438  0.344858  1
  H  H63  1  0.606196  0.960562  0.155142  1
  H  H64  1  0.106196  0.960562  0.344858  1
  H  H65  1  0.606196  0.539438  0.155142  1
  H  H66  1  0.893804  0.460562  0.655142  1
  H  H67  1  0.393804  0.039438  0.844858  1
  H  H68  1  0.831773  0.250000  0.774453  1
  H  H69  1  0.331773  0.250000  0.725547  1
  H  H70  1  0.168227  0.750000  0.225547  1
  H  H71  1  0.668227  0.750000  0.274453  1
  C  C72  1  0.931976  0.250000  0.606678  1
  C  C73  1  0.431976  0.250000  0.893322  1
  C  C74  1  0.068024  0.750000  0.393322  1
  C  C75  1  0.568024  0.750000  0.106678  1
  Br  Br76  1  0.731111  0.973247  0.435870  1
  Br  Br77  1  0.231111  0.526753  0.064130  1
  Br  Br78  1  0.268889  0.473247  0.564130  1
  Br  Br79  1  0.768889  0.026753  0.935870  1
  Br  Br80  1  0.268889  0.026753  0.564130  1
  Br  Br81  1  0.768889  0.473247  0.935870  1
  Br  Br82  1  0.731111  0.526753  0.435870  1
  Br  Br83  1  0.231111  0.973247  0.064130  1
  Br  Br84  1  0.599230  0.079479  0.682184  1
  Br  Br85  1  0.099230  0.420521  0.817816  1
  Br  Br86  1  0.400770  0.579479  0.317816  1
  Br  Br87  1  0.900770  0.920521  0.182184  1
  Br  Br88  1  0.400770  0.920521  0.317816  1
  Br  Br89  1  0.900770  0.579479  0.182184  1
  Br  Br90  1  0.599230  0.420521  0.682184  1
  Br  Br91  1  0.099230  0.079479  0.817816  1
  Br  Br92  1  0.814501  0.250000  0.276634  1
  Br  Br93  1  0.314501  0.250000  0.223366  1
  Br  Br94  1  0.185499  0.750000  0.723366  1
  Br  Br95  1  0.685499  0.750000  0.776634  1
  Br  Br96  1  0.546094  0.250000  0.433498  1
  Br  Br97  1  0.046094  0.250000  0.066502  1
  Br  Br98  1  0.453906  0.750000  0.566502  1
  Br  Br99  1  0.953906  0.750000  0.933498  1
