# generated using pymatgen
data_LiFe2(BO3)2
_symmetry_space_group_name_H-M   'P 1'
_cell_length_a   5.27989035
_cell_length_b   9.07025620
_cell_length_c   11.41497696
_cell_angle_alpha   113.45007112
_cell_angle_beta   77.54628506
_cell_angle_gamma   89.81587103
_symmetry_Int_Tables_number   1
_chemical_formula_structural   LiFe2(BO3)2
_chemical_formula_sum   'Li4 Fe8 B8 O24'
_cell_volume   487.28747031
_cell_formula_units_Z   4
loop_
 _symmetry_equiv_pos_site_id
 _symmetry_equiv_pos_as_xyz
  1  'x, y, z'
loop_
 _atom_site_type_symbol
 _atom_site_label
 _atom_site_symmetry_multiplicity
 _atom_site_fract_x
 _atom_site_fract_y
 _atom_site_fract_z
 _atom_site_occupancy
  Li  Li0  1  0.353009  0.288119  0.591937  1
  Li  Li1  1  0.613954  0.042438  0.091205  1
  Li  Li2  1  0.684379  0.656388  0.334819  1
  Li  Li3  1  0.423776  0.929357  0.842233  1
  Fe  Fe4  1  0.400373  0.274575  0.868029  1
  Fe  Fe5  1  0.098498  0.235062  0.128123  1
  Fe  Fe6  1  0.850186  0.147051  0.621916  1
  Fe  Fe7  1  0.656257  0.337289  0.372004  1
  Fe  Fe8  1  0.343450  0.645074  0.620359  1
  Fe  Fe9  1  0.157691  0.858306  0.368627  1
  Fe  Fe10  1  0.908455  0.766425  0.869382  1
  Fe  Fe11  1  0.599257  0.717074  0.118192  1
  B  B12  1  0.639680  0.010297  0.376566  1
  B  B13  1  0.884973  0.105508  0.876470  1
  B  B14  1  0.154813  0.527520  0.369992  1
  B  B15  1  0.409392  0.603380  0.865170  1
  B  B16  1  0.859453  0.476776  0.618559  1
  B  B17  1  0.601627  0.382863  0.122481  1
  B  B18  1  0.343346  0.982150  0.625482  1
  B  B19  1  0.097441  0.905282  0.127021  1
  O  O20  1  0.130094  0.134397  0.910114  1
  O  O21  1  0.442055  0.134317  0.669509  1
  O  O22  1  0.235732  0.031370  0.112796  1
  O  O23  1  0.507752  0.146016  0.386842  1
  O  O24  1  0.871738  0.019998  0.415961  1
  O  O25  1  0.775861  0.206918  0.832216  1
  O  O26  1  0.299092  0.462635  0.852077  1
  O  O27  1  0.053032  0.377907  0.319923  1
  O  O28  1  0.715502  0.264651  0.153405  1
  O  O29  1  0.615087  0.469309  0.584140  1
  O  O30  1  0.987835  0.345027  0.614527  1
  O  O31  1  0.384833  0.340417  0.065870  1
  O  O32  1  0.618846  0.645137  0.920635  1
  O  O33  1  0.384097  0.539437  0.417294  1
  O  O34  1  0.307544  0.710361  0.820136  1
  O  O35  1  0.969850  0.624551  0.654585  1
  O  O36  1  0.692630  0.526878  0.149725  1
  O  O37  1  0.203917  0.807785  0.175267  1
  O  O38  1  0.144372  0.965028  0.562703  1
  O  O39  1  0.441786  0.858707  0.649501  1
  O  O40  1  0.030332  0.659875  0.369251  1
  O  O41  1  0.755181  0.981568  0.892208  1
  O  O42  1  0.540874  0.858555  0.335248  1
  O  O43  1  0.864047  0.878983  0.089013  1
