# generated using pymatgen
data_Li5Ti2V3O10
_symmetry_space_group_name_H-M   'P 1'
_cell_length_a   5.16958360
_cell_length_b   5.18358289
_cell_length_c   7.82616892
_cell_angle_alpha   71.56929879
_cell_angle_beta   108.33511612
_cell_angle_gamma   99.45908205
_symmetry_Int_Tables_number   1
_chemical_formula_structural   Li5Ti2V3O10
_chemical_formula_sum   'Li5 Ti2 V3 O10'
_cell_volume   188.36891827
_cell_formula_units_Z   1
loop_
 _symmetry_equiv_pos_site_id
 _symmetry_equiv_pos_as_xyz
  1  'x, y, z'
loop_
 _atom_site_type_symbol
 _atom_site_label
 _atom_site_symmetry_multiplicity
 _atom_site_fract_x
 _atom_site_fract_y
 _atom_site_fract_z
 _atom_site_occupancy
  Li  Li0  1  0.494194  0.216428  0.590215  1
  Li  Li1  1  0.518110  0.397946  0.218259  1
  Li  Li2  1  0.995874  0.500425  0.496499  1
  Li  Li3  1  0.496941  0.780764  0.403869  1
  Li  Li4  1  0.474591  0.600441  0.776478  1
  Ti  Ti5  1  0.014313  0.104671  0.302689  1
  Ti  Ti6  1  0.977548  0.895900  0.688197  1
  V  V7  1  0.991223  0.690816  0.095052  1
  V  V8  1  0.496591  0.996097  0.997460  1
  V  V9  1  0.999325  0.307814  0.897741  1
  O  O10  1  0.243362  0.041381  0.150755  1
  O  O11  1  0.777630  0.137192  0.455172  1
  O  O12  1  0.747063  0.325783  0.062571  1
  O  O13  1  0.242920  0.223782  0.756580  1
  O  O14  1  0.233997  0.424413  0.340855  1
  O  O15  1  0.759338  0.574052  0.653861  1
  O  O16  1  0.749442  0.772657  0.240899  1
  O  O17  1  0.243682  0.670340  0.930112  1
  O  O18  1  0.214729  0.863173  0.538519  1
  O  O19  1  0.748397  0.956630  0.843256  1
