# generated using pymatgen
data_BaNa4O3
_symmetry_space_group_name_H-M   'P 1'
_cell_length_a   5.79351130
_cell_length_b   7.18883887
_cell_length_c   8.23526528
_cell_angle_alpha   72.50386950
_cell_angle_beta   90.03131571
_cell_angle_gamma   66.25121453
_symmetry_Int_Tables_number   1
_chemical_formula_structural   BaNa4O3
_chemical_formula_sum   'Ba2 Na8 O6'
_cell_volume   296.49925817
_cell_formula_units_Z   2
loop_
 _symmetry_equiv_pos_site_id
 _symmetry_equiv_pos_as_xyz
  1  'x, y, z'
loop_
 _atom_site_type_symbol
 _atom_site_label
 _atom_site_symmetry_multiplicity
 _atom_site_fract_x
 _atom_site_fract_y
 _atom_site_fract_z
 _atom_site_occupancy
  Ba  Ba0  1  0.268705  0.027662  0.716994  1
  Ba  Ba1  1  0.707081  0.028133  0.216947  1
  Na  Na2  1  0.958815  0.732472  0.946333  1
  Na  Na3  1  0.307555  0.734222  0.446164  1
  Na  Na4  1  0.878096  0.616688  0.606830  1
  Na  Na5  1  0.504246  0.402938  0.833324  1
  Na  Na6  1  0.502879  0.620113  0.107215  1
  Na  Na7  1  0.095713  0.398738  0.334345  1
  Na  Na8  1  0.671417  0.313732  0.496590  1
  Na  Na9  1  0.017601  0.312346  0.995395  1
  O  O10  1  0.661272  0.655478  0.839097  1
  O  O11  1  0.684231  0.656840  0.339177  1
  O  O12  1  0.290902  0.397283  0.594572  1
  O  O13  1  0.937624  0.054942  0.940027  1
  O  O14  1  0.314257  0.396904  0.094465  1
  O  O15  1  0.010087  0.057114  0.439672  1
