# generated using pymatgen
data_Li5Ti6FeO16
_symmetry_space_group_name_H-M   'P 1'
_cell_length_a   8.43845065
_cell_length_b   8.43873180
_cell_length_c   8.43666944
_cell_angle_alpha   90.00027458
_cell_angle_beta   90.00013020
_cell_angle_gamma   90.03571366
_symmetry_Int_Tables_number   1
_chemical_formula_structural   Li5Ti6FeO16
_chemical_formula_sum   'Li10 Ti12 Fe2 O32'
_cell_volume   600.77361103
_cell_formula_units_Z   2
loop_
 _symmetry_equiv_pos_site_id
 _symmetry_equiv_pos_as_xyz
  1  'x, y, z'
loop_
 _atom_site_type_symbol
 _atom_site_label
 _atom_site_symmetry_multiplicity
 _atom_site_fract_x
 _atom_site_fract_y
 _atom_site_fract_z
 _atom_site_occupancy
  Li  Li0  1  0.001885  0.496932  0.503632  1
  Li  Li1  1  0.125386  0.874388  0.375067  1
  Li  Li2  1  0.246737  0.745784  0.751365  1
  Li  Li3  1  0.253263  0.254217  0.251367  1
  Li  Li4  1  0.374616  0.125615  0.875063  1
  Li  Li5  1  0.498117  0.503068  0.003632  1
  Li  Li6  1  0.625877  0.625106  0.625043  1
  Li  Li7  1  0.748403  0.750265  0.247028  1
  Li  Li8  1  0.751595  0.249738  0.747030  1
  Li  Li9  1  0.874121  0.374895  0.125044  1
  Ti  Ti10  1  0.113811  0.616376  0.136198  1
  Ti  Ti11  1  0.129300  0.377995  0.880905  1
  Ti  Ti12  1  0.127171  0.120160  0.620771  1
  Ti  Ti13  1  0.372829  0.879848  0.120768  1
  Ti  Ti14  1  0.370709  0.622009  0.380892  1
  Ti  Ti15  1  0.386179  0.383637  0.636194  1
  Ti  Ti16  1  0.613519  0.871870  0.873170  1
  Ti  Ti17  1  0.615735  0.137458  0.110276  1
  Ti  Ti18  1  0.634276  0.390866  0.375644  1
  Ti  Ti19  1  0.865725  0.609133  0.875639  1
  Ti  Ti20  1  0.884264  0.862544  0.610278  1
  Ti  Ti21  1  0.886481  0.128131  0.373170  1
  Fe  Fe22  1  0.503533  0.001862  0.497714  1
  Fe  Fe23  1  0.996483  0.998153  0.997719  1
  O  O24  1  0.107873  0.125532  0.390722  1
  O  O25  1  0.109322  0.893346  0.626594  1
  O  O26  1  0.112271  0.607531  0.887788  1
  O  O27  1  0.125994  0.391584  0.108028  1
  O  O28  1  0.118756  0.136922  0.865528  1
  O  O29  1  0.141553  0.354690  0.641632  1
  O  O30  1  0.140365  0.626440  0.357876  1
  O  O31  1  0.137934  0.867540  0.118782  1
  O  O32  1  0.362061  0.132459  0.618787  1
  O  O33  1  0.359636  0.373560  0.857878  1
  O  O34  1  0.358447  0.645312  0.141634  1
  O  O35  1  0.381246  0.863087  0.365527  1
  O  O36  1  0.374000  0.608420  0.608025  1
  O  O37  1  0.387728  0.392471  0.387786  1
  O  O38  1  0.390675  0.106658  0.126594  1
  O  O39  1  0.392127  0.874469  0.890721  1
  O  O40  1  0.606242  0.372563  0.607806  1
  O  O41  1  0.608989  0.607785  0.373889  1
  O  O42  1  0.608361  0.887223  0.108720  1
  O  O43  1  0.626195  0.109471  0.893087  1
  O  O44  1  0.625140  0.355205  0.143403  1
  O  O45  1  0.634694  0.131047  0.365464  1
  O  O46  1  0.636385  0.882266  0.639185  1
  O  O47  1  0.643803  0.645087  0.874728  1
  O  O48  1  0.856198  0.354914  0.374733  1
  O  O49  1  0.863612  0.117733  0.139188  1
  O  O50  1  0.865309  0.868957  0.865465  1
  O  O51  1  0.874863  0.644796  0.643401  1
  O  O52  1  0.873808  0.890531  0.393084  1
  O  O53  1  0.891636  0.112778  0.608720  1
  O  O54  1  0.891014  0.392215  0.873889  1
  O  O55  1  0.893751  0.627437  0.107807  1
