# generated using pymatgen
data_Li6Mn5Fe(BO3)6
_symmetry_space_group_name_H-M   'P 1'
_cell_length_a   8.27335513
_cell_length_b   8.86718010
_cell_length_c   6.37216084
_cell_angle_alpha   68.94207668
_cell_angle_beta   90.00000000
_cell_angle_gamma   62.07828679
_symmetry_Int_Tables_number   1
_chemical_formula_structural   Li6Mn5Fe(BO3)6
_chemical_formula_sum   'Li6 Mn5 Fe1 B6 O18'
_cell_volume   377.35686039
_cell_formula_units_Z   1
loop_
 _symmetry_equiv_pos_site_id
 _symmetry_equiv_pos_as_xyz
  1  'x, y, z'
loop_
 _atom_site_type_symbol
 _atom_site_label
 _atom_site_symmetry_multiplicity
 _atom_site_fract_x
 _atom_site_fract_y
 _atom_site_fract_z
 _atom_site_occupancy
  Li  Li0  1  0.716614  0.981787  0.759585  1
  Li  Li1  1  0.716614  0.981787  0.258627  1
  Li  Li2  1  0.982436  0.301146  0.599149  1
  Li  Li3  1  0.982436  0.301146  0.099704  1
  Li  Li4  1  0.301030  0.715856  0.892547  1
  Li  Li5  1  0.301030  0.715856  0.391597  1
  Mn  Mn6  1  0.628012  0.359994  0.820003  1
  Mn  Mn7  1  0.628503  0.359287  0.320356  1
  Mn  Mn8  1  0.359183  0.011791  0.494104  1
  Mn  Mn9  1  0.359696  0.012521  0.993740  1
  Mn  Mn10  1  0.012302  0.628927  0.685536  1
  Fe  Fe11  1  0.008117  0.631608  0.184196  1
  B  B12  1  0.667469  0.666759  0.414774  1
  B  B13  1  0.667469  0.666759  0.918466  1
  B  B14  1  0.331904  0.334601  0.581611  1
  B  B15  1  0.331904  0.334601  0.083788  1
  B  B16  1  0.001959  0.997833  0.001083  1
  B  B17  1  -0.000006  -0.000024  0.500013  1
  O  O18  1  0.884008  0.922611  0.538695  1
  O  O19  1  0.889173  0.916256  0.041872  1
  O  O20  1  0.861375  0.580747  0.963655  1
  O  O21  1  0.861375  0.580747  0.455599  1
  O  O22  1  0.921248  0.191651  0.904174  1
  O  O23  1  0.922149  0.193590  0.403205  1
  O  O24  1  0.559548  0.860332  0.319960  1
  O  O25  1  0.559548  0.860332  0.819708  1
  O  O26  1  0.581608  0.559203  0.970407  1
  O  O27  1  0.581608  0.559203  0.470390  1
  O  O28  1  0.526154  0.251488  0.624750  1
  O  O29  1  0.526154  0.251488  0.123762  1
  O  O30  1  0.193714  0.883909  0.558046  1
  O  O31  1  0.195411  0.884044  0.057978  1
  O  O32  1  0.220041  0.528272  0.483478  1
  O  O33  1  0.220041  0.528272  0.988249  1
  O  O34  1  0.250088  0.222809  0.638352  1
  O  O35  1  0.250088  0.222809  0.138838  1
