# generated using pymatgen
data_Y4H9NO13
_symmetry_space_group_name_H-M   'P 1'
_cell_length_a   9.47365204
_cell_length_b   16.66607822
_cell_length_c   3.66030241
_cell_angle_alpha   90.00000000
_cell_angle_beta   99.94350232
_cell_angle_gamma   90.00000000
_symmetry_Int_Tables_number   1
_chemical_formula_structural   Y4H9NO13
_chemical_formula_sum   'Y8 H18 N2 O26'
_cell_volume   569.23889346
_cell_formula_units_Z   2
loop_
 _symmetry_equiv_pos_site_id
 _symmetry_equiv_pos_as_xyz
  1  'x, y, z'
loop_
 _atom_site_type_symbol
 _atom_site_label
 _atom_site_symmetry_multiplicity
 _atom_site_fract_x
 _atom_site_fract_y
 _atom_site_fract_z
 _atom_site_occupancy
  Y  Y0  1  0.731013  0.500572  0.368861  1
  Y  Y1  1  0.268987  0.000572  0.631139  1
  Y  Y2  1  0.268164  0.790274  0.118026  1
  Y  Y3  1  0.731836  0.290274  0.881974  1
  Y  Y4  1  0.939342  0.689637  0.453324  1
  Y  Y5  1  0.060658  0.189637  0.546676  1
  Y  Y6  1  0.596533  0.682172  0.800541  1
  Y  Y7  1  0.403467  0.182172  0.199459  1
  H  H8  1  0.042326  0.523954  0.479174  1
  H  H9  1  0.957674  0.023954  0.520826  1
  H  H10  1  0.825195  0.810845  0.910095  1
  H  H11  1  0.174805  0.310845  0.089905  1
  H  H12  1  0.485792  0.511478  0.734611  1
  H  H13  1  0.514208  0.011478  0.265389  1
  H  H14  1  0.293361  0.649322  0.665269  1
  H  H15  1  0.706639  0.149322  0.334731  1
  H  H16  1  0.049744  0.853348  0.531995  1
  H  H17  1  0.950256  0.353348  0.468005  1
  H  H18  1  0.138675  0.620182  0.042609  1
  H  H19  1  0.861325  0.120182  0.957391  1
  H  H20  1  0.593723  0.819110  0.290536  1
  H  H21  1  0.406277  0.319110  0.709464  1
  H  H22  1  0.065186  0.940159  0.041997  1
  H  H23  1  0.934814  0.440159  0.958003  1
  H  H24  1  0.466811  0.863857  0.679282  1
  H  H25  1  0.533189  0.363857  0.320718  1
  N  N26  1  0.746817  0.960842  0.825278  1
  N  N27  1  0.253183  0.460842  0.174722  1
  O  O28  1  0.954198  0.554382  0.447933  1
  O  O29  1  0.045802  0.054382  0.552067  1
  O  O30  1  0.713634  0.636329  0.355260  1
  O  O31  1  0.286366  0.136329  0.644740  1
  O  O32  1  0.817664  0.751647  0.899478  1
  O  O33  1  0.182336  0.251647  0.100522  1
  O  O34  1  0.579627  0.536689  0.809499  1
  O  O35  1  0.420373  0.036689  0.190501  1
  O  O36  1  0.349066  0.698070  0.664464  1
  O  O37  1  0.650934  0.198070  0.335536  1
  O  O38  1  0.092426  0.800220  0.535959  1
  O  O39  1  0.907574  0.300220  0.464041  1
  O  O40  1  0.097711  0.674153  0.027410  1
  O  O41  1  0.902289  0.174153  0.972590  1
  O  O42  1  0.532454  0.771708  0.255361  1
  O  O43  1  0.467546  0.271708  0.744639  1
  O  O44  1  0.168563  0.931921  0.084050  1
  O  O45  1  0.831437  0.431921  0.915950  1
  O  O46  1  0.363526  0.868412  0.657947  1
  O  O47  1  0.636474  0.368412  0.342053  1
  O  O48  1  0.856319  0.918948  0.957035  1
  O  O49  1  0.143681  0.418948  0.042965  1
  O  O50  1  0.734668  0.032083  0.934765  1
  O  O51  1  0.265332  0.532083  0.065235  1
  O  O52  1  0.649294  0.930686  0.583544  1
  O  O53  1  0.350706  0.430686  0.416456  1
