# generated using pymatgen
data_Co2O3F
_symmetry_space_group_name_H-M   'P 1'
_cell_length_a   4.38752127
_cell_length_b   9.25208997
_cell_length_c   5.87127060
_cell_angle_alpha   71.50062643
_cell_angle_beta   90.00000000
_cell_angle_gamma   87.46388733
_symmetry_Int_Tables_number   1
_chemical_formula_structural   Co2O3F
_chemical_formula_sum   'Co8 O12 F4'
_cell_volume   225.77511415
_cell_formula_units_Z   4
loop_
 _symmetry_equiv_pos_site_id
 _symmetry_equiv_pos_as_xyz
  1  'x, y, z'
loop_
 _atom_site_type_symbol
 _atom_site_label
 _atom_site_symmetry_multiplicity
 _atom_site_fract_x
 _atom_site_fract_y
 _atom_site_fract_z
 _atom_site_occupancy
  Co  Co0  1  0.474070  0.236366  0.631817  1
  Co  Co1  1  0.525930  0.263634  0.118183  1
  Co  Co2  1  0.500000  0.750000  0.375000  1
  Co  Co3  1  0.500000  0.750000  0.875000  1
  Co  Co4  1  0.000873  0.999573  0.496116  1
  Co  Co5  1  0.999127  0.500427  0.745690  1
  Co  Co6  1  0.000873  0.999573  0.004310  1
  Co  Co7  1  0.999127  0.500427  0.253884  1
  O  O8  1  0.811794  0.903857  0.298071  1
  O  O9  1  0.809005  0.406583  0.046709  1
  O  O10  1  0.695037  0.153860  0.924191  1
  O  O11  1  0.693073  0.652008  0.175163  1
  O  O12  1  0.695037  0.153860  0.421949  1
  O  O13  1  0.693073  0.652008  0.672829  1
  O  O14  1  0.306927  0.847992  0.077171  1
  O  O15  1  0.304963  0.346140  0.825809  1
  O  O16  1  0.304963  0.346140  0.328051  1
  O  O17  1  0.306927  0.847992  0.574837  1
  O  O18  1  0.188206  0.596143  0.451929  1
  O  O19  1  0.190995  0.093417  0.703291  1
  F  F20  1  0.779468  0.388005  0.555997  1
  F  F21  1  0.786593  0.894665  0.802667  1
  F  F22  1  0.213407  0.605335  0.947333  1
  F  F23  1  0.220532  0.111995  0.194003  1
