# generated using pymatgen
data_BaTi10O20
_symmetry_space_group_name_H-M   'P 1'
_cell_length_a   10.38782421
_cell_length_b   8.50810964
_cell_length_c   10.38284461
_cell_angle_alpha   112.09169677
_cell_angle_beta   88.43037954
_cell_angle_gamma   112.05202797
_symmetry_Int_Tables_number   1
_chemical_formula_structural   BaTi10O20
_chemical_formula_sum   'Ba2 Ti20 O40'
_cell_volume   781.11901968
_cell_formula_units_Z   2
loop_
 _symmetry_equiv_pos_site_id
 _symmetry_equiv_pos_as_xyz
  1  'x, y, z'
loop_
 _atom_site_type_symbol
 _atom_site_label
 _atom_site_symmetry_multiplicity
 _atom_site_fract_x
 _atom_site_fract_y
 _atom_site_fract_z
 _atom_site_occupancy
  Ba  Ba0  1  0.703314  0.000627  0.703385  1
  Ba  Ba1  1  0.296686  0.999373  0.296615  1
  Ti  Ti2  1  0.865280  0.518708  0.045428  1
  Ti  Ti3  1  0.686839  0.822585  0.206500  1
  Ti  Ti4  1  0.891826  0.815058  0.397909  1
  Ti  Ti5  1  0.913348  0.181358  0.396324  1
  Ti  Ti6  1  0.510567  0.186682  0.001286  1
  Ti  Ti7  1  0.711988  0.179381  0.193648  1
  Ti  Ti8  1  0.939844  0.496277  0.756961  1
  Ti  Ti9  1  0.540791  0.494662  0.356626  1
  Ti  Ti10  1  0.334903  0.481843  0.154576  1
  Ti  Ti11  1  0.732977  0.475925  0.552246  1
  Ti  Ti12  1  0.459209  0.505338  0.643374  1
  Ti  Ti13  1  0.665097  0.518157  0.845424  1
  Ti  Ti14  1  0.267023  0.524075  0.447754  1
  Ti  Ti15  1  0.060156  0.503723  0.243039  1
  Ti  Ti16  1  0.489433  0.813318  0.998714  1
  Ti  Ti17  1  0.288012  0.820619  0.806352  1
  Ti  Ti18  1  0.086652  0.818642  0.603676  1
  Ti  Ti19  1  0.108174  0.184942  0.602091  1
  Ti  Ti20  1  0.313161  0.177415  0.793500  1
  Ti  Ti21  1  0.134720  0.481292  0.954573  1
  O  O22  1  0.625346  0.704239  0.000092  1
  O  O23  1  0.821390  0.703600  0.196662  1
  O  O24  1  0.962948  0.953739  0.606820  1
  O  O25  1  0.561061  0.952491  0.205062  1
  O  O26  1  0.365851  0.953980  0.009740  1
  O  O27  1  0.766708  0.952432  0.409572  1
  O  O28  1  0.862852  0.373987  0.158992  1
  O  O29  1  0.933600  0.624722  0.636819  1
  O  O30  1  0.736715  0.630777  0.444973  1
  O  O31  1  0.334121  0.629766  0.042697  1
  O  O32  1  0.534326  0.627408  0.240303  1
  O  O33  1  0.830959  0.047845  0.197549  1
  O  O34  1  0.666920  0.639423  0.713813  1
  O  O35  1  0.472938  0.646052  0.518782  1
  O  O36  1  0.867742  0.638577  0.914471  1
  O  O37  1  0.268686  0.643711  0.315813  1
  O  O38  1  0.069442  0.641673  0.117518  1
  O  O39  1  0.968585  0.289347  0.603400  1
  O  O40  1  0.571889  0.291549  0.204707  1
  O  O41  1  0.776028  0.295964  0.399638  1
  O  O42  1  0.031415  0.710653  0.396600  1
  O  O43  1  0.428111  0.708451  0.795293  1
  O  O44  1  0.223972  0.704036  0.600362  1
  O  O45  1  0.527062  0.353948  0.481218  1
  O  O46  1  0.132258  0.361423  0.085529  1
  O  O47  1  0.930558  0.358327  0.882482  1
  O  O48  1  0.333080  0.360577  0.286187  1
  O  O49  1  0.731314  0.356289  0.684187  1
  O  O50  1  0.169041  0.952155  0.802451  1
  O  O51  1  0.665879  0.370234  0.957303  1
  O  O52  1  0.465674  0.372592  0.759697  1
  O  O53  1  0.263285  0.369223  0.555027  1
  O  O54  1  0.066400  0.375278  0.363181  1
  O  O55  1  0.137148  0.626013  0.841008  1
  O  O56  1  0.634149  0.046020  0.990260  1
  O  O57  1  0.438939  0.047509  0.794938  1
  O  O58  1  0.233292  0.047568  0.590428  1
  O  O59  1  0.037052  0.046261  0.393180  1
  O  O60  1  0.374654  0.295761  0.999908  1
  O  O61  1  0.178610  0.296400  0.803338  1
