# generated using pymatgen
data_Li2MnFe(BO3)2
_symmetry_space_group_name_H-M   'P 1'
_cell_length_a   8.26232603
_cell_length_b   14.29922662
_cell_length_c   3.16248497
_cell_angle_alpha   90.00000000
_cell_angle_beta   90.00000000
_cell_angle_gamma   90.17938776
_symmetry_Int_Tables_number   1
_chemical_formula_structural   Li2MnFe(BO3)2
_chemical_formula_sum   'Li6 Mn3 Fe3 B6 O18'
_cell_volume   373.62955177
_cell_formula_units_Z   3
loop_
 _symmetry_equiv_pos_site_id
 _symmetry_equiv_pos_as_xyz
  1  'x, y, z'
loop_
 _atom_site_type_symbol
 _atom_site_label
 _atom_site_symmetry_multiplicity
 _atom_site_fract_x
 _atom_site_fract_y
 _atom_site_fract_z
 _atom_site_occupancy
  Li  Li0  1  0.292551  0.990891  0.500000  1
  Li  Li1  1  0.340315  0.358226  0.500000  1
  Li  Li2  1  0.365542  0.649914  0.500000  1
  Li  Li3  1  0.792404  0.490909  0.500000  1
  Li  Li4  1  0.842529  0.856721  0.500000  1
  Li  Li5  1  0.867180  0.151135  0.500000  1
  Mn  Mn6  1  0.191862  0.180144  0.000000  1
  Mn  Mn7  1  0.634494  0.005853  0.000000  1
  Mn  Mn8  1  0.692618  0.680316  0.000000  1
  Fe  Fe9  1  0.135884  0.504242  0.000000  1
  Fe  Fe10  1  0.175785  0.816288  0.000000  1
  Fe  Fe11  1  0.675893  0.317037  0.000000  1
  B  B12  1  0.002674  0.665972  0.500000  1
  B  B13  1  0.999348  0.998676  0.000000  1
  B  B14  1  0.998990  0.334485  0.500000  1
  B  B15  1  0.502096  0.168033  0.500000  1
  B  B16  1  0.497758  0.499845  0.000000  1
  B  B17  1  0.497805  0.833309  0.500000  1
  O  O18  1  0.011009  0.431420  0.500000  1
  O  O19  1  0.019350  0.762917  0.500000  1
  O  O20  1  0.138200  0.608599  0.500000  1
  O  O21  1  0.138007  0.280265  0.500000  1
  O  O22  1  0.153135  0.958162  0.000000  1
  O  O23  1  0.349010  0.126430  0.500000  1
  O  O24  1  0.346898  0.789845  0.500000  1
  O  O25  1  0.359115  0.444133  0.000000  1
  O  O26  1  0.483422  0.596538  0.000000  1
  O  O27  1  0.508557  0.930104  0.500000  1
  O  O28  1  0.517900  0.264931  0.500000  1
  O  O29  1  0.639350  0.111805  0.500000  1
  O  O30  1  0.638062  0.779990  0.500000  1
  O  O31  1  0.650552  0.458228  0.000000  1
  O  O32  1  0.848286  0.625701  0.500000  1
  O  O33  1  0.847362  0.291684  0.500000  1
  O  O34  1  0.862855  0.941620  0.000000  1
  O  O35  1  0.983203  0.095629  0.000000  1
