# generated using pymatgen
data_Li6V3P8O29
_symmetry_space_group_name_H-M   'P 1'
_cell_length_a   9.80322003
_cell_length_b   9.79955593
_cell_length_c   13.95757527
_cell_angle_alpha   89.89330536
_cell_angle_beta   89.77697917
_cell_angle_gamma   59.92168165
_symmetry_Int_Tables_number   1
_chemical_formula_structural   Li6V3P8O29
_chemical_formula_sum   'Li12 V6 P16 O58'
_cell_volume   1160.29703612
_cell_formula_units_Z   2
loop_
 _symmetry_equiv_pos_site_id
 _symmetry_equiv_pos_as_xyz
  1  'x, y, z'
loop_
 _atom_site_type_symbol
 _atom_site_label
 _atom_site_symmetry_multiplicity
 _atom_site_fract_x
 _atom_site_fract_y
 _atom_site_fract_z
 _atom_site_occupancy
  Li  Li0  1  0.908168  0.764039  0.059038  1
  Li  Li1  1  0.899565  0.335591  0.562222  1
  Li  Li2  1  0.660493  0.678866  0.883619  1
  Li  Li3  1  0.767674  0.322237  0.060199  1
  Li  Li4  1  0.324257  0.907135  0.058427  1
  Li  Li5  1  0.662142  0.235554  0.443901  1
  Li  Li6  1  0.336630  0.760951  0.564022  1
  Li  Li7  1  0.096521  0.665919  0.441284  1
  Li  Li8  1  0.234143  0.097519  0.442134  1
  Li  Li9  1  0.101502  0.234526  0.938787  1
  Li  Li10  1  0.986471  0.970929  0.986844  1
  Li  Li11  1  0.957203  0.989366  0.515053  1
  V  V12  1  0.565098  0.434053  0.248222  1
  V  V13  1  0.435127  0.560509  0.755962  1
  V  V14  1  0.566240  0.000088  0.747263  1
  V  V15  1  0.438520  0.998836  0.249934  1
  V  V16  1  0.999435  0.568715  0.249777  1
  V  V17  1  0.001606  0.437851  0.746503  1
  P  P18  1  0.907781  0.779516  0.841787  1
  P  P19  1  0.775717  0.918175  0.343974  1
  P  P20  1  0.911955  0.315799  0.341850  1
  P  P21  1  0.668698  0.665267  0.126769  1
  P  P22  1  0.660804  0.666946  0.630838  1
  P  P23  1  0.780455  0.314893  0.843758  1
  P  P24  1  0.691215  0.224584  0.659764  1
  P  P25  1  0.313544  0.909903  0.842552  1
  P  P26  1  0.694208  0.082033  0.155290  1
  P  P27  1  0.315298  0.770994  0.344025  1
  P  P28  1  0.223411  0.693345  0.157985  1
  P  P29  1  0.331055  0.334966  0.369007  1
  P  P30  1  0.334014  0.326599  0.870270  1
  P  P31  1  0.087867  0.691631  0.657566  1
  P  P32  1  0.227512  0.085897  0.656389  1
  P  P33  1  0.089100  0.228166  0.158174  1
  O  O34  1  0.009203  0.779606  0.567283  1
  O  O35  1  0.915550  0.746336  0.342459  1
  O  O36  1  0.796817  0.995165  0.071494  1
  O  O37  1  0.741318  0.919458  0.837659  1
  O  O38  1  0.897478  0.626885  0.828521  1
  O  O39  1  0.811788  0.677992  0.165759  1
  O  O40  1  0.908624  0.473398  0.326719  1
  O  O41  1  0.003814  0.227637  0.068439  1
  O  O42  1  0.924616  0.340178  0.839178  1
  O  O43  1  0.665753  0.809285  0.677309  1
  O  O44  1  0.617085  0.921060  0.332175  1
  O  O45  1  0.810937  0.511900  0.668181  1
  O  O46  1  0.670043  0.664787  0.018665  1
  O  O47  1  0.652322  0.667820  0.524058  1
  O  O48  1  0.680497  0.509791  0.166046  1
  O  O49  1  0.476395  0.897727  0.833181  1
  O  O50  1  0.513600  0.809221  0.167007  1
  O  O51  1  0.744359  0.338091  0.341404  1
  O  O52  1  0.798974  0.208820  0.751888  1
  O  O53  1  0.785500  0.216611  0.570181  1
  O  O54  1  0.788162  0.227490  0.933598  1
  O  O55  1  0.630059  0.479644  0.833137  1
  O  O56  1  0.510446  0.671581  0.675695  1
  O  O57  1  0.661681  0.255181  0.159554  1
  O  O58  1  0.473213  0.616821  0.326486  1
  O  O59  1  0.338800  0.915923  0.341114  1
  O  O60  1  0.797933  0.999875  0.249965  1
  O  O61  1  0.786560  0.007105  0.428193  1
  O  O62  1  0.221703  0.996946  0.568738  1
  O  O63  1  0.665979  0.084281  0.662053  1
  O  O64  1  0.538069  0.382866  0.668411  1
  O  O65  1  0.335864  0.744357  0.842170  1
  O  O66  1  0.487358  0.323737  0.329331  1
  O  O67  1  0.379877  0.538236  0.167313  1
  O  O68  1  0.207312  0.799108  0.075988  1
  O  O69  1  0.234048  0.767862  0.435443  1
  O  O70  1  0.200524  0.791495  0.256908  1
  O  O71  1  0.258033  0.658861  0.661068  1
  O  O72  1  0.475706  0.181239  0.821541  1
  O  O73  1  0.539419  0.080719  0.166945  1
  O  O74  1  0.339923  0.472066  0.825969  1
  O  O75  1  0.333086  0.322021  0.976612  1
  O  O76  1  0.327826  0.336876  0.476194  1
  O  O77  1  0.187381  0.491665  0.328858  1
  O  O78  1  0.380852  0.088275  0.664465  1
  O  O79  1  0.321173  0.190144  0.328217  1
  O  O80  1  0.082055  0.662526  0.159769  1
  O  O81  1  0.001331  0.795593  0.750572  1
  O  O82  1  0.991395  0.780398  0.931737  1
  O  O83  1  0.082749  0.536669  0.667955  1
  O  O84  1  0.182700  0.331058  0.828396  1
  O  O85  1  0.093326  0.380321  0.172569  1
  O  O86  1  0.257941  0.081909  0.160340  1
  O  O87  1  0.222551  0.002404  0.930563  1
  O  O88  1  0.206658  0.001526  0.750520  1
  O  O89  1  0.081246  0.253774  0.656822  1
  O  O90  1  0.999086  0.231126  0.431753  1
  O  O91  1  0.000077  0.205668  0.249973  1
