# generated using pymatgen
data_LiCu(PO3)2
_symmetry_space_group_name_H-M   'P 1'
_cell_length_a   8.58210511
_cell_length_b   10.46898829
_cell_length_c   11.95410167
_cell_angle_alpha   67.64574338
_cell_angle_beta   89.99962331
_cell_angle_gamma   89.99995438
_symmetry_Int_Tables_number   1
_chemical_formula_structural   LiCu(PO3)2
_chemical_formula_sum   'Li8 Cu8 P16 O48'
_cell_volume   993.31450541
_cell_formula_units_Z   8
loop_
 _symmetry_equiv_pos_site_id
 _symmetry_equiv_pos_as_xyz
  1  'x, y, z'
loop_
 _atom_site_type_symbol
 _atom_site_label
 _atom_site_symmetry_multiplicity
 _atom_site_fract_x
 _atom_site_fract_y
 _atom_site_fract_z
 _atom_site_occupancy
  Li  Li0  1  0.104225  0.744508  0.013277  1
  Li  Li1  1  0.552178  0.774660  0.209299  1
  Li  Li2  1  0.052174  0.225341  0.290699  1
  Li  Li3  1  0.395768  0.744504  0.513283  1
  Li  Li4  1  0.895771  0.255493  0.986718  1
  Li  Li5  1  0.604232  0.255497  0.486714  1
  Li  Li6  1  0.947825  0.774658  0.709302  1
  Li  Li7  1  0.447819  0.225338  0.790703  1
  Cu  Cu8  1  0.462101  0.753365  0.974422  1
  Cu  Cu9  1  0.228741  0.738173  0.260078  1
  Cu  Cu10  1  0.037885  0.753371  0.474421  1
  Cu  Cu11  1  0.537887  0.246640  0.025580  1
  Cu  Cu12  1  0.271246  0.738163  0.760080  1
  Cu  Cu13  1  0.728761  0.261829  0.239923  1
  Cu  Cu14  1  0.962107  0.246649  0.525577  1
  Cu  Cu15  1  0.771253  0.261820  0.739919  1
  P  P16  1  0.233628  0.467553  0.014106  1
  P  P17  1  0.769468  0.970445  0.023902  1
  P  P18  1  0.513993  0.994630  0.314520  1
  P  P19  1  0.013988  0.005362  0.185487  1
  P  P20  1  0.501807  0.498827  0.314231  1
  P  P21  1  0.266372  0.467550  0.514109  1
  P  P22  1  0.730535  0.970445  0.523904  1
  P  P23  1  0.998193  0.498822  0.814233  1
  P  P24  1  0.001810  0.501181  0.185763  1
  P  P25  1  0.269469  0.029552  0.476096  1
  P  P26  1  0.733616  0.532445  0.485893  1
  P  P27  1  0.498196  0.501174  0.685767  1
  P  P28  1  0.986008  0.994638  0.814517  1
  P  P29  1  0.486010  0.005373  0.685478  1
  P  P30  1  0.230532  0.029548  0.976103  1
  P  P31  1  0.766379  0.532445  0.985892  1
  O  O32  1  0.251275  0.874929  0.030490  1
  O  O33  1  0.103387  0.897656  0.285015  1
  O  O34  1  0.076564  0.623634  0.199198  1
  O  O35  1  0.633004  0.874795  0.055360  1
  O  O36  1  0.130648  0.415280  0.139303  1
  O  O37  1  0.450036  0.869890  0.296667  1
  O  O38  1  0.372546  0.378913  0.035633  1
  O  O39  1  0.116854  0.076881  0.062431  1
  O  O40  1  0.423067  0.614702  0.213839  1
  O  O41  1  0.877319  0.924835  0.145270  1
  O  O42  1  0.248721  0.874935  0.530475  1
  O  O43  1  0.259712  0.624260  0.465547  1
  O  O44  1  0.759723  0.375744  0.034453  1
  O  O45  1  0.616855  0.923116  0.437577  1
  O  O46  1  0.887902  0.576144  0.070922  1
  O  O47  1  0.049990  0.869879  0.796673  1
  O  O48  1  0.127458  0.378905  0.535649  1
  O  O49  1  0.387892  0.423863  0.429068  1
  O  O50  1  0.576573  0.376369  0.300801  1
  O  O51  1  0.076944  0.614702  0.713840  1
  O  O52  1  0.630630  0.584721  0.360702  1
  O  O53  1  0.133003  0.125204  0.444635  1
  O  O54  1  0.622676  0.924835  0.645269  1
  O  O55  1  0.603406  0.102352  0.214989  1
  O  O56  1  0.396595  0.897652  0.785005  1
  O  O57  1  0.377323  0.075163  0.354728  1
  O  O58  1  0.867000  0.874788  0.555367  1
  O  O59  1  0.369363  0.415284  0.639296  1
  O  O60  1  0.923058  0.385305  0.286150  1
  O  O61  1  0.423438  0.623629  0.699209  1
  O  O62  1  0.612101  0.576146  0.570928  1
  O  O63  1  0.872541  0.621098  0.464347  1
  O  O64  1  0.950014  0.130113  0.203333  1
  O  O65  1  0.112096  0.423866  0.929075  1
  O  O66  1  0.383149  0.076887  0.562421  1
  O  O67  1  0.240279  0.624263  0.965542  1
  O  O68  1  0.740274  0.375746  0.534456  1
  O  O69  1  0.751288  0.125060  0.469527  1
  O  O70  1  0.122679  0.075158  0.854737  1
  O  O71  1  0.576945  0.385298  0.786148  1
  O  O72  1  0.883148  0.923109  0.937577  1
  O  O73  1  0.627448  0.621090  0.964362  1
  O  O74  1  0.549970  0.130113  0.703331  1
  O  O75  1  0.869352  0.584725  0.860692  1
  O  O76  1  0.366995  0.125199  0.944644  1
  O  O77  1  0.923445  0.376369  0.800801  1
  O  O78  1  0.896614  0.102334  0.714993  1
  O  O79  1  0.748721  0.125063  0.969513  1
