# generated using pymatgen
data_LiNiPO4
_symmetry_space_group_name_H-M   'P 1'
_cell_length_a   10.99197050
_cell_length_b   6.29224895
_cell_length_c   5.01663692
_cell_angle_alpha   89.99535058
_cell_angle_beta   89.99402886
_cell_angle_gamma   89.97159256
_symmetry_Int_Tables_number   1
_chemical_formula_structural   LiNiPO4
_chemical_formula_sum   'Li4 Ni4 P4 O16'
_cell_volume   346.97170787
_cell_formula_units_Z   4
loop_
 _symmetry_equiv_pos_site_id
 _symmetry_equiv_pos_as_xyz
  1  'x, y, z'
loop_
 _atom_site_type_symbol
 _atom_site_label
 _atom_site_symmetry_multiplicity
 _atom_site_fract_x
 _atom_site_fract_y
 _atom_site_fract_z
 _atom_site_occupancy
  Li  Li0  1  0.166749  0.514238  0.247779  1
  Li  Li1  1  0.333203  0.014323  0.747720  1
  Li  Li2  1  0.666773  0.985760  0.247791  1
  Li  Li3  1  0.833270  0.485754  0.747743  1
  Ni  Ni4  1  0.080999  0.779821  0.740505  1
  Ni  Ni5  1  0.419109  0.279456  0.240233  1
  Ni  Ni6  1  0.580948  0.720314  0.740460  1
  Ni  Ni7  1  0.918949  0.220148  0.240439  1
  P  P8  1  0.175248  0.015822  0.250834  1
  P  P9  1  0.324778  0.515741  0.750770  1
  P  P10  1  0.675269  0.484271  0.250842  1
  P  P11  1  0.824699  0.984209  0.750832  1
  O  O12  1  0.094204  0.213905  0.188200  1
  O  O13  1  0.118892  0.812421  0.124174  1
  O  O14  1  0.194852  0.550246  0.638477  1
  O  O15  1  0.181617  0.987495  0.556124  1
  O  O16  1  0.318437  0.487331  0.056067  1
  O  O17  1  0.305156  0.050167  0.138408  1
  O  O18  1  0.381172  0.312314  0.623954  1
  O  O19  1  0.405736  0.713811  0.688184  1
  O  O20  1  0.594340  0.286206  0.188146  1
  O  O21  1  0.618842  0.687735  0.124194  1
  O  O22  1  0.694791  0.949830  0.638480  1
  O  O23  1  0.681612  0.512535  0.556142  1
  O  O24  1  0.818332  0.012521  0.056124  1
  O  O25  1  0.805191  0.449863  0.138429  1
  O  O26  1  0.881078  0.187621  0.624169  1
  O  O27  1  0.905756  0.786142  0.688186  1
