# generated using pymatgen
data_Ti3V2Cu(PO4)6
_symmetry_space_group_name_H-M   'P 1'
_cell_length_a   8.52993329
_cell_length_b   8.68443010
_cell_length_c   8.68443071
_cell_angle_alpha   59.99999977
_cell_angle_beta   59.39901964
_cell_angle_gamma   59.39902039
_symmetry_Int_Tables_number   1
_chemical_formula_structural   Ti3V2Cu(PO4)6
_chemical_formula_sum   'Ti3 V2 Cu1 P6 O24'
_cell_volume   450.72116464
_cell_formula_units_Z   1
loop_
 _symmetry_equiv_pos_site_id
 _symmetry_equiv_pos_as_xyz
  1  'x, y, z'
loop_
 _atom_site_type_symbol
 _atom_site_label
 _atom_site_symmetry_multiplicity
 _atom_site_fract_x
 _atom_site_fract_y
 _atom_site_fract_z
 _atom_site_occupancy
  Ti  Ti0  1  0.064031  0.645323  0.645323  1
  Ti  Ti1  1  0.428934  0.857022  0.857022  1
  Ti  Ti2  1  0.936683  0.354439  0.354439  1
  V  V3  1  0.992063  0.002646  0.002646  1
  V  V4  1  0.495327  0.501558  0.501558  1
  Cu  Cu5  1  0.560576  0.146474  0.146474  1
  P  P6  1  0.254382  0.247603  0.544375  1
  P  P7  1  0.254382  0.953640  0.247603  1
  P  P8  1  0.254382  0.544375  0.953640  1
  P  P9  1  0.750043  0.456353  0.044745  1
  P  P10  1  0.750043  0.044745  0.748859  1
  P  P11  1  0.750043  0.748859  0.456353  1
  O  O12  1  0.072657  0.118609  0.313705  1
  O  O13  1  0.072657  0.495029  0.118609  1
  O  O14  1  0.072657  0.313705  0.495029  1
  O  O15  1  0.223721  0.090774  0.743907  1
  O  O16  1  0.441413  0.182376  0.395960  1
  O  O17  1  0.259927  0.410213  0.571331  1
  O  O18  1  0.223721  0.941599  0.090774  1
  O  O19  1  0.259927  0.758529  0.410213  1
  O  O20  1  0.566991  0.618596  0.998198  1
  O  O21  1  0.259927  0.571331  0.758529  1
  O  O22  1  0.784609  0.264104  0.050634  1
  O  O23  1  0.566991  0.998198  0.816215  1
  O  O24  1  0.441413  0.980253  0.182376  1
  O  O25  1  0.223721  0.743907  0.941599  1
  O  O26  1  0.727174  0.445024  0.240146  1
  O  O27  1  0.441413  0.395960  0.980253  1
  O  O28  1  0.727174  0.240146  0.587656  1
  O  O29  1  0.784609  0.050634  0.900652  1
  O  O30  1  0.727174  0.587656  0.445024  1
  O  O31  1  0.566991  0.816215  0.618596  1
  O  O32  1  0.784609  0.900652  0.264104  1
  O  O33  1  0.926546  0.668664  0.516357  1
  O  O34  1  0.926546  0.516357  0.888434  1
  O  O35  1  0.926546  0.888434  0.668664  1
