# generated using pymatgen
data_LiBiP2O7
_symmetry_space_group_name_H-M   'P 1'
_cell_length_a   4.97553196
_cell_length_b   8.80575480
_cell_length_c   7.67972947
_cell_angle_alpha   90.00000000
_cell_angle_beta   116.79497744
_cell_angle_gamma   90.00000000
_symmetry_Int_Tables_number   1
_chemical_formula_structural   LiBiP2O7
_chemical_formula_sum   'Li2 Bi2 P4 O14'
_cell_volume   300.34557712
_cell_formula_units_Z   2
loop_
 _symmetry_equiv_pos_site_id
 _symmetry_equiv_pos_as_xyz
  1  'x, y, z'
loop_
 _atom_site_type_symbol
 _atom_site_label
 _atom_site_symmetry_multiplicity
 _atom_site_fract_x
 _atom_site_fract_y
 _atom_site_fract_z
 _atom_site_occupancy
  Li  Li0  1  0.185790  0.483035  0.787081  1
  Li  Li1  1  0.814210  0.983035  0.212919  1
  Bi  Bi2  1  0.323541  0.875744  0.750731  1
  Bi  Bi3  1  0.676459  0.375744  0.249269  1
  P  P4  1  0.352524  0.186464  0.490170  1
  P  P5  1  0.220308  0.784307  0.091810  1
  P  P6  1  0.779692  0.284307  0.908190  1
  P  P7  1  0.647476  0.686464  0.509830  1
  O  O8  1  0.073782  0.301888  0.898828  1
  O  O9  1  0.204651  0.687528  0.916063  1
  O  O10  1  0.176699  0.038375  0.456196  1
  O  O11  1  0.165609  0.334661  0.440936  1
  O  O12  1  0.427760  0.688208  0.600350  1
  O  O13  1  0.620477  0.432784  0.911975  1
  O  O14  1  0.551177  0.179796  0.724754  1
  O  O15  1  0.448823  0.679796  0.275246  1
  O  O16  1  0.379523  0.932784  0.088025  1
  O  O17  1  0.572240  0.188208  0.399650  1
  O  O18  1  0.834391  0.834661  0.559064  1
  O  O19  1  0.823301  0.538375  0.543804  1
  O  O20  1  0.795349  0.187528  0.083937  1
  O  O21  1  0.926218  0.801888  0.101172  1
