# generated using pymatgen
data_Li3Mn(BO3)2
_symmetry_space_group_name_H-M   'P 1'
_cell_length_a   6.12827584
_cell_length_b   8.03690344
_cell_length_c   9.81095605
_cell_angle_alpha   90.00000000
_cell_angle_beta   83.21547311
_cell_angle_gamma   90.00000000
_symmetry_Int_Tables_number   1
_chemical_formula_structural   Li3Mn(BO3)2
_chemical_formula_sum   'Li12 Mn4 B8 O24'
_cell_volume   479.82902789
_cell_formula_units_Z   4
loop_
 _symmetry_equiv_pos_site_id
 _symmetry_equiv_pos_as_xyz
  1  'x, y, z'
loop_
 _atom_site_type_symbol
 _atom_site_label
 _atom_site_symmetry_multiplicity
 _atom_site_fract_x
 _atom_site_fract_y
 _atom_site_fract_z
 _atom_site_occupancy
  Li  Li0  1  0.047371  0.286872  0.144834  1
  Li  Li1  1  0.973101  0.794907  0.368027  1
  Li  Li2  1  0.230174  0.450412  0.398246  1
  Li  Li3  1  0.269826  0.950412  0.101754  1
  Li  Li4  1  0.526899  0.294907  0.131973  1
  Li  Li5  1  0.452630  0.786872  0.355166  1
  Li  Li6  1  0.547370  0.213128  0.644834  1
  Li  Li7  1  0.473101  0.705093  0.868027  1
  Li  Li8  1  0.730174  0.049588  0.898246  1
  Li  Li9  1  0.769826  0.549588  0.601754  1
  Li  Li10  1  0.026899  0.205093  0.631973  1
  Li  Li11  1  0.952630  0.713128  0.855166  1
  Mn  Mn12  1  0.186838  0.407839  0.880325  1
  Mn  Mn13  1  0.313162  0.907839  0.619675  1
  Mn  Mn14  1  0.686838  0.092161  0.380325  1
  Mn  Mn15  1  0.813162  0.592161  0.119675  1
  B  B16  1  0.212707  0.138113  0.351018  1
  B  B17  1  0.240472  0.569818  0.631268  1
  B  B18  1  0.259528  0.069818  0.868732  1
  B  B19  1  0.287293  0.638113  0.148982  1
  B  B20  1  0.712707  0.361887  0.851018  1
  B  B21  1  0.740472  0.930182  0.131268  1
  B  B22  1  0.759528  0.430182  0.368732  1
  B  B23  1  0.787293  0.861887  0.648982  1
  O  O24  1  0.997403  0.089156  0.382182  1
  O  O25  1  0.130299  0.545291  0.087096  1
  O  O26  1  0.227601  0.767804  0.234082  1
  O  O27  1  0.163360  0.422898  0.591956  1
  O  O28  1  0.162114  0.186333  0.964190  1
  O  O29  1  0.226240  0.614191  0.771200  1
  O  O30  1  0.273760  0.114191  0.728800  1
  O  O31  1  0.337886  0.686333  0.535810  1
  O  O32  1  0.272399  0.267804  0.265918  1
  O  O33  1  0.336640  0.922898  0.908044  1
  O  O34  1  0.369701  0.045291  0.412904  1
  O  O35  1  0.502597  0.589156  0.117818  1
  O  O36  1  0.497403  0.410844  0.882182  1
  O  O37  1  0.630299  0.954709  0.587096  1
  O  O38  1  0.663360  0.077102  0.091956  1
  O  O39  1  0.727601  0.732196  0.734082  1
  O  O40  1  0.662114  0.313667  0.464190  1
  O  O41  1  0.726240  0.885809  0.271200  1
  O  O42  1  0.773760  0.385809  0.228800  1
  O  O43  1  0.837886  0.813667  0.035810  1
  O  O44  1  0.836640  0.577102  0.408044  1
  O  O45  1  0.772399  0.232196  0.765918  1
  O  O46  1  0.869701  0.454709  0.912904  1
  O  O47  1  0.002597  0.910844  0.617818  1
