# generated using pymatgen
data_H12RuSN4(ClO)2
_symmetry_space_group_name_H-M   'P 1'
_cell_length_a   14.17945577
_cell_length_b   7.42255680
_cell_length_c   9.40371521
_cell_angle_alpha   90.00000000
_cell_angle_beta   90.00000000
_cell_angle_gamma   90.00000000
_symmetry_Int_Tables_number   1
_chemical_formula_structural   H12RuSN4(ClO)2
_chemical_formula_sum   'H48 Ru4 S4 N16 Cl8 O8'
_cell_volume   989.72048669
_cell_formula_units_Z   4
loop_
 _symmetry_equiv_pos_site_id
 _symmetry_equiv_pos_as_xyz
  1  'x, y, z'
loop_
 _atom_site_type_symbol
 _atom_site_label
 _atom_site_symmetry_multiplicity
 _atom_site_fract_x
 _atom_site_fract_y
 _atom_site_fract_z
 _atom_site_occupancy
  H  H0  1  0.023210  0.057830  0.663527  1
  H  H1  1  0.023210  0.442170  0.663527  1
  H  H2  1  0.049232  0.999291  0.206305  1
  H  H3  1  0.049232  0.500709  0.206305  1
  H  H4  1  0.058154  0.099483  0.364242  1
  H  H5  1  0.058154  0.400517  0.364242  1
  H  H6  1  0.135188  0.034594  0.936694  1
  H  H7  1  0.135188  0.465406  0.936694  1
  H  H8  1  0.199413  0.461553  0.790709  1
  H  H9  1  0.199413  0.038447  0.790709  1
  H  H10  1  0.229075  0.599097  0.923759  1
  H  H11  1  0.229075  0.900903  0.923759  1
  H  H12  1  0.270925  0.099097  0.423759  1
  H  H13  1  0.270925  0.400903  0.423759  1
  H  H14  1  0.300587  0.538447  0.290709  1
  H  H15  1  0.300587  0.961553  0.290709  1
  H  H16  1  0.364812  0.965406  0.436694  1
  H  H17  1  0.364812  0.534594  0.436694  1
  H  H18  1  0.441846  0.900517  0.864242  1
  H  H19  1  0.441846  0.599483  0.864242  1
  H  H20  1  0.450768  0.000709  0.706305  1
  H  H21  1  0.450768  0.499291  0.706305  1
  H  H22  1  0.476790  0.557830  0.163527  1
  H  H23  1  0.476790  0.942170  0.163527  1
  H  H24  1  0.523210  0.057830  0.836473  1
  H  H25  1  0.523210  0.442170  0.836473  1
  H  H26  1  0.549232  0.999291  0.293695  1
  H  H27  1  0.549232  0.500709  0.293695  1
  H  H28  1  0.558154  0.099483  0.135758  1
  H  H29  1  0.558154  0.400517  0.135758  1
  H  H30  1  0.635188  0.034594  0.563306  1
  H  H31  1  0.635188  0.465406  0.563306  1
  H  H32  1  0.699413  0.038447  0.709291  1
  H  H33  1  0.699413  0.461553  0.709291  1
  H  H34  1  0.729075  0.599097  0.576241  1
  H  H35  1  0.729075  0.900903  0.576241  1
  H  H36  1  0.770925  0.099097  0.076241  1
  H  H37  1  0.770925  0.400903  0.076241  1
  H  H38  1  0.800587  0.538447  0.209291  1
  H  H39  1  0.800587  0.961553  0.209291  1
  H  H40  1  0.864812  0.534594  0.063306  1
  H  H41  1  0.864812  0.965406  0.063306  1
  H  H42  1  0.941846  0.599483  0.635758  1
  H  H43  1  0.941846  0.900517  0.635758  1
  H  H44  1  0.950768  0.499291  0.793695  1
  H  H45  1  0.950768  0.000709  0.793695  1
  H  H46  1  0.976790  0.557830  0.336473  1
  H  H47  1  0.976790  0.942170  0.336473  1
  Ru  Ru48  1  0.085277  0.750000  0.780113  1
  Ru  Ru49  1  0.414723  0.250000  0.280113  1
  Ru  Ru50  1  0.585277  0.750000  0.719887  1
  Ru  Ru51  1  0.914723  0.250000  0.219887  1
  S  S52  1  0.166512  0.750000  0.592303  1
  S  S53  1  0.333488  0.250000  0.092303  1
  S  S54  1  0.666512  0.750000  0.907697  1
  S  S55  1  0.833488  0.250000  0.407697  1
  N  N56  1  0.011439  0.049383  0.290534  1
  N  N57  1  0.011439  0.450617  0.290534  1
  N  N58  1  0.173234  0.545185  0.868145  1
  N  N59  1  0.173234  0.954815  0.868145  1
  N  N60  1  0.326766  0.045185  0.368145  1
  N  N61  1  0.326766  0.454815  0.368145  1
  N  N62  1  0.488561  0.950617  0.790534  1
  N  N63  1  0.488561  0.549383  0.790534  1
  N  N64  1  0.511439  0.049383  0.209466  1
  N  N65  1  0.511439  0.450617  0.209466  1
  N  N66  1  0.673234  0.545185  0.631855  1
  N  N67  1  0.673234  0.954815  0.631855  1
  N  N68  1  0.826766  0.045185  0.131855  1
  N  N69  1  0.826766  0.454815  0.131855  1
  N  N70  1  0.988561  0.549383  0.709466  1
  N  N71  1  0.988561  0.950617  0.709466  1
  Cl  Cl72  1  0.003926  0.750000  0.007585  1
  Cl  Cl73  1  0.150877  0.250000  0.565871  1
  Cl  Cl74  1  0.349123  0.750000  0.065871  1
  Cl  Cl75  1  0.496074  0.250000  0.507585  1
  Cl  Cl76  1  0.503926  0.750000  0.492415  1
  Cl  Cl77  1  0.650877  0.250000  0.934129  1
  Cl  Cl78  1  0.849123  0.750000  0.434129  1
  Cl  Cl79  1  0.996074  0.250000  0.992415  1
  O  O80  1  0.130218  0.750000  0.445797  1
  O  O81  1  0.230071  0.250000  0.101604  1
  O  O82  1  0.269929  0.750000  0.601604  1
  O  O83  1  0.369782  0.250000  0.945797  1
  O  O84  1  0.630218  0.750000  0.054203  1
  O  O85  1  0.730071  0.250000  0.398396  1
  O  O86  1  0.769929  0.750000  0.898396  1
  O  O87  1  0.869782  0.250000  0.554203  1
