# generated using pymatgen
data_Co2SnO4
_symmetry_space_group_name_H-M   'P 1'
_cell_length_a   6.22065567
_cell_length_b   6.19762940
_cell_length_c   30.43580307
_cell_angle_alpha   60.42314852
_cell_angle_beta   60.64573054
_cell_angle_gamma   60.99352438
_symmetry_Int_Tables_number   1
_chemical_formula_structural   Co2SnO4
_chemical_formula_sum   'Co20 Sn10 O40'
_cell_volume   842.55357201
_cell_formula_units_Z   10
loop_
 _symmetry_equiv_pos_site_id
 _symmetry_equiv_pos_as_xyz
  1  'x, y, z'
loop_
 _atom_site_type_symbol
 _atom_site_label
 _atom_site_symmetry_multiplicity
 _atom_site_fract_x
 _atom_site_fract_y
 _atom_site_fract_z
 _atom_site_occupancy
  Co  Co0  1  0.238968  0.251240  0.048772  1
  Co  Co1  1  0.012357  0.015029  0.197409  1
  Co  Co2  1  0.620017  0.638195  0.024827  1
  Co  Co3  1  0.232960  0.235785  0.254307  1
  Co  Co4  1  0.012433  0.011006  0.398447  1
  Co  Co5  1  0.621474  0.627413  0.125037  1
  Co  Co6  1  0.622701  0.626133  0.225337  1
  Co  Co7  1  0.234290  0.235665  0.453928  1
  Co  Co8  1  0.012764  0.010095  0.598419  1
  Co  Co9  1  0.623837  0.624232  0.325513  1
  Co  Co10  1  0.623863  0.623908  0.425663  1
  Co  Co11  1  0.234586  0.232730  0.654024  1
  Co  Co12  1  0.012889  0.002323  0.799802  1
  Co  Co13  1  0.623904  0.623431  0.525706  1
  Co  Co14  1  0.624799  0.621098  0.625847  1
  Co  Co15  1  0.235874  0.248718  0.851371  1
  Co  Co16  1  0.625584  0.619601  0.725804  1
  Co  Co17  1  0.633437  0.607225  0.826578  1
  Co  Co18  1  0.630835  0.136728  0.921312  1
  Co  Co19  1  0.631603  0.627444  0.921003  1
  O  O20  1  0.374333  0.383890  0.077844  1
  O  O21  1  0.370816  0.849099  0.078829  1
  O  O22  1  0.373800  0.378587  0.172273  1
  O  O23  1  0.837650  0.382866  0.078124  1
  O  O24  1  0.377214  0.378542  0.277748  1
  O  O25  1  0.409330  0.875113  0.170952  1
  O  O26  1  0.874801  0.880495  0.076221  1
  O  O27  1  0.870774  0.413152  0.171041  1
  O  O28  1  0.377019  0.842279  0.277784  1
  O  O29  1  0.376806  0.376670  0.371483  1
  O  O30  1  0.840543  0.379232  0.277714  1
  O  O31  1  0.870026  0.876759  0.171484  1
  O  O32  1  0.407790  0.871895  0.371685  1
  O  O33  1  0.377457  0.377588  0.477874  1
  O  O34  1  0.873786  0.874719  0.278284  1
  O  O35  1  0.872427  0.407411  0.371707  1
  O  O36  1  0.377212  0.841781  0.477855  1
  O  O37  1  0.377054  0.376115  0.571578  1
  O  O38  1  0.841426  0.377751  0.477888  1
  O  O39  1  0.873896  0.873659  0.371932  1
  O  O40  1  0.407748  0.870889  0.571923  1
  O  O41  1  0.379544  0.372548  0.677943  1
  O  O42  1  0.873039  0.406055  0.571830  1
  O  O43  1  0.872799  0.872831  0.478935  1
  O  O44  1  0.378004  0.839184  0.677892  1
  O  O45  1  0.381379  0.375227  0.770452  1
  O  O46  1  0.842478  0.373114  0.678044  1
  O  O47  1  0.873813  0.872356  0.572201  1
  O  O48  1  0.410422  0.863769  0.773119  1
  O  O49  1  0.372002  0.378178  0.878038  1
  O  O50  1  0.877544  0.398807  0.771910  1
  O  O51  1  0.873644  0.868628  0.679010  1
  O  O52  1  0.377201  0.853561  0.877310  1
  O  O53  1  0.365130  0.390799  0.970703  1
  O  O54  1  0.848731  0.379330  0.878222  1
  O  O55  1  0.876140  0.865684  0.772538  1
  O  O56  1  0.411329  0.864819  0.973035  1
  O  O57  1  0.870749  0.863994  0.880748  1
  O  O58  1  0.867465  0.403437  0.974048  1
  O  O59  1  0.872206  0.865065  0.974088  1
  Sn  Sn60  1  0.027045  0.014034  0.992390  1
  Sn  Sn61  1  0.125145  0.626194  0.125819  1
  Sn  Sn62  1  0.620026  0.132006  0.125370  1
  Sn  Sn63  1  0.123843  0.624117  0.325613  1
  Sn  Sn64  1  0.623918  0.124321  0.325559  1
  Sn  Sn65  1  0.124214  0.623265  0.525789  1
  Sn  Sn66  1  0.623705  0.123537  0.525851  1
  Sn  Sn67  1  0.126215  0.619621  0.725403  1
  Sn  Sn68  1  0.625480  0.118129  0.726058  1
  Sn  Sn69  1  0.135707  0.630897  0.920752  1
