# generated using pymatgen
data_Li2AlFeO4
_symmetry_space_group_name_H-M   'P 1'
_cell_length_a   6.27552205
_cell_length_b   5.55062797
_cell_length_c   5.03221002
_cell_angle_alpha   89.99973092
_cell_angle_beta   90.00014133
_cell_angle_gamma   89.99979506
_symmetry_Int_Tables_number   1
_chemical_formula_structural   Li2AlFeO4
_chemical_formula_sum   'Li4 Al2 Fe2 O8'
_cell_volume   175.28741555
_cell_formula_units_Z   2
loop_
 _symmetry_equiv_pos_site_id
 _symmetry_equiv_pos_as_xyz
  1  'x, y, z'
loop_
 _atom_site_type_symbol
 _atom_site_label
 _atom_site_symmetry_multiplicity
 _atom_site_fract_x
 _atom_site_fract_y
 _atom_site_fract_z
 _atom_site_occupancy
  Li  Li0  1  0.250217  0.333837  0.992983  1
  Li  Li1  1  0.249783  0.666160  0.492982  1
  Li  Li2  1  0.749783  0.333838  0.992982  1
  Li  Li3  1  0.750218  0.666162  0.492983  1
  Al  Al4  1  -0.000001  0.167184  0.498970  1
  Al  Al5  1  0.500002  0.832818  0.998970  1
  Fe  Fe6  1  -0.000005  0.834707  0.996178  1
  Fe  Fe7  1  0.499999  0.165304  0.496168  1
  O  O8  1  0.000001  0.153353  0.854379  1
  O  O9  1  1.000000  0.864247  0.375262  1
  O  O10  1  0.262029  0.681751  0.894627  1
  O  O11  1  0.237972  0.318245  0.394628  1
  O  O12  1  0.499999  0.135749  0.875263  1
  O  O13  1  0.499999  0.846646  0.354376  1
  O  O14  1  0.762030  0.318247  0.394625  1
  O  O15  1  0.737973  0.681755  0.894626  1
