# generated using pymatgen
data_PH10SN3O2
_symmetry_space_group_name_H-M   'P 1'
_cell_length_a   7.10093581
_cell_length_b   6.92653127
_cell_length_c   7.90109105
_cell_angle_alpha   86.06949340
_cell_angle_beta   75.47502776
_cell_angle_gamma   87.97901309
_symmetry_Int_Tables_number   1
_chemical_formula_structural   PH10SN3O2
_chemical_formula_sum   'P2 H20 S2 N6 O4'
_cell_volume   375.24272647
_cell_formula_units_Z   2
loop_
 _symmetry_equiv_pos_site_id
 _symmetry_equiv_pos_as_xyz
  1  'x, y, z'
loop_
 _atom_site_type_symbol
 _atom_site_label
 _atom_site_symmetry_multiplicity
 _atom_site_fract_x
 _atom_site_fract_y
 _atom_site_fract_z
 _atom_site_occupancy
  P  P0  1  0.639515  0.798132  0.779003  1
  P  P1  1  0.360485  0.201868  0.220997  1
  H  H2  1  0.395623  0.850513  0.032332  1
  H  H3  1  0.604377  0.149487  0.967668  1
  H  H4  1  0.362347  0.641164  0.942960  1
  H  H5  1  0.637653  0.358836  0.057040  1
  H  H6  1  0.270960  0.786587  0.416297  1
  H  H7  1  0.729040  0.213413  0.583703  1
  H  H8  1  0.158452  0.683758  0.611300  1
  H  H9  1  0.841548  0.316242  0.388700  1
  H  H10  1  0.291888  0.536488  0.452075  1
  H  H11  1  0.708112  0.463512  0.547925  1
  H  H12  1  0.402237  0.691668  0.552620  1
  H  H13  1  0.597763  0.308332  0.447380  1
  H  H14  1  0.219892  0.125638  0.625352  1
  H  H15  1  0.780108  0.874362  0.374648  1
  H  H16  1  0.121035  0.255222  0.006287  1
  H  H17  1  0.878965  0.744778  0.993713  1
  H  H18  1  0.009551  0.042570  0.752160  1
  H  H19  1  0.990449  0.957430  0.247840  1
  H  H20  1  0.222430  0.978108  0.801378  1
  H  H21  1  0.777570  0.021892  0.198622  1
  S  S22  1  0.855596  0.622633  0.874273  1
  S  S23  1  0.144404  0.377367  0.125727  1
  N  N24  1  0.424697  0.774373  0.920509  1
  N  N25  1  0.575303  0.225627  0.079491  1
  N  N26  1  0.278611  0.671937  0.506430  1
  N  N27  1  0.721389  0.328063  0.493570  1
  N  N28  1  0.153672  0.011209  0.703407  1
  N  N29  1  0.846328  0.988791  0.296593  1
  O  O30  1  0.633415  0.695416  0.616096  1
  O  O31  1  0.366585  0.304584  0.383904  1
  O  O32  1  0.696957  0.007641  0.766799  1
  O  O33  1  0.303043  0.992359  0.233201  1
