# generated using pymatgen
data_BaYb2O4
_symmetry_space_group_name_H-M   'P 1'
_cell_length_a   7.15883972
_cell_length_b   7.15883972
_cell_length_c   7.15883972
_cell_angle_alpha   121.42742139
_cell_angle_beta   121.42742139
_cell_angle_gamma   87.54491806
_symmetry_Int_Tables_number   1
_chemical_formula_structural   BaYb2O4
_chemical_formula_sum   'Ba2 Yb4 O8'
_cell_volume   253.57547423
_cell_formula_units_Z   2
loop_
 _symmetry_equiv_pos_site_id
 _symmetry_equiv_pos_as_xyz
  1  'x, y, z'
loop_
 _atom_site_type_symbol
 _atom_site_label
 _atom_site_symmetry_multiplicity
 _atom_site_fract_x
 _atom_site_fract_y
 _atom_site_fract_z
 _atom_site_occupancy
  Yb  Yb0  1  0.500000  0.500000  0.000000  1
  Yb  Yb1  1  0.000000  0.000000  0.500000  1
  Yb  Yb2  1  0.000000  0.500000  0.000000  1
  Yb  Yb3  1  0.000000  0.500000  0.500000  1
  Ba  Ba4  1  0.375000  0.125000  0.250000  1
  Ba  Ba5  1  0.625000  0.875000  0.750000  1
  O  O6  1  0.775849  0.308581  0.033401  1
  O  O7  1  0.808581  0.275179  0.532732  1
  O  O8  1  0.242447  0.275849  0.967268  1
  O  O9  1  0.224821  0.257553  0.533401  1
  O  O10  1  0.775179  0.742447  0.466599  1
  O  O11  1  0.757553  0.724151  0.032732  1
  O  O12  1  0.191419  0.724821  0.467268  1
  O  O13  1  0.224151  0.691419  0.966599  1
