# generated using pymatgen
data_LiCoSiO4
_symmetry_space_group_name_H-M   'P 1'
_cell_length_a   5.07771588
_cell_length_b   8.82976753
_cell_length_c   5.09156041
_cell_angle_alpha   109.77208135
_cell_angle_beta   65.32772523
_cell_angle_gamma   90.09307756
_symmetry_Int_Tables_number   1
_chemical_formula_structural   LiCoSiO4
_chemical_formula_sum   'Li2 Co2 Si2 O8'
_cell_volume   192.59309381
_cell_formula_units_Z   2
loop_
 _symmetry_equiv_pos_site_id
 _symmetry_equiv_pos_as_xyz
  1  'x, y, z'
loop_
 _atom_site_type_symbol
 _atom_site_label
 _atom_site_symmetry_multiplicity
 _atom_site_fract_x
 _atom_site_fract_y
 _atom_site_fract_z
 _atom_site_occupancy
  Li  Li0  1  0.666741  0.462203  0.753178  1
  Li  Li1  1  0.782798  0.957900  0.131485  1
  Co  Co2  1  0.594672  0.139312  0.812023  1
  Co  Co3  1  0.175582  0.639744  0.730188  1
  Si  Si4  1  0.235434  0.255199  0.528613  1
  Si  Si5  1  0.776755  0.754873  0.488755  1
  O  O6  1  0.264042  0.211039  0.177543  1
  O  O7  1  0.465988  0.113719  0.503648  1
  O  O8  1  0.881312  0.272133  0.753013  1
  O  O9  1  0.331106  0.431444  0.672352  1
  O  O10  1  0.467908  0.713168  0.473580  1
  O  O11  1  0.888640  0.613838  0.581346  1
  O  O12  1  0.985329  0.769617  0.150641  1
  O  O13  1  0.747617  0.931088  0.758495  1
