# generated using pymatgen
data_NaH4Au(Br2O)2
_symmetry_space_group_name_H-M   'P 1'
_cell_length_a   13.41699180
_cell_length_b   7.60691978
_cell_length_c   9.49071832
_cell_angle_alpha   90.00000000
_cell_angle_beta   90.00000000
_cell_angle_gamma   90.00000000
_symmetry_Int_Tables_number   1
_chemical_formula_structural   NaH4Au(Br2O)2
_chemical_formula_sum   'Na4 H16 Au4 Br16 O8'
_cell_volume   968.64150632
_cell_formula_units_Z   4
loop_
 _symmetry_equiv_pos_site_id
 _symmetry_equiv_pos_as_xyz
  1  'x, y, z'
loop_
 _atom_site_type_symbol
 _atom_site_label
 _atom_site_symmetry_multiplicity
 _atom_site_fract_x
 _atom_site_fract_y
 _atom_site_fract_z
 _atom_site_occupancy
  Na  Na0  1  0.014978  0.750000  0.042461  1
  Na  Na1  1  0.485022  0.250000  0.542461  1
  Na  Na2  1  0.514978  0.750000  0.457539  1
  Na  Na3  1  0.985022  0.250000  0.957539  1
  H  H4  1  0.132511  0.507239  0.865638  1
  H  H5  1  0.132511  0.992761  0.865638  1
  H  H6  1  0.174890  0.022037  0.015837  1
  H  H7  1  0.174890  0.477963  0.015837  1
  H  H8  1  0.325110  0.977963  0.515837  1
  H  H9  1  0.325110  0.522037  0.515837  1
  H  H10  1  0.367489  0.007239  0.365638  1
  H  H11  1  0.367489  0.492761  0.365638  1
  H  H12  1  0.632511  0.992761  0.634362  1
  H  H13  1  0.632511  0.507239  0.634362  1
  H  H14  1  0.674890  0.022037  0.484163  1
  H  H15  1  0.674890  0.477963  0.484163  1
  H  H16  1  0.825110  0.977963  0.984163  1
  H  H17  1  0.825110  0.522037  0.984163  1
  H  H18  1  0.867489  0.492761  0.134362  1
  H  H19  1  0.867489  0.007239  0.134362  1
  Au  Au20  1  0.063071  0.750000  0.511826  1
  Au  Au21  1  0.436929  0.250000  0.011826  1
  Au  Au22  1  0.563071  0.750000  0.988174  1
  Au  Au23  1  0.936929  0.250000  0.488174  1
  Br  Br24  1  0.046259  0.250000  0.278257  1
  Br  Br25  1  0.086736  0.250000  0.642184  1
  Br  Br26  1  0.172980  0.750000  0.301595  1
  Br  Br27  1  0.211910  0.750000  0.667968  1
  Br  Br28  1  0.288090  0.250000  0.167968  1
  Br  Br29  1  0.327020  0.250000  0.801595  1
  Br  Br30  1  0.413264  0.750000  0.142184  1
  Br  Br31  1  0.453741  0.750000  0.778257  1
  Br  Br32  1  0.546259  0.250000  0.221743  1
  Br  Br33  1  0.586736  0.250000  0.857816  1
  Br  Br34  1  0.672980  0.750000  0.198405  1
  Br  Br35  1  0.711910  0.750000  0.832032  1
  Br  Br36  1  0.788090  0.250000  0.332032  1
  Br  Br37  1  0.827020  0.250000  0.698405  1
  Br  Br38  1  0.913264  0.750000  0.357816  1
  Br  Br39  1  0.953741  0.750000  0.721743  1
  O  O40  1  0.112746  0.498845  0.965243  1
  O  O41  1  0.112746  0.001155  0.965243  1
  O  O42  1  0.387254  0.998845  0.465243  1
  O  O43  1  0.387254  0.501155  0.465243  1
  O  O44  1  0.612746  0.498845  0.534757  1
  O  O45  1  0.612746  0.001155  0.534757  1
  O  O46  1  0.887254  0.998845  0.034757  1
  O  O47  1  0.887254  0.501155  0.034757  1
