# generated using pymatgen
data_SbH3SO6
_symmetry_space_group_name_H-M   'P 1'
_cell_length_a   6.69707330
_cell_length_b   13.52425638
_cell_length_c   6.82150610
_cell_angle_alpha   90.00000000
_cell_angle_beta   126.27997600
_cell_angle_gamma   90.00000000
_symmetry_Int_Tables_number   1
_chemical_formula_structural   SbH3SO6
_chemical_formula_sum   'Sb4 H12 S4 O24'
_cell_volume   498.06562399
_cell_formula_units_Z   4
loop_
 _symmetry_equiv_pos_site_id
 _symmetry_equiv_pos_as_xyz
  1  'x, y, z'
loop_
 _atom_site_type_symbol
 _atom_site_label
 _atom_site_symmetry_multiplicity
 _atom_site_fract_x
 _atom_site_fract_y
 _atom_site_fract_z
 _atom_site_occupancy
  Sb  Sb0  1  0.051708  0.386425  0.649704  1
  Sb  Sb1  1  0.948292  0.886425  0.850296  1
  Sb  Sb2  1  0.948292  0.613575  0.350296  1
  Sb  Sb3  1  0.051708  0.113575  0.149704  1
  H  H4  1  0.227746  0.572042  0.855795  1
  H  H5  1  0.772254  0.072042  0.644205  1
  H  H6  1  0.772254  0.427958  0.144205  1
  H  H7  1  0.227746  0.927958  0.355795  1
  H  H8  1  0.320638  0.472053  0.132303  1
  H  H9  1  0.679362  0.972053  0.367697  1
  H  H10  1  0.679362  0.527947  0.867697  1
  H  H11  1  0.320638  0.027947  0.632303  1
  H  H12  1  0.259483  0.364581  0.181864  1
  H  H13  1  0.740517  0.864581  0.318136  1
  H  H14  1  0.740517  0.635419  0.818136  1
  H  H15  1  0.259483  0.135419  0.681864  1
  S  S16  1  0.400451  0.840899  0.824718  1
  S  S17  1  0.599549  0.340899  0.675282  1
  S  S18  1  0.599549  0.159101  0.175282  1
  S  S19  1  0.400451  0.659101  0.324718  1
  O  O20  1  0.292932  0.914212  0.916947  1
  O  O21  1  0.707068  0.414212  0.583053  1
  O  O22  1  0.707068  0.085788  0.083053  1
  O  O23  1  0.292932  0.585788  0.416947  1
  O  O24  1  0.222274  0.760421  0.696454  1
  O  O25  1  0.777726  0.260421  0.803546  1
  O  O26  1  0.777726  0.239579  0.303546  1
  O  O27  1  0.222274  0.739579  0.196454  1
  O  O28  1  0.435173  0.900356  0.661006  1
  O  O29  1  0.564827  0.400356  0.838994  1
  O  O30  1  0.564827  0.099644  0.338994  1
  O  O31  1  0.435173  0.599644  0.161006  1
  O  O32  1  0.643987  0.809041  0.040891  1
  O  O33  1  0.356013  0.309041  0.459109  1
  O  O34  1  0.356013  0.190959  0.959109  1
  O  O35  1  0.643987  0.690959  0.540891  1
  O  O36  1  0.123772  0.538014  0.695156  1
  O  O37  1  0.876228  0.038014  0.804844  1
  O  O38  1  0.876228  0.461986  0.304844  1
  O  O39  1  0.123772  0.961986  0.195156  1
  O  O40  1  0.218688  0.412325  0.052098  1
  O  O41  1  0.781312  0.912325  0.447902  1
  O  O42  1  0.781312  0.587675  0.947902  1
  O  O43  1  0.218688  0.087675  0.552098  1
