# generated using pymatgen
data_Li2Cu5(PO4)4
_symmetry_space_group_name_H-M   'P 1'
_cell_length_a   7.85428127
_cell_length_b   8.21582708
_cell_length_c   5.16421065
_cell_angle_alpha   88.52853666
_cell_angle_beta   100.81349868
_cell_angle_gamma   112.18638390
_symmetry_Int_Tables_number   1
_chemical_formula_structural   Li2Cu5(PO4)4
_chemical_formula_sum   'Li2 Cu5 P4 O16'
_cell_volume   302.71703914
_cell_formula_units_Z   1
loop_
 _symmetry_equiv_pos_site_id
 _symmetry_equiv_pos_as_xyz
  1  'x, y, z'
loop_
 _atom_site_type_symbol
 _atom_site_label
 _atom_site_symmetry_multiplicity
 _atom_site_fract_x
 _atom_site_fract_y
 _atom_site_fract_z
 _atom_site_occupancy
  Li  Li0  1  0.055201  0.295591  0.597223  1
  Li  Li1  1  0.944799  0.704409  0.402777  1
  Cu  Cu2  1  0.251402  0.781945  0.107075  1
  Cu  Cu3  1  0.000000  0.000000  0.000000  1
  Cu  Cu4  1  0.407571  0.670696  0.641962  1
  Cu  Cu5  1  0.592429  0.329304  0.358038  1
  Cu  Cu6  1  0.748598  0.218055  0.892925  1
  P  P7  1  0.209424  0.423544  0.121415  1
  P  P8  1  0.300081  0.030573  0.631231  1
  P  P9  1  0.699919  0.969427  0.368769  1
  P  P10  1  0.790576  0.576456  0.878585  1
  O  O11  1  0.210952  0.965340  0.342032  1
  O  O12  1  0.331590  0.873555  0.780953  1
  O  O13  1  0.020023  0.255223  0.079425  1
  O  O14  1  0.237945  0.496326  0.846736  1
  O  O15  1  0.171711  0.555946  0.298150  1
  O  O16  1  0.175435  0.100700  0.754459  1
  O  O17  1  0.501522  0.818201  0.348101  1
  O  O18  1  0.364047  0.374479  0.276423  1
  O  O19  1  0.635953  0.625521  0.723577  1
  O  O20  1  0.498478  0.181799  0.651899  1
  O  O21  1  0.824565  0.899300  0.245541  1
  O  O22  1  0.828289  0.444054  0.701850  1
  O  O23  1  0.762055  0.503674  0.153264  1
  O  O24  1  0.979977  0.744777  0.920575  1
  O  O25  1  0.668410  0.126445  0.219047  1
  O  O26  1  0.789048  0.034660  0.657968  1
