# generated using pymatgen
data_Mn3O5F
_symmetry_space_group_name_H-M   'P 1'
_cell_length_a   4.56448210
_cell_length_b   7.52851118
_cell_length_c   5.46589653
_cell_angle_alpha   93.94518125
_cell_angle_beta   91.95567707
_cell_angle_gamma   88.73389987
_symmetry_Int_Tables_number   1
_chemical_formula_structural   Mn3O5F
_chemical_formula_sum   'Mn6 O10 F2'
_cell_volume   187.23775291
_cell_formula_units_Z   2
loop_
 _symmetry_equiv_pos_site_id
 _symmetry_equiv_pos_as_xyz
  1  'x, y, z'
loop_
 _atom_site_type_symbol
 _atom_site_label
 _atom_site_symmetry_multiplicity
 _atom_site_fract_x
 _atom_site_fract_y
 _atom_site_fract_z
 _atom_site_occupancy
  Mn  Mn0  1  0.494830  0.998219  0.504015  1
  Mn  Mn1  1  0.514313  0.671038  0.157100  1
  Mn  Mn2  1  0.515636  0.339725  0.823537  1
  Mn  Mn3  1  0.996816  0.671532  0.673641  1
  Mn  Mn4  1  0.977626  0.323381  0.346440  1
  Mn  Mn5  1  0.995353  0.994467  0.999789  1
  O  O6  1  0.804228  0.438820  0.633722  1
  O  O7  1  0.808356  0.769368  0.961223  1
  O  O8  1  0.802572  0.098004  0.295150  1
  O  O9  1  0.694487  0.103635  0.796286  1
  O  O10  1  0.694051  0.768026  0.463541  1
  O  O11  1  0.698181  0.434741  0.128278  1
  O  O12  1  0.304896  0.564462  0.871080  1
  O  O13  1  0.306797  0.233073  0.534239  1
  O  O14  1  0.305779  0.897608  0.203631  1
  O  O15  1  0.192791  0.898132  0.706413  1
  F  F16  1  0.192850  0.561851  0.369082  1
  F  F17  1  0.200439  0.233921  0.032834  1
