# generated using pymatgen
data_Li5SbS
_symmetry_space_group_name_H-M   'P 1'
_cell_length_a   8.50776053
_cell_length_b   8.02491860
_cell_length_c   11.82629809
_cell_angle_alpha   90.00006913
_cell_angle_beta   138.09088483
_cell_angle_gamma   90.00604349
_symmetry_Int_Tables_number   1
_chemical_formula_structural   Li5SbS
_chemical_formula_sum   'Li20 Sb4 S4'
_cell_volume   539.32342844
_cell_formula_units_Z   4
loop_
 _symmetry_equiv_pos_site_id
 _symmetry_equiv_pos_as_xyz
  1  'x, y, z'
loop_
 _atom_site_type_symbol
 _atom_site_label
 _atom_site_symmetry_multiplicity
 _atom_site_fract_x
 _atom_site_fract_y
 _atom_site_fract_z
 _atom_site_occupancy
  Li  Li0  1  0.024714  0.240532  0.599081  1
  Li  Li1  1  0.979755  0.752170  0.002277  1
  Li  Li2  1  0.785221  0.749675  0.518621  1
  Li  Li3  1  0.677856  0.404084  0.660931  1
  Li  Li4  1  0.888958  0.424621  0.154690  1
  Li  Li5  1  0.887515  0.068497  0.154149  1
  Li  Li6  1  0.675996  0.089317  0.662400  1
  Li  Li7  1  0.542866  0.417951  0.255283  1
  Li  Li8  1  0.533771  0.072443  0.249896  1
  Li  Li9  1  0.546521  0.745892  0.013492  1
  Li  Li10  1  0.324009  0.589282  0.337580  1
  Li  Li11  1  0.453464  0.245859  0.986504  1
  Li  Li12  1  0.466254  0.572427  0.750110  1
  Li  Li13  1  0.457105  0.917926  0.744713  1
  Li  Li14  1  0.322151  0.904048  0.339095  1
  Li  Li15  1  0.214789  0.249524  0.481382  1
  Li  Li16  1  0.112514  0.568310  0.845869  1
  Li  Li17  1  0.111019  0.924431  0.845292  1
  Li  Li18  1  0.975291  0.740216  0.400919  1
  Li  Li19  1  0.020246  0.251922  0.997725  1
  Sb  Sb20  1  0.653881  0.746511  0.664516  1
  Sb  Sb21  1  0.438539  0.744843  0.175863  1
  Sb  Sb22  1  0.346111  0.246497  0.335478  1
  Sb  Sb23  1  0.561451  0.244863  0.824135  1
  S  S24  1  0.051782  0.246628  0.817148  1
  S  S25  1  0.805836  0.243252  0.291486  1
  S  S26  1  0.194157  0.743032  0.708500  1
  S  S27  1  0.948228  0.746723  0.182866  1
