# generated using pymatgen
data_Li2NbCo3O8
_symmetry_space_group_name_H-M   'P 1'
_cell_length_a   8.23202634
_cell_length_b   8.23168443
_cell_length_c   8.23215717
_cell_angle_alpha   90.00633802
_cell_angle_beta   90.00094631
_cell_angle_gamma   90.00172514
_symmetry_Int_Tables_number   1
_chemical_formula_structural   Li2NbCo3O8
_chemical_formula_sum   'Li8 Nb4 Co12 O32'
_cell_volume   557.83931034
_cell_formula_units_Z   4
loop_
 _symmetry_equiv_pos_site_id
 _symmetry_equiv_pos_as_xyz
  1  'x, y, z'
loop_
 _atom_site_type_symbol
 _atom_site_label
 _atom_site_symmetry_multiplicity
 _atom_site_fract_x
 _atom_site_fract_y
 _atom_site_fract_z
 _atom_site_occupancy
  Li  Li0  1  0.992338  0.992361  0.992424  1
  Li  Li1  1  0.257715  0.257622  0.257608  1
  Li  Li2  1  0.242326  0.742356  0.757731  1
  Li  Li3  1  0.507708  0.007619  0.492321  1
  Li  Li4  1  0.492418  0.507629  0.007667  1
  Li  Li5  1  0.757671  0.242300  0.742408  1
  Li  Li6  1  0.742316  0.757681  0.242323  1
  Li  Li7  1  0.007621  0.492395  0.507634  1
  Nb  Nb8  1  0.124936  0.875069  0.375047  1
  Nb  Nb9  1  0.375001  0.124988  0.875005  1
  Nb  Nb10  1  0.624905  0.624925  0.624994  1
  Nb  Nb11  1  0.875032  0.375062  0.125014  1
  Co  Co12  1  0.122240  0.127751  0.624984  1
  Co  Co13  1  0.124990  0.377726  0.872293  1
  Co  Co14  1  0.127758  0.625012  0.122274  1
  Co  Co15  1  0.372260  0.374986  0.622245  1
  Co  Co16  1  0.375020  0.622277  0.372192  1
  Co  Co17  1  0.377790  0.872299  0.124998  1
  Co  Co18  1  0.622264  0.372193  0.374959  1
  Co  Co19  1  0.625009  0.122286  0.127715  1
  Co  Co20  1  0.627789  0.875044  0.877796  1
  Co  Co21  1  0.872188  0.124973  0.377674  1
  Co  Co22  1  0.874972  0.877736  0.627770  1
  Co  Co23  1  0.877718  0.627768  0.875046  1
  O  O24  1  0.112004  0.119989  0.387926  1
  O  O25  1  0.112029  0.887940  0.619947  1
  O  O26  1  0.108733  0.608739  0.891279  1
  O  O27  1  0.130068  0.137917  0.862018  1
  O  O28  1  0.119940  0.387927  0.112084  1
  O  O29  1  0.141250  0.358760  0.641274  1
  O  O30  1  0.138010  0.630104  0.362001  1
  O  O31  1  0.137988  0.862006  0.130093  1
  O  O32  1  0.362083  0.137988  0.630058  1
  O  O33  1  0.361994  0.369947  0.862073  1
  O  O34  1  0.358774  0.641267  0.141206  1
  O  O35  1  0.380021  0.612032  0.612032  1
  O  O36  1  0.369892  0.862099  0.361937  1
  O  O37  1  0.391278  0.391244  0.391232  1
  O  O38  1  0.388033  0.112103  0.119912  1
  O  O39  1  0.387998  0.880076  0.887990  1
  O  O40  1  0.612078  0.380000  0.612003  1
  O  O41  1  0.612073  0.612029  0.380057  1
  O  O42  1  0.608798  0.891271  0.108787  1
  O  O43  1  0.630074  0.362038  0.137981  1
  O  O44  1  0.619938  0.112077  0.887989  1
  O  O45  1  0.641207  0.141191  0.358721  1
  O  O46  1  0.638010  0.869899  0.638001  1
  O  O47  1  0.637963  0.638022  0.869933  1
  O  O48  1  0.862034  0.361959  0.369933  1
  O  O49  1  0.861962  0.130083  0.137899  1
  O  O50  1  0.858770  0.858786  0.858785  1
  O  O51  1  0.880025  0.887974  0.387907  1
  O  O52  1  0.869870  0.637954  0.638084  1
  O  O53  1  0.891234  0.108760  0.608697  1
  O  O54  1  0.887970  0.387928  0.880091  1
  O  O55  1  0.887916  0.619972  0.112088  1
