# generated using pymatgen
data_Li4V3Co3(WO8)2
_symmetry_space_group_name_H-M   'P 1'
_cell_length_a   5.97448099
_cell_length_b   6.01711460
_cell_length_c   9.77378169
_cell_angle_alpha   89.99061920
_cell_angle_beta   89.56300198
_cell_angle_gamma   120.22794961
_symmetry_Int_Tables_number   1
_chemical_formula_structural   Li4V3Co3(WO8)2
_chemical_formula_sum   'Li4 V3 Co3 W2 O16'
_cell_volume   303.57240170
_cell_formula_units_Z   1
loop_
 _symmetry_equiv_pos_site_id
 _symmetry_equiv_pos_as_xyz
  1  'x, y, z'
loop_
 _atom_site_type_symbol
 _atom_site_label
 _atom_site_symmetry_multiplicity
 _atom_site_fract_x
 _atom_site_fract_y
 _atom_site_fract_z
 _atom_site_occupancy
  Li  Li0  1  0.335228  0.667948  0.904730  1
  Li  Li1  1  0.994800  0.997728  0.988201  1
  Li  Li2  1  0.996120  0.997861  0.486022  1
  Li  Li3  1  0.673434  0.336557  0.405426  1
  V  V4  1  0.647361  0.823788  0.225027  1
  V  V5  1  0.820137  0.655358  0.717702  1
  V  V6  1  0.820179  0.164594  0.717816  1
  Co  Co7  1  0.172389  0.830373  0.211283  1
  Co  Co8  1  0.172382  0.342180  0.211245  1
  Co  Co9  1  0.342591  0.171376  0.711380  1
  W  W10  1  0.321595  0.660627  0.490013  1
  W  W11  1  0.665297  0.332873  0.989910  1
  O  O12  1  0.165589  0.823360  0.586007  1
  O  O13  1  0.047558  0.523693  0.352965  1
  O  O14  1  0.368062  0.684145  0.108842  1
  O  O15  1  0.980304  0.990232  0.296047  1
  O  O16  1  0.997614  0.998672  0.799470  1
  O  O17  1  0.165658  0.341674  0.585966  1
  O  O18  1  0.496508  0.961558  0.352850  1
  O  O19  1  0.496757  0.535047  0.352815  1
  O  O20  1  0.339282  0.169882  0.082402  1
  O  O21  1  0.645393  0.822622  0.592406  1
  O  O22  1  0.528783  0.487576  0.850871  1
  O  O23  1  0.528531  0.041457  0.850827  1
  O  O24  1  0.681670  0.340719  0.607023  1
  O  O25  1  0.818751  0.649314  0.089478  1
  O  O26  1  0.959525  0.479611  0.851588  1
  O  O27  1  0.818504  0.169473  0.089528  1
