# generated using pymatgen
data_Na5CuHO4
_symmetry_space_group_name_H-M   'P 1'
_cell_length_a   9.99159872
_cell_length_b   9.94330061
_cell_length_c   12.13696216
_cell_angle_alpha   90.00000000
_cell_angle_beta   90.00000000
_cell_angle_gamma   90.00000000
_symmetry_Int_Tables_number   1
_chemical_formula_structural   Na5CuHO4
_chemical_formula_sum   'Na40 Cu8 H8 O32'
_cell_volume   1205.80075373
_cell_formula_units_Z   8
loop_
 _symmetry_equiv_pos_site_id
 _symmetry_equiv_pos_as_xyz
  1  'x, y, z'
loop_
 _atom_site_type_symbol
 _atom_site_label
 _atom_site_symmetry_multiplicity
 _atom_site_fract_x
 _atom_site_fract_y
 _atom_site_fract_z
 _atom_site_occupancy
  Na  Na0  1  0.976753  0.590831  0.208566  1
  Na  Na1  1  0.976753  0.909169  0.208566  1
  Na  Na2  1  0.072327  0.070302  0.415263  1
  Na  Na3  1  0.072327  0.429698  0.415263  1
  Na  Na4  1  0.083024  0.750000  0.449995  1
  Na  Na5  1  0.117347  0.250000  0.985083  1
  Na  Na6  1  0.129441  0.568762  0.990999  1
  Na  Na7  1  0.129441  0.931238  0.990999  1
  Na  Na8  1  0.219117  0.575882  0.679707  1
  Na  Na9  1  0.219117  0.924118  0.679707  1
  Na  Na10  1  0.280883  0.075882  0.179707  1
  Na  Na11  1  0.280883  0.424118  0.179707  1
  Na  Na12  1  0.370559  0.068762  0.490999  1
  Na  Na13  1  0.370559  0.431238  0.490999  1
  Na  Na14  1  0.382653  0.750000  0.485083  1
  Na  Na15  1  0.416976  0.250000  0.949995  1
  Na  Na16  1  0.427673  0.570302  0.915263  1
  Na  Na17  1  0.427673  0.929698  0.915263  1
  Na  Na18  1  0.523247  0.090831  0.708566  1
  Na  Na19  1  0.523247  0.409169  0.708566  1
  Na  Na20  1  0.476753  0.590831  0.291434  1
  Na  Na21  1  0.476753  0.909169  0.291434  1
  Na  Na22  1  0.572327  0.070302  0.084737  1
  Na  Na23  1  0.572327  0.429698  0.084737  1
  Na  Na24  1  0.583024  0.750000  0.050005  1
  Na  Na25  1  0.617347  0.250000  0.514917  1
  Na  Na26  1  0.629441  0.568762  0.509001  1
  Na  Na27  1  0.629441  0.931238  0.509001  1
  Na  Na28  1  0.719117  0.575882  0.820293  1
  Na  Na29  1  0.719117  0.924118  0.820293  1
  Na  Na30  1  0.780883  0.075882  0.320293  1
  Na  Na31  1  0.780883  0.424118  0.320293  1
  Na  Na32  1  0.870559  0.068762  0.009001  1
  Na  Na33  1  0.870559  0.431238  0.009001  1
  Na  Na34  1  0.882653  0.750000  0.014917  1
  Na  Na35  1  0.916976  0.250000  0.550005  1
  Na  Na36  1  0.927673  0.929698  0.584737  1
  Na  Na37  1  0.927673  0.570302  0.584737  1
  Na  Na38  1  0.023247  0.090831  0.791434  1
  Na  Na39  1  0.023247  0.409169  0.791434  1
  Cu  Cu40  1  0.011888  0.250000  0.210503  1
  Cu  Cu41  1  0.207528  0.250000  0.618345  1
  Cu  Cu42  1  0.292472  0.750000  0.118345  1
  Cu  Cu43  1  0.488112  0.750000  0.710503  1
  Cu  Cu44  1  0.511888  0.250000  0.289497  1
  Cu  Cu45  1  0.707528  0.250000  0.881655  1
  Cu  Cu46  1  0.792472  0.750000  0.381655  1
  Cu  Cu47  1  0.988112  0.750000  0.789497  1
  H  H48  1  0.210289  0.617467  0.314805  1
  H  H49  1  0.210289  0.882533  0.314805  1
  H  H50  1  0.289711  0.117467  0.814805  1
  H  H51  1  0.289711  0.382533  0.814805  1
  H  H52  1  0.710289  0.617467  0.185195  1
  H  H53  1  0.710289  0.882533  0.185195  1
  H  H54  1  0.789711  0.117467  0.685195  1
  H  H55  1  0.789711  0.382533  0.685195  1
  O  O56  1  0.062290  0.750000  0.647860  1
  O  O57  1  0.061872  0.401211  0.121833  1
  O  O58  1  0.061872  0.098789  0.121833  1
  O  O59  1  0.087300  0.399232  0.607039  1
  O  O60  1  0.087300  0.100768  0.607039  1
  O  O61  1  0.105045  0.750000  0.116918  1
  O  O62  1  0.244542  0.072588  0.875491  1
  O  O63  1  0.244542  0.427412  0.875491  1
  O  O64  1  0.255458  0.572588  0.375491  1
  O  O65  1  0.255458  0.927412  0.375491  1
  O  O66  1  0.394955  0.250000  0.616918  1
  O  O67  1  0.412700  0.600768  0.107039  1
  O  O68  1  0.412700  0.899232  0.107039  1
  O  O69  1  0.438128  0.598789  0.621833  1
  O  O70  1  0.438128  0.901211  0.621833  1
  O  O71  1  0.437710  0.250000  0.147860  1
  O  O72  1  0.562290  0.750000  0.852140  1
  O  O73  1  0.561872  0.098789  0.378167  1
  O  O74  1  0.561872  0.401211  0.378167  1
  O  O75  1  0.587300  0.100768  0.892961  1
  O  O76  1  0.587300  0.399232  0.892961  1
  O  O77  1  0.605045  0.750000  0.383082  1
  O  O78  1  0.744542  0.072588  0.624509  1
  O  O79  1  0.744542  0.427412  0.624509  1
  O  O80  1  0.755458  0.572588  0.124509  1
  O  O81  1  0.755458  0.927412  0.124509  1
  O  O82  1  0.894955  0.250000  0.883082  1
  O  O83  1  0.912700  0.899232  0.392961  1
  O  O84  1  0.912700  0.600768  0.392961  1
  O  O85  1  0.938128  0.901211  0.878167  1
  O  O86  1  0.938128  0.598789  0.878167  1
  O  O87  1  0.937710  0.250000  0.352140  1
