# generated using pymatgen
data_Ca3Y9Al18CrSiO48
_symmetry_space_group_name_H-M   'P 1'
_cell_length_a   10.49719240
_cell_length_b   10.53780318
_cell_length_c   10.49948465
_cell_angle_alpha   109.46757851
_cell_angle_beta   109.54480700
_cell_angle_gamma   109.46409028
_symmetry_Int_Tables_number   1
_chemical_formula_structural   Ca3Y9Al18CrSiO48
_chemical_formula_sum   'Ca3 Y9 Al18 Cr1 Si1 O48'
_cell_volume   893.37130656
_cell_formula_units_Z   1
loop_
 _symmetry_equiv_pos_site_id
 _symmetry_equiv_pos_as_xyz
  1  'x, y, z'
loop_
 _atom_site_type_symbol
 _atom_site_label
 _atom_site_symmetry_multiplicity
 _atom_site_fract_x
 _atom_site_fract_y
 _atom_site_fract_z
 _atom_site_occupancy
  Ca  Ca0  1  0.875684  0.756562  0.628801  1
  Ca  Ca1  1  0.749397  0.121755  0.374068  1
  Ca  Ca2  1  0.872386  0.626704  0.244843  1
  Y  Y3  1  0.250006  0.880321  0.623829  1
  Y  Y4  1  0.126009  0.372168  0.751983  1
  Y  Y5  1  0.123032  0.242606  0.372348  1
  Y  Y6  1  0.627041  0.878078  0.753389  1
  Y  Y7  1  0.376747  0.752336  0.124172  1
  Y  Y8  1  0.245837  0.371354  0.124503  1
  Y  Y9  1  0.754910  0.628122  0.877742  1
  Y  Y10  1  0.626264  0.252527  0.877475  1
  Y  Y11  1  0.377014  0.124170  0.251140  1
  Al  Al12  1  0.122978  0.749420  0.877260  1
  Al  Al13  1  0.124159  0.873569  0.250510  1
  Al  Al14  1  0.999676  0.501083  0.000680  1
  Al  Al15  1  0.249984  0.126151  0.874854  1
  Al  Al16  1  0.378427  0.627765  0.753329  1
  Al  Al17  1  0.254536  0.625546  0.375754  1
  Al  Al18  1  0.999276  0.997762  0.998419  1
  Al  Al19  1  0.375505  0.249952  0.625054  1
  Al  Al20  1  0.499026  0.497543  0.498768  1
  Al  Al21  1  0.500399  0.001269  0.502316  1
  Al  Al22  1  0.504657  0.500713  0.999571  1
  Al  Al23  1  0.743952  0.372417  0.622487  1
  Al  Al24  1  0.749000  0.875684  0.126103  1
  Al  Al25  1  0.619179  0.370459  0.243009  1
  Al  Al26  1  0.500397  0.999851  0.001356  1
  Al  Al27  1  0.875263  0.124850  0.750283  1
  Al  Al28  1  0.875775  0.250131  0.121248  1
  Al  Al29  1  0.999323  0.001196  0.499447  1
  Cr  Cr30  1  0.995978  0.500667  0.499043  1
  Si  Si31  1  0.624911  0.750122  0.376444  1
  O  O32  1  0.100673  0.983075  0.678508  1
  O  O33  1  0.119573  0.597621  0.918149  1
  O  O34  1  0.020579  0.320985  0.901795  1
  O  O35  1  0.084843  0.695551  0.679494  1
  O  O36  1  0.083168  0.883916  0.404618  1
  O  O37  1  0.103380  0.615983  0.425092  1
  O  O38  1  0.179114  0.481299  0.599490  1
  O  O39  1  0.418114  0.820195  0.800430  1
  O  O40  1  0.303501  0.324421  0.924315  1
  O  O41  1  0.380621  0.578726  0.901284  1
  O  O42  1  0.020737  0.199180  0.120455  1
  O  O43  1  0.322175  0.918341  0.300937  1
  O  O44  1  0.181399  0.202871  0.583230  1
  O  O45  1  0.200983  0.580800  0.180084  1
  O  O46  1  0.399191  0.821443  0.519722  1
  O  O47  1  0.318714  0.900429  0.018939  1
  O  O48  1  0.300428  0.479102  0.381717  1
  O  O49  1  0.120469  0.019834  0.200047  1
  O  O50  1  0.519413  0.620243  0.696541  1
  O  O51  1  0.400316  0.079900  0.880193  1
  O  O52  1  0.520095  0.400650  0.819627  1
  O  O53  1  0.379557  0.299214  0.478986  1
  O  O54  1  0.580433  0.888656  0.385139  1
  O  O55  1  0.199111  0.119091  0.019538  1
  O  O56  1  0.800971  0.882402  0.981137  1
  O  O57  1  0.419578  0.099427  0.619557  1
  O  O58  1  0.610174  0.699412  0.506761  1
  O  O59  1  0.492379  0.607338  0.192635  1
  O  O60  1  0.593672  0.914131  0.115106  1
  O  O61  1  0.480568  0.382210  0.301031  1
  O  O62  1  0.880403  0.983952  0.805415  1
  O  O63  1  0.693977  0.516243  0.615709  1
  O  O64  1  0.680041  0.098374  0.981064  1
  O  O65  1  0.597263  0.176944  0.480357  1
  O  O66  1  0.800830  0.418324  0.818952  1
  O  O67  1  0.806085  0.802331  0.413935  1
  O  O68  1  0.678819  0.079916  0.698624  1
  O  O69  1  0.981085  0.800885  0.883466  1
  O  O70  1  0.615571  0.417213  0.096445  1
  O  O71  1  0.694098  0.679110  0.074639  1
  O  O72  1  0.577202  0.178759  0.194467  1
  O  O73  1  0.819954  0.508877  0.400660  1
  O  O74  1  0.904538  0.390501  0.584740  1
  O  O75  1  0.924002  0.120205  0.603058  1
  O  O76  1  0.924561  0.309421  0.321724  1
  O  O77  1  0.982291  0.680512  0.095405  1
  O  O78  1  0.882719  0.398632  0.077273  1
  O  O79  1  0.905902  0.020505  0.319278  1
