# generated using pymatgen
data_Li2Mn3(BO3)3
_symmetry_space_group_name_H-M   'P 1'
_cell_length_a   8.25125115
_cell_length_b   8.25149025
_cell_length_c   9.46723059
_cell_angle_alpha   89.95178604
_cell_angle_beta   89.98463458
_cell_angle_gamma   60.00286250
_symmetry_Int_Tables_number   1
_chemical_formula_structural   Li2Mn3(BO3)3
_chemical_formula_sum   'Li6 Mn9 B9 O27'
_cell_volume   558.23639845
_cell_formula_units_Z   3
loop_
 _symmetry_equiv_pos_site_id
 _symmetry_equiv_pos_as_xyz
  1  'x, y, z'
loop_
 _atom_site_type_symbol
 _atom_site_label
 _atom_site_symmetry_multiplicity
 _atom_site_fract_x
 _atom_site_fract_y
 _atom_site_fract_z
 _atom_site_occupancy
  Li  Li0  1  0.010090  0.287503  0.834059  1
  Li  Li1  1  0.026212  0.267802  0.166069  1
  Li  Li2  1  0.268027  0.705678  0.498883  1
  Li  Li3  1  0.287205  0.702895  0.167276  1
  Li  Li4  1  0.705564  0.026687  0.832452  1
  Li  Li5  1  0.702883  0.009722  0.500459  1
  Mn  Mn6  1  0.635121  0.370788  0.002180  1
  Mn  Mn7  1  0.620226  0.396082  0.668395  1
  Mn  Mn8  1  0.657569  0.346166  0.336819  1
  Mn  Mn9  1  0.346378  0.995545  0.670390  1
  Mn  Mn10  1  0.370401  0.994598  0.335736  1
  Mn  Mn11  1  0.396310  0.983811  0.001949  1
  Mn  Mn12  1  0.983696  0.619689  0.335315  1
  Mn  Mn13  1  0.994609  0.634926  0.668943  1
  Mn  Mn14  1  0.995775  0.658174  0.003726  1
  B  B15  1  0.017901  0.005716  0.994170  1
  B  B16  1  0.328035  0.333594  0.165618  1
  B  B17  1  0.338388  0.328269  0.832462  1
  B  B18  1  0.005255  0.976360  0.327414  1
  B  B19  1  0.333405  0.338191  0.499123  1
  B  B20  1  0.976713  0.017840  0.660803  1
  B  B21  1  0.657839  0.663777  0.504494  1
  B  B22  1  0.678245  0.657763  0.171309  1
  B  B23  1  0.664269  0.678487  0.837853  1
  O  O24  1  0.066674  0.117850  0.681026  1
  O  O25  1  0.097207  0.075839  0.307364  1
  O  O26  1  0.108812  0.111788  0.995511  1
  O  O27  1  0.133759  0.443805  0.176107  1
  O  O28  1  0.147372  0.440634  0.835769  1
  O  O29  1  0.141238  0.457176  0.487498  1
  O  O30  1  0.400936  0.141525  0.153816  1
  O  O31  1  0.421929  0.133979  0.842364  1
  O  O32  1  0.412594  0.147074  0.502277  1
  O  O33  1  0.076136  0.826630  0.639989  1
  O  O34  1  0.118053  0.815592  0.013848  1
  O  O35  1  0.111346  0.779379  0.328556  1
  O  O36  1  0.439980  0.412743  0.168326  1
  O  O37  1  0.457950  0.400746  0.820491  1
  O  O38  1  0.443692  0.422244  0.508848  1
  O  O39  1  0.779687  0.108794  0.661713  1
  O  O40  1  0.815064  0.066400  0.346688  1
  O  O41  1  0.826607  0.097486  0.973582  1
  O  O42  1  0.466382  0.784010  0.506619  1
  O  O43  1  0.486387  0.780241  0.155115  1
  O  O44  1  0.472196  0.795346  0.852378  1
  O  O45  1  0.732865  0.471647  0.518425  1
  O  O46  1  0.749413  0.466310  0.173200  1
  O  O47  1  0.733757  0.486710  0.821348  1
  O  O48  1  0.780146  0.733353  0.488197  1
  O  O49  1  0.795417  0.732651  0.185422  1
  O  O50  1  0.784347  0.749921  0.839625  1
