# generated using pymatgen
data_TiSb3(PO4)6
_symmetry_space_group_name_H-M   'P 1'
_cell_length_a   8.95649645
_cell_length_b   8.95649596
_cell_length_c   8.95649628
_cell_angle_alpha   58.25223898
_cell_angle_beta   58.25223632
_cell_angle_gamma   58.25224183
_symmetry_Int_Tables_number   1
_chemical_formula_structural   TiSb3(PO4)6
_chemical_formula_sum   'Ti1 Sb3 P6 O24'
_cell_volume   487.70152499
_cell_formula_units_Z   1
loop_
 _symmetry_equiv_pos_site_id
 _symmetry_equiv_pos_as_xyz
  1  'x, y, z'
loop_
 _atom_site_type_symbol
 _atom_site_label
 _atom_site_symmetry_multiplicity
 _atom_site_fract_x
 _atom_site_fract_y
 _atom_site_fract_z
 _atom_site_occupancy
  Ti  Ti0  1  0.859243  0.859243  0.859243  1
  Sb  Sb1  1  0.142927  0.142927  0.142927  1
  Sb  Sb2  1  0.357266  0.357266  0.357266  1
  Sb  Sb3  1  0.644364  0.644364  0.644364  1
  P  P4  1  0.038053  0.750015  0.466116  1
  P  P5  1  0.466116  0.038053  0.750015  1
  P  P6  1  0.750015  0.466116  0.038053  1
  P  P7  1  0.248352  0.540117  0.961393  1
  P  P8  1  0.540117  0.961393  0.248352  1
  P  P9  1  0.961393  0.248352  0.540117  1
  O  O10  1  0.133391  0.274666  0.514695  1
  O  O11  1  0.274666  0.514695  0.133391  1
  O  O12  1  0.063600  0.918862  0.281903  1
  O  O13  1  0.514695  0.133391  0.274666  1
  O  O14  1  0.219071  0.575313  0.442592  1
  O  O15  1  0.002280  0.780993  0.635200  1
  O  O16  1  0.281903  0.063600  0.918862  1
  O  O17  1  0.442592  0.219071  0.575313  1
  O  O18  1  0.575313  0.442592  0.219071  1
  O  O19  1  0.227683  0.367004  0.985933  1
  O  O20  1  0.075502  0.714166  0.936498  1
  O  O21  1  0.367004  0.985933  0.227683  1
  O  O22  1  0.635200  0.002280  0.780993  1
  O  O23  1  0.918862  0.281903  0.063600  1
  O  O24  1  0.780993  0.635200  0.002280  1
  O  O25  1  0.422138  0.560802  0.783108  1
  O  O26  1  0.560802  0.783108  0.422138  1
  O  O27  1  0.714166  0.936498  0.075502  1
  O  O28  1  0.985933  0.227683  0.367004  1
  O  O29  1  0.783108  0.422138  0.560802  1
  O  O30  1  0.481494  0.872663  0.722598  1
  O  O31  1  0.936498  0.075502  0.714166  1
  O  O32  1  0.722598  0.481494  0.872663  1
  O  O33  1  0.872663  0.722598  0.481494  1
