# generated using pymatgen
data_LiFeCo3O8
_symmetry_space_group_name_H-M   'P 1'
_cell_length_a   5.76781212
_cell_length_b   5.76781247
_cell_length_c   5.89353248
_cell_angle_alpha   119.29682594
_cell_angle_beta   90.00000000
_cell_angle_gamma   60.00000204
_symmetry_Int_Tables_number   1
_chemical_formula_structural   LiFeCo3O8
_chemical_formula_sum   'Li1 Fe1 Co3 O8'
_cell_volume   140.09349322
_cell_formula_units_Z   1
loop_
 _symmetry_equiv_pos_site_id
 _symmetry_equiv_pos_as_xyz
  1  'x, y, z'
loop_
 _atom_site_type_symbol
 _atom_site_label
 _atom_site_symmetry_multiplicity
 _atom_site_fract_x
 _atom_site_fract_y
 _atom_site_fract_z
 _atom_site_occupancy
  Li  Li0  1  0.500000  0.000000  0.500000  1
  Fe  Fe1  1  0.000000  0.000000  0.000000  1
  Co  Co2  1  0.000000  0.500000  0.000000  1
  Co  Co3  1  0.500000  0.000000  0.000000  1
  Co  Co4  1  0.500000  0.500000  0.000000  1
  O  O5  1  0.244132  0.042196  0.798064  1
  O  O6  1  0.267913  0.464173  0.196260  1
  O  O7  1  0.244132  0.511735  0.798064  1
  O  O8  1  0.713671  0.042196  0.798064  1
  O  O9  1  0.286329  0.957804  0.201936  1
  O  O10  1  0.755868  0.488265  0.201936  1
  O  O11  1  0.732087  0.535827  0.803740  1
  O  O12  1  0.755868  0.957804  0.201936  1
