# generated using pymatgen
data_LuBO3
_symmetry_space_group_name_H-M   'P 1'
_cell_length_a   4.60034750
_cell_length_b   4.60046283
_cell_length_c   7.96624790
_cell_angle_alpha   90.01613355
_cell_angle_beta   89.98579233
_cell_angle_gamma   135.72867239
_symmetry_Int_Tables_number   1
_chemical_formula_structural   LuBO3
_chemical_formula_sum   'Lu2 B2 O6'
_cell_volume   117.68927256
_cell_formula_units_Z   2
loop_
 _symmetry_equiv_pos_site_id
 _symmetry_equiv_pos_as_xyz
  1  'x, y, z'
loop_
 _atom_site_type_symbol
 _atom_site_label
 _atom_site_symmetry_multiplicity
 _atom_site_fract_x
 _atom_site_fract_y
 _atom_site_fract_z
 _atom_site_occupancy
  Lu  Lu0  1  0.000235  0.999855  0.000010  1
  Lu  Lu1  1  0.000071  0.999953  0.499996  1
  B  B2  1  0.281983  0.718009  0.250813  1
  B  B3  1  0.718002  0.281989  0.749168  1
  O  O4  1  0.121030  0.878987  0.250175  1
  O  O5  1  0.365028  0.634889  0.099993  1
  O  O6  1  0.364529  0.635543  0.401736  1
  O  O7  1  0.635371  0.364689  0.598336  1
  O  O8  1  0.634825  0.365117  0.899949  1
  O  O9  1  0.878928  0.121070  0.749825  1
