# generated using pymatgen
data_Li3SiSnBO7
_symmetry_space_group_name_H-M   'P 1'
_cell_length_a   8.54479950
_cell_length_b   6.57489001
_cell_length_c   5.13879536
_cell_angle_alpha   90.00000000
_cell_angle_beta   84.56417446
_cell_angle_gamma   90.00000000
_symmetry_Int_Tables_number   1
_chemical_formula_structural   Li3SiSnBO7
_chemical_formula_sum   'Li6 Si2 Sn2 B2 O14'
_cell_volume   287.40494279
_cell_formula_units_Z   2
loop_
 _symmetry_equiv_pos_site_id
 _symmetry_equiv_pos_as_xyz
  1  'x, y, z'
loop_
 _atom_site_type_symbol
 _atom_site_label
 _atom_site_symmetry_multiplicity
 _atom_site_fract_x
 _atom_site_fract_y
 _atom_site_fract_z
 _atom_site_occupancy
  Li  Li0  1  0.093061  0.250000  0.749362  1
  Li  Li1  1  0.236889  0.008269  0.252571  1
  Li  Li2  1  0.236889  0.491731  0.252571  1
  Li  Li3  1  0.763111  0.508269  0.747429  1
  Li  Li4  1  0.763111  0.991731  0.747429  1
  Li  Li5  1  0.906939  0.750000  0.250638  1
  Si  Si6  1  0.419751  0.250000  0.731267  1
  Si  Si7  1  0.580249  0.750000  0.268733  1
  Sn  Sn8  1  0.327332  0.750000  0.790589  1
  Sn  Sn9  1  0.672668  0.250000  0.209411  1
  B  B10  1  0.034898  0.750000  0.711296  1
  B  B11  1  0.965102  0.250000  0.288704  1
  O  O12  1  0.114033  0.250000  0.358328  1
  O  O13  1  0.081353  0.750000  0.966047  1
  O  O14  1  0.164332  0.750000  0.514377  1
  O  O15  1  0.304774  0.060280  0.832786  1
  O  O16  1  0.304774  0.439720  0.832786  1
  O  O17  1  0.453364  0.250000  0.408541  1
  O  O18  1  0.407221  0.750000  0.155458  1
  O  O19  1  0.592779  0.250000  0.844542  1
  O  O20  1  0.546636  0.750000  0.591459  1
  O  O21  1  0.695226  0.560280  0.167214  1
  O  O22  1  0.695226  0.939720  0.167214  1
  O  O23  1  0.835668  0.250000  0.485623  1
  O  O24  1  0.918647  0.250000  0.033953  1
  O  O25  1  0.885967  0.750000  0.641672  1
