# generated using pymatgen
data_Li7V3P8O29
_symmetry_space_group_name_H-M   'P 1'
_cell_length_a   9.83233395
_cell_length_b   9.84751338
_cell_length_c   13.89786372
_cell_angle_alpha   90.71932309
_cell_angle_beta   90.74519477
_cell_angle_gamma   60.29706260
_symmetry_Int_Tables_number   1
_chemical_formula_structural   Li7V3P8O29
_chemical_formula_sum   'Li14 V6 P16 O58'
_cell_volume   1168.70970603
_cell_formula_units_Z   2
loop_
 _symmetry_equiv_pos_site_id
 _symmetry_equiv_pos_as_xyz
  1  'x, y, z'
loop_
 _atom_site_type_symbol
 _atom_site_label
 _atom_site_symmetry_multiplicity
 _atom_site_fract_x
 _atom_site_fract_y
 _atom_site_fract_z
 _atom_site_occupancy
  Li  Li0  1  0.905716  0.325908  0.565384  1
  Li  Li1  1  0.666476  0.680793  0.385090  1
  Li  Li2  1  0.675224  0.670418  0.885191  1
  Li  Li3  1  0.765987  0.321833  0.062621  1
  Li  Li4  1  0.325630  0.908637  0.064759  1
  Li  Li5  1  0.671204  0.236124  0.439599  1
  Li  Li6  1  0.328642  0.764404  0.564283  1
  Li  Li7  1  0.656567  0.103348  0.935820  1
  Li  Li8  1  0.234768  0.665693  0.936451  1
  Li  Li9  1  0.330662  0.328908  0.614796  1
  Li  Li10  1  0.093487  0.673964  0.435927  1
  Li  Li11  1  0.102516  0.232629  0.939194  1
  Li  Li12  1  0.978632  0.962582  0.002638  1
  Li  Li13  1  0.998588  0.994675  0.507706  1
  V  V14  1  0.563346  0.435185  0.247680  1
  V  V15  1  0.434131  0.565253  0.751810  1
  V  V16  1  0.567234  0.996621  0.744749  1
  V  V17  1  0.435377  0.005319  0.253822  1
  V  V18  1  0.997425  0.565242  0.246619  1
  V  V19  1  0.002277  0.435836  0.750929  1
  P  P20  1  0.912520  0.780794  0.838232  1
  P  P21  1  0.783088  0.915313  0.339010  1
  P  P22  1  0.907925  0.317416  0.345410  1
  P  P23  1  0.663922  0.666405  0.128494  1
  P  P24  1  0.664282  0.664886  0.625850  1
  P  P25  1  0.772772  0.319862  0.844336  1
  P  P26  1  0.680755  0.225778  0.657494  1
  P  P27  1  0.318671  0.912776  0.847654  1
  P  P28  1  0.687088  0.083625  0.152359  1
  P  P29  1  0.319347  0.776162  0.342987  1
  P  P30  1  0.224707  0.687477  0.158259  1
  P  P31  1  0.331314  0.337361  0.371749  1
  P  P32  1  0.339103  0.327183  0.873876  1
  P  P33  1  0.089411  0.683821  0.650849  1
  P  P34  1  0.221098  0.084369  0.658452  1
  P  P35  1  0.085332  0.225432  0.160450  1
  O  O36  1  0.012012  0.766705  0.558684  1
  O  O37  1  0.922278  0.746903  0.340633  1
  O  O38  1  0.769953  0.013944  0.059736  1
  O  O39  1  0.746169  0.924209  0.840930  1
  O  O40  1  0.898378  0.631173  0.835636  1
  O  O41  1  0.811732  0.665586  0.175427  1
  O  O42  1  0.895321  0.479638  0.332848  1
  O  O43  1  0.996690  0.225496  0.070860  1
  O  O44  1  0.922966  0.330949  0.846671  1
  O  O45  1  0.662115  0.812547  0.674628  1
  O  O46  1  0.630805  0.902179  0.330842  1
  O  O47  1  0.812288  0.517058  0.663115  1
  O  O48  1  0.664050  0.668972  0.021156  1
  O  O49  1  0.663042  0.673094  0.517692  1
  O  O50  1  0.672602  0.511052  0.163854  1
  O  O51  1  0.482723  0.895135  0.833307  1
  O  O52  1  0.514184  0.811521  0.170155  1
  O  O53  1  0.737664  0.342904  0.337959  1
  O  O54  1  0.785635  0.216084  0.750368  1
  O  O55  1  0.770604  0.227879  0.569460  1
  O  O56  1  0.762710  0.233641  0.931633  1
  O  O57  1  0.631339  0.484745  0.832659  1
  O  O58  1  0.514483  0.667791  0.661828  1
  O  O59  1  0.661864  0.252323  0.162378  1
  O  O60  1  0.481624  0.627616  0.328686  1
  O  O61  1  0.345098  0.917007  0.341671  1
  O  O62  1  0.802202  0.986847  0.239391  1
  O  O63  1  0.789349  0.013813  0.419689  1
  O  O64  1  0.211206  0.986536  0.577876  1
  O  O65  1  0.663988  0.079921  0.658373  1
  O  O66  1  0.517226  0.371537  0.666691  1
  O  O67  1  0.332783  0.750695  0.847225  1
  O  O68  1  0.480368  0.336966  0.334215  1
  O  O69  1  0.383070  0.533318  0.171941  1
  O  O70  1  0.223127  0.774539  0.068900  1
  O  O71  1  0.233604  0.769630  0.430426  1
  O  O72  1  0.210148  0.794022  0.250452  1
  O  O73  1  0.251536  0.670146  0.660650  1
  O  O74  1  0.484904  0.181481  0.823776  1
  O  O75  1  0.533579  0.081272  0.166671  1
  O  O76  1  0.333565  0.479419  0.838847  1
  O  O77  1  0.357118  0.309204  0.980892  1
  O  O78  1  0.332884  0.336599  0.479122  1
  O  O79  1  0.180474  0.485619  0.332785  1
  O  O80  1  0.372874  0.096993  0.664098  1
  O  O81  1  0.333340  0.189551  0.325155  1
  O  O82  1  0.088936  0.655366  0.160855  1
  O  O83  1  0.985537  0.793463  0.738398  1
  O  O84  1  0.011994  0.789650  0.918804  1
  O  O85  1  0.109054  0.519399  0.664158  1
  O  O86  1  0.190199  0.324957  0.835905  1
  O  O87  1  0.093367  0.376905  0.172203  1
  O  O88  1  0.249791  0.079919  0.162823  1
  O  O89  1  0.237635  0.002637  0.938425  1
  O  O90  1  0.209012  0.008939  0.758799  1
  O  O91  1  0.079619  0.250734  0.657337  1
  O  O92  1  0.983125  0.233295  0.436288  1
  O  O93  1  0.996360  0.209809  0.253424  1
