# generated using pymatgen
data_Sn2N2O
_symmetry_space_group_name_H-M   'P 1'
_cell_length_a   8.87375853
_cell_length_b   8.84696655
_cell_length_c   8.86224408
_cell_angle_alpha   109.38207058
_cell_angle_beta   109.52913384
_cell_angle_gamma   109.59468055
_symmetry_Int_Tables_number   1
_chemical_formula_structural   Sn2N2O
_chemical_formula_sum   'Sn16 N16 O8'
_cell_volume   534.96744135
_cell_formula_units_Z   8
loop_
 _symmetry_equiv_pos_site_id
 _symmetry_equiv_pos_as_xyz
  1  'x, y, z'
loop_
 _atom_site_type_symbol
 _atom_site_label
 _atom_site_symmetry_multiplicity
 _atom_site_fract_x
 _atom_site_fract_y
 _atom_site_fract_z
 _atom_site_occupancy
  Sn  Sn0  1  0.499452  0.999358  0.989738  1
  Sn  Sn1  1  0.744176  0.281671  0.533161  1
  Sn  Sn2  1  0.714958  0.469975  0.236782  1
  Sn  Sn3  1  0.227532  0.962043  0.256831  1
  Sn  Sn4  1  0.245131  0.216446  0.954686  1
  Sn  Sn5  1  0.007027  0.504078  0.002231  1
  Sn  Sn6  1  0.973824  0.256471  0.212210  1
  Sn  Sn7  1  0.497753  0.502252  0.507061  1
  Sn  Sn8  1  0.005561  0.992400  0.503467  1
  Sn  Sn9  1  0.535275  0.754291  0.290451  1
  Sn  Sn10  1  0.459056  0.250355  0.715338  1
  Sn  Sn11  1  0.035076  0.747451  0.782996  1
  Sn  Sn12  1  0.753382  0.782851  0.032419  1
  Sn  Sn13  1  0.790954  0.024686  0.761420  1
  Sn  Sn14  1  0.270992  0.524613  0.734757  1
  Sn  Sn15  1  0.250680  0.714877  0.466307  1
  N  N16  1  0.735522  0.998715  0.973308  1
  N  N17  1  0.502580  0.236465  0.964911  1
  N  N18  1  0.470349  0.233273  0.461045  1
  N  N19  1  0.761999  0.735104  0.263211  1
  N  N20  1  0.045620  0.272020  0.000359  1
  N  N21  1  0.233909  0.959133  0.504054  1
  N  N22  1  0.967436  0.742355  0.002297  1
  N  N23  1  0.225983  0.453353  0.454738  1
  N  N24  1  0.549362  0.774145  0.546731  1
  N  N25  1  0.996659  0.949455  0.730204  1
  N  N26  1  0.543728  0.542605  0.779601  1
  N  N27  1  0.953973  0.500031  0.227821  1
  N  N28  1  0.219017  0.269509  0.726120  1
  N  N29  1  0.278775  0.730907  0.228623  1
  N  N30  1  0.017631  0.486121  0.752601  1
  N  N31  1  0.267089  0.770090  0.732372  1
  O  O32  1  0.768306  0.045816  0.496122  1
  O  O33  1  0.286030  0.014094  0.055887  1
  O  O34  1  0.725726  0.223270  0.275916  1
  O  O35  1  0.452574  0.458120  0.227273  1
  O  O36  1  0.767298  0.543732  0.517755  1
  O  O37  1  0.718665  0.249110  0.770297  1
  O  O38  1  0.488255  0.775037  0.045526  1
  O  O39  1  0.012685  0.053722  0.283369  1
