# generated using pymatgen
data_BaNaFe4P6H3O25
_symmetry_space_group_name_H-M   'P 1'
_cell_length_a   9.42900652
_cell_length_b   22.91314004
_cell_length_c   9.14172682
_cell_angle_alpha   90.00000000
_cell_angle_beta   91.89775149
_cell_angle_gamma   90.00000000
_symmetry_Int_Tables_number   1
_chemical_formula_structural   BaNaFe4P6H3O25
_chemical_formula_sum   'Ba4 Na4 Fe16 P24 H12 O100'
_cell_volume   1973.96985329
_cell_formula_units_Z   4
loop_
 _symmetry_equiv_pos_site_id
 _symmetry_equiv_pos_as_xyz
  1  'x, y, z'
loop_
 _atom_site_type_symbol
 _atom_site_label
 _atom_site_symmetry_multiplicity
 _atom_site_fract_x
 _atom_site_fract_y
 _atom_site_fract_z
 _atom_site_occupancy
  Ba  Ba0  1  0.342145  0.082490  0.963413  1
  Ba  Ba1  1  0.657855  0.582490  0.536587  1
  Ba  Ba2  1  0.657855  0.917510  0.036587  1
  Ba  Ba3  1  0.342145  0.417510  0.463413  1
  Na  Na4  1  0.285544  0.511362  0.881314  1
  Na  Na5  1  0.714456  0.011362  0.618686  1
  Na  Na6  1  0.714456  0.488638  0.118686  1
  Na  Na7  1  0.285544  0.988638  0.381314  1
  Fe  Fe8  1  0.082769  0.210890  0.718112  1
  Fe  Fe9  1  0.917231  0.710890  0.781888  1
  Fe  Fe10  1  0.917231  0.789110  0.281888  1
  Fe  Fe11  1  0.082769  0.289110  0.218112  1
  Fe  Fe12  1  0.834341  0.124337  0.459836  1
  Fe  Fe13  1  0.165659  0.624337  0.040164  1
  Fe  Fe14  1  0.165659  0.875663  0.540164  1
  Fe  Fe15  1  0.834341  0.375663  0.959836  1
  Fe  Fe16  1  0.336580  0.375926  0.966981  1
  Fe  Fe17  1  0.663420  0.875926  0.533019  1
  Fe  Fe18  1  0.663420  0.624074  0.033019  1
  Fe  Fe19  1  0.336580  0.124074  0.466981  1
  Fe  Fe20  1  0.582002  0.208475  0.206338  1
  Fe  Fe21  1  0.417998  0.708475  0.293662  1
  Fe  Fe22  1  0.417998  0.791525  0.793662  1
  Fe  Fe23  1  0.582002  0.291525  0.706338  1
  P  P24  1  0.832121  0.251880  0.961141  1
  P  P25  1  0.167879  0.751880  0.538859  1
  P  P26  1  0.167879  0.748120  0.038859  1
  P  P27  1  0.832121  0.248120  0.461141  1
  P  P28  1  0.332575  0.254454  0.962806  1
  P  P29  1  0.667425  0.754454  0.537194  1
  P  P30  1  0.667425  0.745546  0.037194  1
  P  P31  1  0.332575  0.245546  0.462806  1
  P  P32  1  0.088367  0.358741  0.710139  1
  P  P33  1  0.911633  0.858741  0.789861  1
  P  P34  1  0.911633  0.641259  0.289861  1
  P  P35  1  0.088367  0.141259  0.210139  1
  P  P36  1  0.084485  0.069026  0.651022  1
  P  P37  1  0.915515  0.569026  0.848978  1
  P  P38  1  0.915515  0.930974  0.348978  1
  P  P39  1  0.084485  0.430974  0.151022  1
  P  P40  1  0.583308  0.143301  0.713039  1
  P  P41  1  0.416692  0.643301  0.786961  1
  P  P42  1  0.416692  0.856699  0.286961  1
  P  P43  1  0.583308  0.356699  0.213039  1
  P  P44  1  0.576173  0.434653  0.770651  1
  P  P45  1  0.423827  0.934653  0.729349  1
  P  P46  1  0.423827  0.565347  0.229349  1
  P  P47  1  0.576173  0.065347  0.270651  1
  H  H48  1  0.168851  0.983007  0.722872  1
  H  H49  1  0.831149  0.483007  0.777128  1
  H  H50  1  0.831149  0.016993  0.277128  1
  H  H51  1  0.168851  0.516993  0.222872  1
  H  H52  1  0.669077  0.146653  0.937897  1
  H  H53  1  0.330923  0.646653  0.562103  1
  H  H54  1  0.330923  0.853347  0.062103  1
  H  H55  1  0.669077  0.353347  0.437897  1
  H  H56  1  0.999258  0.132271  0.984761  1
  H  H57  1  0.000742  0.632271  0.515239  1
  H  H58  1  0.000742  0.867729  0.015239  1
  H  H59  1  0.999258  0.367729  0.484761  1
  O  O60  1  0.916898  0.202554  0.561347  1
  O  O61  1  0.083102  0.702554  0.938653  1
  O  O62  1  0.083102  0.797446  0.438653  1
  O  O63  1  0.916898  0.297446  0.061347  1
  O  O64  1  0.251287  0.214664  0.854836  1
  O  O65  1  0.748713  0.714664  0.645164  1
  O  O66  1  0.748713  0.785336  0.145164  1
  O  O67  1  0.251287  0.285336  0.354836  1
  O  O68  1  0.230668  0.200449  0.537945  1
  O  O69  1  0.769332  0.700449  0.962055  1
  O  O70  1  0.769332  0.799551  0.462055  1
  O  O71  1  0.230668  0.299551  0.037945  1
  O  O72  1  0.932600  0.213797  0.873240  1
  O  O73  1  0.067400  0.713797  0.626760  1
  O  O74  1  0.067400  0.786203  0.126760  1
  O  O75  1  0.932600  0.286203  0.373240  1
  O  O76  1  0.083026  0.293345  0.680495  1
  O  O77  1  0.916974  0.793345  0.819505  1
  O  O78  1  0.916974  0.706655  0.319505  1
  O  O79  1  0.083026  0.206655  0.180495  1
  O  O80  1  0.096606  0.125023  0.743824  1
  O  O81  1  0.903394  0.625023  0.756176  1
  O  O82  1  0.903394  0.874977  0.256176  1
  O  O83  1  0.096606  0.374977  0.243824  1
  O  O84  1  0.688777  0.117187  0.608542  1
  O  O85  1  0.311223  0.617187  0.891458  1
  O  O86  1  0.311223  0.882813  0.391458  1
  O  O87  1  0.688777  0.382813  0.108542  1
  O  O88  1  0.975943  0.121443  0.313713  1
  O  O89  1  0.024057  0.621443  0.186287  1
  O  O90  1  0.024057  0.878557  0.686287  1
  O  O91  1  0.975943  0.378557  0.813713  1
  O  O92  1  0.936128  0.063087  0.578523  1
  O  O93  1  0.063872  0.563087  0.921477  1
  O  O94  1  0.063872  0.936913  0.421477  1
  O  O95  1  0.936128  0.436913  0.078523  1
  O  O96  1  0.744776  0.201497  0.365705  1
  O  O97  1  0.255224  0.701497  0.134295  1
  O  O98  1  0.255224  0.798503  0.634295  1
  O  O99  1  0.744776  0.298503  0.865705  1
  O  O100  1  0.728340  0.438695  0.844527  1
  O  O101  1  0.271660  0.938695  0.655473  1
  O  O102  1  0.271660  0.561305  0.155473  1
  O  O103  1  0.728340  0.061305  0.344527  1
  O  O104  1  0.733186  0.210466  0.043969  1
  O  O105  1  0.266814  0.710466  0.456031  1
  O  O106  1  0.266814  0.789534  0.956031  1
  O  O107  1  0.733186  0.289534  0.543969  1
  O  O108  1  0.436484  0.200631  0.389276  1
  O  O109  1  0.563516  0.700631  0.110724  1
  O  O110  1  0.563516  0.799369  0.610724  1
  O  O111  1  0.436484  0.299369  0.889276  1
  O  O112  1  0.413800  0.213434  0.068613  1
  O  O113  1  0.586200  0.713434  0.431387  1
  O  O114  1  0.586200  0.786566  0.931387  1
  O  O115  1  0.413800  0.286566  0.568613  1
  O  O116  1  0.236820  0.118969  0.257850  1
  O  O117  1  0.763180  0.618969  0.242150  1
  O  O118  1  0.763180  0.881031  0.742150  1
  O  O119  1  0.236820  0.381031  0.757850  1
  O  O120  1  0.432374  0.122106  0.674271  1
  O  O121  1  0.567626  0.622106  0.825729  1
  O  O122  1  0.567626  0.877894  0.325729  1
  O  O123  1  0.432374  0.377894  0.174271  1
  O  O124  1  0.467759  0.435207  0.896425  1
  O  O125  1  0.532241  0.935207  0.603575  1
  O  O126  1  0.532241  0.564793  0.103575  1
  O  O127  1  0.467759  0.064793  0.396425  1
  O  O128  1  0.200633  0.066349  0.535373  1
  O  O129  1  0.799367  0.566349  0.964627  1
  O  O130  1  0.799367  0.933651  0.464627  1
  O  O131  1  0.200633  0.433651  0.035373  1
  O  O132  1  0.060858  0.109913  0.053844  1
  O  O133  1  0.939142  0.609913  0.446156  1
  O  O134  1  0.939142  0.890087  0.946156  1
  O  O135  1  0.060858  0.390087  0.553844  1
  O  O136  1  0.112717  0.017513  0.763632  1
  O  O137  1  0.887283  0.517513  0.736368  1
  O  O138  1  0.887283  0.982487  0.236368  1
  O  O139  1  0.112717  0.482487  0.263632  1
  O  O140  1  0.563711  0.124038  0.185891  1
  O  O141  1  0.436289  0.624038  0.314109  1
  O  O142  1  0.436289  0.875962  0.814109  1
  O  O143  1  0.563711  0.375962  0.685891  1
  O  O144  1  0.596200  0.209098  0.729918  1
  O  O145  1  0.403800  0.709098  0.770082  1
  O  O146  1  0.403800  0.790902  0.270082  1
  O  O147  1  0.596200  0.290902  0.229918  1
  O  O148  1  0.617940  0.117341  0.874196  1
  O  O149  1  0.382060  0.617341  0.625804  1
  O  O150  1  0.382060  0.882659  0.125804  1
  O  O151  1  0.617940  0.382659  0.374196  1
  O  O152  1  0.454287  0.984958  0.834661  1
  O  O153  1  0.545713  0.484958  0.665339  1
  O  O154  1  0.545713  0.015042  0.165339  1
  O  O155  1  0.454287  0.515042  0.334661  1
  O  O156  1  0.210439  0.990683  0.119461  1
  O  O157  1  0.789561  0.490683  0.380539  1
  O  O158  1  0.789561  0.009317  0.880539  1
  O  O159  1  0.210439  0.509317  0.619461  1
