# generated using pymatgen
data_SiH14(O2F3)2
_symmetry_space_group_name_H-M   'P 1'
_cell_length_a   5.75596884
_cell_length_b   13.33617821
_cell_length_c   6.13651121
_cell_angle_alpha   90.00000000
_cell_angle_beta   108.56180823
_cell_angle_gamma   90.00000000
_symmetry_Int_Tables_number   1
_chemical_formula_structural   SiH14(O2F3)2
_chemical_formula_sum   'Si2 H28 O8 F12'
_cell_volume   446.55083088
_cell_formula_units_Z   2
loop_
 _symmetry_equiv_pos_site_id
 _symmetry_equiv_pos_as_xyz
  1  'x, y, z'
loop_
 _atom_site_type_symbol
 _atom_site_label
 _atom_site_symmetry_multiplicity
 _atom_site_fract_x
 _atom_site_fract_y
 _atom_site_fract_z
 _atom_site_occupancy
  Si  Si0  1  0.000000  0.500000  0.500000  1
  Si  Si1  1  0.000000  0.000000  0.000000  1
  H  H2  1  0.572719  0.141661  0.420355  1
  H  H3  1  0.427281  0.641661  0.079645  1
  H  H4  1  0.427281  0.858339  0.579645  1
  H  H5  1  0.572719  0.358339  0.920355  1
  H  H6  1  0.693521  0.136499  0.222317  1
  H  H7  1  0.306479  0.636499  0.277683  1
  H  H8  1  0.306479  0.863501  0.777683  1
  H  H9  1  0.693521  0.363501  0.722317  1
  H  H10  1  0.874159  0.208051  0.486336  1
  H  H11  1  0.125841  0.708051  0.013664  1
  H  H12  1  0.125841  0.791949  0.513664  1
  H  H13  1  0.874159  0.291949  0.986336  1
  H  H14  1  0.115278  0.300757  0.583498  1
  H  H15  1  0.884722  0.800757  0.916502  1
  H  H16  1  0.884722  0.699243  0.416502  1
  H  H17  1  0.115278  0.199243  0.083498  1
  H  H18  1  0.176210  0.180832  0.646588  1
  H  H19  1  0.823790  0.680832  0.853412  1
  H  H20  1  0.823790  0.819168  0.353412  1
  H  H21  1  0.176210  0.319168  0.146588  1
  H  H22  1  0.334635  0.071029  0.568618  1
  H  H23  1  0.665365  0.571029  0.931382  1
  H  H24  1  0.665365  0.928971  0.431382  1
  H  H25  1  0.334635  0.428971  0.068618  1
  H  H26  1  0.437415  0.086629  0.676273  1
  H  H27  1  0.562585  0.586629  0.823727  1
  H  H28  1  0.562585  0.913371  0.323727  1
  H  H29  1  0.437415  0.413371  0.176273  1
  O  O30  1  0.664924  0.181351  0.342616  1
  O  O31  1  0.335076  0.681351  0.157384  1
  O  O32  1  0.335076  0.818649  0.657384  1
  O  O33  1  0.664924  0.318649  0.842616  1
  O  O34  1  0.052074  0.233045  0.621837  1
  O  O35  1  0.947926  0.733045  0.878163  1
  O  O36  1  0.947926  0.766955  0.378163  1
  O  O37  1  0.052074  0.266955  0.121837  1
  F  F38  1  0.208424  0.400473  0.554334  1
  F  F39  1  0.791576  0.900473  0.945666  1
  F  F40  1  0.791576  0.599527  0.445666  1
  F  F41  1  0.208424  0.099527  0.054334  1
  F  F42  1  0.226667  0.579333  0.471084  1
  F  F43  1  0.773333  0.079333  0.028916  1
  F  F44  1  0.773333  0.420667  0.528916  1
  F  F45  1  0.226667  0.920667  0.971084  1
  F  F46  1  0.084382  0.526725  0.783570  1
  F  F47  1  0.915618  0.026725  0.716430  1
  F  F48  1  0.915618  0.473275  0.216430  1
  F  F49  1  0.084382  0.973275  0.283570  1
