# generated using pymatgen
data_Li3V2S2(O4F3)2
_symmetry_space_group_name_H-M   'P 1'
_cell_length_a   7.15435956
_cell_length_b   10.36942682
_cell_length_c   7.82977622
_cell_angle_alpha   88.37779297
_cell_angle_beta   89.45257973
_cell_angle_gamma   90.72405944
_symmetry_Int_Tables_number   1
_chemical_formula_structural   Li3V2S2(O4F3)2
_chemical_formula_sum   'Li6 V4 S4 O16 F12'
_cell_volume   580.55682718
_cell_formula_units_Z   2
loop_
 _symmetry_equiv_pos_site_id
 _symmetry_equiv_pos_as_xyz
  1  'x, y, z'
loop_
 _atom_site_type_symbol
 _atom_site_label
 _atom_site_symmetry_multiplicity
 _atom_site_fract_x
 _atom_site_fract_y
 _atom_site_fract_z
 _atom_site_occupancy
  Li  Li0  1  0.279614  0.290394  0.884510  1
  Li  Li1  1  0.250135  0.783497  0.393180  1
  Li  Li2  1  0.705571  0.227116  0.579877  1
  Li  Li3  1  0.712038  0.250700  0.082334  1
  Li  Li4  1  0.782784  0.748373  0.574123  1
  Li  Li5  1  0.775978  0.732113  0.078849  1
  V  V6  1  0.998229  0.493838  0.507702  1
  V  V7  1  0.999637  0.998373  0.999006  1
  V  V8  1  0.499471  0.497479  0.499624  1
  V  V9  1  0.499674  0.993673  0.007753  1
  S  S10  1  0.276043  0.010971  0.668950  1
  S  S11  1  0.233517  0.509250  0.168797  1
  S  S12  1  0.741895  0.501463  0.843047  1
  S  S13  1  0.750727  0.000654  0.342749  1
  O  O14  1  0.114901  0.059784  0.785668  1
  O  O15  1  0.093714  0.438170  0.284904  1
  O  O16  1  0.195584  0.922265  0.547985  1
  O  O17  1  0.150009  0.620381  0.085940  1
  O  O18  1  0.369717  0.124551  0.597004  1
  O  O19  1  0.319868  0.415935  0.057888  1
  O  O20  1  0.405720  0.936262  0.786685  1
  O  O21  1  0.388431  0.562433  0.289422  1
  O  O22  1  0.595469  0.438714  0.726260  1
  O  O23  1  0.610252  0.066969  0.225900  1
  O  O24  1  0.656405  0.601660  0.943255  1
  O  O25  1  0.666043  0.894188  0.442994  1
  O  O26  1  0.821810  0.396383  0.944567  1
  O  O27  1  0.836952  0.099893  0.444893  1
  O  O28  1  0.885390  0.567600  0.724927  1
  O  O29  1  0.896638  0.938964  0.225048  1
  F  F30  1  0.970519  0.830636  0.936055  1
  F  F31  1  0.034067  0.680108  0.454692  1
  F  F32  1  0.258593  0.473343  0.607470  1
  F  F33  1  0.236870  0.980697  0.107509  1
  F  F34  1  0.479033  0.180064  0.952366  1
  F  F35  1  0.532412  0.332529  0.428836  1
  F  F36  1  0.520956  0.666601  0.569495  1
  F  F37  1  0.549946  0.826176  0.095508  1
  F  F38  1  0.755598  0.017603  0.896286  1
  F  F39  1  0.746326  0.525428  0.396698  1
  F  F40  1  0.935964  0.326389  0.593064  1
  F  F41  1  0.973555  0.166708  0.065956  1
