# generated using pymatgen
data_Li4CrSb(WO6)2
_symmetry_space_group_name_H-M   'P 1'
_cell_length_a   5.43705669
_cell_length_b   10.87275326
_cell_length_c   9.56292701
_cell_angle_alpha   28.41016279
_cell_angle_beta   51.52249643
_cell_angle_gamma   56.84553696
_symmetry_Int_Tables_number   1
_chemical_formula_structural   Li4CrSb(WO6)2
_chemical_formula_sum   'Li4 Cr1 Sb1 W2 O12'
_cell_volume   210.56217616
_cell_formula_units_Z   1
loop_
 _symmetry_equiv_pos_site_id
 _symmetry_equiv_pos_as_xyz
  1  'x, y, z'
loop_
 _atom_site_type_symbol
 _atom_site_label
 _atom_site_symmetry_multiplicity
 _atom_site_fract_x
 _atom_site_fract_y
 _atom_site_fract_z
 _atom_site_occupancy
  Li  Li0  1  0.313112  0.002857  0.263535  1
  Li  Li1  1  0.256817  0.496431  0.309914  1
  Li  Li2  1  0.768705  0.996419  0.802486  1
  Li  Li3  1  0.774702  0.504004  0.739646  1
  Cr  Cr4  1  0.003215  0.000940  0.997891  1
  Sb  Sb5  1  0.999494  0.499183  0.003217  1
  W  W6  1  0.504755  0.997382  0.502707  1
  W  W7  1  0.497321  0.501933  0.499893  1
  O  O8  1  0.380527  0.305905  0.121195  1
  O  O9  1  0.253853  0.116745  0.622147  1
  O  O10  1  0.144692  0.316523  0.731388  1
  O  O11  1  0.877039  0.186200  0.243682  1
  O  O12  1  0.367227  0.794836  0.143285  1
  O  O13  1  0.740902  0.369183  0.379507  1
  O  O14  1  0.236131  0.626803  0.625054  1
  O  O15  1  0.635379  0.198247  0.851080  1
  O  O16  1  0.120789  0.820833  0.740554  1
  O  O17  1  0.852599  0.694816  0.245749  1
  O  O18  1  0.726860  0.887066  0.370442  1
  O  O19  1  0.617084  0.683693  0.877831  1
