# generated using pymatgen
data_Na3Ni2P2(CO7)2
_symmetry_space_group_name_H-M   'P 1'
_cell_length_a   10.22929662
_cell_length_b   10.50188359
_cell_length_c   6.50215576
_cell_angle_alpha   90.00000000
_cell_angle_beta   90.00000000
_cell_angle_gamma   59.58384789
_symmetry_Int_Tables_number   1
_chemical_formula_structural   Na3Ni2P2(CO7)2
_chemical_formula_sum   'Na6 Ni4 P4 C4 O28'
_cell_volume   602.37158157
_cell_formula_units_Z   2
loop_
 _symmetry_equiv_pos_site_id
 _symmetry_equiv_pos_as_xyz
  1  'x, y, z'
loop_
 _atom_site_type_symbol
 _atom_site_label
 _atom_site_symmetry_multiplicity
 _atom_site_fract_x
 _atom_site_fract_y
 _atom_site_fract_z
 _atom_site_occupancy
  Na  Na0  1  0.005941  0.242566  0.462658  1
  Na  Na1  1  0.496707  0.257789  0.987758  1
  Na  Na2  1  0.499994  0.251689  0.515300  1
  Na  Na3  1  0.500006  0.748311  0.015300  1
  Na  Na4  1  0.503293  0.742211  0.487758  1
  Na  Na5  1  0.994059  0.757434  0.962658  1
  Ni  Ni6  1  0.277258  0.067873  0.756044  1
  Ni  Ni7  1  0.213887  0.435065  0.255081  1
  Ni  Ni8  1  0.786113  0.564935  0.755081  1
  Ni  Ni9  1  0.722742  0.932127  0.256044  1
  P  P10  1  0.357423  0.067742  0.252214  1
  P  P11  1  0.145790  0.423692  0.753382  1
  P  P12  1  0.854210  0.576308  0.253382  1
  P  P13  1  0.642577  0.932258  0.752214  1
  C  C14  1  0.817366  0.104411  0.244946  1
  C  C15  1  0.317760  0.600792  0.250195  1
  C  C16  1  0.682240  0.399208  0.750195  1
  C  C17  1  0.182634  0.895589  0.744946  1
  O  O18  1  0.095082  0.037706  0.742828  1
  O  O19  1  0.278238  0.046502  0.064420  1
  O  O20  1  0.268843  0.058456  0.439026  1
  O  O21  1  0.138608  0.280705  0.745592  1
  O  O22  1  0.019633  0.443210  0.259847  1
  O  O23  1  0.474613  0.064578  0.759573  1
  O  O24  1  0.359877  0.213807  0.249631  1
  O  O25  1  0.234612  0.432683  0.940696  1
  O  O26  1  0.235381  0.432901  0.566908  1
  O  O27  1  0.672340  0.146399  0.248041  1
  O  O28  1  0.173723  0.646386  0.244483  1
  O  O29  1  0.401570  0.456673  0.255611  1
  O  O30  1  0.627892  0.315123  0.750144  1
  O  O31  1  0.137114  0.805236  0.745776  1
  O  O32  1  0.862886  0.194764  0.245776  1
  O  O33  1  0.372108  0.684877  0.250144  1
  O  O34  1  0.598430  0.543327  0.755611  1
  O  O35  1  0.826277  0.353614  0.744483  1
  O  O36  1  0.327660  0.853601  0.748041  1
  O  O37  1  0.764619  0.567099  0.066908  1
  O  O38  1  0.765388  0.567317  0.440696  1
  O  O39  1  0.640123  0.786193  0.749631  1
  O  O40  1  0.525387  0.935422  0.259573  1
  O  O41  1  0.980367  0.556790  0.759847  1
  O  O42  1  0.861392  0.719295  0.245592  1
  O  O43  1  0.721762  0.953498  0.564420  1
  O  O44  1  0.731157  0.941544  0.939026  1
  O  O45  1  0.904918  0.962294  0.242828  1
