# generated using pymatgen
data_Li2SnP2O7
_symmetry_space_group_name_H-M   'P 1'
_cell_length_a   10.44555781
_cell_length_b   10.27695806
_cell_length_c   12.03035320
_cell_angle_alpha   90.03584906
_cell_angle_beta   104.86523124
_cell_angle_gamma   89.87018342
_symmetry_Int_Tables_number   1
_chemical_formula_structural   Li2SnP2O7
_chemical_formula_sum   'Li16 Sn8 P16 O56'
_cell_volume   1248.21584979
_cell_formula_units_Z   8
loop_
 _symmetry_equiv_pos_site_id
 _symmetry_equiv_pos_as_xyz
  1  'x, y, z'
loop_
 _atom_site_type_symbol
 _atom_site_label
 _atom_site_symmetry_multiplicity
 _atom_site_fract_x
 _atom_site_fract_y
 _atom_site_fract_z
 _atom_site_occupancy
  Li  Li0  1  0.088083  0.730010  0.423071  1
  Li  Li1  1  0.178214  0.418002  0.563944  1
  Li  Li2  1  0.069542  0.111011  0.026163  1
  Li  Li3  1  0.358393  0.903220  0.961233  1
  Li  Li4  1  0.140392  0.402278  0.039311  1
  Li  Li5  1  0.430107  0.611427  0.973456  1
  Li  Li6  1  0.321860  0.918061  0.436298  1
  Li  Li7  1  0.412870  0.230521  0.576840  1
  Li  Li8  1  0.587130  0.769479  0.423160  1
  Li  Li9  1  0.678140  0.081939  0.563702  1
  Li  Li10  1  0.569893  0.388573  0.026544  1
  Li  Li11  1  0.859608  0.597722  0.960689  1
  Li  Li12  1  0.641607  0.096780  0.038767  1
  Li  Li13  1  0.930458  0.888989  0.973837  1
  Li  Li14  1  0.821786  0.581998  0.436056  1
  Li  Li15  1  0.911917  0.269990  0.576929  1
  Sn  Sn16  1  0.203611  0.901086  0.670095  1
  Sn  Sn17  1  0.256567  0.224059  0.830048  1
  Sn  Sn18  1  0.243204  0.723925  0.169799  1
  Sn  Sn19  1  0.296667  0.400665  0.329836  1
  Sn  Sn20  1  0.703333  0.599335  0.670164  1
  Sn  Sn21  1  0.756796  0.276075  0.830201  1
  Sn  Sn22  1  0.743433  0.775941  0.169952  1
  Sn  Sn23  1  0.796389  0.098914  0.329906  1
  P  P24  1  0.031097  0.466779  0.771034  1
  P  P25  1  0.134334  0.697911  0.905980  1
  P  P26  1  0.052403  0.953166  0.252780  1
  P  P27  1  0.126806  0.146540  0.450113  1
  P  P28  1  0.373012  0.646539  0.549940  1
  P  P29  1  0.447715  0.453057  0.747040  1
  P  P30  1  0.531081  0.034059  0.770545  1
  P  P31  1  0.365957  0.197431  0.094009  1
  P  P32  1  0.634043  0.802569  0.905991  1
  P  P33  1  0.468919  0.965941  0.229455  1
  P  P34  1  0.552285  0.546943  0.252960  1
  P  P35  1  0.626988  0.353461  0.450060  1
  P  P36  1  0.873194  0.853460  0.549887  1
  P  P37  1  0.947597  0.046834  0.747220  1
  P  P38  1  0.865666  0.302089  0.094020  1
  P  P39  1  0.968903  0.533221  0.228966  1
  O  O40  1  0.038101  0.419461  0.652433  1
  O  O41  1  0.999634  0.846039  0.509476  1
  O  O42  1  0.090431  0.083465  0.741567  1
  O  O43  1  0.108711  0.378529  0.869500  1
  O  O44  1  0.101283  0.609865  0.788075  1
  O  O45  1  0.195611  0.822877  0.876166  1
  O  O46  1  0.239787  0.618131  0.997022  1
  O  O47  1  0.992437  0.284006  0.054881  1
  O  O48  1  0.083752  0.096231  0.314902  1
  O  O49  1  0.061535  0.967755  0.129313  1
  O  O50  1  0.110796  0.513655  0.214391  1
  O  O51  1  0.185818  0.282685  0.446283  1
  O  O52  1  0.153677  0.858799  0.325860  1
  O  O53  1  0.235726  0.054016  0.518016  1
  O  O54  1  0.263767  0.554796  0.481983  1
  O  O55  1  0.346825  0.358743  0.674007  1
  O  O56  1  0.314548  0.783233  0.553877  1
  O  O57  1  0.389173  0.015374  0.785278  1
  O  O58  1  0.415678  0.596216  0.685088  1
  O  O59  1  0.438623  0.467581  0.870581  1
  O  O60  1  0.506817  0.784442  0.944655  1
  O  O61  1  0.261519  0.117128  0.002710  1
  O  O62  1  0.303806  0.322056  0.123437  1
  O  O63  1  0.398971  0.109417  0.211987  1
  O  O64  1  0.409390  0.583369  0.258965  1
  O  O65  1  0.391147  0.877542  0.131262  1
  O  O66  1  0.538011  0.080743  0.651898  1
  O  O67  1  0.500537  0.346784  0.490447  1
  O  O68  1  0.499463  0.653216  0.509553  1
  O  O69  1  0.461989  0.919257  0.348102  1
  O  O70  1  0.608853  0.122458  0.868738  1
  O  O71  1  0.590610  0.416631  0.741035  1
  O  O72  1  0.601029  0.890583  0.788013  1
  O  O73  1  0.696194  0.677944  0.876563  1
  O  O74  1  0.738481  0.882872  0.997290  1
  O  O75  1  0.493183  0.215558  0.055345  1
  O  O76  1  0.561377  0.532419  0.129419  1
  O  O77  1  0.584322  0.403784  0.314912  1
  O  O78  1  0.610827  0.984626  0.214722  1
  O  O79  1  0.685452  0.216767  0.446123  1
  O  O80  1  0.653175  0.641257  0.325993  1
  O  O81  1  0.736233  0.445204  0.518017  1
  O  O82  1  0.764274  0.945984  0.481984  1
  O  O83  1  0.846323  0.141201  0.674140  1
  O  O84  1  0.814182  0.717315  0.553717  1
  O  O85  1  0.889204  0.486345  0.785609  1
  O  O86  1  0.938465  0.032245  0.870687  1
  O  O87  1  0.916248  0.903769  0.685098  1
  O  O88  1  0.007563  0.715994  0.945119  1
  O  O89  1  0.760213  0.381869  0.002978  1
  O  O90  1  0.804389  0.177123  0.123834  1
  O  O91  1  0.898717  0.390135  0.211925  1
  O  O92  1  0.891289  0.621471  0.130500  1
  O  O93  1  0.909569  0.916535  0.258433  1
  O  O94  1  0.000366  0.153961  0.490524  1
  O  O95  1  0.961899  0.580539  0.347567  1
