# generated using pymatgen
data_W5O14
_symmetry_space_group_name_H-M   'P 1'
_cell_length_a   3.70585095
_cell_length_b   27.87306569
_cell_length_c   27.87306569
_cell_angle_alpha   90.00000000
_cell_angle_beta   90.00000000
_cell_angle_gamma   90.00000000
_symmetry_Int_Tables_number   1
_chemical_formula_structural   W5O14
_chemical_formula_sum   'W40 O112'
_cell_volume   2879.10447519
_cell_formula_units_Z   8
loop_
 _symmetry_equiv_pos_site_id
 _symmetry_equiv_pos_as_xyz
  1  'x, y, z'
loop_
 _atom_site_type_symbol
 _atom_site_label
 _atom_site_symmetry_multiplicity
 _atom_site_fract_x
 _atom_site_fract_y
 _atom_site_fract_z
 _atom_site_occupancy
  W  W0  1  0.908134  0.174205  0.233153  1
  W  W1  1  0.908134  0.266847  0.325795  1
  W  W2  1  0.056816  0.578022  0.397013  1
  W  W3  1  0.788751  0.566789  0.788383  1
  W  W4  1  0.211249  0.066789  0.711617  1
  W  W5  1  0.943184  0.078022  0.102987  1
  W  W6  1  0.908134  0.733153  0.674205  1
  W  W7  1  0.056816  0.102987  0.921978  1
  W  W8  1  0.548078  0.635456  0.864544  1
  W  W9  1  0.056816  0.897013  0.078022  1
  W  W10  1  0.451922  0.135456  0.635456  1
  W  W11  1  0.738006  0.363088  0.958450  1
  W  W12  1  0.943184  0.602987  0.578022  1
  W  W13  1  0.738006  0.541550  0.136912  1
  W  W14  1  0.788751  0.711617  0.933211  1
  W  W15  1  0.091866  0.766847  0.174205  1
  W  W16  1  0.211249  0.933211  0.288383  1
  W  W17  1  0.211249  0.211617  0.566789  1
  W  W18  1  0.261994  0.136912  0.458450  1
  W  W19  1  0.943184  0.921978  0.897013  1
  W  W20  1  0.738006  0.458450  0.863088  1
  W  W21  1  0.788751  0.288383  0.066789  1
  W  W22  1  0.091866  0.233153  0.825795  1
  W  W23  1  0.818033  0.704174  0.795826  1
  W  W24  1  0.818033  0.295826  0.204174  1
  W  W25  1  0.211249  0.788383  0.433211  1
  W  W26  1  0.091866  0.325795  0.733153  1
  W  W27  1  0.181967  0.795826  0.295826  1
  W  W28  1  0.908134  0.825795  0.766847  1
  W  W29  1  0.943184  0.397013  0.421978  1
  W  W30  1  0.788751  0.433211  0.211617  1
  W  W31  1  0.738006  0.636912  0.041550  1
  W  W32  1  0.056816  0.421978  0.602987  1
  W  W33  1  0.261994  0.041550  0.363088  1
  W  W34  1  0.091866  0.674205  0.266847  1
  W  W35  1  0.261994  0.958450  0.636912  1
  W  W36  1  0.261994  0.863088  0.541550  1
  W  W37  1  0.181967  0.204174  0.704174  1
  W  W38  1  0.451922  0.864544  0.364544  1
  W  W39  1  0.548078  0.364544  0.135456  1
  O  O40  1  0.784008  0.586158  0.729550  1
  O  O41  1  0.266907  0.908110  0.499265  1
  O  O42  1  0.266907  0.091890  0.500735  1
  O  O43  1  0.445942  0.628219  0.576132  1
  O  O44  1  0.023931  0.886973  0.386973  1
  O  O45  1  0.563047  0.638288  0.254898  1
  O  O46  1  0.563047  0.754898  0.138288  1
  O  O47  1  0.060297  0.063555  0.873303  1
  O  O48  1  0.979659  0.639860  0.317772  1
  O  O49  1  0.258801  0.899363  0.600637  1
  O  O50  1  0.939703  0.436445  0.373303  1
  O  O51  1  0.060297  0.626697  0.436445  1
  O  O52  1  0.295555  0.316101  0.183899  1
  O  O53  1  0.687916  0.859501  0.712111  1
  O  O54  1  0.239811  0.651919  0.051979  1
  O  O55  1  0.215992  0.913842  0.229550  1
  O  O56  1  0.330615  0.725136  0.297821  1
  O  O57  1  0.733093  0.500735  0.908110  1
  O  O58  1  0.934866  0.971685  0.933934  1
  O  O59  1  0.330615  0.202179  0.774864  1
  O  O60  1  0.436953  0.138288  0.245102  1
  O  O61  1  0.733093  0.499265  0.091890  1
  O  O62  1  0.979659  0.182228  0.860140  1
  O  O63  1  0.065134  0.933934  0.028315  1
  O  O64  1  0.312084  0.640499  0.212111  1
  O  O65  1  0.312084  0.287889  0.859501  1
  O  O66  1  0.215992  0.270450  0.586158  1
  O  O67  1  0.939703  0.563555  0.626697  1
  O  O68  1  0.248692  0.000894  0.695130  1
  O  O69  1  0.020341  0.317772  0.360140  1
  O  O70  1  0.979659  0.360140  0.682228  1
  O  O71  1  0.065134  0.528315  0.433934  1
  O  O72  1  0.669385  0.702179  0.725136  1
  O  O73  1  0.784008  0.770450  0.913842  1
  O  O74  1  0.733093  0.591890  0.999265  1
  O  O75  1  0.281164  0.307287  0.078080  1
  O  O76  1  0.445942  0.076132  0.128219  1
  O  O77  1  0.445942  0.371781  0.423868  1
  O  O78  1  0.784008  0.413842  0.270450  1
  O  O79  1  0.131547  0.224401  0.275599  1
  O  O80  1  0.131547  0.775599  0.724401  1
  O  O81  1  0.687916  0.140499  0.287889  1
  O  O82  1  0.065134  0.066066  0.971685  1
  O  O83  1  0.554058  0.128219  0.923868  1
  O  O84  1  0.751308  0.500894  0.804870  1
  O  O85  1  0.436953  0.861712  0.754898  1
  O  O86  1  0.060297  0.936445  0.126697  1
  O  O87  1  0.554058  0.871781  0.076132  1
  O  O88  1  0.563047  0.245102  0.861712  1
  O  O89  1  0.718836  0.078080  0.692713  1
  O  O90  1  0.020341  0.682228  0.639860  1
  O  O91  1  0.330615  0.797821  0.225136  1
  O  O92  1  0.669385  0.225136  0.202179  1
  O  O93  1  0.215992  0.086158  0.770450  1
  O  O94  1  0.445942  0.923868  0.871781  1
  O  O95  1  0.976069  0.613027  0.886973  1
  O  O96  1  0.934866  0.028315  0.066066  1
  O  O97  1  0.020341  0.139860  0.182228  1
  O  O98  1  0.239811  0.551979  0.151919  1
  O  O99  1  0.065134  0.471685  0.566066  1
  O  O100  1  0.687916  0.787889  0.640499  1
  O  O101  1  0.023931  0.113027  0.613027  1
  O  O102  1  0.741199  0.399363  0.899363  1
  O  O103  1  0.281164  0.692713  0.921920  1
  O  O104  1  0.687916  0.212111  0.359501  1
  O  O105  1  0.939703  0.873303  0.936445  1
  O  O106  1  0.436953  0.254898  0.361712  1
  O  O107  1  0.248692  0.999106  0.304870  1
  O  O108  1  0.704445  0.816101  0.316101  1
  O  O109  1  0.760189  0.151919  0.448021  1
  O  O110  1  0.020341  0.860140  0.817772  1
  O  O111  1  0.239811  0.448021  0.848081  1
  O  O112  1  0.979659  0.817772  0.139860  1
  O  O113  1  0.312084  0.359501  0.787889  1
  O  O114  1  0.704445  0.183899  0.683899  1
  O  O115  1  0.239811  0.348081  0.948021  1
  O  O116  1  0.939703  0.126697  0.063555  1
  O  O117  1  0.669385  0.297821  0.274864  1
  O  O118  1  0.741199  0.600637  0.100637  1
  O  O119  1  0.751308  0.695130  0.999106  1
  O  O120  1  0.718836  0.807287  0.421920  1
  O  O121  1  0.258801  0.100637  0.399363  1
  O  O122  1  0.281164  0.578080  0.807287  1
  O  O123  1  0.436953  0.745102  0.638288  1
  O  O124  1  0.751308  0.499106  0.195130  1
  O  O125  1  0.976069  0.386973  0.113027  1
  O  O126  1  0.760189  0.051979  0.348081  1
  O  O127  1  0.733093  0.408110  0.000735  1
  O  O128  1  0.669385  0.774864  0.797821  1
  O  O129  1  0.215992  0.729550  0.413842  1
  O  O130  1  0.760189  0.948021  0.651919  1
  O  O131  1  0.330615  0.274864  0.702179  1
  O  O132  1  0.554058  0.423868  0.628219  1
  O  O133  1  0.266907  0.999265  0.408110  1
  O  O134  1  0.751308  0.304870  0.000894  1
  O  O135  1  0.312084  0.712111  0.140499  1
  O  O136  1  0.295555  0.683899  0.816101  1
  O  O137  1  0.868453  0.275599  0.775599  1
  O  O138  1  0.563047  0.361712  0.745102  1
  O  O139  1  0.718836  0.192713  0.578080  1
  O  O140  1  0.934866  0.433934  0.471685  1
  O  O141  1  0.760189  0.848081  0.551979  1
  O  O142  1  0.554058  0.576132  0.371781  1
  O  O143  1  0.266907  0.000735  0.591890  1
  O  O144  1  0.060297  0.373303  0.563555  1
  O  O145  1  0.718836  0.921920  0.307287  1
  O  O146  1  0.868453  0.724401  0.224401  1
  O  O147  1  0.248692  0.804870  0.499106  1
  O  O148  1  0.281164  0.421920  0.192713  1
  O  O149  1  0.248692  0.195130  0.500894  1
  O  O150  1  0.784008  0.229550  0.086158  1
  O  O151  1  0.934866  0.566066  0.528315  1
