# generated using pymatgen
data_Li12CoNi3P4(CO7)4
_symmetry_space_group_name_H-M   'P 1'
_cell_length_a   8.35023271
_cell_length_b   9.95830218
_cell_length_c   6.41612180
_cell_angle_alpha   90.00000000
_cell_angle_beta   90.00000000
_cell_angle_gamma   85.32533417
_symmetry_Int_Tables_number   1
_chemical_formula_structural   Li12CoNi3P4(CO7)4
_chemical_formula_sum   'Li12 Co1 Ni3 P4 C4 O28'
_cell_volume   531.75232673
_cell_formula_units_Z   1
loop_
 _symmetry_equiv_pos_site_id
 _symmetry_equiv_pos_as_xyz
  1  'x, y, z'
loop_
 _atom_site_type_symbol
 _atom_site_label
 _atom_site_symmetry_multiplicity
 _atom_site_fract_x
 _atom_site_fract_y
 _atom_site_fract_z
 _atom_site_occupancy
  Li  Li0  1  0.095915  0.381371  0.250000  1
  Li  Li1  1  0.095160  0.881524  0.250000  1
  Li  Li2  1  0.276301  0.122906  0.021565  1
  Li  Li3  1  0.276301  0.122906  0.478435  1
  Li  Li4  1  0.276251  0.622977  0.022061  1
  Li  Li5  1  0.276251  0.622977  0.477939  1
  Li  Li6  1  0.723767  0.375794  0.520934  1
  Li  Li7  1  0.723767  0.375794  0.979066  1
  Li  Li8  1  0.723978  0.877571  0.521282  1
  Li  Li9  1  0.723978  0.877571  0.978718  1
  Li  Li10  1  0.904462  0.118526  0.750000  1
  Li  Li11  1  0.904635  0.618477  0.750000  1
  Co  Co12  1  0.667021  0.605066  0.250000  1
  Ni  Ni13  1  0.332540  0.395770  0.750000  1
  Ni  Ni14  1  0.332525  0.896408  0.750000  1
  Ni  Ni15  1  0.666681  0.103716  0.250000  1
  P  P16  1  0.414024  0.359288  0.250000  1
  P  P17  1  0.413443  0.861237  0.250000  1
  P  P18  1  0.585129  0.139730  0.750000  1
  P  P19  1  0.585109  0.639829  0.750000  1
  C  C20  1  0.038479  0.351839  0.750000  1
  C  C21  1  0.038509  0.851805  0.750000  1
  C  C22  1  0.961278  0.148247  0.250000  1
  C  C23  1  0.964053  0.648688  0.250000  1
  O  O24  1  0.075979  0.475482  0.750000  1
  O  O25  1  0.109156  0.178689  0.250000  1
  O  O26  1  0.075800  0.975402  0.750000  1
  O  O27  1  0.154722  0.256586  0.750000  1
  O  O28  1  0.111748  0.678997  0.250000  1
  O  O29  1  0.154934  0.756560  0.750000  1
  O  O30  1  0.308600  0.411390  0.062586  1
  O  O31  1  0.308600  0.411390  0.437414  1
  O  O32  1  0.308462  0.913095  0.062500  1
  O  O33  1  0.308462  0.913095  0.437500  1
  O  O34  1  0.417295  0.085629  0.750000  1
  O  O35  1  0.436201  0.201996  0.250000  1
  O  O36  1  0.417788  0.585074  0.750000  1
  O  O37  1  0.434207  0.703492  0.250000  1
  O  O38  1  0.562511  0.297017  0.750000  1
  O  O39  1  0.582069  0.413118  0.250000  1
  O  O40  1  0.562529  0.796648  0.750000  1
  O  O41  1  0.582239  0.913598  0.250000  1
  O  O42  1  0.690974  0.088149  0.937386  1
  O  O43  1  0.690974  0.088149  0.562614  1
  O  O44  1  0.691446  0.588166  0.562743  1
  O  O45  1  0.691446  0.588166  0.937257  1
  O  O46  1  0.844823  0.243507  0.250000  1
  O  O47  1  0.890439  0.321506  0.750000  1
  O  O48  1  0.848090  0.744320  0.250000  1
  O  O49  1  0.923734  0.024634  0.250000  1
  O  O50  1  0.890470  0.821219  0.750000  1
  O  O51  1  0.926750  0.524910  0.250000  1
