# generated using pymatgen
data_LiBi3(BrO2)2
_symmetry_space_group_name_H-M   'P 1'
_cell_length_a   5.55648171
_cell_length_b   7.04609305
_cell_length_c   11.07732552
_cell_angle_alpha   90.00000000
_cell_angle_beta   90.00000000
_cell_angle_gamma   113.22202640
_symmetry_Int_Tables_number   1
_chemical_formula_structural   LiBi3(BrO2)2
_chemical_formula_sum   'Li2 Bi6 Br4 O8'
_cell_volume   398.55755895
_cell_formula_units_Z   2
loop_
 _symmetry_equiv_pos_site_id
 _symmetry_equiv_pos_as_xyz
  1  'x, y, z'
loop_
 _atom_site_type_symbol
 _atom_site_label
 _atom_site_symmetry_multiplicity
 _atom_site_fract_x
 _atom_site_fract_y
 _atom_site_fract_z
 _atom_site_occupancy
  Li  Li0  1  0.786831  0.573661  0.000000  1
  Li  Li1  1  0.213169  0.426339  0.500000  1
  Bi  Bi2  1  0.151828  0.303657  0.000000  1
  Bi  Bi3  1  0.661450  0.322898  0.255718  1
  Bi  Bi4  1  0.338550  0.677102  0.244282  1
  Bi  Bi5  1  0.848172  0.696343  0.500000  1
  Bi  Bi6  1  0.661450  0.322898  0.744282  1
  Bi  Bi7  1  0.338550  0.677102  0.755718  1
  Br  Br8  1  0.509481  0.018962  0.000000  1
  Br  Br9  1  0.000000  0.000000  0.250000  1
  Br  Br10  1  0.490519  0.981038  0.500000  1
  Br  Br11  1  0.000000  0.000000  0.750000  1
  O  O12  1  0.489343  0.485859  0.126480  1
  O  O13  1  0.996516  0.485859  0.126480  1
  O  O14  1  0.510657  0.514141  0.373520  1
  O  O15  1  0.003484  0.514141  0.373520  1
  O  O16  1  0.510657  0.514141  0.626480  1
  O  O17  1  0.489343  0.485859  0.873520  1
  O  O18  1  0.003484  0.514141  0.626480  1
  O  O19  1  0.996516  0.485859  0.873520  1
