# generated using pymatgen
data_ZnH2(CO2)2
_symmetry_space_group_name_H-M   'P 1'
_cell_length_a   7.79878770
_cell_length_b   13.80571884
_cell_length_c   12.75638565
_cell_angle_alpha   90.00000000
_cell_angle_beta   101.70005967
_cell_angle_gamma   90.00000000
_symmetry_Int_Tables_number   1
_chemical_formula_structural   ZnH2(CO2)2
_chemical_formula_sum   'Zn12 H24 C24 O48'
_cell_volume   1344.91609507
_cell_formula_units_Z   12
loop_
 _symmetry_equiv_pos_site_id
 _symmetry_equiv_pos_as_xyz
  1  'x, y, z'
loop_
 _atom_site_type_symbol
 _atom_site_label
 _atom_site_symmetry_multiplicity
 _atom_site_fract_x
 _atom_site_fract_y
 _atom_site_fract_z
 _atom_site_occupancy
  Zn  Zn0  1  0.500046  0.988542  0.102184  1
  Zn  Zn1  1  0.499954  0.488542  0.897816  1
  Zn  Zn2  1  0.802756  0.882172  0.999320  1
  Zn  Zn3  1  0.197244  0.382172  0.000680  1
  Zn  Zn4  1  0.090645  0.004505  0.924857  1
  Zn  Zn5  1  0.909355  0.504505  0.075143  1
  Zn  Zn6  1  0.271449  0.238030  0.425522  1
  Zn  Zn7  1  0.728551  0.738030  0.574478  1
  Zn  Zn8  1  0.633414  0.123723  0.522870  1
  Zn  Zn9  1  0.366586  0.623723  0.477130  1
  Zn  Zn10  1  0.987662  0.254058  0.585129  1
  Zn  Zn11  1  0.012338  0.754058  0.414871  1
  H  H12  1  0.678784  0.862158  0.289498  1
  H  H13  1  0.321216  0.362158  0.710502  1
  H  H14  1  0.472235  0.879051  0.798446  1
  H  H15  1  0.527765  0.379051  0.201554  1
  H  H16  1  0.269849  0.079047  0.249344  1
  H  H17  1  0.730151  0.579047  0.750656  1
  H  H18  1  0.877864  0.174649  0.047707  1
  H  H19  1  0.122136  0.674649  0.952293  1
  H  H20  1  0.418813  0.200778  0.089730  1
  H  H21  1  0.581187  0.700778  0.910270  1
  H  H22  1  0.950427  0.869824  0.713018  1
  H  H23  1  0.049573  0.369824  0.286982  1
  H  H24  1  0.146085  0.792994  0.157235  1
  H  H25  1  0.853915  0.292994  0.842765  1
  H  H26  1  0.262488  0.086291  0.700484  1
  H  H27  1  0.737512  0.586291  0.299516  1
  H  H28  1  0.060291  0.478302  0.537022  1
  H  H29  1  0.939709  0.978302  0.462978  1
  H  H30  1  0.549252  0.414480  0.498795  1
  H  H31  1  0.450748  0.914480  0.501205  1
  H  H32  1  0.792488  0.120815  0.300407  1
  H  H33  1  0.207512  0.620815  0.699593  1
  H  H34  1  0.765400  0.072474  0.770612  1
  H  H35  1  0.234600  0.572474  0.229388  1
  C  C36  1  0.775470  0.858486  0.237016  1
  C  C37  1  0.224530  0.358486  0.762984  1
  C  C38  1  0.418905  0.912251  0.864001  1
  C  C39  1  0.581095  0.412251  0.135999  1
  C  C40  1  0.403486  0.075724  0.298986  1
  C  C41  1  0.596514  0.575724  0.701014  1
  C  C42  1  0.803266  0.106188  0.043239  1
  C  C43  1  0.196734  0.606188  0.956761  1
  C  C44  1  0.296643  0.173827  0.038699  1
  C  C45  1  0.703357  0.673827  0.961301  1
  C  C46  1  0.846283  0.858928  0.758914  1
  C  C47  1  0.153717  0.358928  0.241087  1
  C  C48  1  0.198023  0.851747  0.114076  1
  C  C49  1  0.801977  0.351747  0.885924  1
  C  C50  1  0.318672  0.112774  0.633005  1
  C  C51  1  0.681328  0.612774  0.366995  1
  C  C52  1  0.154770  0.437342  0.500199  1
  C  C53  1  0.845230  0.937342  0.499801  1
  C  C54  1  0.624887  0.347685  0.522343  1
  C  C55  1  0.375113  0.847685  0.477657  1
  C  C56  1  0.893383  0.156860  0.361199  1
  C  C57  1  0.106617  0.656860  0.638801  1
  C  C58  1  0.875507  0.109125  0.744491  1
  C  C59  1  0.124493  0.609125  0.255509  1
  O  O60  1  0.730661  0.901138  0.145913  1
  O  O61  1  0.269339  0.401138  0.854087  1
  O  O62  1  0.917968  0.815182  0.267092  1
  O  O63  1  0.082032  0.315182  0.732908  1
  O  O64  1  0.527125  0.921397  0.954153  1
  O  O65  1  0.472875  0.421397  0.045847  1
  O  O66  1  0.260963  0.937368  0.843722  1
  O  O67  1  0.739037  0.437368  0.156278  1
  O  O68  1  0.525401  0.036813  0.263452  1
  O  O69  1  0.474599  0.536813  0.736548  1
  O  O70  1  0.421305  0.113913  0.392644  1
  O  O71  1  0.578695  0.613913  0.607356  1
  O  O72  1  0.669517  0.104306  0.084510  1
  O  O73  1  0.330483  0.604306  0.915490  1
  O  O74  1  0.862281  0.035555  0.995859  1
  O  O75  1  0.137719  0.535555  0.004141  1
  O  O76  1  0.284062  0.081053  0.029150  1
  O  O77  1  0.715938  0.581053  0.970850  1
  O  O78  1  0.180548  0.232182  0.994448  1
  O  O79  1  0.819452  0.732182  0.005552  1
  O  O80  1  0.871555  0.900713  0.850357  1
  O  O81  1  0.128445  0.400714  0.149643  1
  O  O82  1  0.713639  0.808081  0.719493  1
  O  O83  1  0.286361  0.308081  0.280507  1
  O  O84  1  0.085721  0.893903  0.040636  1
  O  O85  1  0.914279  0.393903  0.959364  1
  O  O86  1  0.357801  0.872286  0.140747  1
  O  O87  1  0.642199  0.372286  0.859253  1
  O  O88  1  0.222058  0.171983  0.568541  1
  O  O89  1  0.777942  0.671983  0.431459  1
  O  O90  1  0.468150  0.082979  0.625671  1
  O  O91  1  0.531850  0.582979  0.374329  1
  O  O92  1  0.128648  0.345531  0.491126  1
  O  O93  1  0.871352  0.845531  0.508874  1
  O  O94  1  0.277423  0.480128  0.468699  1
  O  O95  1  0.722577  0.980128  0.531301  1
  O  O96  1  0.535976  0.268150  0.510087  1
  O  O97  1  0.464024  0.768150  0.489913  1
  O  O98  1  0.786318  0.355670  0.557844  1
  O  O99  1  0.213682  0.855670  0.442156  1
  O  O100  1  0.848956  0.176388  0.450685  1
  O  O101  1  0.151044  0.676388  0.549315  1
  O  O102  1  0.039008  0.175051  0.337541  1
  O  O103  1  0.960992  0.675051  0.662459  1
  O  O104  1  0.835800  0.159690  0.658446  1
  O  O105  1  0.164200  0.659690  0.341554  1
  O  O106  1  0.028878  0.099671  0.798271  1
  O  O107  1  0.971122  0.599671  0.201729  1
