# generated using pymatgen
data_AgGeO3
_symmetry_space_group_name_H-M   'P 1'
_cell_length_a   10.42467293
_cell_length_b   8.86733869
_cell_length_c   3.16716685
_cell_angle_alpha   89.97914293
_cell_angle_beta   89.99317817
_cell_angle_gamma   90.11336085
_symmetry_Int_Tables_number   1
_chemical_formula_structural   AgGeO3
_chemical_formula_sum   'Ag4 Ge4 O12'
_cell_volume   292.76947607
_cell_formula_units_Z   4
loop_
 _symmetry_equiv_pos_site_id
 _symmetry_equiv_pos_as_xyz
  1  'x, y, z'
loop_
 _atom_site_type_symbol
 _atom_site_label
 _atom_site_symmetry_multiplicity
 _atom_site_fract_x
 _atom_site_fract_y
 _atom_site_fract_z
 _atom_site_occupancy
  Ag  Ag0  1  0.995738  0.999157  0.026412  1
  Ag  Ag1  1  0.995345  0.501796  0.024941  1
  Ag  Ag2  1  0.495317  0.998218  0.048669  1
  Ag  Ag3  1  0.495857  0.500784  0.030389  1
  Ge  Ge4  1  0.208188  0.753042  0.535816  1
  Ge  Ge5  1  0.285062  0.251874  0.541681  1
  Ge  Ge6  1  0.708247  0.746847  0.531031  1
  Ge  Ge7  1  0.784820  0.248381  0.525680  1
  O  O8  1  0.106869  0.592236  0.527253  1
  O  O9  1  0.115547  0.921601  0.528940  1
  O  O10  1  0.195472  0.250536  0.041601  1
  O  O11  1  0.298176  0.750211  0.035498  1
  O  O12  1  0.376795  0.420687  0.533256  1
  O  O13  1  0.382983  0.087706  0.549110  1
  O  O14  1  0.606796  0.908062  0.545756  1
  O  O15  1  0.615729  0.578706  0.528725  1
  O  O16  1  0.695650  0.249488  0.025619  1
  O  O17  1  0.798224  0.749901  0.031260  1
  O  O18  1  0.877089  0.078639  0.524870  1
  O  O19  1  0.883132  0.412130  0.523999  1
