# generated using pymatgen
data_Li4Ti4Co5O18
_symmetry_space_group_name_H-M   'P 1'
_cell_length_a   8.98451525
_cell_length_b   24.75377020
_cell_length_c   2.88716897
_cell_angle_alpha   89.99998279
_cell_angle_beta   90.00002701
_cell_angle_gamma   89.99485115
_symmetry_Int_Tables_number   1
_chemical_formula_structural   Li4Ti4Co5O18
_chemical_formula_sum   'Li8 Ti8 Co10 O36'
_cell_volume   642.10818310
_cell_formula_units_Z   2
loop_
 _symmetry_equiv_pos_site_id
 _symmetry_equiv_pos_as_xyz
  1  'x, y, z'
loop_
 _atom_site_type_symbol
 _atom_site_label
 _atom_site_symmetry_multiplicity
 _atom_site_fract_x
 _atom_site_fract_y
 _atom_site_fract_z
 _atom_site_occupancy
  Li  Li0  1  0.189954  0.990235  1.000000  1
  Li  Li1  1  0.201058  0.196677  0.000001  1
  Li  Li2  1  0.298393  0.697182  0.000000  1
  Li  Li3  1  0.305503  0.491710  0.000001  1
  Li  Li4  1  0.693082  0.509957  0.000000  1
  Li  Li5  1  0.699388  0.301968  0.000000  1
  Li  Li6  1  0.799001  0.802876  1.000000  1
  Li  Li7  1  0.809798  0.009028  0.999999  1
  Ti  Ti8  1  0.014340  0.102186  0.000001  1
  Ti  Ti9  1  0.155114  0.806473  0.500001  1
  Ti  Ti10  1  0.346279  0.306549  0.499999  1
  Ti  Ti11  1  0.486850  0.602307  0.999999  1
  Ti  Ti12  1  0.514374  0.398055  0.000000  1
  Ti  Ti13  1  0.654818  0.693647  0.500000  1
  Ti  Ti14  1  0.845025  0.193806  0.500001  1
  Ti  Ti15  1  0.985712  0.897852  -0.000000  1
  Co  Co16  1  0.000238  0.500041  0.000001  1
  Co  Co17  1  0.005428  0.313839  1.000000  1
  Co  Co18  1  0.138021  0.583591  0.500001  1
  Co  Co19  1  0.361694  0.083568  0.499999  1
  Co  Co20  1  0.494918  0.813989  0.000001  1
  Co  Co21  1  0.499996  0.000023  0.999999  1
  Co  Co22  1  0.505489  0.185828  0.999999  1
  Co  Co23  1  0.638492  0.916450  0.500000  1
  Co  Co24  1  0.861832  0.416334  0.500000  1
  Co  Co25  1  0.995208  0.686337  0.000001  1
  O  O26  1  0.994501  0.424458  0.000000  1
  O  O27  1  0.005091  0.575232  0.000001  1
  O  O28  1  0.046413  0.943265  0.500000  1
  O  O29  1  0.053759  0.161281  0.500000  1
  O  O30  1  0.115962  0.659648  0.500001  1
  O  O31  1  0.121633  0.755070  0.000001  1
  O  O32  1  0.142358  0.506357  0.500001  1
  O  O33  1  0.127647  0.291191  0.500000  1
  O  O34  1  0.183200  0.858373  0.000001  1
  O  O35  1  0.218432  0.083663  0.999999  1
  O  O36  1  0.281665  0.584166  0.000001  1
  O  O37  1  0.316312  0.358233  0.999999  1
  O  O38  1  0.370548  0.791225  0.500001  1
  O  O39  1  0.357371  0.005608  0.499999  1
  O  O40  1  0.378828  0.255206  0.999999  1
  O  O41  1  0.384092  0.159252  0.499998  1
  O  O42  1  0.446272  0.661386  0.500000  1
  O  O43  1  0.454512  0.443032  0.499999  1
  O  O44  1  0.498078  0.075039  0.999999  1
  O  O45  1  0.502219  0.925054  0.999999  1
  O  O46  1  0.546631  0.556885  0.500000  1
  O  O47  1  0.553738  0.338170  0.499999  1
  O  O48  1  0.615899  0.840757  0.500001  1
  O  O49  1  0.621995  0.744872  1.000000  1
  O  O50  1  0.642652  0.994360  0.499999  1
  O  O51  1  0.629353  0.208896  0.499999  1
  O  O52  1  0.683402  0.641523  0.000000  1
  O  O53  1  0.718271  0.415751  1.000000  1
  O  O54  1  0.781704  0.916341  1.000000  1
  O  O55  1  0.816532  0.141745  0.000000  1
  O  O56  1  0.870271  0.708644  0.500000  1
  O  O57  1  0.857835  0.493733  0.500000  1
  O  O58  1  0.877693  0.245147  0.000000  1
  O  O59  1  0.885721  0.340320  0.500000  1
  O  O60  1  0.946092  0.838774  0.500001  1
  O  O61  1  0.953312  0.056837  0.500001  1
