# generated using pymatgen
data_HgH2C6(NCl2)2
_symmetry_space_group_name_H-M   'P 1'
_cell_length_a   6.73858373
_cell_length_b   13.79143084
_cell_length_c   17.47058305
_cell_angle_alpha   90.00000000
_cell_angle_beta   110.05784035
_cell_angle_gamma   90.00000000
_symmetry_Int_Tables_number   1
_chemical_formula_structural   HgH2C6(NCl2)2
_chemical_formula_sum   'Hg4 H8 C24 N8 Cl16'
_cell_volume   1525.14574481
_cell_formula_units_Z   4
loop_
 _symmetry_equiv_pos_site_id
 _symmetry_equiv_pos_as_xyz
  1  'x, y, z'
loop_
 _atom_site_type_symbol
 _atom_site_label
 _atom_site_symmetry_multiplicity
 _atom_site_fract_x
 _atom_site_fract_y
 _atom_site_fract_z
 _atom_site_occupancy
  Hg  Hg0  1  0.180018  0.745848  0.085357  1
  Hg  Hg1  1  0.680018  0.754152  0.585357  1
  Hg  Hg2  1  0.819982  0.254152  0.914643  1
  Hg  Hg3  1  0.319982  0.245848  0.414643  1
  H  H4  1  0.367146  0.267311  0.956185  1
  H  H5  1  0.867146  0.232689  0.456185  1
  H  H6  1  0.632854  0.732689  0.043815  1
  H  H7  1  0.132854  0.767311  0.543815  1
  H  H8  1  0.142051  0.577310  0.679850  1
  H  H9  1  0.642051  0.922690  0.179850  1
  H  H10  1  0.857949  0.422690  0.320150  1
  H  H11  1  0.357949  0.077310  0.820150  1
  C  C12  1  0.155720  0.246800  0.019658  1
  C  C13  1  0.655720  0.253200  0.519658  1
  C  C14  1  0.844280  0.753200  0.980342  1
  C  C15  1  0.344280  0.746800  0.480342  1
  C  C16  1  0.221286  0.283240  0.099327  1
  C  C17  1  0.721286  0.216760  0.599327  1
  C  C18  1  0.778714  0.716760  0.900673  1
  C  C19  1  0.278714  0.783240  0.400673  1
  C  C20  1  0.383639  0.313018  0.071158  1
  C  C21  1  0.883639  0.186982  0.571158  1
  C  C22  1  0.616361  0.686982  0.928842  1
  C  C23  1  0.116361  0.813018  0.428842  1
  C  C24  1  0.181163  0.402723  0.756839  1
  C  C25  1  0.681163  0.097277  0.256839  1
  C  C26  1  0.818837  0.597277  0.243161  1
  C  C27  1  0.318837  0.902723  0.743161  1
  C  C28  1  0.244044  0.496530  0.785357  1
  C  C29  1  0.744044  0.003470  0.285357  1
  C  C30  1  0.755956  0.503470  0.214643  1
  C  C31  1  0.255956  0.996530  0.714643  1
  C  C32  1  0.269029  0.439552  0.701020  1
  C  C33  1  0.769029  0.060448  0.201020  1
  C  C34  1  0.730971  0.560448  0.298980  1
  C  C35  1  0.230971  0.939552  0.798980  1
  N  N36  1  0.361891  0.239674  0.010391  1
  N  N37  1  0.861891  0.260326  0.510391  1
  N  N38  1  0.638109  0.760326  0.989609  1
  N  N39  1  0.138109  0.739674  0.489609  1
  N  N40  1  0.277697  0.541515  0.716858  1
  N  N41  1  0.777697  0.958485  0.216858  1
  N  N42  1  0.722303  0.458485  0.283142  1
  N  N43  1  0.222303  0.041515  0.783142  1
  Cl  Cl44  1  0.849716  0.706632  0.207099  1
  Cl  Cl45  1  0.349716  0.793368  0.707099  1
  Cl  Cl46  1  0.150284  0.293368  0.792901  1
  Cl  Cl47  1  0.650284  0.206632  0.292901  1
  Cl  Cl48  1  0.263344  0.578667  0.104736  1
  Cl  Cl49  1  0.763343  0.921333  0.604736  1
  Cl  Cl50  1  0.736657  0.421333  0.895264  1
  Cl  Cl51  1  0.236656  0.078667  0.395264  1
  Cl  Cl52  1  0.274329  0.912713  0.113810  1
  Cl  Cl53  1  0.774329  0.587287  0.613810  1
  Cl  Cl54  1  0.725671  0.087287  0.886190  1
  Cl  Cl55  1  0.225671  0.412713  0.386190  1
  Cl  Cl56  1  0.385327  0.818871  0.332494  1
  Cl  Cl57  1  0.885327  0.681129  0.832494  1
  Cl  Cl58  1  0.614673  0.181129  0.667506  1
  Cl  Cl59  1  0.114673  0.318871  0.167506  1
