# generated using pymatgen
data_Co3(PO4)2
_symmetry_space_group_name_H-M   'P 1'
_cell_length_a   8.80000565
_cell_length_b   9.92592206
_cell_length_c   20.70569709
_cell_angle_alpha   90.00000505
_cell_angle_beta   99.10402833
_cell_angle_gamma   89.99999977
_symmetry_Int_Tables_number   1
_chemical_formula_structural   Co3(PO4)2
_chemical_formula_sum   'Co36 P24 O96'
_cell_volume   1785.82118857
_cell_formula_units_Z   12
loop_
 _symmetry_equiv_pos_site_id
 _symmetry_equiv_pos_as_xyz
  1  'x, y, z'
loop_
 _atom_site_type_symbol
 _atom_site_label
 _atom_site_symmetry_multiplicity
 _atom_site_fract_x
 _atom_site_fract_y
 _atom_site_fract_z
 _atom_site_occupancy
  Co  Co0  1  0.069654  0.906004  0.940560  1
  Co  Co1  1  0.090962  0.393321  0.891961  1
  Co  Co2  1  0.037424  0.218488  0.544949  1
  Co  Co3  1  0.111414  0.614687  0.582768  1
  Co  Co4  1  0.212316  0.580629  0.783738  1
  Co  Co5  1  0.039231  0.112939  0.244420  1
  Co  Co6  1  0.103850  0.705075  0.296526  1
  Co  Co7  1  0.287684  0.080629  0.716262  1
  Co  Co8  1  0.388586  0.114688  0.917232  1
  Co  Co9  1  0.462576  0.718489  0.955051  1
  Co  Co10  1  0.236059  0.277722  0.359793  1
  Co  Co11  1  0.281170  0.881789  0.423436  1
  Co  Co12  1  0.409038  0.893321  0.608039  1
  Co  Co13  1  0.218830  0.381789  0.076564  1
  Co  Co14  1  0.263941  0.777722  0.140207  1
  Co  Co15  1  0.430346  0.406004  0.559440  1
  Co  Co16  1  0.539231  0.387061  0.744420  1
  Co  Co17  1  0.603850  0.794925  0.796526  1
  Co  Co18  1  0.396150  0.205075  0.203474  1
  Co  Co19  1  0.460769  0.612939  0.255580  1
  Co  Co20  1  0.569654  0.593996  0.440560  1
  Co  Co21  1  0.736059  0.222278  0.859793  1
  Co  Co22  1  0.781170  0.618211  0.923436  1
  Co  Co23  1  0.590962  0.106679  0.391961  1
  Co  Co24  1  0.718830  0.118211  0.576564  1
  Co  Co25  1  0.763941  0.722278  0.640207  1
  Co  Co26  1  0.537424  0.281511  0.044949  1
  Co  Co27  1  0.611414  0.885312  0.082768  1
  Co  Co28  1  0.712316  0.919371  0.283738  1
  Co  Co29  1  0.896150  0.294925  0.703474  1
  Co  Co30  1  0.960769  0.887061  0.755580  1
  Co  Co31  1  0.787684  0.419371  0.216262  1
  Co  Co32  1  0.888586  0.385313  0.417232  1
  Co  Co33  1  0.962576  0.781512  0.455051  1
  Co  Co34  1  0.909038  0.606679  0.108039  1
  Co  Co35  1  0.930346  0.093996  0.059440  1
  P  P36  1  0.049771  0.129950  0.828372  1
  P  P37  1  0.130211  0.644971  0.998001  1
  P  P38  1  0.032443  0.925140  0.605384  1
  P  P39  1  0.192731  0.357543  0.670107  1
  P  P40  1  0.307269  0.857543  0.829893  1
  P  P41  1  0.198732  0.554234  0.439055  1
  P  P42  1  0.150286  0.432210  0.218752  1
  P  P43  1  0.467557  0.425140  0.894616  1
  P  P44  1  0.369789  0.144971  0.501999  1
  P  P45  1  0.450229  0.629950  0.671628  1
  P  P46  1  0.349714  0.932210  0.281248  1
  P  P47  1  0.301268  0.054234  0.060945  1
  P  P48  1  0.698732  0.945766  0.939055  1
  P  P49  1  0.650286  0.067790  0.718752  1
  P  P50  1  0.549771  0.370050  0.328372  1
  P  P51  1  0.630211  0.855029  0.498001  1
  P  P52  1  0.532443  0.574860  0.105384  1
  P  P53  1  0.849714  0.567790  0.781248  1
  P  P54  1  0.801268  0.445766  0.560945  1
  P  P55  1  0.692731  0.142457  0.170107  1
  P  P56  1  0.807269  0.642457  0.329893  1
  P  P57  1  0.967557  0.074860  0.394616  1
  P  P58  1  0.869789  0.355029  0.001999  1
  P  P59  1  0.950229  0.870050  0.171628  1
  O  O60  1  0.005466  0.535359  0.825196  1
  O  O61  1  0.156929  0.495443  0.981663  1
  O  O62  1  0.100038  0.072840  0.765147  1
  O  O63  1  0.078209  0.241983  0.646516  1
  O  O64  1  0.110143  0.443361  0.716319  1
  O  O65  1  0.181303  0.202517  0.875507  1
  O  O66  1  0.049351  0.812450  0.556040  1
  O  O67  1  0.157741  0.787198  0.794397  1
  O  O68  1  0.257290  0.741416  0.983716  1
  O  O69  1  0.060862  0.955481  0.430793  1
  O  O70  1  0.086122  0.609667  0.484157  1
  O  O71  1  0.060435  0.132555  0.342649  1
  O  O72  1  0.273299  0.938537  0.890174  1
  O  O73  1  0.196312  0.969061  0.637935  1
  O  O74  1  0.121025  0.426716  0.402899  1
  O  O75  1  0.027791  0.986765  0.139454  1
  O  O76  1  0.303688  0.469061  0.862065  1
  O  O77  1  0.226701  0.438537  0.609826  1
  O  O78  1  0.017034  0.292716  0.044534  1
  O  O79  1  0.070917  0.756817  0.192413  1
  O  O80  1  0.121595  0.317833  0.265835  1
  O  O81  1  0.242710  0.241417  0.516284  1
  O  O82  1  0.218381  0.669250  0.391144  1
  O  O83  1  0.342259  0.287198  0.705603  1
  O  O84  1  0.450649  0.312450  0.943961  1
  O  O85  1  0.318697  0.702517  0.624493  1
  O  O86  1  0.389857  0.943361  0.783681  1
  O  O87  1  0.117179  0.653559  0.073028  1
  O  O88  1  0.421791  0.741983  0.853484  1
  O  O89  1  0.233798  0.880585  0.325495  1
  O  O90  1  0.399962  0.572840  0.734853  1
  O  O91  1  0.228114  0.555241  0.257536  1
  O  O92  1  0.143223  0.021384  0.020174  1
  O  O93  1  0.343071  0.995443  0.518337  1
  O  O94  1  0.356777  0.521384  0.479826  1
  O  O95  1  0.271886  0.055241  0.242464  1
  O  O96  1  0.266202  0.380585  0.174505  1
  O  O97  1  0.560862  0.544519  0.930793  1
  O  O98  1  0.586122  0.890333  0.984157  1
  O  O99  1  0.382821  0.153559  0.426972  1
  O  O100  1  0.560435  0.367445  0.842649  1
  O  O101  1  0.281619  0.169250  0.108856  1
  O  O102  1  0.494534  0.035359  0.674804  1
  O  O103  1  0.621025  0.073284  0.902899  1
  O  O104  1  0.527791  0.513236  0.639454  1
  O  O105  1  0.378405  0.817833  0.234165  1
  O  O106  1  0.517035  0.207283  0.544534  1
  O  O107  1  0.570917  0.743183  0.692413  1
  O  O108  1  0.429083  0.256817  0.307587  1
  O  O109  1  0.482965  0.792717  0.455466  1
  O  O110  1  0.621595  0.182167  0.765835  1
  O  O111  1  0.472209  0.486764  0.360546  1
  O  O112  1  0.378975  0.926716  0.097101  1
  O  O113  1  0.505466  0.964641  0.325196  1
  O  O114  1  0.718381  0.830750  0.891144  1
  O  O115  1  0.439565  0.632555  0.157351  1
  O  O116  1  0.617179  0.846441  0.573028  1
  O  O117  1  0.413878  0.109667  0.015843  1
  O  O118  1  0.439138  0.455481  0.069207  1
  O  O119  1  0.733798  0.619415  0.825495  1
  O  O120  1  0.728114  0.944759  0.757536  1
  O  O121  1  0.643223  0.478616  0.520174  1
  O  O122  1  0.656929  0.004557  0.481663  1
  O  O123  1  0.856777  0.978616  0.979826  1
  O  O124  1  0.771886  0.444759  0.742464  1
  O  O125  1  0.600038  0.427160  0.265147  1
  O  O126  1  0.766202  0.119415  0.674505  1
  O  O127  1  0.578209  0.258017  0.146516  1
  O  O128  1  0.882821  0.346441  0.926972  1
  O  O129  1  0.610143  0.056639  0.216319  1
  O  O130  1  0.681303  0.297483  0.375507  1
  O  O131  1  0.549351  0.687550  0.056039  1
  O  O132  1  0.657741  0.712802  0.294397  1
  O  O133  1  0.781619  0.330750  0.608856  1
  O  O134  1  0.757290  0.758583  0.483716  1
  O  O135  1  0.878405  0.682167  0.734165  1
  O  O136  1  0.929083  0.243183  0.807587  1
  O  O137  1  0.982966  0.707284  0.955466  1
  O  O138  1  0.773299  0.561463  0.390174  1
  O  O139  1  0.696312  0.530939  0.137935  1
  O  O140  1  0.972209  0.013236  0.860546  1
  O  O141  1  0.878975  0.573284  0.597101  1
  O  O142  1  0.803688  0.030939  0.362065  1
  O  O143  1  0.726701  0.061463  0.109826  1
  O  O144  1  0.939566  0.867445  0.657351  1
  O  O145  1  0.913878  0.390333  0.515843  1
  O  O146  1  0.939138  0.044519  0.569207  1
  O  O147  1  0.742710  0.258584  0.016284  1
  O  O148  1  0.842259  0.212802  0.205603  1
  O  O149  1  0.950649  0.187550  0.443960  1
  O  O150  1  0.818697  0.797483  0.124493  1
  O  O151  1  0.889857  0.556639  0.283681  1
  O  O152  1  0.921791  0.758017  0.353484  1
  O  O153  1  0.899962  0.927160  0.234853  1
  O  O154  1  0.843071  0.504557  0.018337  1
  O  O155  1  0.994534  0.464641  0.174804  1
