# generated using pymatgen
data_LiSnAsCO7
_symmetry_space_group_name_H-M   'P 1'
_cell_length_a   9.20655547
_cell_length_b   6.74529718
_cell_length_c   5.25579858
_cell_angle_alpha   90.00000000
_cell_angle_beta   86.28936330
_cell_angle_gamma   90.00000000
_symmetry_Int_Tables_number   1
_chemical_formula_structural   LiSnAsCO7
_chemical_formula_sum   'Li2 Sn2 As2 C2 O14'
_cell_volume   325.70586184
_cell_formula_units_Z   2
loop_
 _symmetry_equiv_pos_site_id
 _symmetry_equiv_pos_as_xyz
  1  'x, y, z'
loop_
 _atom_site_type_symbol
 _atom_site_label
 _atom_site_symmetry_multiplicity
 _atom_site_fract_x
 _atom_site_fract_y
 _atom_site_fract_z
 _atom_site_occupancy
  Li  Li0  1  0.180461  0.503314  0.232420  1
  Li  Li1  1  0.819539  0.003314  0.767580  1
  Sn  Sn2  1  0.333169  0.753921  0.788811  1
  Sn  Sn3  1  0.666831  0.253921  0.211189  1
  As  As4  1  0.425919  0.249615  0.725572  1
  As  As5  1  0.574081  0.749615  0.274428  1
  C  C6  1  0.062350  0.743707  0.722577  1
  C  C7  1  0.937650  0.243707  0.277423  1
  O  O8  1  0.067127  0.274011  0.315560  1
  O  O9  1  0.117100  0.741691  0.952697  1
  O  O10  1  0.166896  0.717373  0.532240  1
  O  O11  1  0.312533  0.056202  0.801696  1
  O  O12  1  0.325212  0.446776  0.839179  1
  O  O13  1  0.404514  0.741116  0.155489  1
  O  O14  1  0.462941  0.270122  0.398183  1
  O  O15  1  0.537059  0.770122  0.601817  1
  O  O16  1  0.595486  0.241116  0.844511  1
  O  O17  1  0.674788  0.946776  0.160821  1
  O  O18  1  0.687467  0.556202  0.198304  1
  O  O19  1  0.833104  0.217373  0.467760  1
  O  O20  1  0.882900  0.241691  0.047303  1
  O  O21  1  0.932873  0.774011  0.684440  1
