# generated using pymatgen
data_Ti4Ni(PO5)4
_symmetry_space_group_name_H-M   'P 1'
_cell_length_a   12.95935331
_cell_length_b   7.28858670
_cell_length_c   7.44316691
_cell_angle_alpha   90.00000000
_cell_angle_beta   90.41455202
_cell_angle_gamma   90.00000000
_symmetry_Int_Tables_number   1
_chemical_formula_structural   Ti4Ni(PO5)4
_chemical_formula_sum   'Ti8 Ni2 P8 O40'
_cell_volume   703.02868409
_cell_formula_units_Z   2
loop_
 _symmetry_equiv_pos_site_id
 _symmetry_equiv_pos_as_xyz
  1  'x, y, z'
loop_
 _atom_site_type_symbol
 _atom_site_label
 _atom_site_symmetry_multiplicity
 _atom_site_fract_x
 _atom_site_fract_y
 _atom_site_fract_z
 _atom_site_occupancy
  Ti  Ti0  1  0.116543  0.777245  0.646057  1
  Ti  Ti1  1  0.129826  0.754346  0.117550  1
  Ti  Ti2  1  0.370174  0.245654  0.882450  1
  Ti  Ti3  1  0.383457  0.222755  0.353943  1
  Ti  Ti4  1  0.629826  0.745654  0.617550  1
  Ti  Ti5  1  0.616543  0.722755  0.146057  1
  Ti  Ti6  1  0.883457  0.277245  0.853943  1
  Ti  Ti7  1  0.870174  0.254346  0.382450  1
  Ni  Ni8  1  0.250000  0.500000  0.500000  1
  Ni  Ni9  1  0.750000  0.000000  0.000000  1
  P  P10  1  0.129868  0.376867  0.873883  1
  P  P11  1  0.120727  0.131678  0.373774  1
  P  P12  1  0.379273  0.868322  0.626226  1
  P  P13  1  0.370132  0.623133  0.126117  1
  P  P14  1  0.620727  0.368322  0.873774  1
  P  P15  1  0.629868  0.123133  0.373883  1
  P  P16  1  0.870132  0.876867  0.626117  1
  P  P17  1  0.879273  0.631678  0.126226  1
  O  O18  1  0.028337  0.264674  0.865958  1
  O  O19  1  0.021379  0.243224  0.356624  1
  O  O20  1  0.127147  0.824619  0.881762  1
  O  O21  1  0.124233  0.019538  0.551815  1
  O  O22  1  0.152652  0.649560  0.397382  1
  O  O23  1  0.128206  0.497180  0.042557  1
  O  O24  1  0.137325  0.498921  0.700475  1
  O  O25  1  0.131270  0.997093  0.217050  1
  O  O26  1  0.220030  0.243016  0.875798  1
  O  O27  1  0.215473  0.263721  0.369167  1
  O  O28  1  0.284527  0.736279  0.630833  1
  O  O29  1  0.279970  0.756984  0.124202  1
  O  O30  1  0.368730  0.002907  0.782950  1
  O  O31  1  0.362675  0.501079  0.299525  1
  O  O32  1  0.371794  0.502820  0.957443  1
  O  O33  1  0.347348  0.350440  0.602618  1
  O  O34  1  0.375767  0.980462  0.448185  1
  O  O35  1  0.372853  0.175381  0.118238  1
  O  O36  1  0.478621  0.756776  0.643376  1
  O  O37  1  0.471663  0.735326  0.134042  1
  O  O38  1  0.521379  0.256776  0.856624  1
  O  O39  1  0.528337  0.235326  0.365958  1
  O  O40  1  0.652652  0.850440  0.897382  1
  O  O41  1  0.628206  0.002820  0.542557  1
  O  O42  1  0.627147  0.675381  0.381762  1
  O  O43  1  0.624233  0.480462  0.051815  1
  O  O44  1  0.631270  0.502907  0.717050  1
  O  O45  1  0.637325  0.001079  0.200475  1
  O  O46  1  0.715473  0.236279  0.869167  1
  O  O47  1  0.720030  0.256984  0.375798  1
  O  O48  1  0.779970  0.743016  0.624202  1
  O  O49  1  0.784527  0.763721  0.130833  1
  O  O50  1  0.862675  0.998921  0.799525  1
  O  O51  1  0.868730  0.497093  0.282950  1
  O  O52  1  0.875767  0.519538  0.948185  1
  O  O53  1  0.872853  0.324619  0.618238  1
  O  O54  1  0.871794  0.997180  0.457443  1
  O  O55  1  0.847348  0.149560  0.102618  1
  O  O56  1  0.971663  0.764674  0.634042  1
  O  O57  1  0.978621  0.743224  0.143376  1
