# generated using pymatgen
data_Li2CrCuO4
_symmetry_space_group_name_H-M   'P 1'
_cell_length_a   5.10722693
_cell_length_b   10.20406750
_cell_length_c   9.76867159
_cell_angle_alpha   16.79769528
_cell_angle_beta   29.47499749
_cell_angle_gamma   33.54788324
_symmetry_Int_Tables_number   1
_chemical_formula_structural   Li2CrCuO4
_chemical_formula_sum   'Li2 Cr1 Cu1 O4'
_cell_volume   72.39114230
_cell_formula_units_Z   1
loop_
 _symmetry_equiv_pos_site_id
 _symmetry_equiv_pos_as_xyz
  1  'x, y, z'
loop_
 _atom_site_type_symbol
 _atom_site_label
 _atom_site_symmetry_multiplicity
 _atom_site_fract_x
 _atom_site_fract_y
 _atom_site_fract_z
 _atom_site_occupancy
  Li  Li0  1  0.000000  0.000000  0.000000  1
  Li  Li1  1  0.000000  0.500000  0.000000  1
  Cr  Cr2  1  0.500000  0.500000  0.500000  1
  Cu  Cu3  1  0.500000  0.000000  0.500000  1
  O  O4  1  0.255967  0.000000  0.238167  1
  O  O5  1  0.230011  0.500000  0.247296  1
  O  O6  1  0.744033  1.000000  0.761833  1
  O  O7  1  0.769989  0.500000  0.752704  1
