# generated using pymatgen
data_YNb2NO5
_symmetry_space_group_name_H-M   'P 1'
_cell_length_a   15.00866285
_cell_length_b   5.93516134
_cell_length_c   5.28814266
_cell_angle_alpha   90.24490978
_cell_angle_beta   89.77478791
_cell_angle_gamma   90.29280398
_symmetry_Int_Tables_number   1
_chemical_formula_structural   YNb2NO5
_chemical_formula_sum   'Y4 Nb8 N4 O20'
_cell_volume   471.04753697
_cell_formula_units_Z   4
loop_
 _symmetry_equiv_pos_site_id
 _symmetry_equiv_pos_as_xyz
  1  'x, y, z'
loop_
 _atom_site_type_symbol
 _atom_site_label
 _atom_site_symmetry_multiplicity
 _atom_site_fract_x
 _atom_site_fract_y
 _atom_site_fract_z
 _atom_site_occupancy
  Y  Y0  1  0.003869  0.297620  0.250452  1
  Y  Y1  1  0.000227  0.703129  0.759517  1
  Y  Y2  1  0.497009  0.209654  0.760851  1
  Y  Y3  1  0.501294  0.799567  0.253802  1
  Nb  Nb4  1  0.169371  0.176620  0.714976  1
  Nb  Nb5  1  0.170539  0.823067  0.233723  1
  Nb  Nb6  1  0.330045  0.317562  0.228659  1
  Nb  Nb7  1  0.338822  0.677926  0.746681  1
  Nb  Nb8  1  0.667904  0.324699  0.268219  1
  Nb  Nb9  1  0.664255  0.696214  0.783089  1
  Nb  Nb10  1  0.832897  0.178017  0.766084  1
  Nb  Nb11  1  0.836991  0.807111  0.282153  1
  N  N12  1  0.239923  0.125298  0.397878  1
  N  N13  1  0.401668  0.583144  0.031552  1
  N  N14  1  0.583390  0.898909  0.897487  1
  N  N15  1  0.918228  0.607539  0.397366  1
  O  O16  1  0.085627  0.609760  0.103441  1
  O  O17  1  0.083457  0.385578  0.606114  1
  O  O18  1  0.096304  0.072667  0.023053  1
  O  O19  1  0.095678  0.909383  0.532035  1
  O  O20  1  0.242823  0.869101  0.901558  1
  O  O21  1  0.253206  0.625254  0.394542  1
  O  O22  1  0.253976  0.365364  0.902186  1
  O  O23  1  0.398130  0.415223  0.533455  1
  O  O24  1  0.414911  0.109422  0.106174  1
  O  O25  1  0.417040  0.893464  0.601455  1
  O  O26  1  0.582074  0.125633  0.398514  1
  O  O27  1  0.599671  0.417635  0.966295  1
  O  O28  1  0.601685  0.588312  0.465273  1
  O  O29  1  0.746809  0.359163  0.584108  1
  O  O30  1  0.742363  0.627157  0.103053  1
  O  O31  1  0.753909  0.143498  0.083762  1
  O  O32  1  0.758367  0.876260  0.601689  1
  O  O33  1  0.902083  0.087366  0.463345  1
  O  O34  1  0.897726  0.913757  0.960461  1
  O  O35  1  0.917730  0.379929  0.896996  1
