# generated using pymatgen
data_Li3Zn3(Ge3O8)2
_symmetry_space_group_name_H-M   'P 1'
_cell_length_a   8.40130839
_cell_length_b   8.39986453
_cell_length_c   8.40035107
_cell_angle_alpha   90.00000000
_cell_angle_beta   90.00000000
_cell_angle_gamma   89.93953173
_symmetry_Int_Tables_number   1
_chemical_formula_structural   Li3Zn3(Ge3O8)2
_chemical_formula_sum   'Li6 Zn6 Ge12 O32'
_cell_volume   592.81120451
_cell_formula_units_Z   2
loop_
 _symmetry_equiv_pos_site_id
 _symmetry_equiv_pos_as_xyz
  1  'x, y, z'
loop_
 _atom_site_type_symbol
 _atom_site_label
 _atom_site_symmetry_multiplicity
 _atom_site_fract_x
 _atom_site_fract_y
 _atom_site_fract_z
 _atom_site_occupancy
  Li  Li0  1  0.122762  0.874167  0.374562  1
  Li  Li1  1  0.377238  0.125833  0.874562  1
  Li  Li2  1  0.626692  0.623616  0.624055  1
  Li  Li3  1  0.750830  0.249728  0.749415  1
  Li  Li4  1  0.749170  0.750272  0.249415  1
  Li  Li5  1  0.873308  0.376384  0.124055  1
  Zn  Zn6  1  0.998661  0.999607  0.000470  1
  Zn  Zn7  1  0.998836  0.500125  0.500744  1
  Zn  Zn8  1  0.249206  0.250062  0.249484  1
  Zn  Zn9  1  0.250794  0.749938  0.749484  1
  Zn  Zn10  1  0.501339  0.000393  0.500470  1
  Zn  Zn11  1  0.501164  0.499875  0.000744  1
  Ge  Ge12  1  0.126062  0.120584  0.624948  1
  Ge  Ge13  1  0.116329  0.626246  0.129964  1
  Ge  Ge14  1  0.120677  0.371249  0.878830  1
  Ge  Ge15  1  0.383671  0.373754  0.629964  1
  Ge  Ge16  1  0.379323  0.628751  0.378830  1
  Ge  Ge17  1  0.373937  0.879416  0.124948  1
  Ge  Ge18  1  0.626145  0.127438  0.117683  1
  Ge  Ge19  1  0.630109  0.381668  0.378037  1
  Ge  Ge20  1  0.622335  0.879250  0.873637  1
  Ge  Ge21  1  0.877665  0.120750  0.373637  1
  Ge  Ge22  1  0.869891  0.618332  0.878037  1
  Ge  Ge23  1  0.873855  0.872562  0.617683  1
  O  O24  1  0.127484  0.393700  0.104413  1
  O  O25  1  0.139127  0.360807  0.638700  1
  O  O26  1  0.147051  0.857520  0.122545  1
  O  O27  1  0.107142  0.894767  0.627588  1
  O  O28  1  0.104105  0.127406  0.392335  1
  O  O29  1  0.122476  0.145350  0.857175  1
  O  O30  1  0.143954  0.622575  0.354844  1
  O  O31  1  0.113247  0.612360  0.888115  1
  O  O32  1  0.392858  0.105233  0.127588  1
  O  O33  1  0.386753  0.387640  0.388115  1
  O  O34  1  0.352949  0.142480  0.622545  1
  O  O35  1  0.356046  0.377425  0.854844  1
  O  O36  1  0.360873  0.639193  0.138700  1
  O  O37  1  0.377524  0.854650  0.357175  1
  O  O38  1  0.372516  0.606300  0.604413  1
  O  O39  1  0.395895  0.872594  0.892335  1
  O  O40  1  0.638775  0.138806  0.360672  1
  O  O41  1  0.628669  0.106124  0.896092  1
  O  O42  1  0.622507  0.352866  0.144173  1
  O  O43  1  0.604344  0.370971  0.604614  1
  O  O44  1  0.605282  0.602928  0.371254  1
  O  O45  1  0.645385  0.644471  0.877506  1
  O  O46  1  0.609693  0.889600  0.110928  1
  O  O47  1  0.643001  0.877537  0.647215  1
  O  O48  1  0.856999  0.122463  0.147215  1
  O  O49  1  0.890307  0.110400  0.610928  1
  O  O50  1  0.854615  0.355529  0.377506  1
  O  O51  1  0.894718  0.397072  0.871254  1
  O  O52  1  0.895656  0.629029  0.104614  1
  O  O53  1  0.877493  0.647134  0.644173  1
  O  O54  1  0.871331  0.893876  0.396092  1
  O  O55  1  0.861225  0.861194  0.860672  1
