# generated using pymatgen
data_Li4Mn3(PO4)4
_symmetry_space_group_name_H-M   'P 1'
_cell_length_a   7.67925587
_cell_length_b   11.44077889
_cell_length_c   7.59220670
_cell_angle_alpha   74.92782325
_cell_angle_beta   101.83924354
_cell_angle_gamma   74.56184525
_symmetry_Int_Tables_number   1
_chemical_formula_structural   Li4Mn3(PO4)4
_chemical_formula_sum   'Li8 Mn6 P8 O32'
_cell_volume   593.24945122
_cell_formula_units_Z   2
loop_
 _symmetry_equiv_pos_site_id
 _symmetry_equiv_pos_as_xyz
  1  'x, y, z'
loop_
 _atom_site_type_symbol
 _atom_site_label
 _atom_site_symmetry_multiplicity
 _atom_site_fract_x
 _atom_site_fract_y
 _atom_site_fract_z
 _atom_site_occupancy
  Li  Li0  1  0.226544  0.271080  0.473855  1
  Li  Li1  1  0.737917  0.017521  0.251368  1
  Li  Li2  1  0.255603  0.011400  0.731322  1
  Li  Li3  1  0.499207  0.496584  0.486284  1
  Li  Li4  1  0.247199  0.493479  0.743163  1
  Li  Li5  1  0.986273  0.487721  0.018637  1
  Li  Li6  1  0.726090  0.278766  0.977093  1
  Li  Li7  1  0.989678  0.015933  0.997219  1
  Mn  Mn8  1  0.265999  0.223349  0.007628  1
  Mn  Mn9  1  0.272398  0.722433  0.019729  1
  Mn  Mn10  1  0.761893  0.228489  0.512370  1
  Mn  Mn11  1  0.244544  0.784410  0.493443  1
  Mn  Mn12  1  0.764630  0.725321  0.517718  1
  Mn  Mn13  1  0.742773  0.780656  0.993254  1
  P  P14  1  0.041242  0.097338  0.295699  1
  P  P15  1  0.374881  0.401709  0.126073  1
  P  P16  1  0.116152  0.596504  0.363667  1
  P  P17  1  0.551779  0.093253  0.795879  1
  P  P18  1  0.462346  0.908820  0.215074  1
  P  P19  1  0.878220  0.403952  0.624898  1
  P  P20  1  0.613665  0.594757  0.864926  1
  P  P21  1  0.966825  0.906298  0.715520  1
  O  O22  1  0.046203  0.162311  0.087864  1
  O  O23  1  0.456734  0.045118  0.201828  1
  O  O24  1  0.191323  0.101003  0.454501  1
  O  O25  1  0.235102  0.327483  0.183422  1
  O  O26  1  0.234712  0.457546  0.486536  1
  O  O27  1  0.046077  0.669576  0.500834  1
  O  O28  1  0.542200  0.673305  0.994099  1
  O  O29  1  0.258555  0.665826  0.299822  1
  O  O30  1  0.527858  0.392727  0.294562  1
  O  O31  1  0.041802  0.394712  0.789153  1
  O  O32  1  0.308532  0.901198  0.059753  1
  O  O33  1  0.052750  0.955261  0.303334  1
  O  O34  1  0.832561  0.161581  0.299599  1
  O  O35  1  0.342775  0.161219  0.800691  1
  O  O36  1  0.557330  0.165663  0.594179  1
  O  O37  1  0.960583  0.042369  0.712908  1
  O  O38  1  0.177504  0.832548  0.723525  1
  O  O39  1  0.672194  0.831604  0.222557  1
  O  O40  1  0.469298  0.828309  0.421401  1
  O  O41  1  0.706505  0.093644  0.958865  1
  O  O42  1  0.445880  0.609969  0.696435  1
  O  O43  1  0.955893  0.612293  0.192431  1
  O  O44  1  0.738926  0.331594  0.690077  1
  O  O45  1  0.443027  0.330221  0.987197  1
  O  O46  1  0.946393  0.323307  0.497436  1
  O  O47  1  0.753780  0.543063  0.509264  1
  O  O48  1  0.249674  0.541025  0.999421  1
  O  O49  1  0.732204  0.455896  0.976093  1
  O  O50  1  0.751483  0.667505  0.795808  1
  O  O51  1  0.821179  0.896597  0.558349  1
  O  O52  1  0.556654  0.953382  0.810444  1
  O  O53  1  0.971899  0.829930  0.924736  1
