# generated using pymatgen
data_UH12C2S2N6O13
_symmetry_space_group_name_H-M   'P 1'
_cell_length_a   6.92616694
_cell_length_b   6.92616694
_cell_length_c   18.63074720
_cell_angle_alpha   81.80251622
_cell_angle_beta   98.19748378
_cell_angle_gamma   108.15455017
_symmetry_Int_Tables_number   1
_chemical_formula_structural   UH12C2S2N6O13
_chemical_formula_sum   'U2 H24 C4 S4 N12 O26'
_cell_volume   835.99106976
_cell_formula_units_Z   2
loop_
 _symmetry_equiv_pos_site_id
 _symmetry_equiv_pos_as_xyz
  1  'x, y, z'
loop_
 _atom_site_type_symbol
 _atom_site_label
 _atom_site_symmetry_multiplicity
 _atom_site_fract_x
 _atom_site_fract_y
 _atom_site_fract_z
 _atom_site_occupancy
  U  U0  1  0.213070  0.213070  0.750000  1
  U  U1  1  0.786930  0.786930  0.250000  1
  H  H2  1  0.123966  0.635785  0.877133  1
  H  H3  1  0.635785  0.123966  0.622867  1
  H  H4  1  0.876034  0.364215  0.122867  1
  H  H5  1  0.364215  0.876034  0.377133  1
  H  H6  1  0.382127  0.646024  0.892206  1
  H  H7  1  0.646024  0.382127  0.607794  1
  H  H8  1  0.617873  0.353976  0.107794  1
  H  H9  1  0.353976  0.617873  0.392206  1
  H  H10  1  0.984469  0.747894  0.968370  1
  H  H11  1  0.747894  0.984469  0.531630  1
  H  H12  1  0.015531  0.252106  0.031630  1
  H  H13  1  0.252106  0.015531  0.468370  1
  H  H14  1  0.135714  0.793419  0.053973  1
  H  H15  1  0.793419  0.135714  0.446027  1
  H  H16  1  0.864286  0.206581  0.946027  1
  H  H17  1  0.206581  0.864286  0.553973  1
  H  H18  1  0.571439  0.723413  0.000480  1
  H  H19  1  0.723413  0.571439  0.499520  1
  H  H20  1  0.428561  0.276587  0.999520  1
  H  H21  1  0.276587  0.428561  0.500480  1
  H  H22  1  0.470575  0.788281  0.070731  1
  H  H23  1  0.788281  0.470575  0.429269  1
  H  H24  1  0.529425  0.211719  0.929269  1
  H  H25  1  0.211719  0.529425  0.570731  1
  C  C26  1  0.271989  0.716121  0.977453  1
  C  C27  1  0.716121  0.271989  0.522547  1
  C  C28  1  0.728011  0.283879  0.022547  1
  C  C29  1  0.283879  0.728011  0.477453  1
  S  S30  1  0.323814  0.761874  0.704648  1
  S  S31  1  0.761874  0.323814  0.795352  1
  S  S32  1  0.676186  0.238126  0.295352  1
  S  S33  1  0.238126  0.676186  0.204648  1
  N  N34  1  0.255718  0.654105  0.911925  1
  N  N35  1  0.654105  0.255718  0.588075  1
  N  N36  1  0.744282  0.345895  0.088075  1
  N  N37  1  0.345895  0.744282  0.411925  1
  N  N38  1  0.118116  0.757540  0.001455  1
  N  N39  1  0.757540  0.118116  0.498545  1
  N  N40  1  0.881884  0.242460  0.998545  1
  N  N41  1  0.242460  0.881884  0.501455  1
  N  N42  1  0.447739  0.732162  0.021494  1
  N  N43  1  0.732162  0.447739  0.478506  1
  N  N44  1  0.552261  0.267838  0.978506  1
  N  N45  1  0.267838  0.552261  0.521494  1
  O  O46  1  0.720568  0.736378  0.906844  1
  O  O47  1  0.736378  0.720568  0.593156  1
  O  O48  1  0.279432  0.263622  0.093156  1
  O  O49  1  0.263622  0.279432  0.406844  1
  O  O50  1  0.926522  0.926522  0.750000  1
  O  O51  1  0.073478  0.073478  0.250000  1
  O  O52  1  0.184180  0.238047  0.650650  1
  O  O53  1  0.238047  0.184180  0.849350  1
  O  O54  1  0.815820  0.761953  0.349350  1
  O  O55  1  0.761953  0.815820  0.150650  1
  O  O56  1  0.571394  0.321549  0.745634  1
  O  O57  1  0.321549  0.571394  0.754366  1
  O  O58  1  0.428606  0.678451  0.254366  1
  O  O59  1  0.678451  0.428606  0.245634  1
  O  O60  1  0.525258  0.855058  0.676581  1
  O  O61  1  0.855058  0.525258  0.823419  1
  O  O62  1  0.474742  0.144942  0.323420  1
  O  O63  1  0.144942  0.474742  0.176581  1
  O  O64  1  0.294924  0.907797  0.752659  1
  O  O65  1  0.907797  0.294924  0.747341  1
  O  O66  1  0.705076  0.092203  0.247341  1
  O  O67  1  0.092203  0.705076  0.252659  1
  O  O68  1  0.720621  0.156595  0.854727  1
  O  O69  1  0.156595  0.720621  0.645273  1
  O  O70  1  0.279379  0.843405  0.145273  1
  O  O71  1  0.843405  0.279379  0.354727  1
