# generated using pymatgen
data_LiFeBO3
_symmetry_space_group_name_H-M   'P 1'
_cell_length_a   8.36742561
_cell_length_b   8.36754035
_cell_length_c   3.11844497
_cell_angle_alpha   90.00000000
_cell_angle_beta   90.00000000
_cell_angle_gamma   120.00668588
_symmetry_Int_Tables_number   1
_chemical_formula_structural   LiFeBO3
_chemical_formula_sum   'Li3 Fe3 B3 O9'
_cell_volume   189.07283174
_cell_formula_units_Z   3
loop_
 _symmetry_equiv_pos_site_id
 _symmetry_equiv_pos_as_xyz
  1  'x, y, z'
loop_
 _atom_site_type_symbol
 _atom_site_label
 _atom_site_symmetry_multiplicity
 _atom_site_fract_x
 _atom_site_fract_y
 _atom_site_fract_z
 _atom_site_occupancy
  Li  Li0  1  0.369321  0.359052  0.000000  1
  Li  Li1  1  0.640961  0.010364  0.000000  1
  Li  Li2  1  0.989665  0.630611  0.000000  1
  Fe  Fe3  1  0.306388  0.990491  0.500000  1
  Fe  Fe4  1  0.009462  0.315830  0.500000  1
  Fe  Fe5  1  0.684242  0.693666  0.500000  1
  B  B6  1  0.333398  0.666709  0.500000  1
  B  B7  1  -0.000034  -0.000033  0.000000  1
  B  B8  1  0.666716  0.333316  0.500000  1
  O  O9  1  0.104737  0.912503  0.000000  1
  O  O10  1  0.143213  0.589741  0.500000  1
  O  O11  1  0.087444  0.192257  0.000000  1
  O  O12  1  0.446565  0.856824  0.500000  1
  O  O13  1  0.410274  0.553509  0.500000  1
  O  O14  1  0.475927  0.259322  0.500000  1
  O  O15  1  0.807668  0.895181  0.000000  1
  O  O16  1  0.783433  0.524058  0.500000  1
  O  O17  1  0.740618  0.216601  0.500000  1
