# generated using pymatgen
data_Na4Sb2C4SO16
_symmetry_space_group_name_H-M   'P 1'
_cell_length_a   10.21309999
_cell_length_b   10.19855769
_cell_length_c   17.83363238
_cell_angle_alpha   89.88094357
_cell_angle_beta   72.50648185
_cell_angle_gamma   119.17153395
_symmetry_Int_Tables_number   1
_chemical_formula_structural   Na4Sb2C4SO16
_chemical_formula_sum   'Na16 Sb8 C16 S4 O64'
_cell_volume   1522.09212065
_cell_formula_units_Z   4
loop_
 _symmetry_equiv_pos_site_id
 _symmetry_equiv_pos_as_xyz
  1  'x, y, z'
loop_
 _atom_site_type_symbol
 _atom_site_label
 _atom_site_symmetry_multiplicity
 _atom_site_fract_x
 _atom_site_fract_y
 _atom_site_fract_z
 _atom_site_occupancy
  Na  Na0  1  0.922002  0.414564  0.164157  1
  Na  Na1  1  0.680333  0.784276  0.034835  1
  Na  Na2  1  0.339630  0.118560  0.459533  1
  Na  Na3  1  0.917773  0.689487  0.459977  1
  Na  Na4  1  0.918870  0.002843  0.165646  1
  Na  Na5  1  0.331407  0.415747  0.165277  1
  Na  Na6  1  0.916856  0.498824  0.660718  1
  Na  Na7  1  0.918836  0.209884  0.959846  1
  Na  Na8  1  0.073577  0.088319  0.339507  1
  Na  Na9  1  0.923567  0.913132  0.668550  1
  Na  Na10  1  0.680210  0.893230  0.535053  1
  Na  Na11  1  0.321541  0.701075  0.460240  1
  Na  Na12  1  0.329665  0.212043  0.958043  1
  Na  Na13  1  0.328852  0.621325  0.961596  1
  Na  Na14  1  0.329820  0.920157  0.666018  1
  Na  Na15  1  0.067869  0.590181  0.840062  1
  Sb  Sb16  1  0.493280  0.005669  0.000058  1
  Sb  Sb17  1  0.512060  0.252050  0.246622  1
  Sb  Sb18  1  0.492546  0.491441  0.499861  1
  Sb  Sb19  1  0.500775  0.251240  0.750213  1
  Sb  Sb20  1  0.494719  0.749993  0.255686  1
  Sb  Sb21  1  0.999349  0.740243  0.247617  1
  Sb  Sb22  1  0.506741  0.749560  0.752394  1
  Sb  Sb23  1  0.999873  0.244014  0.747967  1
  C  C24  1  0.671381  0.082551  0.135090  1
  C  C25  1  0.275963  0.088216  0.141149  1
  C  C26  1  0.719051  0.422437  0.357443  1
  C  C27  1  0.719943  0.608903  0.171111  1
  C  C28  1  0.718992  0.106352  0.671557  1
  C  C29  1  0.342584  0.420569  0.360335  1
  C  C30  1  0.719433  0.800212  0.361087  1
  C  C31  1  0.718035  0.297813  0.859459  1
  C  C32  1  0.282020  0.690420  0.137958  1
  C  C33  1  0.277244  0.190812  0.637995  1
  C  C34  1  0.670872  0.589907  0.636828  1
  C  C35  1  0.270523  0.888785  0.335606  1
  C  C36  1  0.272010  0.390506  0.835354  1
  C  C37  1  0.280021  0.590790  0.639677  1
  C  C38  1  0.719915  0.920879  0.859481  1
  C  C39  1  0.342185  0.922322  0.859977  1
  S  S40  1  0.874024  0.183455  0.437466  1
  S  S41  1  0.125270  0.312356  0.062478  1
  S  S42  1  0.874851  0.687840  0.937452  1
  S  S43  1  0.125146  0.811981  0.562586  1
  O  O44  1  0.671320  0.132434  0.068565  1
  O  O45  1  0.934713  0.207680  0.347610  1
  O  O46  1  0.932926  0.085559  0.465890  1
  O  O47  1  0.672279  0.159567  0.193979  1
  O  O48  1  0.294136  0.039764  0.072847  1
  O  O49  1  0.694414  0.089682  0.468956  1
  O  O50  1  0.934109  0.328323  0.467344  1
  O  O51  1  0.849487  0.490102  0.294708  1
  O  O52  1  0.844456  0.992874  0.794426  1
  O  O53  1  0.712352  0.477345  0.175285  1
  O  O54  1  0.391955  0.212189  0.149840  1
  O  O55  1  0.844446  0.226297  0.675904  1
  O  O56  1  0.596176  0.297871  0.354033  1
  O  O57  1  0.847271  0.729785  0.173747  1
  O  O58  1  0.287793  0.023757  0.336947  1
  O  O59  1  0.304104  0.401081  0.032299  1
  O  O60  1  0.066568  0.163918  0.032966  1
  O  O61  1  0.601056  0.619355  0.166168  1
  O  O62  1  0.592585  0.111713  0.675259  1
  O  O63  1  0.711329  0.482337  0.421453  1
  O  O64  1  0.332228  0.348472  0.300744  1
  O  O65  1  0.854869  0.812797  0.356270  1
  O  O66  1  0.851413  0.309706  0.857846  1
  O  O67  1  0.065009  0.282285  0.151978  1
  O  O68  1  0.065345  0.402561  0.032911  1
  O  O69  1  0.671866  0.465140  0.646142  1
  O  O70  1  0.674694  0.957581  0.144163  1
  O  O71  1  0.398224  0.755506  0.069505  1
  O  O72  1  0.391109  0.256802  0.568750  1
  O  O73  1  0.346930  0.362077  0.423954  1
  O  O74  1  0.705678  0.849108  0.297883  1
  O  O75  1  0.710661  0.354381  0.796578  1
  O  O76  1  0.671418  0.641145  0.569822  1
  O  O77  1  0.298870  0.134550  0.694961  1
  O  O78  1  0.299563  0.632293  0.196126  1
  O  O79  1  0.352539  0.054292  0.853774  1
  O  O80  1  0.598596  0.737922  0.427881  1
  O  O81  1  0.352607  0.553188  0.357319  1
  O  O82  1  0.590116  0.226820  0.923247  1
  O  O83  1  0.936587  0.597360  0.965659  1
  O  O84  1  0.936217  0.717131  0.847638  1
  O  O85  1  0.145664  0.680989  0.146619  1
  O  O86  1  0.139017  0.177972  0.648357  1
  O  O87  1  0.673800  0.669191  0.695050  1
  O  O88  1  0.294721  0.539649  0.572838  1
  O  O89  1  0.388258  0.870110  0.336395  1
  O  O90  1  0.388741  0.372567  0.835628  1
  O  O91  1  0.931221  0.836143  0.967972  1
  O  O92  1  0.695228  0.600769  0.968447  1
  O  O93  1  0.716092  0.977301  0.665242  1
  O  O94  1  0.137619  0.773188  0.335567  1
  O  O95  1  0.398860  0.717405  0.646242  1
  O  O96  1  0.137313  0.276566  0.836367  1
  O  O97  1  0.595238  0.795972  0.856606  1
  O  O98  1  0.289406  0.527460  0.836116  1
  O  O99  1  0.146134  0.517883  0.699620  1
  O  O100  1  0.139359  0.012748  0.199041  1
  O  O101  1  0.304234  0.899734  0.532287  1
  O  O102  1  0.066669  0.663606  0.533086  1
  O  O103  1  0.716178  0.972787  0.925697  1
  O  O104  1  0.329169  0.844343  0.802403  1
  O  O105  1  0.065252  0.902199  0.533154  1
  O  O106  1  0.065305  0.781619  0.652050  1
  O  O107  1  0.348899  0.868541  0.924273  1
