# generated using pymatgen
data_Cr4OF11
_symmetry_space_group_name_H-M   'P 1'
_cell_length_a   5.05681765
_cell_length_b   5.36117948
_cell_length_c   8.80062824
_cell_angle_alpha   74.05356475
_cell_angle_beta   90.47428114
_cell_angle_gamma   61.41681666
_symmetry_Int_Tables_number   1
_chemical_formula_structural   Cr4OF11
_chemical_formula_sum   'Cr4 O1 F11'
_cell_volume   198.67140430
_cell_formula_units_Z   1
loop_
 _symmetry_equiv_pos_site_id
 _symmetry_equiv_pos_as_xyz
  1  'x, y, z'
loop_
 _atom_site_type_symbol
 _atom_site_label
 _atom_site_symmetry_multiplicity
 _atom_site_fract_x
 _atom_site_fract_y
 _atom_site_fract_z
 _atom_site_occupancy
  Cr  Cr0  1  0.772042  0.486221  0.255872  1
  Cr  Cr1  1  0.479872  0.013876  0.491906  1
  Cr  Cr2  1  0.245251  0.502910  0.749599  1
  Cr  Cr3  1  0.002905  0.997474  0.001814  1
  O  O4  1  0.186903  0.250022  0.313081  1
  F  F5  1  0.807671  0.756118  0.680402  1
  F  F6  1  0.814713  0.749726  0.067076  1
  F  F7  1  0.744976  0.749552  0.376181  1
  F  F8  1  0.755423  0.250756  0.126231  1
  F  F9  1  0.685841  0.249981  0.813927  1
  F  F10  1  0.684875  0.248525  0.437035  1
  F  F11  1  0.313047  0.750984  0.563535  1
  F  F12  1  0.324198  0.744247  0.187306  1
  F  F13  1  0.246524  0.749142  0.875538  1
  F  F14  1  0.249920  0.250600  0.624848  1
  F  F15  1  0.185837  0.249868  0.935649  1
