# generated using pymatgen
data_Hf2N2O
_symmetry_space_group_name_H-M   'P 1'
_cell_length_a   8.73383017
_cell_length_b   8.74593802
_cell_length_c   8.73677080
_cell_angle_alpha   109.47647352
_cell_angle_beta   109.50610408
_cell_angle_gamma   109.50061501
_symmetry_Int_Tables_number   1
_chemical_formula_structural   Hf2N2O
_chemical_formula_sum   'Hf16 N16 O8'
_cell_volume   513.29488458
_cell_formula_units_Z   8
loop_
 _symmetry_equiv_pos_site_id
 _symmetry_equiv_pos_as_xyz
  1  'x, y, z'
loop_
 _atom_site_type_symbol
 _atom_site_label
 _atom_site_symmetry_multiplicity
 _atom_site_fract_x
 _atom_site_fract_y
 _atom_site_fract_z
 _atom_site_occupancy
  Hf  Hf0  1  0.493102  0.011897  0.002860  1
  Hf  Hf1  1  0.969799  0.254567  0.221256  1
  Hf  Hf2  1  0.784461  0.036988  0.751172  1
  Hf  Hf3  1  0.715364  0.466045  0.252178  1
  Hf  Hf4  1  0.757443  0.297768  0.538488  1
  Hf  Hf5  1  0.742634  0.776324  0.034983  1
  Hf  Hf6  1  0.999972  0.487887  0.988465  1
  Hf  Hf7  1  0.505158  0.509229  0.512730  1
  Hf  Hf8  1  0.009929  0.997997  0.508588  1
  Hf  Hf9  1  0.463157  0.249588  0.720914  1
  Hf  Hf10  1  0.535275  0.749645  0.291131  1
  Hf  Hf11  1  0.239312  0.208548  0.956247  1
  Hf  Hf12  1  0.257477  0.719104  0.469022  1
  Hf  Hf13  1  0.217909  0.956898  0.248472  1
  Hf  Hf14  1  0.281514  0.532095  0.742172  1
  Hf  Hf15  1  0.042324  0.752069  0.781814  1
  N  N16  1  0.743628  0.224340  0.273673  1
  N  N17  1  0.769360  0.725362  0.257020  1
  N  N18  1  0.726031  0.258607  0.767648  1
  N  N19  1  0.767668  0.542831  0.531887  1
  N  N20  1  0.225228  0.450314  0.462613  1
  N  N21  1  0.511478  0.241959  0.969640  1
  N  N22  1  0.274077  0.736917  0.221261  1
  N  N23  1  0.536740  0.772346  0.545457  1
  N  N24  1  0.221226  0.271304  0.734605  1
  N  N25  1  0.272529  0.010991  0.048279  1
  N  N26  1  0.549453  0.537289  0.775399  1
  N  N27  1  0.045482  0.274604  0.016208  1
  N  N28  1  0.237396  0.966736  0.507928  1
  N  N29  1  0.265418  0.776651  0.729058  1
  N  N30  1  0.034311  0.491820  0.763412  1
  N  N31  1  0.985586  0.953204  0.722916  1
  O  O32  1  0.007876  0.041197  0.264044  1
  O  O33  1  0.964855  0.512667  0.238804  1
  O  O34  1  0.954464  0.729176  0.996816  1
  O  O35  1  0.757046  0.031158  0.484789  1
  O  O36  1  0.453397  0.467614  0.227550  1
  O  O37  1  0.727799  0.983090  0.953385  1
  O  O38  1  0.460650  0.226699  0.450707  1
  O  O39  1  0.493474  0.766474  0.036407  1
