# generated using pymatgen
data_Li6MnFe5(BO3)6
_symmetry_space_group_name_H-M   'P 1'
_cell_length_a   8.24492773
_cell_length_b   8.81545093
_cell_length_c   6.27663765
_cell_angle_alpha   69.14512474
_cell_angle_beta   90.00000000
_cell_angle_gamma   62.23677076
_symmetry_Int_Tables_number   1
_chemical_formula_structural   Li6MnFe5(BO3)6
_chemical_formula_sum   'Li6 Mn1 Fe5 B6 O18'
_cell_volume   369.57404861
_cell_formula_units_Z   1
loop_
 _symmetry_equiv_pos_site_id
 _symmetry_equiv_pos_as_xyz
  1  'x, y, z'
loop_
 _atom_site_type_symbol
 _atom_site_label
 _atom_site_symmetry_multiplicity
 _atom_site_fract_x
 _atom_site_fract_y
 _atom_site_fract_z
 _atom_site_occupancy
  Li  Li0  1  0.714329  0.983981  0.757848  1
  Li  Li1  1  0.714329  0.983981  0.258172  1
  Li  Li2  1  0.983686  0.301924  0.598632  1
  Li  Li3  1  0.983686  0.301924  0.099443  1
  Li  Li4  1  0.301948  0.715337  0.893233  1
  Li  Li5  1  0.301948  0.715337  0.391430  1
  Mn  Mn6  1  0.012974  0.627097  0.686452  1
  Fe  Fe7  1  0.632103  0.360178  0.819910  1
  Fe  Fe8  1  0.632494  0.359484  0.320258  1
  Fe  Fe9  1  0.359245  0.007181  0.496410  1
  Fe  Fe10  1  0.360366  0.008355  0.995823  1
  Fe  Fe11  1  0.007719  0.632187  0.183907  1
  B  B12  1  0.665698  0.666589  0.414940  1
  B  B13  1  0.665698  0.666589  0.918471  1
  B  B14  1  0.335015  0.332243  0.582386  1
  B  B15  1  0.335015  0.332243  0.085371  1
  B  B16  1  -0.000023  0.000220  0.999889  1
  B  B17  1  0.997916  0.002143  0.498929  1
  O  O18  1  0.886240  0.920405  0.539798  1
  O  O19  1  0.890970  0.914709  0.042646  1
  O  O20  1  0.858949  0.581135  0.963116  1
  O  O21  1  0.858949  0.581135  0.455749  1
  O  O22  1  0.914996  0.194375  0.902812  1
  O  O23  1  0.916002  0.196252  0.401874  1
  O  O24  1  0.557472  0.860754  0.319661  1
  O  O25  1  0.557472  0.860754  0.819586  1
  O  O26  1  0.579770  0.558244  0.971027  1
  O  O27  1  0.579770  0.558244  0.470729  1
  O  O28  1  0.528401  0.253194  0.623970  1
  O  O29  1  0.528401  0.253194  0.122836  1
  O  O30  1  0.192235  0.890870  0.554564  1
  O  O31  1  0.193834  0.891410  0.054296  1
  O  O32  1  0.221359  0.525975  0.483519  1
  O  O33  1  0.221359  0.525975  0.990506  1
  O  O34  1  0.254838  0.218192  0.640494  1
  O  O35  1  0.254838  0.218192  0.141314  1
