# generated using pymatgen
data_Na2BiO3
_symmetry_space_group_name_H-M   'P 1'
_cell_length_a   5.87931777
_cell_length_b   5.87931777
_cell_length_c   5.88099160
_cell_angle_alpha   79.12836832
_cell_angle_beta   100.87163168
_cell_angle_gamma   62.07970783
_symmetry_Int_Tables_number   1
_chemical_formula_structural   Na2BiO3
_chemical_formula_sum   'Na4 Bi2 O6'
_cell_volume   167.17456500
_cell_formula_units_Z   2
loop_
 _symmetry_equiv_pos_site_id
 _symmetry_equiv_pos_as_xyz
  1  'x, y, z'
loop_
 _atom_site_type_symbol
 _atom_site_label
 _atom_site_symmetry_multiplicity
 _atom_site_fract_x
 _atom_site_fract_y
 _atom_site_fract_z
 _atom_site_occupancy
  Na  Na0  1  0.572962  0.591301  0.491763  1
  Na  Na1  1  0.247464  0.263478  0.491828  1
  Na  Na2  1  0.736522  0.752536  0.991828  1
  Na  Na3  1  0.408699  0.427038  0.991763  1
  Bi  Bi4  1  0.900685  0.917451  0.491085  1
  Bi  Bi5  1  0.082549  0.099315  0.991085  1
  O  O6  1  0.272785  0.863610  0.742622  1
  O  O7  1  0.136390  0.727215  0.242622  1
  O  O8  1  0.991417  0.508630  0.741134  1
  O  O9  1  0.710159  0.153402  0.739367  1
  O  O10  1  0.491370  0.008583  0.241134  1
  O  O11  1  0.846598  0.289841  0.239367  1
