# generated using pymatgen
data_Sr3(RhO2)16
_symmetry_space_group_name_H-M   'P 1'
_cell_length_a   9.86898903
_cell_length_b   8.20123897
_cell_length_c   8.75325826
_cell_angle_alpha   77.30034493
_cell_angle_beta   113.08711743
_cell_angle_gamma   107.61803788
_symmetry_Int_Tables_number   1
_chemical_formula_structural   Sr3(RhO2)16
_chemical_formula_sum   'Sr3 Rh16 O32'
_cell_volume   617.01203338
_cell_formula_units_Z   1
loop_
 _symmetry_equiv_pos_site_id
 _symmetry_equiv_pos_as_xyz
  1  'x, y, z'
loop_
 _atom_site_type_symbol
 _atom_site_label
 _atom_site_symmetry_multiplicity
 _atom_site_fract_x
 _atom_site_fract_y
 _atom_site_fract_z
 _atom_site_occupancy
  Sr  Sr0  1  0.015924  0.015862  0.016316  1
  Sr  Sr1  1  0.327476  0.327874  0.327717  1
  Sr  Sr2  1  0.696017  0.695369  0.695692  1
  Rh  Rh3  1  0.246138  0.056029  0.780057  1
  Rh  Rh4  1  0.620563  0.120380  0.800151  1
  Rh  Rh5  1  0.129258  0.629454  0.949582  1
  Rh  Rh6  1  0.005005  0.193595  0.469452  1
  Rh  Rh7  1  0.255462  0.444609  0.719190  1
  Rh  Rh8  1  0.504512  0.694472  0.970451  1
  Rh  Rh9  1  0.880961  0.378132  0.700681  1
  Rh  Rh10  1  0.632431  0.129792  0.451822  1
  Rh  Rh11  1  0.368727  0.869903  0.549087  1
  Rh  Rh12  1  0.118844  0.622488  0.299165  1
  Rh  Rh13  1  0.995999  0.807376  0.529845  1
  Rh  Rh14  1  0.495279  0.305618  0.030371  1
  Rh  Rh15  1  0.744802  0.555588  0.281853  1
  Rh  Rh16  1  0.871055  0.371858  0.050858  1
  Rh  Rh17  1  0.380697  0.880471  0.201203  1
  Rh  Rh18  1  0.754197  0.943915  0.220142  1
  O  O19  1  0.470946  0.130582  0.889548  1
  O  O20  1  0.261160  0.243401  0.913187  1
  O  O21  1  0.024529  0.367432  0.949376  1
  O  O22  1  0.775814  0.117440  0.700902  1
  O  O23  1  0.728471  0.379643  0.804455  1
  O  O24  1  0.477769  0.127776  0.554101  1
  O  O25  1  0.488862  0.506540  0.837679  1
  O  O26  1  0.237769  0.254570  0.585828  1
  O  O27  1  0.279474  0.618917  0.860616  1
  O  O28  1  0.030620  0.367622  0.611743  1
  O  O29  1  0.212334  0.886736  0.972303  1
  O  O30  1  0.987963  0.005647  0.333585  1
  O  O31  1  0.780715  0.119809  0.361285  1
  O  O32  1  0.960616  0.636217  0.721103  1
  O  O33  1  0.461926  0.138128  0.224081  1
  O  O34  1  0.714751  0.384855  0.473052  1
  O  O35  1  0.538195  0.862753  0.777368  1
  O  O36  1  0.041104  0.364694  0.278719  1
  O  O37  1  0.284982  0.614879  0.527155  1
  O  O38  1  0.220294  0.880801  0.638772  1
  O  O39  1  0.012922  0.995215  0.664262  1
  O  O40  1  0.788380  0.114171  0.028391  1
  O  O41  1  0.720448  0.381824  0.139577  1
  O  O42  1  0.969205  0.632030  0.388232  1
  O  O43  1  0.763440  0.746358  0.415505  1
  O  O44  1  0.511493  0.494243  0.163275  1
  O  O45  1  0.523831  0.871551  0.448179  1
  O  O46  1  0.272206  0.622615  0.195756  1
  O  O47  1  0.224467  0.883651  0.299511  1
  O  O48  1  0.975997  0.633017  0.050745  1
  O  O49  1  0.737635  0.755277  0.087897  1
  O  O50  1  0.529639  0.870124  0.111480  1
