# generated using pymatgen
data_Li2VCr(P2O7)2
_symmetry_space_group_name_H-M   'P 1'
_cell_length_a   9.73450806
_cell_length_b   8.22518876
_cell_length_c   7.14760281
_cell_angle_alpha   90.00000000
_cell_angle_beta   68.61791522
_cell_angle_gamma   90.00000000
_symmetry_Int_Tables_number   1
_chemical_formula_structural   Li2VCr(P2O7)2
_chemical_formula_sum   'Li4 V2 Cr2 P8 O28'
_cell_volume   532.90427453
_cell_formula_units_Z   2
loop_
 _symmetry_equiv_pos_site_id
 _symmetry_equiv_pos_as_xyz
  1  'x, y, z'
loop_
 _atom_site_type_symbol
 _atom_site_label
 _atom_site_symmetry_multiplicity
 _atom_site_fract_x
 _atom_site_fract_y
 _atom_site_fract_z
 _atom_site_occupancy
  Li  Li0  1  0.250349  0.362665  0.323331  1
  Li  Li1  1  0.249651  0.862665  0.676669  1
  Li  Li2  1  0.748833  0.362672  0.324229  1
  Li  Li3  1  0.751167  0.862672  0.675771  1
  V  V4  1  0.256675  0.999316  0.270817  1
  V  V5  1  0.243325  0.499316  0.729183  1
  Cr  Cr6  1  0.756450  0.000071  0.272390  1
  Cr  Cr7  1  0.743550  0.500071  0.727610  1
  P  P8  1  0.062096  0.784597  0.086566  1
  P  P9  1  0.060286  0.679779  0.478598  1
  P  P10  1  0.439714  0.179779  0.521402  1
  P  P11  1  0.564780  0.783131  0.085070  1
  P  P12  1  0.437904  0.284597  0.913434  1
  P  P13  1  0.562014  0.680602  0.476891  1
  P  P14  1  0.937986  0.180602  0.523109  1
  P  P15  1  0.935220  0.283131  0.914930  1
  O  O16  1  0.079137  0.652345  0.246848  1
  O  O17  1  0.157045  0.934970  0.083203  1
  O  O18  1  0.103129  0.179666  0.394531  1
  O  O19  1  0.128655  0.843988  0.494964  1
  O  O20  1  0.147740  0.537152  0.518205  1
  O  O21  1  0.098464  0.322432  0.853481  1
  O  O22  1  0.122675  0.696784  0.885369  1
  O  O23  1  0.377325  0.196784  0.114631  1
  O  O24  1  0.401536  0.822432  0.146519  1
  O  O25  1  0.352260  0.037152  0.481795  1
  O  O26  1  0.371345  0.343988  0.505036  1
  O  O27  1  0.396871  0.679666  0.605469  1
  O  O28  1  0.342955  0.434970  0.916797  1
  O  O29  1  0.420863  0.152345  0.753152  1
  O  O30  1  0.579885  0.651225  0.246327  1
  O  O31  1  0.658384  0.933469  0.082712  1
  O  O32  1  0.604622  0.178129  0.393239  1
  O  O33  1  0.630893  0.846205  0.490419  1
  O  O34  1  0.648202  0.538256  0.518391  1
  O  O35  1  0.600557  0.324580  0.852588  1
  O  O36  1  0.624318  0.693546  0.883500  1
  O  O37  1  0.875682  0.193546  0.116500  1
  O  O38  1  0.899443  0.824580  0.147412  1
  O  O39  1  0.851798  0.038256  0.481609  1
  O  O40  1  0.869107  0.346205  0.509581  1
  O  O41  1  0.895378  0.678129  0.606761  1
  O  O42  1  0.841616  0.433469  0.917288  1
  O  O43  1  0.920115  0.151225  0.753673  1
