# generated using pymatgen
data_NaBiCSO7
_symmetry_space_group_name_H-M   'P 1'
_cell_length_a   9.42468687
_cell_length_b   7.07063296
_cell_length_c   5.72711645
_cell_angle_alpha   90.00000000
_cell_angle_beta   90.52707748
_cell_angle_gamma   90.00000000
_symmetry_Int_Tables_number   1
_chemical_formula_structural   NaBiCSO7
_chemical_formula_sum   'Na2 Bi2 C2 S2 O14'
_cell_volume   381.63031054
_cell_formula_units_Z   2
loop_
 _symmetry_equiv_pos_site_id
 _symmetry_equiv_pos_as_xyz
  1  'x, y, z'
loop_
 _atom_site_type_symbol
 _atom_site_label
 _atom_site_symmetry_multiplicity
 _atom_site_fract_x
 _atom_site_fract_y
 _atom_site_fract_z
 _atom_site_occupancy
  Na  Na0  1  0.206153  0.491862  0.246659  1
  Na  Na1  1  0.793847  0.991862  0.753341  1
  Bi  Bi2  1  0.350888  0.763805  0.780148  1
  Bi  Bi3  1  0.649112  0.263805  0.219852  1
  C  C4  1  0.070832  0.734375  0.721613  1
  C  C5  1  0.929168  0.234375  0.278387  1
  S  S6  1  0.414555  0.259544  0.721991  1
  S  S7  1  0.585445  0.759544  0.278009  1
  O  O8  1  0.057734  0.251135  0.305818  1
  O  O9  1  0.136147  0.736503  0.932978  1
  O  O10  1  0.163140  0.717871  0.543979  1
  O  O11  1  0.324878  0.095306  0.789965  1
  O  O12  1  0.351707  0.428114  0.842150  1
  O  O13  1  0.434806  0.731130  0.196779  1
  O  O14  1  0.415007  0.288205  0.465540  1
  O  O15  1  0.584993  0.788205  0.534460  1
  O  O16  1  0.565194  0.231130  0.803221  1
  O  O17  1  0.648293  0.928114  0.157850  1
  O  O18  1  0.675122  0.595306  0.210035  1
  O  O19  1  0.836860  0.217871  0.456021  1
  O  O20  1  0.863853  0.236503  0.067022  1
  O  O21  1  0.942266  0.751135  0.694182  1
