# generated using pymatgen
data_CoHRu3(CO)13
_symmetry_space_group_name_H-M   'P 1'
_cell_length_a   8.55652495
_cell_length_b   15.31407124
_cell_length_c   15.81579460
_cell_angle_alpha   90.00000000
_cell_angle_beta   105.80434507
_cell_angle_gamma   90.00000000
_symmetry_Int_Tables_number   1
_chemical_formula_structural   CoHRu3(CO)13
_chemical_formula_sum   'Co4 H4 Ru12 C52 O52'
_cell_volume   1994.08310073
_cell_formula_units_Z   4
loop_
 _symmetry_equiv_pos_site_id
 _symmetry_equiv_pos_as_xyz
  1  'x, y, z'
loop_
 _atom_site_type_symbol
 _atom_site_label
 _atom_site_symmetry_multiplicity
 _atom_site_fract_x
 _atom_site_fract_y
 _atom_site_fract_z
 _atom_site_occupancy
  Co  Co0  1  0.930142  0.906649  0.826628  1
  Co  Co1  1  0.430142  0.593351  0.326628  1
  Co  Co2  1  0.069858  0.093351  0.173372  1
  Co  Co3  1  0.569858  0.406649  0.673372  1
  H  H4  1  0.881239  0.932853  0.634164  1
  H  H5  1  0.381239  0.567147  0.134164  1
  H  H6  1  0.118761  0.067147  0.365836  1
  H  H7  1  0.618761  0.432853  0.865836  1
  Ru  Ru8  1  0.228772  0.925903  0.803106  1
  Ru  Ru9  1  0.728772  0.574097  0.303106  1
  Ru  Ru10  1  0.771228  0.074097  0.196894  1
  Ru  Ru11  1  0.271228  0.425903  0.696894  1
  Ru  Ru12  1  0.959316  0.026135  0.701883  1
  Ru  Ru13  1  0.459316  0.473865  0.201883  1
  Ru  Ru14  1  0.040684  0.973865  0.298117  1
  Ru  Ru15  1  0.540684  0.526135  0.798117  1
  Ru  Ru16  1  0.967868  0.830901  0.681577  1
  Ru  Ru17  1  0.467868  0.669099  0.181577  1
  Ru  Ru18  1  0.032132  0.169099  0.318423  1
  Ru  Ru19  1  0.532132  0.330901  0.818423  1
  C  C20  1  0.351957  0.827962  0.858937  1
  C  C21  1  0.851957  0.672038  0.358937  1
  C  C22  1  0.648043  0.172038  0.141063  1
  C  C23  1  0.148043  0.327962  0.641063  1
  C  C24  1  0.361546  0.016059  0.869924  1
  C  C25  1  0.861546  0.483941  0.369924  1
  C  C26  1  0.638454  0.983941  0.130076  1
  C  C27  1  0.138454  0.516059  0.630076  1
  C  C28  1  0.344426  0.936730  0.715953  1
  C  C29  1  0.844426  0.563270  0.215953  1
  C  C30  1  0.655574  0.063270  0.284047  1
  C  C31  1  0.155574  0.436730  0.784047  1
  C  C32  1  0.054886  0.122253  0.774246  1
  C  C33  1  0.554886  0.377747  0.274246  1
  C  C34  1  0.945114  0.877747  0.225754  1
  C  C35  1  0.445114  0.622253  0.725754  1
  C  C36  1  0.078975  0.049156  0.618535  1
  C  C37  1  0.578975  0.450844  0.118535  1
  C  C38  1  0.921025  0.950844  0.381465  1
  C  C39  1  0.421025  0.549156  0.881465  1
  C  C40  1  0.763315  0.082398  0.633710  1
  C  C41  1  0.263315  0.417602  0.133710  1
  C  C42  1  0.236685  0.917602  0.366290  1
  C  C43  1  0.736685  0.582398  0.866290  1
  C  C44  1  0.790822  0.782350  0.590901  1
  C  C45  1  0.290822  0.717650  0.090901  1
  C  C46  1  0.209178  0.217650  0.409099  1
  C  C47  1  0.709178  0.282350  0.909099  1
  C  C48  1  0.055155  0.726224  0.741353  1
  C  C49  1  0.555155  0.773776  0.241353  1
  C  C50  1  0.944845  0.273776  0.258647  1
  C  C51  1  0.444845  0.226224  0.758647  1
  C  C52  1  0.106931  0.828318  0.604755  1
  C  C53  1  0.606931  0.671682  0.104755  1
  C  C54  1  0.893069  0.171682  0.395245  1
  C  C55  1  0.393069  0.328318  0.895245  1
  C  C56  1  0.123271  0.932594  0.914419  1
  C  C57  1  0.623271  0.567406  0.414419  1
  C  C58  1  0.876729  0.067406  0.085581  1
  C  C59  1  0.376729  0.432594  0.585581  1
  C  C60  1  0.786009  0.828065  0.755054  1
  C  C61  1  0.286009  0.671935  0.255055  1
  C  C62  1  0.213991  0.171935  0.244946  1
  C  C63  1  0.713991  0.328065  0.744946  1
  C  C64  1  0.812345  0.007710  0.799579  1
  C  C65  1  0.312345  0.492290  0.299579  1
  C  C66  1  0.187655  0.992290  0.200421  1
  C  C67  1  0.687655  0.507710  0.700421  1
  C  C68  1  0.853194  0.871567  0.912799  1
  C  C69  1  0.353194  0.628433  0.412799  1
  C  C70  1  0.146806  0.128433  0.087201  1
  C  C71  1  0.646806  0.371567  0.587201  1
  O  O72  1  0.428792  0.769433  0.894422  1
  O  O73  1  0.928792  0.730567  0.394422  1
  O  O74  1  0.571208  0.230567  0.105578  1
  O  O75  1  0.071208  0.269433  0.605578  1
  O  O76  1  0.442332  0.069206  0.912749  1
  O  O77  1  0.942332  0.430794  0.412749  1
  O  O78  1  0.557668  0.930794  0.087251  1
  O  O79  1  0.057668  0.569206  0.587251  1
  O  O80  1  0.427423  0.945173  0.669412  1
  O  O81  1  0.927423  0.554827  0.169412  1
  O  O82  1  0.572577  0.054827  0.330588  1
  O  O83  1  0.072577  0.445173  0.830588  1
  O  O84  1  0.114677  0.180520  0.818098  1
  O  O85  1  0.614677  0.319480  0.318098  1
  O  O86  1  0.885323  0.819480  0.181902  1
  O  O87  1  0.385323  0.680520  0.681902  1
  O  O88  1  0.143607  0.064802  0.564601  1
  O  O89  1  0.643607  0.435198  0.064601  1
  O  O90  1  0.856393  0.935198  0.435399  1
  O  O91  1  0.356393  0.564802  0.935399  1
  O  O92  1  0.648144  0.119034  0.594516  1
  O  O93  1  0.148144  0.380966  0.094516  1
  O  O94  1  0.351856  0.880966  0.405484  1
  O  O95  1  0.851856  0.619034  0.905484  1
  O  O96  1  0.684979  0.752413  0.537092  1
  O  O97  1  0.184979  0.747587  0.037092  1
  O  O98  1  0.315021  0.247587  0.462908  1
  O  O99  1  0.815021  0.252413  0.962908  1
  O  O100  1  0.103614  0.662436  0.778979  1
  O  O101  1  0.603614  0.837564  0.278979  1
  O  O102  1  0.896386  0.337564  0.221021  1
  O  O103  1  0.396386  0.162436  0.721021  1
  O  O104  1  0.179327  0.823519  0.552842  1
  O  O105  1  0.679327  0.676481  0.052842  1
  O  O106  1  0.820673  0.176481  0.447158  1
  O  O107  1  0.320673  0.323519  0.947158  1
  O  O108  1  0.173520  0.950284  0.989248  1
  O  O109  1  0.673520  0.549716  0.489248  1
  O  O110  1  0.826480  0.049716  0.010752  1
  O  O111  1  0.326480  0.450284  0.510752  1
  O  O112  1  0.662753  0.790835  0.749005  1
  O  O113  1  0.162753  0.709165  0.249005  1
  O  O114  1  0.337247  0.209165  0.250995  1
  O  O115  1  0.837247  0.290835  0.750995  1
  O  O116  1  0.710625  0.051480  0.815578  1
  O  O117  1  0.210625  0.448520  0.315578  1
  O  O118  1  0.289375  0.948520  0.184422  1
  O  O119  1  0.789375  0.551480  0.684422  1
  O  O120  1  0.802469  0.847011  0.969354  1
  O  O121  1  0.302469  0.652989  0.469354  1
  O  O122  1  0.197531  0.152989  0.030646  1
  O  O123  1  0.697531  0.347011  0.530646  1
