# generated using pymatgen
data_SbSeO5
_symmetry_space_group_name_H-M   'P 1'
_cell_length_a   9.88781160
_cell_length_b   9.28539397
_cell_length_c   5.25913373
_cell_angle_alpha   90.00000000
_cell_angle_beta   90.00000000
_cell_angle_gamma   90.00000000
_symmetry_Int_Tables_number   1
_chemical_formula_structural   SbSeO5
_chemical_formula_sum   'Sb4 Se4 O20'
_cell_volume   482.85277567
_cell_formula_units_Z   4
loop_
 _symmetry_equiv_pos_site_id
 _symmetry_equiv_pos_as_xyz
  1  'x, y, z'
loop_
 _atom_site_type_symbol
 _atom_site_label
 _atom_site_symmetry_multiplicity
 _atom_site_fract_x
 _atom_site_fract_y
 _atom_site_fract_z
 _atom_site_occupancy
  Sb  Sb0  1  0.154482  0.409675  0.128660  1
  Sb  Sb1  1  0.345518  0.590325  0.628660  1
  Sb  Sb2  1  0.654482  0.090325  0.871340  1
  Sb  Sb3  1  0.845518  0.909675  0.371340  1
  Se  Se4  1  0.039967  0.726534  0.855331  1
  Se  Se5  1  0.460033  0.273466  0.355331  1
  Se  Se6  1  0.539967  0.773466  0.144669  1
  Se  Se7  1  0.960033  0.226534  0.644669  1
  O  O8  1  0.002733  0.355592  0.432646  1
  O  O9  1  0.991094  0.056501  0.529145  1
  O  O10  1  0.052345  0.234108  0.916409  1
  O  O11  1  0.210338  0.745762  0.795040  1
  O  O12  1  0.224044  0.571181  0.334287  1
  O  O13  1  0.275956  0.428819  0.834287  1
  O  O14  1  0.289662  0.254238  0.295040  1
  O  O15  1  0.447655  0.765892  0.416409  1
  O  O16  1  0.508906  0.943500  0.029145  1
  O  O17  1  0.497267  0.644408  0.932646  1
  O  O18  1  0.502733  0.144408  0.567354  1
  O  O19  1  0.491094  0.443499  0.470855  1
  O  O20  1  0.552345  0.265892  0.083591  1
  O  O21  1  0.710338  0.754238  0.204960  1
  O  O22  1  0.724044  0.928819  0.665713  1
  O  O23  1  0.775956  0.071181  0.165713  1
  O  O24  1  0.789662  0.245762  0.704960  1
  O  O25  1  0.947655  0.734108  0.583591  1
  O  O26  1  0.008906  0.556500  0.970855  1
  O  O27  1  0.997267  0.855592  0.067354  1
