# generated using pymatgen
data_Li2Mn3(PO4)4
_symmetry_space_group_name_H-M   'P 1'
_cell_length_a   7.70480568
_cell_length_b   10.96374677
_cell_length_c   7.64466143
_cell_angle_alpha   74.30902606
_cell_angle_beta   101.81166028
_cell_angle_gamma   74.22516884
_symmetry_Int_Tables_number   1
_chemical_formula_structural   Li2Mn3(PO4)4
_chemical_formula_sum   'Li4 Mn6 P8 O32'
_cell_volume   570.67759068
_cell_formula_units_Z   2
loop_
 _symmetry_equiv_pos_site_id
 _symmetry_equiv_pos_as_xyz
  1  'x, y, z'
loop_
 _atom_site_type_symbol
 _atom_site_label
 _atom_site_symmetry_multiplicity
 _atom_site_fract_x
 _atom_site_fract_y
 _atom_site_fract_z
 _atom_site_occupancy
  Li  Li0  1  0.217872  0.269266  0.471902  1
  Li  Li1  1  0.747808  0.012241  0.228861  1
  Li  Li2  1  0.478657  0.484979  0.519570  1
  Li  Li3  1  0.724296  0.269484  0.968717  1
  Mn  Mn4  1  0.250592  0.225205  0.996592  1
  Mn  Mn5  1  0.295197  0.719729  0.043799  1
  Mn  Mn6  1  0.745942  0.221989  0.498335  1
  Mn  Mn7  1  0.257636  0.790894  0.509687  1
  Mn  Mn8  1  0.803449  0.715303  0.553544  1
  Mn  Mn9  1  0.754352  0.786135  0.003530  1
  P  P10  1  0.047694  0.097956  0.289695  1
  P  P11  1  0.378337  0.399819  0.128299  1
  P  P12  1  0.111037  0.599954  0.361422  1
  P  P13  1  0.543351  0.093988  0.796459  1
  P  P14  1  0.463947  0.905042  0.215725  1
  P  P15  1  0.881850  0.397475  0.630969  1
  P  P16  1  0.614960  0.596543  0.865069  1
  P  P17  1  0.965349  0.906139  0.716737  1
  O  O18  1  0.047685  0.164924  0.079557  1
  O  O19  1  0.435388  0.056290  0.180892  1
  O  O20  1  0.193559  0.105798  0.442756  1
  O  O21  1  0.236848  0.327203  0.179691  1
  O  O22  1  0.224779  0.452347  0.467993  1
  O  O23  1  0.047050  0.678083  0.495914  1
  O  O24  1  0.547270  0.675652  0.997278  1
  O  O25  1  0.256239  0.671239  0.301946  1
  O  O26  1  0.539612  0.381391  0.303239  1
  O  O27  1  0.049858  0.377638  0.795187  1
  O  O28  1  0.318722  0.885739  0.066106  1
  O  O29  1  0.063884  0.946461  0.316178  1
  O  O30  1  0.832666  0.162808  0.285585  1
  O  O31  1  0.334929  0.166357  0.793485  1
  O  O32  1  0.545921  0.168351  0.589500  1
  O  O33  1  0.929453  0.057010  0.678706  1
  O  O34  1  0.172630  0.830689  0.726068  1
  O  O35  1  0.674544  0.838767  0.221012  1
  O  O36  1  0.471629  0.830725  0.422593  1
  O  O37  1  0.692990  0.098542  0.954503  1
  O  O38  1  0.447590  0.621867  0.689060  1
  O  O39  1  0.943634  0.624510  0.192746  1
  O  O40  1  0.727821  0.337021  0.683628  1
  O  O41  1  0.439900  0.326728  0.989609  1
  O  O42  1  0.931064  0.323089  0.490630  1
  O  O43  1  0.776678  0.551508  0.524608  1
  O  O44  1  0.274980  0.553030  0.023949  1
  O  O45  1  0.714487  0.448380  0.966963  1
  O  O46  1  0.748747  0.674668  0.799375  1
  O  O47  1  0.819884  0.887537  0.561940  1
  O  O48  1  0.567891  0.943945  0.815096  1
  O  O49  1  0.968176  0.832223  0.922631  1
