# generated using pymatgen
data_Sr5Ta4O15
_symmetry_space_group_name_H-M   'P 1'
_cell_length_a   5.70888699
_cell_length_b   5.70890488
_cell_length_c   23.31537277
_cell_angle_alpha   90.00073878
_cell_angle_beta   90.00052984
_cell_angle_gamma   120.00008955
_symmetry_Int_Tables_number   1
_chemical_formula_structural   Sr5Ta4O15
_chemical_formula_sum   'Sr10 Ta8 O30'
_cell_volume   658.07721831
_cell_formula_units_Z   2
loop_
 _symmetry_equiv_pos_site_id
 _symmetry_equiv_pos_as_xyz
  1  'x, y, z'
loop_
 _atom_site_type_symbol
 _atom_site_label
 _atom_site_symmetry_multiplicity
 _atom_site_fract_x
 _atom_site_fract_y
 _atom_site_fract_z
 _atom_site_occupancy
  Sr  Sr0  1  0.333332  0.666654  0.138653  1
  Sr  Sr1  1  0.333311  0.666660  0.471926  1
  Sr  Sr2  1  0.000039  0.999998  0.250000  1
  Sr  Sr3  1  -0.000002  0.000008  0.749999  1
  Sr  Sr4  1  0.333319  0.666668  0.971925  1
  Sr  Sr5  1  0.333305  0.666660  0.638655  1
  Sr  Sr6  1  0.666662  0.333336  0.028076  1
  Sr  Sr7  1  0.666669  0.333337  0.361344  1
  Sr  Sr8  1  0.666644  0.333336  0.528077  1
  Sr  Sr9  1  0.666670  0.333346  0.861347  1
  Ta  Ta10  1  0.333339  0.666660  0.301864  1
  Ta  Ta11  1  0.999959  0.999969  0.092767  1
  Ta  Ta12  1  0.999974  0.000015  0.407235  1
  Ta  Ta13  1  0.999958  0.999986  0.592766  1
  Ta  Ta14  1  0.000009  0.000038  0.907233  1
  Ta  Ta15  1  0.333330  0.666670  0.801862  1
  Ta  Ta16  1  0.666675  0.333330  0.198134  1
  Ta  Ta17  1  0.666660  0.333334  0.698131  1
  O  O18  1  0.101350  0.770221  0.555861  1
  O  O19  1  0.121983  0.790570  0.345584  1
  O  O20  1  0.000001  0.540298  0.750003  1
  O  O21  1  0.000011  0.459694  0.249999  1
  O  O22  1  0.209451  0.878043  0.845590  1
  O  O23  1  0.229758  0.898606  0.055861  1
  O  O24  1  0.101374  0.331155  0.055862  1
  O  O25  1  0.121972  0.331427  0.845591  1
  O  O26  1  0.209464  0.331433  0.345587  1
  O  O27  1  0.229745  0.331147  0.555862  1
  O  O28  1  0.331152  0.229782  0.944141  1
  O  O29  1  0.668811  0.898597  0.555859  1
  O  O30  1  0.668589  0.878038  0.345586  1
  O  O31  1  0.331413  0.209433  0.154412  1
  O  O32  1  0.459698  0.459697  0.750003  1
  O  O33  1  0.540318  0.540299  0.250000  1
  O  O34  1  0.668594  0.790569  0.845589  1
  O  O35  1  0.331392  0.121963  0.654418  1
  O  O36  1  0.331148  0.101393  0.444138  1
  O  O37  1  0.668830  0.770217  0.055862  1
  O  O38  1  0.770222  0.668853  0.444134  1
  O  O39  1  0.790532  0.668578  0.654415  1
  O  O40  1  0.459702  0.000004  0.249999  1
  O  O41  1  0.540286  0.999995  0.750001  1
  O  O42  1  0.878037  0.668580  0.154410  1
  O  O43  1  0.898611  0.668847  0.944137  1
  O  O44  1  0.770228  0.101397  0.944140  1
  O  O45  1  0.790550  0.121959  0.154413  1
  O  O46  1  0.878009  0.209436  0.654413  1
  O  O47  1  0.898607  0.229769  0.444136  1
