# generated using pymatgen
data_Li4Cr3GaO8
_symmetry_space_group_name_H-M   'P 1'
_cell_length_a   5.13872603
_cell_length_b   5.92839410
_cell_length_c   10.26889366
_cell_angle_alpha   90.00376632
_cell_angle_beta   80.40942804
_cell_angle_gamma   73.22055531
_symmetry_Int_Tables_number   1
_chemical_formula_structural   Li4Cr3GaO8
_chemical_formula_sum   'Li8 Cr6 Ga2 O16'
_cell_volume   294.94525738
_cell_formula_units_Z   2
loop_
 _symmetry_equiv_pos_site_id
 _symmetry_equiv_pos_as_xyz
  1  'x, y, z'
loop_
 _atom_site_type_symbol
 _atom_site_label
 _atom_site_symmetry_multiplicity
 _atom_site_fract_x
 _atom_site_fract_y
 _atom_site_fract_z
 _atom_site_occupancy
  Li  Li0  1  0.000032  0.999847  0.000137  1
  Li  Li1  1  0.000471  0.999757  0.500035  1
  Li  Li2  1  0.000000  0.250001  0.250000  1
  Li  Li3  1  0.000002  0.250000  0.750000  1
  Li  Li4  1  0.999531  0.500245  0.999965  1
  Li  Li5  1  0.999969  0.500154  0.499864  1
  Li  Li6  1  0.000000  0.750001  0.250000  1
  Li  Li7  1  0.000001  0.750001  0.750000  1
  Cr  Cr8  1  0.499984  0.125182  0.375176  1
  Cr  Cr9  1  0.500024  0.374817  0.124827  1
  Cr  Cr10  1  0.500061  0.624857  0.375171  1
  Cr  Cr11  1  0.500200  0.624787  0.874776  1
  Cr  Cr12  1  0.499906  0.875145  0.124830  1
  Cr  Cr13  1  0.499810  0.875196  0.625216  1
  Ga  Ga14  1  0.499995  0.125179  0.874895  1
  Ga  Ga15  1  0.500008  0.374820  0.625105  1
  O  O16  1  0.273815  0.181582  0.060307  1
  O  O17  1  0.274209  0.181820  0.560657  1
  O  O18  1  0.724878  0.068520  0.189620  1
  O  O19  1  0.726331  0.069172  0.689668  1
  O  O20  1  0.275130  0.431480  0.310380  1
  O  O21  1  0.726184  0.318422  0.439693  1
  O  O22  1  0.273668  0.430831  0.810333  1
  O  O23  1  0.725793  0.318178  0.939342  1
  O  O24  1  0.275354  0.681202  0.060229  1
  O  O25  1  0.724695  0.568897  0.189702  1
  O  O26  1  0.274450  0.681098  0.560629  1
  O  O27  1  0.725593  0.568421  0.689339  1
  O  O28  1  0.275302  0.931107  0.310297  1
  O  O29  1  0.724645  0.818799  0.439771  1
  O  O30  1  0.274410  0.931578  0.810660  1
  O  O31  1  0.725551  0.818907  0.939374  1
