# generated using pymatgen
data_Li5V3F14
_symmetry_space_group_name_H-M   'P 1'
_cell_length_a   11.62895414
_cell_length_b   7.28849559
_cell_length_c   12.53588335
_cell_angle_alpha   90.00000000
_cell_angle_beta   90.00000000
_cell_angle_gamma   90.00000000
_symmetry_Int_Tables_number   1
_chemical_formula_structural   Li5V3F14
_chemical_formula_sum   'Li20 V12 F56'
_cell_volume   1062.51114801
_cell_formula_units_Z   4
loop_
 _symmetry_equiv_pos_site_id
 _symmetry_equiv_pos_as_xyz
  1  'x, y, z'
loop_
 _atom_site_type_symbol
 _atom_site_label
 _atom_site_symmetry_multiplicity
 _atom_site_fract_x
 _atom_site_fract_y
 _atom_site_fract_z
 _atom_site_occupancy
  Li  Li0  1  0.009956  0.002726  0.009958  1
  Li  Li1  1  0.091259  0.807584  0.267643  1
  Li  Li2  1  0.090525  0.312229  0.264685  1
  Li  Li3  1  0.221508  0.801387  0.012350  1
  Li  Li4  1  0.217137  0.818116  0.494103  1
  Li  Li5  1  0.282863  0.318116  0.994103  1
  Li  Li6  1  0.278492  0.301387  0.512350  1
  Li  Li7  1  0.409475  0.812229  0.764685  1
  Li  Li8  1  0.408741  0.307584  0.767643  1
  Li  Li9  1  0.490044  0.502726  0.509958  1
  Li  Li10  1  0.509956  0.497274  0.009958  1
  Li  Li11  1  0.591259  0.692416  0.267643  1
  Li  Li12  1  0.590525  0.187771  0.264685  1
  Li  Li13  1  0.721508  0.698613  0.012350  1
  Li  Li14  1  0.717137  0.681884  0.494103  1
  Li  Li15  1  0.782863  0.181884  0.994103  1
  Li  Li16  1  0.778492  0.198613  0.512350  1
  Li  Li17  1  0.909475  0.687771  0.764685  1
  Li  Li18  1  0.908741  0.192416  0.767643  1
  Li  Li19  1  0.990044  0.997274  0.509958  1
  V  V20  1  0.001232  0.501488  0.495975  1
  V  V21  1  0.156337  0.000764  0.750759  1
  V  V22  1  0.171493  0.500160  0.747391  1
  V  V23  1  0.328507  0.000160  0.247391  1
  V  V24  1  0.343663  0.500764  0.250759  1
  V  V25  1  0.498768  0.001488  0.995975  1
  V  V26  1  0.501232  0.998512  0.495975  1
  V  V27  1  0.656337  0.499236  0.750759  1
  V  V28  1  0.671493  -0.000160  0.747391  1
  V  V29  1  0.828507  0.499840  0.247391  1
  V  V30  1  0.843663  0.999236  0.250759  1
  V  V31  1  0.998768  0.498512  0.995975  1
  F  F32  1  0.991352  0.930589  0.750186  1
  F  F33  1  0.066428  0.732755  0.440358  1
  F  F34  1  0.065874  0.727322  0.048313  1
  F  F35  1  0.051564  0.579948  0.848386  1
  F  F36  1  0.062251  0.582582  0.639451  1
  F  F37  1  0.133972  0.355762  0.454426  1
  F  F38  1  0.130683  0.353237  0.037462  1
  F  F39  1  0.089937  0.256818  0.748087  1
  F  F40  1  0.143474  0.994303  0.907497  1
  F  F41  1  0.142718  0.994305  0.592502  1
  F  F42  1  0.182928  0.577021  0.250191  1
  F  F43  1  0.222643  0.936328  0.358389  1
  F  F44  1  0.216308  0.933044  0.142740  1
  F  F45  1  0.237886  0.753269  0.750422  1
  F  F46  1  0.262114  0.253269  0.250422  1
  F  F47  1  0.283692  0.433044  0.642740  1
  F  F48  1  0.277357  0.436328  0.858389  1
  F  F49  1  0.317072  0.077021  0.750191  1
  F  F50  1  0.357282  0.494305  0.092502  1
  F  F51  1  0.356526  0.494303  0.407497  1
  F  F52  1  0.369317  0.853237  0.537462  1
  F  F53  1  0.410064  0.756818  0.248087  1
  F  F54  1  0.366028  0.855762  0.954426  1
  F  F55  1  0.437749  0.082582  0.139451  1
  F  F56  1  0.448436  0.079948  0.348386  1
  F  F57  1  0.434126  0.227322  0.548313  1
  F  F58  1  0.433572  0.232755  0.940357  1
  F  F59  1  0.508648  0.430589  0.250186  1
  F  F60  1  0.491352  0.569411  0.750186  1
  F  F61  1  0.566428  0.767245  0.440358  1
  F  F62  1  0.565874  0.772678  0.048313  1
  F  F63  1  0.551564  0.920052  0.848386  1
  F  F64  1  0.562251  0.917418  0.639451  1
  F  F65  1  0.633972  0.144238  0.454426  1
  F  F66  1  0.630683  0.146763  0.037462  1
  F  F67  1  0.589936  0.243182  0.748087  1
  F  F68  1  0.643474  0.505697  0.907497  1
  F  F69  1  0.642718  0.505695  0.592502  1
  F  F70  1  0.682928  0.922979  0.250191  1
  F  F71  1  0.722643  0.563672  0.358389  1
  F  F72  1  0.716308  0.566956  0.142740  1
  F  F73  1  0.737886  0.746731  0.750422  1
  F  F74  1  0.762114  0.246731  0.250422  1
  F  F75  1  0.783692  0.066956  0.642740  1
  F  F76  1  0.777357  0.063672  0.858389  1
  F  F77  1  0.817072  0.422979  0.750191  1
  F  F78  1  0.857282  0.005695  0.092502  1
  F  F79  1  0.856526  0.005697  0.407497  1
  F  F80  1  0.869317  0.646763  0.537462  1
  F  F81  1  0.910064  0.743182  0.248087  1
  F  F82  1  0.866028  0.644238  0.954426  1
  F  F83  1  0.937749  0.417418  0.139451  1
  F  F84  1  0.948436  0.420052  0.348386  1
  F  F85  1  0.934126  0.272678  0.548313  1
  F  F86  1  0.933572  0.267245  0.940357  1
  F  F87  1  0.008648  0.069411  0.250186  1
