# generated using pymatgen
data_Sn(WO3)18
_symmetry_space_group_name_H-M   'P 1'
_cell_length_a   7.50824892
_cell_length_b   15.01905920
_cell_length_c   23.17489697
_cell_angle_alpha   90.00000000
_cell_angle_beta   90.00000000
_cell_angle_gamma   119.99435871
_symmetry_Int_Tables_number   1
_chemical_formula_structural   Sn(WO3)18
_chemical_formula_sum   'Sn2 W36 O108'
_cell_volume   2263.36460560
_cell_formula_units_Z   2
loop_
 _symmetry_equiv_pos_site_id
 _symmetry_equiv_pos_as_xyz
  1  'x, y, z'
loop_
 _atom_site_type_symbol
 _atom_site_label
 _atom_site_symmetry_multiplicity
 _atom_site_fract_x
 _atom_site_fract_y
 _atom_site_fract_z
 _atom_site_occupancy
  Sn  Sn0  1  0.000000  0.000000  0.666058  1
  Sn  Sn1  1  0.000000  0.500000  0.833942  1
  W  W2  1  0.500319  0.750266  0.001189  1
  W  W3  1  0.499956  0.749972  0.332864  1
  W  W4  1  0.500044  0.750028  0.167136  1
  W  W5  1  0.499681  0.749734  0.498811  1
  W  W6  1  0.498400  0.748249  0.666008  1
  W  W7  1  0.501600  0.751751  0.833992  1
  W  W8  1  0.500000  0.500000  0.001201  1
  W  W9  1  0.500000  0.500000  0.166936  1
  W  W10  1  0.500000  0.500000  0.498762  1
  W  W11  1  0.500000  0.500000  0.332649  1
  W  W12  1  0.500000  0.500000  0.665703  1
  W  W13  1  0.500000  0.500000  0.833702  1
  W  W14  1  0.000213  0.750266  0.001189  1
  W  W15  1  -0.000013  0.749972  0.332864  1
  W  W16  1  0.000013  0.750028  0.167136  1
  W  W17  1  0.499681  0.249734  0.001189  1
  W  W18  1  0.499956  0.249972  0.167136  1
  W  W19  1  0.500319  0.250266  0.498811  1
  W  W20  1  0.500044  0.250028  0.332864  1
  W  W21  1  0.999787  0.749734  0.498811  1
  W  W22  1  0.998099  0.748249  0.666008  1
  W  W23  1  0.498400  0.248249  0.833992  1
  W  W24  1  0.001901  0.751751  0.833992  1
  W  W25  1  0.501600  0.251751  0.666008  1
  W  W26  1  0.500000  0.000000  0.001238  1
  W  W27  1  0.500000  0.000000  0.167351  1
  W  W28  1  0.500000  0.000000  0.333064  1
  W  W29  1  0.500000  0.000000  0.498799  1
  W  W30  1  0.500000  0.000000  0.666298  1
  W  W31  1  0.500000  0.000000  0.834297  1
  W  W32  1  0.999787  0.249734  0.001189  1
  W  W33  1  -0.000013  0.249972  0.167136  1
  W  W34  1  0.000013  0.250028  0.332864  1
  W  W35  1  0.000213  0.250266  0.498811  1
  W  W36  1  0.001901  0.251751  0.666008  1
  W  W37  1  0.998099  0.248249  0.833992  1
  O  O38  1  0.999684  0.750092  0.083043  1
  O  O39  1  0.000316  0.749908  0.416957  1
  O  O40  1  0.000000  0.750000  0.250000  1
  O  O41  1  0.000000  0.750000  0.750000  1
  O  O42  1  0.999114  0.750373  0.584515  1
  O  O43  1  0.000886  0.749627  0.915485  1
  O  O44  1  0.213886  0.893000  0.999118  1
  O  O45  1  0.213966  0.893035  0.166490  1
  O  O46  1  0.213942  0.893078  0.333561  1
  O  O47  1  0.213640  0.893321  0.500696  1
  O  O48  1  0.205661  0.898752  0.667189  1
  O  O49  1  0.211831  0.892551  0.832760  1
  O  O50  1  0.213560  0.713560  0.999209  1
  O  O51  1  0.500000  0.000000  0.749829  1
  O  O52  1  0.213947  0.713947  0.333483  1
  O  O53  1  0.500000  0.000000  0.915495  1
  O  O54  1  0.214024  0.714024  0.166401  1
  O  O55  1  0.219689  0.719689  0.667310  1
  O  O56  1  0.214048  0.714048  0.500948  1
  O  O57  1  0.199987  0.699987  0.832663  1
  O  O58  1  0.572115  0.893000  0.999118  1
  O  O59  1  0.572104  0.893035  0.166490  1
  O  O60  1  0.572215  0.893078  0.333561  1
  O  O61  1  0.573002  0.893321  0.500696  1
  O  O62  1  0.591843  0.898752  0.667189  1
  O  O63  1  0.573270  0.892551  0.832760  1
  O  O64  1  0.500500  0.750092  0.083043  1
  O  O65  1  0.499500  0.749908  0.416957  1
  O  O66  1  0.501632  0.750373  0.584515  1
  O  O67  1  0.500000  0.750000  0.250000  1
  O  O68  1  0.500000  0.750000  0.750000  1
  O  O69  1  0.000316  0.249908  0.083043  1
  O  O70  1  0.000000  0.250000  0.250000  1
  O  O71  1  0.498368  0.749627  0.915485  1
  O  O72  1  0.999684  0.250092  0.416957  1
  O  O73  1  0.000886  0.249627  0.584515  1
  O  O74  1  0.000000  0.250000  0.750000  1
  O  O75  1  0.999114  0.250373  0.915485  1
  O  O76  1  0.213640  0.393321  0.999304  1
  O  O77  1  0.213942  0.393078  0.166439  1
  O  O78  1  0.213966  0.393035  0.333510  1
  O  O79  1  0.426998  0.606679  0.999304  1
  O  O80  1  0.211831  0.392551  0.667240  1
  O  O81  1  0.213886  0.393000  0.500882  1
  O  O82  1  0.427785  0.606922  0.166439  1
  O  O83  1  0.426730  0.607449  0.667240  1
  O  O84  1  0.427896  0.606965  0.333510  1
  O  O85  1  0.427885  0.607000  0.500882  1
  O  O86  1  0.205661  0.398752  0.832811  1
  O  O87  1  0.408157  0.601248  0.832811  1
  O  O88  1  0.786053  0.786053  0.166518  1
  O  O89  1  0.785952  0.785952  0.999052  1
  O  O90  1  0.785976  0.785976  0.333599  1
  O  O91  1  0.500000  0.500000  0.249858  1
  O  O92  1  0.786440  0.786440  0.500791  1
  O  O93  1  0.500000  0.500000  0.082989  1
  O  O94  1  0.500000  0.500000  0.584505  1
  O  O95  1  0.800013  0.800013  0.667337  1
  O  O96  1  0.780311  0.780311  0.832690  1
  O  O97  1  0.500000  0.500000  0.416978  1
  O  O98  1  0.500000  0.500000  0.750171  1
  O  O99  1  0.500000  0.500000  0.915422  1
  O  O100  1  0.214048  0.214048  0.999052  1
  O  O101  1  0.213947  0.213947  0.166518  1
  O  O102  1  0.214024  0.214024  0.333599  1
  O  O103  1  0.213560  0.213560  0.500791  1
  O  O104  1  0.199987  0.199987  0.667337  1
  O  O105  1  0.219689  0.219689  0.832690  1
  O  O106  1  0.573002  0.393321  0.999304  1
  O  O107  1  0.572215  0.393078  0.166439  1
  O  O108  1  0.786360  0.606679  0.999304  1
  O  O109  1  0.572104  0.393035  0.333510  1
  O  O110  1  0.572115  0.393000  0.500882  1
  O  O111  1  0.573270  0.392551  0.667240  1
  O  O112  1  0.786034  0.606965  0.333510  1
  O  O113  1  0.788169  0.607449  0.667240  1
  O  O114  1  0.786058  0.606922  0.166439  1
  O  O115  1  0.591843  0.398752  0.832811  1
  O  O116  1  0.786114  0.607000  0.500882  1
  O  O117  1  0.794339  0.601248  0.832811  1
  O  O118  1  0.499500  0.249908  0.083043  1
  O  O119  1  0.500000  0.250000  0.250000  1
  O  O120  1  0.498368  0.249627  0.584515  1
  O  O121  1  0.500500  0.250092  0.416957  1
  O  O122  1  0.501632  0.250373  0.915485  1
  O  O123  1  0.500000  0.250000  0.750000  1
  O  O124  1  0.427885  0.107000  0.999118  1
  O  O125  1  0.427896  0.106965  0.166490  1
  O  O126  1  0.427785  0.106922  0.333561  1
  O  O127  1  0.426998  0.106679  0.500696  1
  O  O128  1  0.408157  0.101248  0.667189  1
  O  O129  1  0.426730  0.107449  0.832760  1
  O  O130  1  0.786440  0.286440  0.999209  1
  O  O131  1  0.785976  0.285976  0.166401  1
  O  O132  1  0.786053  0.286053  0.333483  1
  O  O133  1  0.785952  0.285952  0.500948  1
  O  O134  1  0.500000  0.000000  0.083021  1
  O  O135  1  0.780311  0.280311  0.667310  1
  O  O136  1  0.500000  0.000000  0.250142  1
  O  O137  1  0.500000  0.000000  0.417011  1
  O  O138  1  0.800013  0.300013  0.832663  1
  O  O139  1  0.500000  0.000000  0.584578  1
  O  O140  1  0.786114  0.107000  0.999118  1
  O  O141  1  0.786034  0.106965  0.166490  1
  O  O142  1  0.786058  0.106922  0.333561  1
  O  O143  1  0.786360  0.106679  0.500696  1
  O  O144  1  0.794339  0.101248  0.667189  1
  O  O145  1  0.788169  0.107449  0.832760  1
