# generated using pymatgen
data_Li4Fe3Ni2Sn3O16
_symmetry_space_group_name_H-M   'P 1'
_cell_length_a   6.08236900
_cell_length_b   6.09485571
_cell_length_c   9.75177399
_cell_angle_alpha   90.00333305
_cell_angle_beta   89.02946322
_cell_angle_gamma   120.03703853
_symmetry_Int_Tables_number   1
_chemical_formula_structural   Li4Fe3Ni2Sn3O16
_chemical_formula_sum   'Li4 Fe3 Ni2 Sn3 O16'
_cell_volume   312.89986877
_cell_formula_units_Z   1
loop_
 _symmetry_equiv_pos_site_id
 _symmetry_equiv_pos_as_xyz
  1  'x, y, z'
loop_
 _atom_site_type_symbol
 _atom_site_label
 _atom_site_symmetry_multiplicity
 _atom_site_fract_x
 _atom_site_fract_y
 _atom_site_fract_z
 _atom_site_occupancy
  Li  Li0  1  0.348213  0.674165  0.884953  1
  Li  Li1  1  0.966602  0.983398  0.995516  1
  Li  Li2  1  0.971909  0.985977  0.501539  1
  Li  Li3  1  0.679710  0.339975  0.394687  1
  Fe  Fe4  1  0.664211  0.832037  0.217853  1
  Fe  Fe5  1  0.833592  0.662247  0.715179  1
  Fe  Fe6  1  0.833699  0.171487  0.715268  1
  Ni  Ni7  1  0.332357  0.665924  0.492777  1
  Ni  Ni8  1  0.665267  0.332486  0.988001  1
  Sn  Sn9  1  0.172017  0.832346  0.213789  1
  Sn  Sn10  1  0.171938  0.339852  0.213714  1
  Sn  Sn11  1  0.340470  0.170173  0.712245  1
  O  O12  1  0.146649  0.831887  0.600182  1
  O  O13  1  0.038830  0.519662  0.342157  1
  O  O14  1  0.342550  0.671218  0.096033  1
  O  O15  1  0.000191  0.000282  0.319508  1
  O  O16  1  -0.006159  -0.002886  0.813888  1
  O  O17  1  0.146450  0.314635  0.600242  1
  O  O18  1  0.499075  0.966911  0.335209  1
  O  O19  1  0.498674  0.531661  0.335319  1
  O  O20  1  0.315448  0.157532  0.091905  1
  O  O21  1  0.671775  0.835526  0.612929  1
  O  O22  1  0.534314  0.492481  0.836014  1
  O  O23  1  0.534358  0.041680  0.835935  1
  O  O24  1  0.678097  0.338787  0.600178  1
  O  O25  1  0.826911  0.679037  0.106159  1
  O  O26  1  0.965726  0.483156  0.830679  1
  O  O27  1  0.827125  0.148667  0.105981  1
