# generated using pymatgen
data_Ce3Th4O14
_symmetry_space_group_name_H-M   'P 1'
_cell_length_a   8.78911461
_cell_length_b   5.55879916
_cell_length_c   6.80603542
_cell_angle_alpha   114.10539197
_cell_angle_beta   97.41049849
_cell_angle_gamma   89.99019181
_symmetry_Int_Tables_number   1
_chemical_formula_structural   Ce3Th4O14
_chemical_formula_sum   'Ce3 Th4 O14'
_cell_volume   300.48265124
_cell_formula_units_Z   1
loop_
 _symmetry_equiv_pos_site_id
 _symmetry_equiv_pos_as_xyz
  1  'x, y, z'
loop_
 _atom_site_type_symbol
 _atom_site_label
 _atom_site_symmetry_multiplicity
 _atom_site_fract_x
 _atom_site_fract_y
 _atom_site_fract_z
 _atom_site_occupancy
  Ce  Ce0  1  0.142846  0.713250  0.427815  1
  Ce  Ce1  1  0.427756  0.141752  0.284925  1
  Ce  Ce2  1  0.712942  0.571491  0.144279  1
  Th  Th3  1  0.999740  0.001236  0.002611  1
  Th  Th4  1  0.285997  0.428173  0.857730  1
  Th  Th5  1  0.569476  0.855713  0.713603  1
  Th  Th6  1  0.856004  0.284615  0.570328  1
  O  O7  1  0.071725  0.608864  0.711799  1
  O  O8  1  0.071844  0.105417  0.713769  1
  O  O9  1  0.355363  0.530123  0.566812  1
  O  O10  1  0.355420  0.031315  0.568326  1
  O  O11  1  0.215882  0.824150  0.146588  1
  O  O12  1  0.213897  0.324405  0.147579  1
  O  O13  1  0.499473  0.251551  0.004091  1
  O  O14  1  0.640331  0.961530  0.423116  1
  O  O15  1  0.783199  0.180081  0.858755  1
  O  O16  1  0.784694  0.676860  0.861401  1
  O  O17  1  0.640798  0.462371  0.425880  1
  O  O18  1  0.500011  0.750946  0.001471  1
  O  O19  1  0.929068  0.888671  0.287700  1
  O  O20  1  0.926572  0.397116  0.285580  1
