# generated using pymatgen
data_Li4Cr3Fe3(WO8)2
_symmetry_space_group_name_H-M   'P 1'
_cell_length_a   5.98667587
_cell_length_b   5.98943271
_cell_length_c   9.70920276
_cell_angle_alpha   89.88487861
_cell_angle_beta   90.67036879
_cell_angle_gamma   120.05611464
_symmetry_Int_Tables_number   1
_chemical_formula_structural   Li4Cr3Fe3(WO8)2
_chemical_formula_sum   'Li4 Cr3 Fe3 W2 O16'
_cell_volume   301.30460116
_cell_formula_units_Z   1
loop_
 _symmetry_equiv_pos_site_id
 _symmetry_equiv_pos_as_xyz
  1  'x, y, z'
loop_
 _atom_site_type_symbol
 _atom_site_label
 _atom_site_symmetry_multiplicity
 _atom_site_fract_x
 _atom_site_fract_y
 _atom_site_fract_z
 _atom_site_occupancy
  Li  Li0  1  0.336148  0.668230  0.908485  1
  Li  Li1  1  0.994938  0.998584  0.989001  1
  Li  Li2  1  0.999833  0.995484  0.490371  1
  Li  Li3  1  0.665309  0.333594  0.404716  1
  Cr  Cr4  1  0.172857  0.832434  0.214944  1
  Cr  Cr5  1  0.170851  0.340960  0.214770  1
  Cr  Cr6  1  0.342054  0.169619  0.713906  1
  Fe  Fe7  1  0.662843  0.832147  0.211433  1
  Fe  Fe8  1  0.831766  0.660587  0.710311  1
  Fe  Fe9  1  0.839838  0.184383  0.717947  1
  W  W10  1  0.340028  0.670708  0.485339  1
  W  W11  1  0.667344  0.338497  0.987506  1
  O  O12  1  0.184041  0.831920  0.588692  1
  O  O13  1  0.039896  0.519831  0.343122  1
  O  O14  1  0.327646  0.664995  0.109856  1
  O  O15  1  0.004844  0.002037  0.304675  1
  O  O16  1  0.998866  0.004855  0.801701  1
  O  O17  1  0.174008  0.343328  0.590727  1
  O  O18  1  0.469251  0.959392  0.351017  1
  O  O19  1  0.466175  0.506972  0.352003  1
  O  O20  1  0.341377  0.170934  0.093262  1
  O  O21  1  0.656513  0.825750  0.584887  1
  O  O22  1  0.505664  0.465460  0.851709  1
  O  O23  1  0.516369  0.041021  0.847879  1
  O  O24  1  0.666651  0.323244  0.608269  1
  O  O25  1  0.832777  0.656158  0.088375  1
  O  O26  1  0.960779  0.478170  0.855191  1
  O  O27  1  0.831334  0.181006  0.087746  1
