# generated using pymatgen
data_Na4Bi2O5
_symmetry_space_group_name_H-M   'P 1'
_cell_length_a   14.79973129
_cell_length_b   5.65884174
_cell_length_c   9.86490307
_cell_angle_alpha   90.00000000
_cell_angle_beta   90.00000000
_cell_angle_gamma   90.00000000
_symmetry_Int_Tables_number   1
_chemical_formula_structural   Na4Bi2O5
_chemical_formula_sum   'Na16 Bi8 O20'
_cell_volume   826.17909331
_cell_formula_units_Z   4
loop_
 _symmetry_equiv_pos_site_id
 _symmetry_equiv_pos_as_xyz
  1  'x, y, z'
loop_
 _atom_site_type_symbol
 _atom_site_label
 _atom_site_symmetry_multiplicity
 _atom_site_fract_x
 _atom_site_fract_y
 _atom_site_fract_z
 _atom_site_occupancy
  Na  Na0  1  0.023651  0.481770  0.857054  1
  Na  Na1  1  0.023651  0.018230  0.642946  1
  Na  Na2  1  0.194362  0.250000  0.750000  1
  Na  Na3  1  0.250000  0.500000  0.078016  1
  Na  Na4  1  0.250000  0.000000  0.421984  1
  Na  Na5  1  0.305638  0.750000  0.750000  1
  Na  Na6  1  0.476349  0.981770  0.642946  1
  Na  Na7  1  0.476349  0.518230  0.857054  1
  Na  Na8  1  0.523651  0.481770  0.142946  1
  Na  Na9  1  0.523651  0.018230  0.357054  1
  Na  Na10  1  0.694362  0.250000  0.250000  1
  Na  Na11  1  0.750000  0.000000  0.578016  1
  Na  Na12  1  0.750000  0.500000  0.921984  1
  Na  Na13  1  0.805638  0.750000  0.250000  1
  Na  Na14  1  0.976349  0.981770  0.357054  1
  Na  Na15  1  0.976349  0.518230  0.142946  1
  Bi  Bi16  1  0.116537  0.530377  0.454693  1
  Bi  Bi17  1  0.116537  0.969623  0.045307  1
  Bi  Bi18  1  0.383463  0.030377  0.045307  1
  Bi  Bi19  1  0.383463  0.469623  0.454693  1
  Bi  Bi20  1  0.616537  0.530377  0.545307  1
  Bi  Bi21  1  0.616537  0.969623  0.954693  1
  Bi  Bi22  1  0.883463  0.030377  0.954693  1
  Bi  Bi23  1  0.883463  0.469623  0.545307  1
  O  O24  1  0.045803  0.052781  0.867793  1
  O  O25  1  0.045803  0.447219  0.632207  1
  O  O26  1  0.112172  0.897646  0.464571  1
  O  O27  1  0.112172  0.602354  0.035429  1
  O  O28  1  0.250000  0.000000  0.926137  1
  O  O29  1  0.250000  0.500000  0.573863  1
  O  O30  1  0.387828  0.102354  0.464571  1
  O  O31  1  0.387828  0.397646  0.035429  1
  O  O32  1  0.454197  0.552781  0.632207  1
  O  O33  1  0.454197  0.947219  0.867793  1
  O  O34  1  0.545803  0.052781  0.132207  1
  O  O35  1  0.545803  0.447219  0.367793  1
  O  O36  1  0.612172  0.602354  0.964571  1
  O  O37  1  0.612172  0.897646  0.535429  1
  O  O38  1  0.750000  0.000000  0.073863  1
  O  O39  1  0.750000  0.500000  0.426137  1
  O  O40  1  0.887828  0.102354  0.535429  1
  O  O41  1  0.887828  0.397646  0.964571  1
  O  O42  1  0.954197  0.552781  0.367793  1
  O  O43  1  0.954197  0.947219  0.132207  1
