# generated using pymatgen
data_LiCoPO4
_symmetry_space_group_name_H-M   'P 1'
_cell_length_a   8.63519329
_cell_length_b   7.61744103
_cell_length_c   15.00089532
_cell_angle_alpha   90.00000000
_cell_angle_beta   90.69110990
_cell_angle_gamma   90.00000000
_symmetry_Int_Tables_number   1
_chemical_formula_structural   LiCoPO4
_chemical_formula_sum   'Li12 Co12 P12 O48'
_cell_volume   986.65824631
_cell_formula_units_Z   12
loop_
 _symmetry_equiv_pos_site_id
 _symmetry_equiv_pos_as_xyz
  1  'x, y, z'
loop_
 _atom_site_type_symbol
 _atom_site_label
 _atom_site_symmetry_multiplicity
 _atom_site_fract_x
 _atom_site_fract_y
 _atom_site_fract_z
 _atom_site_occupancy
  Li  Li0  1  0.224570  0.981578  0.930610  1
  Li  Li1  1  0.230210  0.023197  0.585974  1
  Li  Li2  1  0.241746  0.042780  0.243075  1
  Li  Li3  1  0.258254  0.542780  0.256925  1
  Li  Li4  1  0.269790  0.523197  0.914026  1
  Li  Li5  1  0.275430  0.481578  0.569390  1
  Li  Li6  1  0.724570  0.518422  0.430610  1
  Li  Li7  1  0.730210  0.476803  0.085974  1
  Li  Li8  1  0.741746  0.457220  0.743075  1
  Li  Li9  1  0.758254  0.957220  0.756925  1
  Li  Li10  1  0.769790  0.976803  0.414026  1
  Li  Li11  1  0.775430  0.018422  0.069390  1
  Co  Co12  1  0.058261  0.677535  0.410009  1
  Co  Co13  1  0.085414  0.816781  0.763373  1
  Co  Co14  1  0.095874  0.676756  0.079467  1
  Co  Co15  1  0.404126  0.176756  0.420533  1
  Co  Co16  1  0.414586  0.316781  0.736627  1
  Co  Co17  1  0.441739  0.177535  0.089991  1
  Co  Co18  1  0.558261  0.822465  0.910009  1
  Co  Co19  1  0.585414  0.683219  0.263373  1
  Co  Co20  1  0.595874  0.823244  0.579467  1
  Co  Co21  1  0.904126  0.323244  0.920533  1
  Co  Co22  1  0.914586  0.183219  0.236627  1
  Co  Co23  1  0.941739  0.322465  0.589991  1
  P  P24  1  0.059778  0.265264  0.407396  1
  P  P25  1  0.078258  0.219965  0.768401  1
  P  P26  1  0.110035  0.264675  0.076301  1
  P  P27  1  0.389965  0.764675  0.423699  1
  P  P28  1  0.421742  0.719965  0.731599  1
  P  P29  1  0.440222  0.765264  0.092604  1
  P  P30  1  0.559778  0.234736  0.907396  1
  P  P31  1  0.578258  0.280035  0.268401  1
  P  P32  1  0.610035  0.235325  0.576301  1
  P  P33  1  0.889965  0.735325  0.923699  1
  P  P34  1  0.921742  0.780035  0.231599  1
  P  P35  1  0.940222  0.734736  0.592604  1
  O  O36  1  0.968601  0.440506  0.397139  1
  O  O37  1  0.044964  0.878806  0.635840  1
  O  O38  1  0.082545  0.371549  0.837787  1
  O  O39  1  0.093116  0.222509  0.507354  1
  O  O40  1  0.055952  0.777004  0.959817  1
  O  O41  1  0.075068  0.771715  0.287311  1
  O  O42  1  0.106719  0.266756  0.180168  1
  O  O43  1  0.085869  0.047791  0.823972  1
  O  O44  1  0.167886  0.443684  0.040027  1
  O  O45  1  0.213621  0.225443  0.700869  1
  O  O46  1  0.227450  0.124748  0.043980  1
  O  O47  1  0.217719  0.274904  0.358423  1
  O  O48  1  0.282281  0.774904  0.141577  1
  O  O49  1  0.272550  0.624748  0.456020  1
  O  O50  1  0.286379  0.725443  0.799131  1
  O  O51  1  0.332114  0.943684  0.459973  1
  O  O52  1  0.414131  0.547791  0.676028  1
  O  O53  1  0.393281  0.766756  0.319832  1
  O  O54  1  0.424932  0.271715  0.212689  1
  O  O55  1  0.444048  0.277004  0.540183  1
  O  O56  1  0.406884  0.722510  0.992646  1
  O  O57  1  0.417455  0.871549  0.662213  1
  O  O58  1  0.455036  0.378806  0.864160  1
  O  O59  1  0.531399  0.940506  0.102861  1
  O  O60  1  0.468601  0.059494  0.897139  1
  O  O61  1  0.544964  0.621194  0.135840  1
  O  O62  1  0.582545  0.128451  0.337787  1
  O  O63  1  0.593116  0.277490  0.007354  1
  O  O64  1  0.555952  0.722996  0.459817  1
  O  O65  1  0.575068  0.728285  0.787311  1
  O  O66  1  0.606719  0.233244  0.680168  1
  O  O67  1  0.585869  0.452209  0.323972  1
  O  O68  1  0.667886  0.056316  0.540027  1
  O  O69  1  0.713621  0.274557  0.200869  1
  O  O70  1  0.727450  0.375252  0.543980  1
  O  O71  1  0.717719  0.225096  0.858423  1
  O  O72  1  0.782281  0.725096  0.641577  1
  O  O73  1  0.786379  0.774557  0.299131  1
  O  O74  1  0.772550  0.875252  0.956020  1
  O  O75  1  0.832114  0.556316  0.959973  1
  O  O76  1  0.914131  0.952209  0.176028  1
  O  O77  1  0.893281  0.733244  0.819832  1
  O  O78  1  0.924932  0.228285  0.712689  1
  O  O79  1  0.944048  0.222996  0.040183  1
  O  O80  1  0.906884  0.777490  0.492646  1
  O  O81  1  0.917455  0.628451  0.162213  1
  O  O82  1  0.955036  0.121194  0.364160  1
  O  O83  1  0.031399  0.559494  0.602861  1
