# generated using pymatgen
data_Li4Ti4Mn4CoO18
_symmetry_space_group_name_H-M   'P 1'
_cell_length_a   9.10539759
_cell_length_b   25.05867803
_cell_length_c   2.93899585
_cell_angle_alpha   89.99992523
_cell_angle_beta   90.00008944
_cell_angle_gamma   89.94703102
_symmetry_Int_Tables_number   1
_chemical_formula_structural   Li4Ti4Mn4CoO18
_chemical_formula_sum   'Li8 Ti8 Mn8 Co2 O36'
_cell_volume   670.58812320
_cell_formula_units_Z   2
loop_
 _symmetry_equiv_pos_site_id
 _symmetry_equiv_pos_as_xyz
  1  'x, y, z'
loop_
 _atom_site_type_symbol
 _atom_site_label
 _atom_site_symmetry_multiplicity
 _atom_site_fract_x
 _atom_site_fract_y
 _atom_site_fract_z
 _atom_site_occupancy
  Li  Li0  1  0.199449  0.989400  0.999999  1
  Li  Li1  1  0.205391  0.193860  0.000000  1
  Li  Li2  1  0.294821  0.694146  0.999999  1
  Li  Li3  1  0.300852  0.489301  1.000000  1
  Li  Li4  1  0.699164  0.510710  0.999999  1
  Li  Li5  1  0.705238  0.305930  0.000000  1
  Li  Li6  1  0.794513  0.806200  0.999999  1
  Li  Li7  1  0.800503  0.010504  0.000000  1
  Ti  Ti8  1  0.003698  0.102128  0.000000  1
  Ti  Ti9  1  0.146100  0.805286  0.500000  1
  Ti  Ti10  1  0.354008  0.305252  0.500000  1
  Ti  Ti11  1  0.496542  0.602242  0.000001  1
  Ti  Ti12  1  0.503537  0.397763  1.000000  1
  Ti  Ti13  1  0.645926  0.694767  0.500000  1
  Ti  Ti14  1  0.853940  0.194697  0.499999  1
  Ti  Ti15  1  0.996323  0.897840  0.999999  1
  Mn  Mn16  1  0.017668  0.314961  0.000004  1
  Mn  Mn17  1  0.142190  0.583020  0.499994  1
  Mn  Mn18  1  0.357706  0.083080  0.500000  1
  Mn  Mn19  1  0.482196  0.814851  0.000001  1
  Mn  Mn20  1  0.517837  0.185093  0.000001  1
  Mn  Mn21  1  0.642280  0.916914  0.500004  1
  Mn  Mn22  1  0.857693  0.416979  0.500009  1
  Mn  Mn23  1  0.982382  0.685065  0.999996  1
  Co  Co24  1  0.999966  0.500000  0.999999  1
  Co  Co25  1  0.500014  -0.000001  0.999999  1
  O  O26  1  0.997414  0.423620  -0.000000  1
  O  O27  1  0.002453  0.576397  0.999997  1
  O  O28  1  0.051644  0.942020  0.500001  1
  O  O29  1  0.052985  0.159056  0.500000  1
  O  O30  1  0.115539  0.659946  0.499998  1
  O  O31  1  0.110774  0.757187  0.000001  1
  O  O32  1  0.141123  0.505076  0.499998  1
  O  O33  1  0.144447  0.290433  0.500001  1
  O  O34  1  0.178649  0.857624  0.000001  1
  O  O35  1  0.210538  0.082175  0.000003  1
  O  O36  1  0.288375  0.582138  0.999999  1
  O  O37  1  0.321449  0.357752  0.000000  1
  O  O38  1  0.355459  0.790249  0.500001  1
  O  O39  1  0.358920  0.005140  0.499997  1
  O  O40  1  0.389147  0.257259  0.000002  1
  O  O41  1  0.384230  0.159814  0.500002  1
  O  O42  1  0.447113  0.659064  0.499998  1
  O  O43  1  0.448507  0.442036  0.500001  1
  O  O44  1  0.497849  0.076256  0.999993  1
  O  O45  1  0.502135  0.923759  0.000004  1
  O  O46  1  0.551536  0.557972  0.500000  1
  O  O47  1  0.552961  0.340967  0.500001  1
  O  O48  1  0.615688  0.840209  0.500002  1
  O  O49  1  0.610994  0.742764  1.000000  1
  O  O50  1  0.641098  0.994823  0.500000  1
  O  O51  1  0.644624  0.209688  0.500003  1
  O  O52  1  0.678589  0.642261  -0.000000  1
  O  O53  1  0.711460  0.417878  0.000001  1
  O  O54  1  0.789424  0.917830  0.999997  1
  O  O55  1  0.821399  0.142336  0.999999  1
  O  O56  1  0.855680  0.709551  0.499997  1
  O  O57  1  0.858860  0.494913  0.500000  1
  O  O58  1  0.889166  0.242791  0.000000  1
  O  O59  1  0.884398  0.340105  0.500001  1
  O  O60  1  0.946977  0.840953  0.500001  1
  O  O61  1  0.948453  0.057968  0.499999  1
