# generated using pymatgen
data_Li2Cu3(CO3)3
_symmetry_space_group_name_H-M   'P 1'
_cell_length_a   14.24198095
_cell_length_b   14.25777052
_cell_length_c   6.27768130
_cell_angle_alpha   89.44511454
_cell_angle_beta   90.52417135
_cell_angle_gamma   120.26532230
_symmetry_Int_Tables_number   1
_chemical_formula_structural   Li2Cu3(CO3)3
_chemical_formula_sum   'Li12 Cu18 C18 O54'
_cell_volume   1100.92799243
_cell_formula_units_Z   6
loop_
 _symmetry_equiv_pos_site_id
 _symmetry_equiv_pos_as_xyz
  1  'x, y, z'
loop_
 _atom_site_type_symbol
 _atom_site_label
 _atom_site_symmetry_multiplicity
 _atom_site_fract_x
 _atom_site_fract_y
 _atom_site_fract_z
 _atom_site_occupancy
  Li  Li0  1  0.096324  0.880571  0.255914  1
  Li  Li1  1  0.117108  0.563416  0.743542  1
  Li  Li2  1  0.118406  0.214779  0.755527  1
  Li  Li3  1  0.434955  0.554036  0.727794  1
  Li  Li4  1  0.434759  0.553604  0.227583  1
  Li  Li5  1  0.453530  0.250317  0.751321  1
  Li  Li6  1  0.787336  0.906578  0.745946  1
  Li  Li7  1  0.787579  0.906113  0.246155  1
  Li  Li8  1  0.800058  0.546044  0.743775  1
  Li  Li9  1  0.799671  0.546357  0.243608  1
  Li  Li10  1  0.746235  0.201131  0.752174  1
  Li  Li11  1  0.747274  0.202512  0.251800  1
  Cu  Cu12  1  0.239558  0.793589  0.535029  1
  Cu  Cu13  1  0.238554  0.790640  0.030895  1
  Cu  Cu14  1  0.206539  0.443829  0.489941  1
  Cu  Cu15  1  0.206827  0.444641  0.020116  1
  Cu  Cu16  1  0.225343  0.107930  0.505165  1
  Cu  Cu17  1  0.226776  0.109236  0.009363  1
  Cu  Cu18  1  0.547671  0.773525  0.971627  1
  Cu  Cu19  1  0.547134  0.773350  0.468050  1
  Cu  Cu20  1  0.566499  0.461523  0.989547  1
  Cu  Cu21  1  0.565085  0.460088  0.477867  1
  Cu  Cu22  1  0.526410  0.095293  0.510729  1
  Cu  Cu23  1  0.526635  0.095917  0.022414  1
  Cu  Cu24  1  0.886857  0.774994  0.987408  1
  Cu  Cu25  1  0.886734  0.774269  0.496432  1
  Cu  Cu26  1  0.901490  0.433044  0.001812  1
  Cu  Cu27  1  0.900363  0.432267  0.478309  1
  Cu  Cu28  1  0.895344  0.119229  0.495945  1
  Cu  Cu29  1  0.896075  0.119288  0.013923  1
  C  C30  1  0.009289  0.664550  0.502491  1
  C  C31  1  0.009383  0.665154  0.000518  1
  C  C32  1  0.331612  0.665973  0.994858  1
  C  C33  1  0.331448  0.666037  0.503615  1
  C  C34  1  0.659468  0.995527  0.503334  1
  C  C35  1  0.331746  0.343160  0.986778  1
  C  C36  1  0.659403  0.995753  0.003252  1
  C  C37  1  0.330990  0.342189  0.504302  1
  C  C38  1  0.331028  0.011252  0.764079  1
  C  C39  1  0.328432  0.006160  0.263252  1
  C  C40  1  0.677972  0.667738  0.735005  1
  C  C41  1  0.677653  0.668083  0.235376  1
  C  C42  1  0.666398  0.331957  0.993850  1
  C  C43  1  0.666218  0.331946  0.503894  1
  C  C44  1  0.000275  0.000050  0.502732  1
  C  C45  1  0.000353  -0.000079  0.001826  1
  C  C46  1  0.987630  0.320368  0.751938  1
  C  C47  1  0.987198  0.319798  0.251750  1
  O  O48  1  0.017731  0.920631  0.479082  1
  O  O49  1  0.017347  0.919794  0.021187  1
  O  O50  1  0.090339  0.762551  0.511579  1
  O  O51  1  0.089403  0.760580  0.045535  1
  O  O52  1  0.023913  0.584214  0.966553  1
  O  O53  1  0.022350  0.581355  0.514917  1
  O  O54  1  0.321291  0.917546  0.777447  1
  O  O55  1  0.079216  0.409339  0.751053  1
  O  O56  1  0.316920  0.911428  0.276184  1
  O  O57  1  0.079798  0.406295  0.252588  1
  O  O58  1  0.231545  0.588667  0.516421  1
  O  O59  1  0.231104  0.589592  0.987466  1
  O  O60  1  0.359113  0.765301  0.525517  1
  O  O61  1  0.359205  0.764945  0.022196  1
  O  O62  1  0.079622  0.098198  0.525055  1
  O  O63  1  0.079881  0.098519  0.991487  1
  O  O64  1  0.564133  0.979933  0.517109  1
  O  O65  1  0.563980  0.980200  0.018060  1
  O  O66  1  0.234639  0.327851  0.534235  1
  O  O67  1  0.234537  0.327601  0.006465  1
  O  O68  1  0.408695  0.640819  0.974146  1
  O  O69  1  0.407832  0.641042  0.469507  1
  O  O70  1  0.416494  0.442446  0.986967  1
  O  O71  1  0.414671  0.441375  0.481577  1
  O  O72  1  0.676340  0.913552  0.973731  1
  O  O73  1  0.676449  0.913282  0.474154  1
  O  O74  1  0.345630  0.261238  0.963038  1
  O  O75  1  0.345894  0.260208  0.501886  1
  O  O76  1  0.247020  0.025356  0.756141  1
  O  O77  1  0.241214  0.017259  0.255333  1
  O  O78  1  0.589054  0.669715  0.728082  1
  O  O79  1  0.588282  0.669189  0.228982  1
  O  O80  1  0.429625  0.099526  0.759155  1
  O  O81  1  0.424465  0.093238  0.258916  1
  O  O82  1  0.677280  0.575515  0.737271  1
  O  O83  1  0.771802  0.759521  0.739856  1
  O  O84  1  0.676586  0.575039  0.237448  1
  O  O85  1  0.770872  0.759066  0.239695  1
  O  O86  1  0.899483  0.980755  0.993186  1
  O  O87  1  0.573511  0.325385  0.519686  1
  O  O88  1  0.899437  0.980689  0.503235  1
  O  O89  1  0.573363  0.325206  0.983154  1
  O  O90  1  0.755387  0.427303  0.997618  1
  O  O91  1  0.755056  0.427243  0.492465  1
  O  O92  1  0.673574  0.244219  0.500387  1
  O  O93  1  0.673694  0.244134  0.000112  1
  O  O94  1  0.909853  0.648993  0.989748  1
  O  O95  1  0.909964  0.648279  0.481194  1
  O  O96  1  0.744678  0.093320  0.518352  1
  O  O97  1  0.744756  0.093623  0.017618  1
  O  O98  1  0.896508  0.321990  0.749851  1
  O  O99  1  0.896993  0.326181  0.247914  1
  O  O100  1  0.984962  0.227100  0.754852  1
  O  O101  1  0.976746  0.223832  0.254141  1
