# generated using pymatgen
data_FeOF
_symmetry_space_group_name_H-M   'P 1'
_cell_length_a   14.16493386
_cell_length_b   14.24144418
_cell_length_c   3.11859499
_cell_angle_alpha   90.00000000
_cell_angle_beta   90.00000000
_cell_angle_gamma   89.93552446
_symmetry_Int_Tables_number   1
_chemical_formula_structural   FeOF
_chemical_formula_sum   'Fe18 O18 F18'
_cell_volume   629.11100881
_cell_formula_units_Z   18
loop_
 _symmetry_equiv_pos_site_id
 _symmetry_equiv_pos_as_xyz
  1  'x, y, z'
loop_
 _atom_site_type_symbol
 _atom_site_label
 _atom_site_symmetry_multiplicity
 _atom_site_fract_x
 _atom_site_fract_y
 _atom_site_fract_z
 _atom_site_occupancy
  Fe  Fe0  1  0.012978  0.996388  0.000000  1
  Fe  Fe1  1  0.012192  0.332324  0.000000  1
  Fe  Fe2  1  0.006507  0.658682  0.000000  1
  Fe  Fe3  1  0.151743  0.165432  0.500000  1
  Fe  Fe4  1  0.152372  0.498653  0.500000  1
  Fe  Fe5  1  0.148378  0.825215  0.500000  1
  Fe  Fe6  1  0.339774  0.991514  0.000000  1
  Fe  Fe7  1  0.345699  0.330721  0.000000  1
  Fe  Fe8  1  0.345076  0.663875  0.000000  1
  Fe  Fe9  1  0.487107  0.497863  0.500000  1
  Fe  Fe10  1  0.504993  0.182597  0.500000  1
  Fe  Fe11  1  0.488162  0.829770  0.500000  1
  Fe  Fe12  1  0.680138  0.997380  0.000000  1
  Fe  Fe13  1  0.673029  0.324549  0.000000  1
  Fe  Fe14  1  0.680766  0.663081  0.000000  1
  Fe  Fe15  1  0.820805  0.165040  0.500000  1
  Fe  Fe16  1  0.839029  0.515463  0.500000  1
  Fe  Fe17  1  0.820582  0.830185  0.500000  1
  O  O18  1  0.064234  0.269578  0.500000  1
  O  O19  1  0.066893  0.602996  0.500000  1
  O  O20  1  0.063965  0.933774  0.500000  1
  O  O21  1  0.102930  0.100834  0.000000  1
  O  O22  1  0.100742  0.435736  0.000000  1
  O  O23  1  0.099011  0.765430  0.000000  1
  O  O24  1  0.395109  0.265163  0.500000  1
  O  O25  1  0.397937  0.602239  0.500000  1
  O  O26  1  0.398371  0.937317  0.500000  1
  O  O27  1  0.435789  0.434146  0.000000  1
  O  O28  1  0.433656  0.769973  0.000000  1
  O  O29  1  0.567258  0.234472  0.000000  1
  O  O30  1  0.736191  0.273631  0.500000  1
  O  O31  1  0.729328  0.599386  0.500000  1
  O  O32  1  0.731376  0.935548  0.500000  1
  O  O33  1  0.767072  0.103457  0.000000  1
  O  O34  1  0.767554  0.768619  0.000000  1
  O  O35  1  0.900054  0.567584  0.000000  1
  F  F36  1  0.231423  0.232279  0.000000  1
  F  F37  1  0.232503  0.566899  0.000000  1
  F  F38  1  0.231564  0.898166  0.000000  1
  F  F39  1  0.270225  0.065548  0.500000  1
  F  F40  1  0.267253  0.732531  0.500000  1
  F  F41  1  0.267603  0.399226  0.500000  1
  F  F42  1  0.434340  0.101685  0.000000  1
  F  F43  1  0.564151  0.567029  0.000000  1
  F  F44  1  0.564857  0.899038  0.000000  1
  F  F45  1  0.596853  0.063236  0.500000  1
  F  F46  1  0.605222  0.404238  0.500000  1
  F  F47  1  0.600383  0.733039  0.500000  1
  F  F48  1  0.769896  0.436723  0.000000  1
  F  F49  1  0.899581  0.231609  0.000000  1
  F  F50  1  0.898020  0.900596  0.000000  1
  F  F51  1  0.934540  0.066181  0.500000  1
  F  F52  1  0.931347  0.396337  0.500000  1
  F  F53  1  0.933439  0.737022  0.500000  1
