# generated using pymatgen
data_LiY3WO8
_symmetry_space_group_name_H-M   'P 1'
_cell_length_a   6.36047653
_cell_length_b   6.18732455
_cell_length_c   12.56059992
_cell_angle_alpha   140.51607989
_cell_angle_beta   141.07741397
_cell_angle_gamma   56.53863943
_symmetry_Int_Tables_number   1
_chemical_formula_structural   LiY3WO8
_chemical_formula_sum   'Li1 Y3 W1 O8'
_cell_volume   195.97856483
_cell_formula_units_Z   1
loop_
 _symmetry_equiv_pos_site_id
 _symmetry_equiv_pos_as_xyz
  1  'x, y, z'
loop_
 _atom_site_type_symbol
 _atom_site_label
 _atom_site_symmetry_multiplicity
 _atom_site_fract_x
 _atom_site_fract_y
 _atom_site_fract_z
 _atom_site_occupancy
  Li  Li0  1  0.253677  0.753669  0.253660  1
  Y  Y1  1  0.008955  0.008918  0.508936  1
  Y  Y2  1  0.741168  0.241180  0.741162  1
  Y  Y3  1  0.741784  0.241807  0.241806  1
  W  W4  1  0.007862  0.007868  0.007867  1
  O  O5  1  0.580743  0.035658  0.776987  1
  O  O6  1  0.192724  0.147377  0.471482  1
  O  O7  1  0.973340  0.518305  0.777044  1
  O  O8  1  0.491121  0.032712  0.228814  1
  O  O9  1  0.177408  0.230830  0.020984  1
  O  O10  1  0.750337  0.795590  0.471532  1
  O  O11  1  0.966443  0.424913  0.228784  1
  O  O12  1  0.864438  0.811175  0.020942  1
