# generated using pymatgen
data_Li3NiO2F
_symmetry_space_group_name_H-M   'P 1'
_cell_length_a   8.56910760
_cell_length_b   9.52206571
_cell_length_c   3.61602282
_cell_angle_alpha   90.00305518
_cell_angle_beta   90.06133265
_cell_angle_gamma   89.99236642
_symmetry_Int_Tables_number   1
_chemical_formula_structural   Li3NiO2F
_chemical_formula_sum   'Li12 Ni4 O8 F4'
_cell_volume   295.05140015
_cell_formula_units_Z   4
loop_
 _symmetry_equiv_pos_site_id
 _symmetry_equiv_pos_as_xyz
  1  'x, y, z'
loop_
 _atom_site_type_symbol
 _atom_site_label
 _atom_site_symmetry_multiplicity
 _atom_site_fract_x
 _atom_site_fract_y
 _atom_site_fract_z
 _atom_site_occupancy
  Li  Li0  1  0.099830  0.337664  0.500991  1
  Li  Li1  1  0.145324  0.577502  0.000193  1
  Li  Li2  1  0.157290  0.169903  0.001142  1
  Li  Li3  1  0.342650  0.669890  0.498713  1
  Li  Li4  1  0.354638  0.077484  0.499684  1
  Li  Li5  1  0.400249  0.837688  0.998881  1
  Li  Li6  1  0.600157  0.162136  0.002009  1
  Li  Li7  1  0.641822  0.922968  0.495652  1
  Li  Li8  1  0.658513  0.330021  0.501495  1
  Li  Li9  1  0.841542  0.830026  0.998481  1
  Li  Li10  1  0.858347  0.422983  0.004207  1
  Li  Li11  1  0.899795  0.662067  0.497865  1
  Ni  Ni12  1  0.119716  0.897067  0.497017  1
  Ni  Ni13  1  0.379960  0.397023  0.003265  1
  Ni  Ni14  1  0.618935  0.601073  0.991151  1
  Ni  Ni15  1  0.881185  0.101364  0.509767  1
  O  O16  1  0.102696  0.111350  0.501186  1
  O  O17  1  0.163776  0.377630  0.001500  1
  O  O18  1  0.336067  0.877623  0.498411  1
  O  O19  1  0.397412  0.611239  0.998699  1
  O  O20  1  0.601568  0.387525  0.001250  1
  O  O21  1  0.665574  0.122751  0.502058  1
  O  O22  1  0.834593  0.622658  0.997848  1
  O  O23  1  0.898359  0.887661  0.498757  1
  F  F24  1  0.119781  0.652526  0.499766  1
  F  F25  1  0.380164  0.152549  0.000160  1
  F  F26  1  0.619459  0.849773  0.995091  1
  F  F27  1  0.880597  0.349855  0.504759  1
