# generated using pymatgen
data_BaLa3Mn4O12
_symmetry_space_group_name_H-M   'P 1'
_cell_length_a   11.18353586
_cell_length_b   11.18353589
_cell_length_c   13.64752163
_cell_angle_alpha   35.55591387
_cell_angle_beta   35.55591365
_cell_angle_gamma   60.47576991
_symmetry_Int_Tables_number   1
_chemical_formula_structural   BaLa3Mn4O12
_chemical_formula_sum   'Ba2 La6 Mn8 O24'
_cell_volume   499.84791697
_cell_formula_units_Z   2
loop_
 _symmetry_equiv_pos_site_id
 _symmetry_equiv_pos_as_xyz
  1  'x, y, z'
loop_
 _atom_site_type_symbol
 _atom_site_label
 _atom_site_symmetry_multiplicity
 _atom_site_fract_x
 _atom_site_fract_y
 _atom_site_fract_z
 _atom_site_occupancy
  Ba  Ba0  1  0.500000  0.500000  0.250000  1
  Ba  Ba1  1  0.500000  0.500000  0.750000  1
  La  La2  1  0.995848  0.004152  0.250000  1
  La  La3  1  0.995848  0.491697  0.258303  1
  La  La4  1  0.004152  0.995848  0.750000  1
  La  La5  1  0.508303  0.004152  0.241697  1
  La  La6  1  0.004152  0.508303  0.741697  1
  La  La7  1  0.491697  0.995848  0.758303  1
  Mn  Mn8  1  0.000000  0.000000  0.000000  1
  Mn  Mn9  1  0.000000  0.500000  0.000000  1
  Mn  Mn10  1  0.000000  0.000000  0.500000  1
  Mn  Mn11  1  0.500000  0.000000  0.000000  1
  Mn  Mn12  1  0.000000  0.500000  0.500000  1
  Mn  Mn13  1  0.500000  0.500000  0.000000  1
  Mn  Mn14  1  0.500000  0.000000  0.500000  1
  Mn  Mn15  1  0.500000  0.500000  0.500000  1
  O  O16  1  0.262907  0.025815  0.224185  1
  O  O17  1  0.215540  0.272307  0.263004  1
  O  O18  1  0.272307  0.556767  0.192382  1
  O  O19  1  0.222922  0.777078  0.250000  1
  O  O20  1  0.443233  0.215540  0.305915  1
  O  O21  1  0.025815  0.262907  0.724185  1
  O  O22  1  0.777078  0.054157  0.195843  1
  O  O23  1  0.443233  0.727693  0.307618  1
  O  O24  1  0.737093  0.262907  0.250000  1
  O  O25  1  0.054157  0.777078  0.695843  1
  O  O26  1  0.272307  0.215540  0.763004  1
  O  O27  1  0.215540  0.443233  0.805915  1
  O  O28  1  0.784460  0.556767  0.194085  1
  O  O29  1  0.727693  0.784460  0.236996  1
  O  O30  1  0.945843  0.222922  0.304157  1
  O  O31  1  0.262907  0.737093  0.750000  1
  O  O32  1  0.556767  0.272307  0.692382  1
  O  O33  1  0.222922  0.945843  0.804157  1
  O  O34  1  0.974185  0.737093  0.275815  1
  O  O35  1  0.556767  0.784460  0.694085  1
  O  O36  1  0.777078  0.222922  0.750000  1
  O  O37  1  0.727693  0.443233  0.807618  1
  O  O38  1  0.784460  0.727693  0.736996  1
  O  O39  1  0.737093  0.974185  0.775815  1
