# generated using pymatgen
data_CsClO3
_symmetry_space_group_name_H-M   'P 1'
_cell_length_a   6.81280573
_cell_length_b   6.57345242
_cell_length_c   4.72617346
_cell_angle_alpha   90.00000000
_cell_angle_beta   90.23543179
_cell_angle_gamma   90.00000000
_symmetry_Int_Tables_number   1
_chemical_formula_structural   CsClO3
_chemical_formula_sum   'Cs2 Cl2 O6'
_cell_volume   211.65353177
_cell_formula_units_Z   2
loop_
 _symmetry_equiv_pos_site_id
 _symmetry_equiv_pos_as_xyz
  1  'x, y, z'
loop_
 _atom_site_type_symbol
 _atom_site_label
 _atom_site_symmetry_multiplicity
 _atom_site_fract_x
 _atom_site_fract_y
 _atom_site_fract_z
 _atom_site_occupancy
  Cs  Cs0  1  0.488539  0.000000  0.497562  1
  Cs  Cs1  1  0.988081  0.500000  0.502955  1
  Cl  Cl2  1  0.029976  0.000000  0.030987  1
  Cl  Cl3  1  0.529955  0.500000  0.968026  1
  O  O4  1  0.157367  0.184284  0.979902  1
  O  O5  1  0.157367  0.815716  0.979902  1
  O  O6  1  0.479754  0.500000  0.656970  1
  O  O7  1  0.657339  0.315815  0.020751  1
  O  O8  1  0.657339  0.684185  0.020751  1
  O  O9  1  0.980284  0.000000  0.342197  1
