# generated using pymatgen
data_K2In2P2HO10
_symmetry_space_group_name_H-M   'P 1'
_cell_length_a   9.44767972
_cell_length_b   9.53041348
_cell_length_c   11.31399742
_cell_angle_alpha   90.00015105
_cell_angle_beta   89.99969136
_cell_angle_gamma   89.99996661
_symmetry_Int_Tables_number   1
_chemical_formula_structural   K2In2P2HO10
_chemical_formula_sum   'K8 In8 P8 H4 O40'
_cell_volume   1018.71565579
_cell_formula_units_Z   4
loop_
 _symmetry_equiv_pos_site_id
 _symmetry_equiv_pos_as_xyz
  1  'x, y, z'
loop_
 _atom_site_type_symbol
 _atom_site_label
 _atom_site_symmetry_multiplicity
 _atom_site_fract_x
 _atom_site_fract_y
 _atom_site_fract_z
 _atom_site_occupancy
  K  K0  1  0.984618  0.973935  0.405511  1
  K  K1  1  0.515446  0.026089  0.905496  1
  K  K2  1  0.484589  0.526082  0.594496  1
  K  K3  1  0.015417  0.473920  0.094500  1
  K  K4  1  0.259905  0.630964  0.335145  1
  K  K5  1  0.240098  0.369032  0.835141  1
  K  K6  1  0.759898  0.869031  0.664850  1
  K  K7  1  0.740093  0.130963  0.164864  1
  In  In8  1  0.854284  0.607237  0.379728  1
  In  In9  1  0.645710  0.392760  0.879728  1
  In  In10  1  0.354300  0.892758  0.620276  1
  In  In11  1  0.145712  0.107234  0.120269  1
  In  In12  1  0.601523  0.655007  0.120854  1
  In  In13  1  0.898457  0.345008  0.620837  1
  In  In14  1  0.101526  0.844991  0.879145  1
  In  In15  1  0.398462  0.154998  0.379159  1
  P  P16  1  0.067891  0.659793  0.623402  1
  P  P17  1  0.432102  0.340202  0.123404  1
  P  P18  1  0.567895  0.840207  0.376596  1
  P  P19  1  0.932109  0.159796  0.876596  1
  P  P20  1  0.920723  0.812533  0.133102  1
  P  P21  1  0.579277  0.187473  0.633107  1
  P  P22  1  0.420723  0.687464  0.866901  1
  P  P23  1  0.079272  0.312530  0.366889  1
  H  H24  1  0.667424  0.433657  0.262957  1
  H  H25  1  0.832577  0.566344  0.762941  1
  H  H26  1  0.167424  0.066343  0.737049  1
  H  H27  1  0.332576  0.933659  0.237053  1
  O  O28  1  0.971741  0.710646  0.519538  1
  O  O29  1  0.528263  0.289350  0.019548  1
  O  O30  1  0.471748  0.789346  0.480460  1
  O  O31  1  0.028267  0.210643  0.980455  1
  O  O32  1  0.502247  0.771748  0.263369  1
  O  O33  1  0.997739  0.228258  0.763361  1
  O  O34  1  0.002240  0.728249  0.736631  1
  O  O35  1  0.497736  0.271741  0.236638  1
  O  O36  1  0.429278  0.502035  0.136229  1
  O  O37  1  0.070719  0.497959  0.636226  1
  O  O38  1  0.929281  0.997960  0.863776  1
  O  O39  1  0.570719  0.002039  0.363771  1
  O  O40  1  0.757617  0.820970  0.120092  1
  O  O41  1  0.742385  0.179025  0.620089  1
  O  O42  1  0.257615  0.679026  0.879908  1
  O  O43  1  0.242378  0.320976  0.379910  1
  O  O44  1  0.725842  0.514127  0.240900  1
  O  O45  1  0.774155  0.485876  0.740896  1
  O  O46  1  0.225838  0.985870  0.759103  1
  O  O47  1  0.274151  0.014125  0.259099  1
  O  O48  1  0.759534  0.472068  0.508679  1
  O  O49  1  0.740432  0.527937  0.008684  1
  O  O50  1  0.259578  0.027929  0.491327  1
  O  O51  1  0.240463  0.972062  0.991307  1
  O  O52  1  0.491573  0.753932  0.977367  1
  O  O53  1  0.008435  0.246067  0.477369  1
  O  O54  1  0.991575  0.746071  0.022632  1
  O  O55  1  0.508439  0.253939  0.522632  1
  O  O56  1  0.966502  0.720729  0.240993  1
  O  O57  1  0.533494  0.279278  0.740991  1
  O  O58  1  0.466503  0.779271  0.759010  1
  O  O59  1  0.033488  0.220727  0.259007  1
  O  O60  1  0.029533  0.464994  0.344247  1
  O  O61  1  0.470463  0.535006  0.844240  1
  O  O62  1  0.529538  0.035012  0.655758  1
  O  O63  1  0.970460  0.964995  0.155757  1
  O  O64  1  0.721339  0.792431  0.403054  1
  O  O65  1  0.778667  0.207568  0.903055  1
  O  O66  1  0.221334  0.707573  0.596945  1
  O  O67  1  0.278661  0.292428  0.096947  1
