# generated using pymatgen
data_HoAsO4
_symmetry_space_group_name_H-M   'P 1'
_cell_length_a   6.79429779
_cell_length_b   6.97495409
_cell_length_c   6.64653067
_cell_angle_alpha   90.00000000
_cell_angle_beta   105.77021207
_cell_angle_gamma   90.00000000
_symmetry_Int_Tables_number   1
_chemical_formula_structural   HoAsO4
_chemical_formula_sum   'Ho4 As4 O16'
_cell_volume   303.12255050
_cell_formula_units_Z   4
loop_
 _symmetry_equiv_pos_site_id
 _symmetry_equiv_pos_as_xyz
  1  'x, y, z'
loop_
 _atom_site_type_symbol
 _atom_site_label
 _atom_site_symmetry_multiplicity
 _atom_site_fract_x
 _atom_site_fract_y
 _atom_site_fract_z
 _atom_site_occupancy
  Ho  Ho0  1  0.217821  0.145824  0.411211  1
  Ho  Ho1  1  0.282179  0.645824  0.088789  1
  Ho  Ho2  1  0.717821  0.354176  0.911211  1
  Ho  Ho3  1  0.782179  0.854176  0.588789  1
  As  As4  1  0.198907  0.161232  0.888341  1
  As  As5  1  0.301093  0.661232  0.611659  1
  As  As6  1  0.698907  0.338768  0.388341  1
  As  As7  1  0.801093  0.838768  0.111659  1
  O  O8  1  0.016404  0.104595  0.659828  1
  O  O9  1  0.111793  0.714399  0.729808  1
  O  O10  1  0.101971  0.350219  0.997062  1
  O  O11  1  0.253050  0.491984  0.415562  1
  O  O12  1  0.388207  0.214399  0.770192  1
  O  O13  1  0.246950  0.991984  0.084438  1
  O  O14  1  0.398029  0.850219  0.502938  1
  O  O15  1  0.483596  0.604595  0.840172  1
  O  O16  1  0.516404  0.395405  0.159828  1
  O  O17  1  0.601971  0.149781  0.497062  1
  O  O18  1  0.753050  0.008016  0.915562  1
  O  O19  1  0.611793  0.785601  0.229808  1
  O  O20  1  0.746950  0.508016  0.584438  1
  O  O21  1  0.898029  0.649781  0.002938  1
  O  O22  1  0.888207  0.285601  0.270192  1
  O  O23  1  0.983596  0.895405  0.340172  1
