# generated using pymatgen
data_V4OF11
_symmetry_space_group_name_H-M   'P 1'
_cell_length_a   5.26380639
_cell_length_b   7.47618820
_cell_length_c   5.48605675
_cell_angle_alpha   93.31707965
_cell_angle_beta   90.00000000
_cell_angle_gamma   90.00000000
_symmetry_Int_Tables_number   1
_chemical_formula_structural   V4OF11
_chemical_formula_sum   'V4 O1 F11'
_cell_volume   215.53222223
_cell_formula_units_Z   1
loop_
 _symmetry_equiv_pos_site_id
 _symmetry_equiv_pos_as_xyz
  1  'x, y, z'
loop_
 _atom_site_type_symbol
 _atom_site_label
 _atom_site_symmetry_multiplicity
 _atom_site_fract_x
 _atom_site_fract_y
 _atom_site_fract_z
 _atom_site_occupancy
  V  V0  1  0.506698  0.487498  0.499926  1
  V  V1  1  0.506698  0.012502  0.500074  1
  V  V2  1  0.000712  0.500567  0.999972  1
  V  V3  1  0.000712  0.999433  0.000028  1
  O  O4  1  0.572204  0.250000  0.500000  1
  F  F5  1  0.888489  0.250000  0.000000  1
  F  F6  1  0.803361  0.551944  0.302829  1
  F  F7  1  0.803361  0.948056  0.697171  1
  F  F8  1  0.699079  0.947631  0.199850  1
  F  F9  1  0.699079  0.552369  0.800150  1
  F  F10  1  0.412728  0.750000  0.500000  1
  F  F11  1  0.302738  0.450854  0.198369  1
  F  F12  1  0.302738  0.049146  0.801631  1
  F  F13  1  0.195099  0.047990  0.303515  1
  F  F14  1  0.195099  0.452010  0.696485  1
  F  F15  1  0.111204  0.750000  0.000000  1
