# generated using pymatgen
data_Li3V3(BO5)2
_symmetry_space_group_name_H-M   'P 1'
_cell_length_a   9.27094249
_cell_length_b   12.26262691
_cell_length_c   3.03013876
_cell_angle_alpha   89.89699657
_cell_angle_beta   89.61139061
_cell_angle_gamma   89.79162570
_symmetry_Int_Tables_number   1
_chemical_formula_structural   Li3V3(BO5)2
_chemical_formula_sum   'Li6 V6 B4 O20'
_cell_volume   344.47394113
_cell_formula_units_Z   2
loop_
 _symmetry_equiv_pos_site_id
 _symmetry_equiv_pos_as_xyz
  1  'x, y, z'
loop_
 _atom_site_type_symbol
 _atom_site_label
 _atom_site_symmetry_multiplicity
 _atom_site_fract_x
 _atom_site_fract_y
 _atom_site_fract_z
 _atom_site_occupancy
  Li  Li0  1  0.008180  0.995753  0.001294  1
  Li  Li1  1  0.977674  0.510095  0.499899  1
  Li  Li2  1  0.516409  0.507404  0.001124  1
  Li  Li3  1  0.497937  0.998733  0.499550  1
  Li  Li4  1  0.729835  0.401700  0.499455  1
  Li  Li5  1  0.986991  0.710089  0.002412  1
  V  V6  1  0.992305  0.290705  0.000084  1
  V  V7  1  0.237046  0.109928  0.500598  1
  V  V8  1  0.248142  0.612373  0.518067  1
  V  V9  1  0.499352  0.783587  0.997503  1
  V  V10  1  0.508910  0.219949  0.999829  1
  V  V11  1  0.765427  0.884932  0.468193  1
  B  B12  1  0.226617  0.857459  0.499607  1
  B  B13  1  0.275322  0.362723  0.498354  1
  B  B14  1  0.729739  0.634194  0.501481  1
  B  B15  1  0.779414  0.136083  0.503334  1
  O  O16  1  0.107347  0.153806  0.001000  1
  O  O17  1  0.133252  0.574195  0.984890  1
  O  O18  1  0.124603  0.345671  0.498248  1
  O  O19  1  0.156611  0.759110  0.496755  1
  O  O20  1  0.155337  0.955714  0.500682  1
  O  O21  1  0.339323  0.459813  0.498065  1
  O  O22  1  0.359188  0.263528  0.500756  1
  O  O23  1  0.381074  0.855620  0.496441  1
  O  O24  1  0.385696  0.085758  0.000745  1
  O  O25  1  0.384106  0.651950  0.008586  1
  O  O26  1  0.593392  0.341870  0.998999  1
  O  O27  1  0.622416  0.921246  0.990234  1
  O  O28  1  0.626972  0.149269  0.498137  1
  O  O29  1  0.646891  0.742689  0.496801  1
  O  O30  1  0.645683  0.545720  0.499137  1
  O  O31  1  0.842137  0.036792  0.515060  1
  O  O32  1  0.865605  0.229875  0.501709  1
  O  O33  1  0.873539  0.645140  0.505319  1
  O  O34  1  0.896809  0.411742  0.000575  1
  O  O35  1  0.880718  0.854785  0.017079  1
