# generated using pymatgen
data_Li2CuF5
_symmetry_space_group_name_H-M   'P 1'
_cell_length_a   3.88330303
_cell_length_b   5.34199137
_cell_length_c   9.79763016
_cell_angle_alpha   89.99935224
_cell_angle_beta   89.99975272
_cell_angle_gamma   68.66645476
_symmetry_Int_Tables_number   1
_chemical_formula_structural   Li2CuF5
_chemical_formula_sum   'Li4 Cu2 F10'
_cell_volume   189.32078234
_cell_formula_units_Z   2
loop_
 _symmetry_equiv_pos_site_id
 _symmetry_equiv_pos_as_xyz
  1  'x, y, z'
loop_
 _atom_site_type_symbol
 _atom_site_label
 _atom_site_symmetry_multiplicity
 _atom_site_fract_x
 _atom_site_fract_y
 _atom_site_fract_z
 _atom_site_occupancy
  Li  Li0  1  0.131292  0.737566  0.069645  1
  Li  Li1  1  0.131294  0.737558  0.430361  1
  Li  Li2  1  0.868692  0.262539  0.570053  1
  Li  Li3  1  0.868693  0.262531  0.929944  1
  Cu  Cu4  1  0.192364  0.614633  0.750001  1
  Cu  Cu5  1  0.807389  0.385919  0.250000  1
  F  F6  1  0.058510  0.881613  0.614572  1
  F  F7  1  0.058515  0.881597  0.885428  1
  F  F8  1  0.277500  0.445638  0.249998  1
  F  F9  1  0.318697  0.362232  0.602125  1
  F  F10  1  0.318706  0.362213  0.897866  1
  F  F11  1  0.681187  0.638049  0.102400  1
  F  F12  1  0.681195  0.638037  0.397606  1
  F  F13  1  0.723473  0.552454  0.750001  1
  F  F14  1  0.941237  0.118714  0.114691  1
  F  F15  1  0.941256  0.118705  0.385309  1
