# generated using pymatgen
data_Li3MnSiBO7
_symmetry_space_group_name_H-M   'P 1'
_cell_length_a   8.32577083
_cell_length_b   6.28164267
_cell_length_c   5.07535045
_cell_angle_alpha   90.00000000
_cell_angle_beta   84.34861735
_cell_angle_gamma   90.00000000
_symmetry_Int_Tables_number   1
_chemical_formula_structural   Li3MnSiBO7
_chemical_formula_sum   'Li6 Mn2 Si2 B2 O14'
_cell_volume   264.14821230
_cell_formula_units_Z   2
loop_
 _symmetry_equiv_pos_site_id
 _symmetry_equiv_pos_as_xyz
  1  'x, y, z'
loop_
 _atom_site_type_symbol
 _atom_site_label
 _atom_site_symmetry_multiplicity
 _atom_site_fract_x
 _atom_site_fract_y
 _atom_site_fract_z
 _atom_site_occupancy
  Li  Li0  1  0.104066  0.250000  0.751647  1
  Li  Li1  1  0.247176  0.998877  0.247895  1
  Li  Li2  1  0.247176  0.501123  0.247895  1
  Li  Li3  1  0.752824  0.498877  0.752105  1
  Li  Li4  1  0.752824  0.001123  0.752105  1
  Li  Li5  1  0.895934  0.750000  0.248353  1
  Mn  Mn6  1  0.318717  0.750000  0.796766  1
  Mn  Mn7  1  0.681283  0.250000  0.203234  1
  Si  Si8  1  0.428626  0.250000  0.725416  1
  Si  Si9  1  0.571374  0.750000  0.274584  1
  B  B10  1  0.038596  0.750000  0.715914  1
  B  B11  1  0.961404  0.250000  0.284086  1
  O  O12  1  0.113103  0.250000  0.352143  1
  O  O13  1  0.088784  0.750000  0.970982  1
  O  O14  1  0.173154  0.750000  0.524624  1
  O  O15  1  0.303630  0.054511  0.818167  1
  O  O16  1  0.303630  0.445489  0.818167  1
  O  O17  1  0.474833  0.250000  0.402476  1
  O  O18  1  0.403695  0.750000  0.135619  1
  O  O19  1  0.596305  0.250000  0.864381  1
  O  O20  1  0.525167  0.750000  0.597524  1
  O  O21  1  0.696370  0.554511  0.181833  1
  O  O22  1  0.696370  0.945489  0.181833  1
  O  O23  1  0.826846  0.250000  0.475376  1
  O  O24  1  0.911216  0.250000  0.029018  1
  O  O25  1  0.886897  0.750000  0.647857  1
