# generated using pymatgen
data_K2UP2(H2O5)2
_symmetry_space_group_name_H-M   'P 1'
_cell_length_a   7.82665908
_cell_length_b   6.95730294
_cell_length_c   10.74040988
_cell_angle_alpha   90.00000000
_cell_angle_beta   111.14719457
_cell_angle_gamma   90.00000000
_symmetry_Int_Tables_number   1
_chemical_formula_structural   K2UP2(H2O5)2
_chemical_formula_sum   'K4 U2 P4 H8 O20'
_cell_volume   545.45634220
_cell_formula_units_Z   2
loop_
 _symmetry_equiv_pos_site_id
 _symmetry_equiv_pos_as_xyz
  1  'x, y, z'
loop_
 _atom_site_type_symbol
 _atom_site_label
 _atom_site_symmetry_multiplicity
 _atom_site_fract_x
 _atom_site_fract_y
 _atom_site_fract_z
 _atom_site_occupancy
  K  K0  1  0.018194  0.716304  0.408888  1
  K  K1  1  0.981806  0.216304  0.591112  1
  K  K2  1  0.340753  0.480610  0.917903  1
  K  K3  1  0.659247  0.980610  0.082097  1
  U  U4  1  0.829307  0.757257  0.768005  1
  U  U5  1  0.170693  0.257257  0.231995  1
  P  P6  1  0.853636  0.265086  0.881308  1
  P  P7  1  0.146364  0.765086  0.118692  1
  P  P8  1  0.579171  0.534505  0.447351  1
  P  P9  1  0.420829  0.034505  0.552649  1
  H  H10  1  0.660964  0.283892  0.824229  1
  H  H11  1  0.339036  0.783892  0.175771  1
  H  H12  1  0.561700  0.728394  0.402958  1
  H  H13  1  0.438300  0.228394  0.597042  1
  H  H14  1  0.614255  0.038139  0.371148  1
  H  H15  1  0.385745  0.538139  0.628852  1
  H  H16  1  0.298432  0.988827  0.789941  1
  H  H17  1  0.701568  0.488827  0.210059  1
  O  O18  1  0.682539  0.741596  0.867545  1
  O  O19  1  0.317461  0.241596  0.132455  1
  O  O20  1  0.972290  0.773805  0.667258  1
  O  O21  1  0.027710  0.273805  0.332742  1
  O  O22  1  0.904779  0.077440  0.827992  1
  O  O23  1  0.095221  0.577440  0.172008  1
  O  O24  1  0.899896  0.259381  0.032915  1
  O  O25  1  0.100104  0.759381  0.967085  1
  O  O26  1  0.937059  0.435271  0.831121  1
  O  O27  1  0.062941  0.935271  0.168879  1
  O  O28  1  0.635881  0.543570  0.601206  1
  O  O29  1  0.364119  0.043570  0.398794  1
  O  O30  1  0.721755  0.435661  0.402354  1
  O  O31  1  0.278245  0.935661  0.597646  1
  O  O32  1  0.384218  0.451244  0.386558  1
  O  O33  1  0.615782  0.951244  0.613442  1
  O  O34  1  0.271338  0.517551  0.646832  1
  O  O35  1  0.728662  0.017551  0.353168  1
  O  O36  1  0.648718  0.587068  0.140536  1
  O  O37  1  0.351282  0.087068  0.859464  1
