# generated using pymatgen
data_KV13O20
_symmetry_space_group_name_H-M   'P 1'
_cell_length_a   7.64135791
_cell_length_b   12.90738170
_cell_length_c   8.58508512
_cell_angle_alpha   92.61226463
_cell_angle_beta   92.44089342
_cell_angle_gamma   75.14507258
_symmetry_Int_Tables_number   1
_chemical_formula_structural   KV13O20
_chemical_formula_sum   'K2 V26 O40'
_cell_volume   817.17700845
_cell_formula_units_Z   2
loop_
 _symmetry_equiv_pos_site_id
 _symmetry_equiv_pos_as_xyz
  1  'x, y, z'
loop_
 _atom_site_type_symbol
 _atom_site_label
 _atom_site_symmetry_multiplicity
 _atom_site_fract_x
 _atom_site_fract_y
 _atom_site_fract_z
 _atom_site_occupancy
  K  K0  1  0.000689  0.190852  0.199694  1
  K  K1  1  0.999311  0.809148  0.800306  1
  V  V2  1  0.798845  0.972403  0.138786  1
  V  V3  1  0.810629  0.669318  0.170139  1
  V  V4  1  0.822659  0.855095  0.396834  1
  V  V5  1  0.460786  0.896899  0.084777  1
  V  V6  1  0.546155  0.504867  0.310404  1
  V  V7  1  0.542529  0.296924  0.121873  1
  V  V8  1  0.538760  0.706308  0.508901  1
  V  V9  1  0.545507  0.900550  0.717329  1
  V  V10  1  0.803851  0.574398  0.739454  1
  V  V11  1  0.806311  0.365915  0.531899  1
  V  V12  1  0.179219  0.748145  0.202401  1
  V  V13  1  0.183416  0.544930  0.004197  1
  V  V14  1  0.188551  0.934316  0.428300  1
  V  V15  1  0.816584  0.455070  0.995803  1
  V  V16  1  0.820781  0.251855  0.797599  1
  V  V17  1  0.811449  0.065684  0.571700  1
  V  V18  1  0.196149  0.425602  0.260546  1
  V  V19  1  0.193689  0.634085  0.468101  1
  V  V20  1  0.454493  0.099450  0.282671  1
  V  V21  1  0.453845  0.495133  0.689596  1
  V  V22  1  0.461240  0.293692  0.491099  1
  V  V23  1  0.457471  0.703076  0.878127  1
  V  V24  1  0.539214  0.103101  0.915223  1
  V  V25  1  0.189371  0.330682  0.829861  1
  V  V26  1  0.177341  0.144905  0.603166  1
  V  V27  1  0.201155  0.027597  0.861214  1
  O  O28  1  0.915566  0.809809  0.160130  1
  O  O29  1  0.605406  0.944513  0.265209  1
  O  O30  1  0.589139  0.746081  0.058318  1
  O  O31  1  0.746498  0.925324  0.600670  1
  O  O32  1  0.736700  0.531598  0.194242  1
  O  O33  1  0.739198  0.723134  0.388265  1
  O  O34  1  0.259272  0.876813  0.209178  1
  O  O35  1  0.255793  0.678048  0.993830  1
  O  O36  1  0.392581  0.455482  0.136912  1
  O  O37  1  0.411479  0.856598  0.537675  1
  O  O38  1  0.390112  0.654969  0.335614  1
  O  O39  1  0.659365  0.724338  0.725603  1
  O  O40  1  0.659739  0.126747  0.134189  1
  O  O41  1  0.655470  0.346547  0.342650  1
  O  O42  1  0.659920  0.942410  0.942369  1
  O  O43  1  0.672575  0.529700  0.540636  1
  O  O44  1  0.913525  0.213846  0.553358  1
  O  O45  1  0.922105  0.989360  0.352353  1
  O  O46  1  0.919456  0.596404  0.945173  1
  O  O47  1  0.919614  0.404595  0.749950  1
  O  O48  1  0.086475  0.786154  0.446642  1
  O  O49  1  0.080544  0.403596  0.054827  1
  O  O50  1  0.080386  0.595406  0.250050  1
  O  O51  1  0.077895  0.010640  0.647647  1
  O  O52  1  0.340080  0.057590  0.057631  1
  O  O53  1  0.327425  0.470300  0.459364  1
  O  O54  1  0.340635  0.275662  0.274397  1
  O  O55  1  0.340261  0.873253  0.865811  1
  O  O56  1  0.344530  0.653453  0.657350  1
  O  O57  1  0.588521  0.143402  0.462325  1
  O  O58  1  0.609888  0.345031  0.664386  1
  O  O59  1  0.607419  0.544518  0.863088  1
  O  O60  1  0.744207  0.321952  0.006170  1
  O  O61  1  0.740728  0.123187  0.790822  1
  O  O62  1  0.253502  0.074676  0.399330  1
  O  O63  1  0.260802  0.276866  0.611735  1
  O  O64  1  0.263300  0.468402  0.805758  1
  O  O65  1  0.394594  0.055487  0.734791  1
  O  O66  1  0.410861  0.253919  0.941682  1
  O  O67  1  0.084434  0.190191  0.839870  1
