# generated using pymatgen
data_Mn2PH2CO7
_symmetry_space_group_name_H-M   'P 1'
_cell_length_a   10.34499060
_cell_length_b   6.59415255
_cell_length_c   10.17523094
_cell_angle_alpha   90.00000000
_cell_angle_beta   116.48807272
_cell_angle_gamma   90.00000000
_symmetry_Int_Tables_number   1
_chemical_formula_structural   Mn2PH2CO7
_chemical_formula_sum   'Mn8 P4 H8 C4 O28'
_cell_volume   621.25459276
_cell_formula_units_Z   4
loop_
 _symmetry_equiv_pos_site_id
 _symmetry_equiv_pos_as_xyz
  1  'x, y, z'
loop_
 _atom_site_type_symbol
 _atom_site_label
 _atom_site_symmetry_multiplicity
 _atom_site_fract_x
 _atom_site_fract_y
 _atom_site_fract_z
 _atom_site_occupancy
  Mn  Mn0  1  0.116351  0.853682  0.974247  1
  Mn  Mn1  1  0.116351  0.646318  0.474247  1
  Mn  Mn2  1  0.234531  0.026286  0.732927  1
  Mn  Mn3  1  0.234531  0.473714  0.232927  1
  Mn  Mn4  1  0.765469  0.526286  0.767073  1
  Mn  Mn5  1  0.765469  0.973714  0.267073  1
  Mn  Mn6  1  0.883649  0.353682  0.525753  1
  Mn  Mn7  1  0.883649  0.146318  0.025753  1
  P  P8  1  0.101845  0.348681  0.894563  1
  P  P9  1  0.101845  0.151319  0.394563  1
  P  P10  1  0.898155  0.848681  0.605437  1
  P  P11  1  0.898155  0.651319  0.105437  1
  H  H12  1  0.265510  0.544469  0.778528  1
  H  H13  1  0.378050  0.621567  0.721776  1
  H  H14  1  0.265510  0.955531  0.278528  1
  H  H15  1  0.378050  0.878433  0.221776  1
  H  H16  1  0.621950  0.121567  0.778224  1
  H  H17  1  0.734490  0.044469  0.721472  1
  H  H18  1  0.621950  0.378433  0.278224  1
  H  H19  1  0.734490  0.455531  0.221472  1
  C  C20  1  0.540521  0.045974  0.958496  1
  C  C21  1  0.459479  0.545974  0.541504  1
  C  C22  1  0.540521  0.454026  0.458496  1
  C  C23  1  0.459479  0.954026  0.041504  1
  O  O24  1  0.078143  0.173097  0.985422  1
  O  O25  1  0.044970  0.901151  0.738572  1
  O  O26  1  0.213732  0.299206  0.838053  1
  O  O27  1  0.078143  0.326903  0.485422  1
  O  O28  1  0.328071  0.909526  0.963167  1
  O  O29  1  0.156567  0.966663  0.502618  1
  O  O30  1  0.044970  0.598849  0.238572  1
  O  O31  1  0.282265  0.650694  0.718341  1
  O  O32  1  0.213732  0.200794  0.338053  1
  O  O33  1  0.471776  0.069585  0.820631  1
  O  O34  1  0.328071  0.590474  0.463167  1
  O  O35  1  0.156567  0.533337  0.002618  1
  O  O36  1  0.282265  0.849306  0.218341  1
  O  O37  1  0.528224  0.569585  0.679369  1
  O  O38  1  0.471776  0.430415  0.320631  1
  O  O39  1  0.717735  0.150694  0.781659  1
  O  O40  1  0.843433  0.466663  0.997382  1
  O  O41  1  0.671929  0.409526  0.536833  1
  O  O42  1  0.528224  0.930415  0.179369  1
  O  O43  1  0.786268  0.799206  0.661947  1
  O  O44  1  0.717735  0.349306  0.281659  1
  O  O45  1  0.955030  0.401151  0.761428  1
  O  O46  1  0.843433  0.033337  0.497382  1
  O  O47  1  0.671929  0.090474  0.036833  1
  O  O48  1  0.921857  0.673097  0.514578  1
  O  O49  1  0.786268  0.700794  0.161947  1
  O  O50  1  0.955030  0.098849  0.261428  1
  O  O51  1  0.921857  0.826903  0.014578  1
