# generated using pymatgen
data_K3ZnPCO7
_symmetry_space_group_name_H-M   'P 1'
_cell_length_a   9.68220346
_cell_length_b   7.01203265
_cell_length_c   5.60628431
_cell_angle_alpha   90.00000000
_cell_angle_beta   90.63351952
_cell_angle_gamma   90.00000000
_symmetry_Int_Tables_number   1
_chemical_formula_structural   K3ZnPCO7
_chemical_formula_sum   'K6 Zn2 P2 C2 O14'
_cell_volume   380.59817721
_cell_formula_units_Z   2
loop_
 _symmetry_equiv_pos_site_id
 _symmetry_equiv_pos_as_xyz
  1  'x, y, z'
loop_
 _atom_site_type_symbol
 _atom_site_label
 _atom_site_symmetry_multiplicity
 _atom_site_fract_x
 _atom_site_fract_y
 _atom_site_fract_z
 _atom_site_occupancy
  K  K0  1  0.077896  0.250000  0.762467  1
  K  K1  1  0.272091  0.011101  0.258636  1
  K  K2  1  0.272091  0.488899  0.258636  1
  K  K3  1  0.727909  0.511101  0.741364  1
  K  K4  1  0.727909  0.988899  0.741364  1
  K  K5  1  0.922104  0.750000  0.237533  1
  Zn  Zn6  1  0.364785  0.750000  0.773988  1
  Zn  Zn7  1  0.635215  0.250000  0.226012  1
  P  P8  1  0.425868  0.250000  0.718586  1
  P  P9  1  0.574132  0.750000  0.281414  1
  C  C10  1  0.087242  0.750000  0.740590  1
  C  C11  1  0.912758  0.250000  0.259410  1
  O  O12  1  0.046764  0.250000  0.263763  1
  O  O13  1  0.155962  0.750000  0.942318  1
  O  O14  1  0.157936  0.750000  0.543590  1
  O  O15  1  0.333954  0.070081  0.759407  1
  O  O16  1  0.333954  0.429919  0.759407  1
  O  O17  1  0.475641  0.250000  0.452732  1
  O  O18  1  0.445949  0.750000  0.112332  1
  O  O19  1  0.554051  0.250000  0.887668  1
  O  O20  1  0.524359  0.750000  0.547268  1
  O  O21  1  0.666046  0.570081  0.240593  1
  O  O22  1  0.666046  0.929919  0.240593  1
  O  O23  1  0.842064  0.250000  0.456410  1
  O  O24  1  0.844038  0.250000  0.057682  1
  O  O25  1  0.953236  0.750000  0.736237  1
