# generated using pymatgen
data_LiCo2OF3
_symmetry_space_group_name_H-M   'P 1'
_cell_length_a   5.98559937
_cell_length_b   5.98696724
_cell_length_c   5.16427811
_cell_angle_alpha   90.00856800
_cell_angle_beta   90.00000000
_cell_angle_gamma   60.00756309
_symmetry_Int_Tables_number   1
_chemical_formula_structural   LiCo2OF3
_chemical_formula_sum   'Li2 Co4 O2 F6'
_cell_volume   160.28314943
_cell_formula_units_Z   2
loop_
 _symmetry_equiv_pos_site_id
 _symmetry_equiv_pos_as_xyz
  1  'x, y, z'
loop_
 _atom_site_type_symbol
 _atom_site_label
 _atom_site_symmetry_multiplicity
 _atom_site_fract_x
 _atom_site_fract_y
 _atom_site_fract_z
 _atom_site_occupancy
  Li  Li0  1  0.666670  0.666660  0.026033  1
  Li  Li1  1  0.333330  0.333340  0.973967  1
  Co  Co2  1  0.500000  0.500000  0.500000  1
  Co  Co3  1  0.000000  0.500000  0.500000  1
  Co  Co4  1  0.500000  0.000000  0.500000  1
  Co  Co5  1  0.000000  0.000000  0.000000  1
  O  O6  1  0.666608  0.666784  0.667296  1
  O  O7  1  0.333392  0.333216  0.332704  1
  F  F8  1  0.828799  0.828706  0.219634  1
  F  F9  1  0.342496  0.828706  0.219634  1
  F  F10  1  0.171274  0.657452  0.780096  1
  F  F11  1  0.828726  0.342548  0.219904  1
  F  F12  1  0.657504  0.171294  0.780366  1
  F  F13  1  0.171201  0.171294  0.780366  1
