# generated using pymatgen
data_Li2VFe(P2O7)2
_symmetry_space_group_name_H-M   'P 1'
_cell_length_a   9.76682984
_cell_length_b   8.25640981
_cell_length_c   7.15309823
_cell_angle_alpha   90.00000000
_cell_angle_beta   68.63122215
_cell_angle_gamma   90.00000000
_symmetry_Int_Tables_number   1
_chemical_formula_structural   Li2VFe(P2O7)2
_chemical_formula_sum   'Li4 V2 Fe2 P8 O28'
_cell_volume   537.16467003
_cell_formula_units_Z   2
loop_
 _symmetry_equiv_pos_site_id
 _symmetry_equiv_pos_as_xyz
  1  'x, y, z'
loop_
 _atom_site_type_symbol
 _atom_site_label
 _atom_site_symmetry_multiplicity
 _atom_site_fract_x
 _atom_site_fract_y
 _atom_site_fract_z
 _atom_site_occupancy
  Li  Li0  1  0.249994  0.362886  0.323666  1
  Li  Li1  1  0.250006  0.862886  0.676334  1
  Li  Li2  1  0.749420  0.362708  0.324932  1
  Li  Li3  1  0.750580  0.862708  0.675068  1
  V  V4  1  0.256078  0.000306  0.271729  1
  V  V5  1  0.243922  0.500306  0.728271  1
  Fe  Fe6  1  0.757957  0.999066  0.267329  1
  Fe  Fe7  1  0.742043  0.499066  0.732671  1
  P  P8  1  0.063179  0.783510  0.086681  1
  P  P9  1  0.060427  0.680506  0.478441  1
  P  P10  1  0.439573  0.180506  0.521559  1
  P  P11  1  0.563589  0.783934  0.085307  1
  P  P12  1  0.436821  0.283510  0.913319  1
  P  P13  1  0.561399  0.680114  0.477349  1
  P  P14  1  0.938601  0.180114  0.522651  1
  P  P15  1  0.936411  0.283934  0.914693  1
  O  O16  1  0.079446  0.652616  0.246979  1
  O  O17  1  0.157246  0.933121  0.083053  1
  O  O18  1  0.103720  0.178100  0.395208  1
  O  O19  1  0.130144  0.843627  0.493650  1
  O  O20  1  0.147690  0.538457  0.517988  1
  O  O21  1  0.098680  0.323322  0.852684  1
  O  O22  1  0.123785  0.696049  0.885769  1
  O  O23  1  0.376215  0.196049  0.114231  1
  O  O24  1  0.401320  0.823322  0.147316  1
  O  O25  1  0.352310  0.038457  0.482013  1
  O  O26  1  0.369856  0.343627  0.506350  1
  O  O27  1  0.396280  0.678100  0.604792  1
  O  O28  1  0.342754  0.433121  0.916947  1
  O  O29  1  0.420554  0.152616  0.753021  1
  O  O30  1  0.578405  0.653672  0.246648  1
  O  O31  1  0.657815  0.933168  0.083350  1
  O  O32  1  0.604013  0.178331  0.393900  1
  O  O33  1  0.629541  0.845165  0.492180  1
  O  O34  1  0.647550  0.537722  0.517439  1
  O  O35  1  0.598881  0.325260  0.853039  1
  O  O36  1  0.623331  0.693940  0.884107  1
  O  O37  1  0.876669  0.193940  0.115893  1
  O  O38  1  0.901119  0.825260  0.146961  1
  O  O39  1  0.852450  0.037722  0.482561  1
  O  O40  1  0.870459  0.345165  0.507820  1
  O  O41  1  0.895987  0.678331  0.606100  1
  O  O42  1  0.842185  0.433168  0.916650  1
  O  O43  1  0.921595  0.153672  0.753352  1
