# generated using pymatgen
data_LaAl12O19
_symmetry_space_group_name_H-M   'P 1'
_cell_length_a   5.65046419
_cell_length_b   5.64458909
_cell_length_c   22.29927292
_cell_angle_alpha   90.00169142
_cell_angle_beta   89.99655151
_cell_angle_gamma   120.04563955
_symmetry_Int_Tables_number   1
_chemical_formula_structural   LaAl12O19
_chemical_formula_sum   'La2 Al24 O38'
_cell_volume   615.65566373
_cell_formula_units_Z   2
loop_
 _symmetry_equiv_pos_site_id
 _symmetry_equiv_pos_as_xyz
  1  'x, y, z'
loop_
 _atom_site_type_symbol
 _atom_site_label
 _atom_site_symmetry_multiplicity
 _atom_site_fract_x
 _atom_site_fract_y
 _atom_site_fract_z
 _atom_site_occupancy
  La  La0  1  0.343456  0.671932  0.748664  1
  La  La1  1  0.671867  0.328265  0.248642  1
  Al  Al2  1  0.167282  0.832971  0.608925  1
  Al  Al3  1  0.168894  0.831324  0.892000  1
  Al  Al4  1  0.334145  0.665849  0.190060  1
  Al  Al5  1  0.333364  0.666875  0.026597  1
  Al  Al6  1  0.334155  0.665819  0.310264  1
  Al  Al7  1  0.333323  0.666867  0.473910  1
  Al  Al8  1  0.002617  0.001515  0.760201  1
  Al  Al9  1  0.000208  0.999981  0.000183  1
  Al  Al10  1  0.001345  0.998394  0.260275  1
  Al  Al11  1  0.000215  0.000034  0.500277  1
  Al  Al12  1  0.167280  0.334449  0.608931  1
  Al  Al13  1  0.168864  0.337684  0.891976  1
  Al  Al14  1  0.662715  0.831432  0.892207  1
  Al  Al15  1  0.665874  0.833008  0.608628  1
  Al  Al16  1  0.334425  0.167059  0.108870  1
  Al  Al17  1  0.337620  0.168699  0.392020  1
  Al  Al18  1  0.831260  0.662358  0.392011  1
  Al  Al19  1  0.668205  0.334170  0.689987  1
  Al  Al20  1  0.668130  0.334120  0.810239  1
  Al  Al21  1  0.666603  0.333151  0.526723  1
  Al  Al22  1  0.666638  0.333185  0.973932  1
  Al  Al23  1  0.832885  0.665540  0.108870  1
  Al  Al24  1  0.832936  0.167003  0.108568  1
  Al  Al25  1  0.831313  0.168606  0.392261  1
  O  O26  1  0.155294  0.844807  0.052489  1
  O  O27  1  0.154308  0.845818  0.446647  1
  O  O28  1  0.008915  0.504437  0.650627  1
  O  O29  1  0.009555  0.504762  0.849841  1
  O  O30  1  0.182698  0.817510  0.250896  1
  O  O31  1  0.154239  0.308592  0.446693  1
  O  O32  1  0.000237  0.000104  0.848738  1
  O  O33  1  0.333435  0.666691  0.557000  1
  O  O34  1  0.000054  0.000027  0.148443  1
  O  O35  1  0.000188  0.999866  0.348802  1
  O  O36  1  0.999974  0.999977  0.648369  1
  O  O37  1  0.333419  0.666718  0.943447  1
  O  O38  1  0.496362  0.991961  0.650556  1
  O  O39  1  0.495911  0.991063  0.849864  1
  O  O40  1  0.179654  0.361984  0.250913  1
  O  O41  1  0.155330  0.310566  0.052438  1
  O  O42  1  0.638046  0.820430  0.250914  1
  O  O43  1  0.310715  0.155460  0.552423  1
  O  O44  1  0.308416  0.154303  0.946594  1
  O  O45  1  0.496352  0.504430  0.650582  1
  O  O46  1  0.495912  0.504863  0.849853  1
  O  O47  1  0.504743  0.495258  0.349891  1
  O  O48  1  0.504460  0.495600  0.150737  1
  O  O49  1  0.689547  0.844684  0.052443  1
  O  O50  1  0.691499  0.845675  0.446686  1
  O  O51  1  0.364437  0.182015  0.750862  1
  O  O52  1  0.504825  0.008851  0.349927  1
  O  O53  1  0.666703  0.333347  0.443536  1
  O  O54  1  0.504370  0.007954  0.150631  1
  O  O55  1  0.817871  0.637956  0.750849  1
  O  O56  1  0.666784  0.333317  0.057171  1
  O  O57  1  0.844685  0.689279  0.552364  1
  O  O58  1  0.845842  0.691612  0.946637  1
  O  O59  1  0.817620  0.179688  0.750849  1
  O  O60  1  0.992086  0.495684  0.150643  1
  O  O61  1  0.991156  0.495200  0.349921  1
  O  O62  1  0.844623  0.155241  0.552367  1
  O  O63  1  0.845838  0.154080  0.946633  1
