# generated using pymatgen
data_H24RuC7S3NCl3O4
_symmetry_space_group_name_H-M   'P 1'
_cell_length_a   8.31874133
_cell_length_b   15.11741000
_cell_length_c   14.85351800
_cell_angle_alpha   90.00000000
_cell_angle_beta   91.52300866
_cell_angle_gamma   90.00000000
_symmetry_Int_Tables_number   1
_chemical_formula_structural   H24RuC7S3NCl3O4
_chemical_formula_sum   'H96 Ru4 C28 S12 N4 Cl12 O16'
_cell_volume   1867.28620868
_cell_formula_units_Z   4
loop_
 _symmetry_equiv_pos_site_id
 _symmetry_equiv_pos_as_xyz
  1  'x, y, z'
loop_
 _atom_site_type_symbol
 _atom_site_label
 _atom_site_symmetry_multiplicity
 _atom_site_fract_x
 _atom_site_fract_y
 _atom_site_fract_z
 _atom_site_occupancy
  H  H0  1  0.198485  0.452884  0.525638  1
  H  H1  1  0.698485  0.047116  0.025638  1
  H  H2  1  0.801515  0.547116  0.474362  1
  H  H3  1  0.301515  0.952884  0.974362  1
  H  H4  1  0.388624  0.422457  0.581757  1
  H  H5  1  0.888624  0.077543  0.081757  1
  H  H6  1  0.611376  0.577543  0.418243  1
  H  H7  1  0.111376  0.922457  0.918243  1
  H  H8  1  0.210110  0.359303  0.601371  1
  H  H9  1  0.710110  0.140697  0.101371  1
  H  H10  1  0.789890  0.640697  0.398629  1
  H  H11  1  0.289890  0.859303  0.898629  1
  H  H12  1  0.376829  0.451628  0.372478  1
  H  H13  1  0.876829  0.048372  0.872478  1
  H  H14  1  0.623171  0.548372  0.627522  1
  H  H15  1  0.123171  0.951628  0.127522  1
  H  H16  1  0.497761  0.358338  0.342898  1
  H  H17  1  0.997761  0.141662  0.842898  1
  H  H18  1  0.502239  0.641662  0.657102  1
  H  H19  1  0.002239  0.858338  0.157102  1
  H  H20  1  0.548301  0.419729  0.444197  1
  H  H21  1  0.048301  0.080271  0.944197  1
  H  H22  1  0.451699  0.580271  0.555803  1
  H  H23  1  0.951699  0.919729  0.055803  1
  H  H24  1  0.141580  0.120294  0.206706  1
  H  H25  1  0.641580  0.379706  0.706706  1
  H  H26  1  0.858420  0.879706  0.793294  1
  H  H27  1  0.358420  0.620294  0.293294  1
  H  H28  1  0.005352  0.069523  0.281940  1
  H  H29  1  0.505352  0.430477  0.781940  1
  H  H30  1  0.994648  0.930477  0.718060  1
  H  H31  1  0.494648  0.569523  0.218060  1
  H  H32  1  0.199289  0.017112  0.263201  1
  H  H33  1  0.699289  0.482888  0.763201  1
  H  H34  1  0.800711  0.982888  0.736799  1
  H  H35  1  0.300711  0.517112  0.236799  1
  H  H36  1  0.426133  0.189832  0.261152  1
  H  H37  1  0.926133  0.310168  0.761152  1
  H  H38  1  0.573867  0.810168  0.738848  1
  H  H39  1  0.073867  0.689832  0.238848  1
  H  H40  1  0.457219  0.077607  0.302981  1
  H  H41  1  0.957219  0.422393  0.802981  1
  H  H42  1  0.542781  0.922393  0.697019  1
  H  H43  1  0.042781  0.577607  0.197019  1
  H  H44  1  0.499024  0.171806  0.375144  1
  H  H45  1  0.999024  0.328194  0.875144  1
  H  H46  1  0.500976  0.828194  0.624856  1
  H  H47  1  0.000976  0.671806  0.124856  1
  H  H48  1  0.941400  0.084456  0.474948  1
  H  H49  1  0.441400  0.415544  0.974948  1
  H  H50  1  0.058600  0.915544  0.525052  1
  H  H51  1  0.558600  0.584456  0.025052  1
  H  H52  1  0.766310  0.149537  0.444117  1
  H  H53  1  0.266310  0.350463  0.944117  1
  H  H54  1  0.233690  0.850463  0.555883  1
  H  H55  1  0.733690  0.649537  0.055883  1
  H  H56  1  0.811628  0.124646  0.561864  1
  H  H57  1  0.311628  0.375354  0.061864  1
  H  H58  1  0.188372  0.875354  0.438136  1
  H  H59  1  0.688372  0.624646  0.938136  1
  H  H60  1  0.750199  0.323268  0.475686  1
  H  H61  1  0.250199  0.176732  0.975686  1
  H  H62  1  0.249801  0.676732  0.524314  1
  H  H63  1  0.749801  0.823268  0.024314  1
  H  H64  1  0.886177  0.375278  0.555269  1
  H  H65  1  0.386177  0.124722  0.055269  1
  H  H66  1  0.113823  0.624722  0.444731  1
  H  H67  1  0.613823  0.875278  0.944731  1
  H  H68  1  0.760604  0.283124  0.591120  1
  H  H69  1  0.260604  0.216876  0.091120  1
  H  H70  1  0.239396  0.716876  0.408880  1
  H  H71  1  0.739396  0.783124  0.908880  1
  H  H72  1  0.950317  0.359468  0.182069  1
  H  H73  1  0.450317  0.140532  0.682069  1
  H  H74  1  0.049683  0.640532  0.817931  1
  H  H75  1  0.549683  0.859468  0.317931  1
  H  H76  1  0.814999  0.334030  0.099184  1
  H  H77  1  0.314999  0.165970  0.599184  1
  H  H78  1  0.185001  0.665970  0.900816  1
  H  H79  1  0.685001  0.834030  0.400816  1
  H  H80  1  0.897184  0.433354  0.018042  1
  H  H81  1  0.397184  0.066646  0.518042  1
  H  H82  1  0.102816  0.566646  0.981958  1
  H  H83  1  0.602816  0.933354  0.481958  1
  H  H84  1  0.681573  0.391252  0.226823  1
  H  H85  1  0.181573  0.108748  0.726823  1
  H  H86  1  0.318427  0.608748  0.773177  1
  H  H87  1  0.818427  0.891252  0.273177  1
  H  H88  1  0.655995  0.462546  0.130557  1
  H  H89  1  0.155995  0.037454  0.630557  1
  H  H90  1  0.344005  0.537454  0.869443  1
  H  H91  1  0.844005  0.962546  0.369443  1
  H  H92  1  0.799338  0.490462  0.220513  1
  H  H93  1  0.299338  0.009538  0.720513  1
  H  H94  1  0.200662  0.509538  0.779487  1
  H  H95  1  0.700662  0.990462  0.279487  1
  Ru  Ru96  1  0.107105  0.277395  0.378345  1
  Ru  Ru97  1  0.607105  0.222605  0.878345  1
  Ru  Ru98  1  0.892895  0.722605  0.621655  1
  Ru  Ru99  1  0.392895  0.777395  0.121655  1
  C  C100  1  0.741118  0.437316  0.181984  1
  C  C101  1  0.241118  0.062684  0.681984  1
  C  C102  1  0.258882  0.562684  0.818016  1
  C  C103  1  0.758882  0.937316  0.318016  1
  C  C104  1  0.274257  0.398948  0.552068  1
  C  C105  1  0.774257  0.101052  0.052068  1
  C  C106  1  0.725743  0.601052  0.447932  1
  C  C107  1  0.225743  0.898948  0.947932  1
  C  C108  1  0.450752  0.396976  0.398756  1
  C  C109  1  0.950752  0.103024  0.898756  1
  C  C110  1  0.549248  0.603024  0.601244  1
  C  C111  1  0.049248  0.896976  0.101244  1
  C  C112  1  0.132454  0.079660  0.267597  1
  C  C113  1  0.632454  0.420340  0.767597  1
  C  C114  1  0.867546  0.920340  0.732403  1
  C  C115  1  0.367546  0.579660  0.232403  1
  C  C116  1  0.423733  0.145716  0.319663  1
  C  C117  1  0.923733  0.354284  0.819663  1
  C  C118  1  0.576267  0.854284  0.680337  1
  C  C119  1  0.076267  0.645716  0.180337  1
  C  C120  1  0.860975  0.137742  0.495326  1
  C  C121  1  0.360975  0.362258  0.995326  1
  C  C122  1  0.139025  0.862258  0.504674  1
  C  C123  1  0.639025  0.637742  0.004674  1
  C  C124  1  0.826962  0.313081  0.535827  1
  C  C125  1  0.326962  0.186919  0.035827  1
  C  C126  1  0.173038  0.686919  0.464173  1
  C  C127  1  0.673038  0.813081  0.964173  1
  S  S128  1  0.322701  0.324556  0.461579  1
  S  S129  1  0.822701  0.175444  0.961579  1
  S  S130  1  0.677299  0.675444  0.538421  1
  S  S131  1  0.177299  0.824556  0.038421  1
  S  S132  1  0.221261  0.141842  0.360126  1
  S  S133  1  0.721261  0.358158  0.860126  1
  S  S134  1  0.778739  0.858158  0.639874  1
  S  S135  1  0.278739  0.641842  0.139874  1
  S  S136  1  0.982081  0.236264  0.506067  1
  S  S137  1  0.482081  0.263736  0.006067  1
  S  S138  1  0.017919  0.763736  0.493933  1
  S  S139  1  0.517919  0.736264  0.993933  1
  N  N140  1  0.866309  0.385960  0.135833  1
  N  N141  1  0.366309  0.114040  0.635833  1
  N  N142  1  0.133691  0.614040  0.864167  1
  N  N143  1  0.633691  0.885960  0.364167  1
  Cl  Cl144  1  0.862593  0.235418  0.292697  1
  Cl  Cl145  1  0.362593  0.264582  0.792697  1
  Cl  Cl146  1  0.137407  0.764582  0.707303  1
  Cl  Cl147  1  0.637407  0.735418  0.207303  1
  Cl  Cl148  1  0.002473  0.428657  0.380463  1
  Cl  Cl149  1  0.502473  0.071343  0.880463  1
  Cl  Cl150  1  0.997527  0.571343  0.619537  1
  Cl  Cl151  1  0.497527  0.928657  0.119537  1
  Cl  Cl152  1  0.216630  0.322531  0.233643  1
  Cl  Cl153  1  0.716630  0.177469  0.733643  1
  Cl  Cl154  1  0.783370  0.677469  0.766357  1
  Cl  Cl155  1  0.283370  0.822531  0.266357  1
  O  O156  1  0.957123  0.439460  0.076749  1
  O  O157  1  0.457123  0.060540  0.576749  1
  O  O158  1  0.042877  0.560540  0.923251  1
  O  O159  1  0.542877  0.939460  0.423251  1
  O  O160  1  0.430627  0.255794  0.502855  1
  O  O161  1  0.930627  0.244206  0.002855  1
  O  O162  1  0.569373  0.744206  0.497145  1
  O  O163  1  0.069373  0.755794  0.997145  1
  O  O164  1  0.227796  0.079393  0.439395  1
  O  O165  1  0.727796  0.420607  0.939395  1
  O  O166  1  0.772204  0.920607  0.560605  1
  O  O167  1  0.272204  0.579393  0.060605  1
  O  O168  1  0.086169  0.223126  0.588670  1
  O  O169  1  0.586169  0.276874  0.088670  1
  O  O170  1  0.913831  0.776874  0.411330  1
  O  O171  1  0.413831  0.723126  0.911330  1
