# generated using pymatgen
data_Li4Ti3Ni3(SbO8)2
_symmetry_space_group_name_H-M   'P 1'
_cell_length_a   5.98651832
_cell_length_b   5.96488567
_cell_length_c   9.70472971
_cell_angle_alpha   90.00036208
_cell_angle_beta   90.51697432
_cell_angle_gamma   119.88052147
_symmetry_Int_Tables_number   1
_chemical_formula_structural   Li4Ti3Ni3(SbO8)2
_chemical_formula_sum   'Li4 Ti3 Ni3 Sb2 O16'
_cell_volume   300.46133455
_cell_formula_units_Z   1
loop_
 _symmetry_equiv_pos_site_id
 _symmetry_equiv_pos_as_xyz
  1  'x, y, z'
loop_
 _atom_site_type_symbol
 _atom_site_label
 _atom_site_symmetry_multiplicity
 _atom_site_fract_x
 _atom_site_fract_y
 _atom_site_fract_z
 _atom_site_occupancy
  Li  Li0  1  0.326791  0.663407  0.895028  1
  Li  Li1  1  0.984433  0.992219  0.981837  1
  Li  Li2  1  0.998619  0.999316  0.495493  1
  Li  Li3  1  0.664569  0.332292  0.407023  1
  Ti  Ti4  1  0.175338  0.834694  0.214029  1
  Ti  Ti5  1  0.175340  0.340653  0.214031  1
  Ti  Ti6  1  0.346576  0.173288  0.717436  1
  Ni  Ni7  1  0.656243  0.828125  0.211475  1
  Ni  Ni8  1  0.828165  0.657532  0.711502  1
  Ni  Ni9  1  0.828200  0.170705  0.711492  1
  Sb  Sb10  1  0.343743  0.671883  0.494009  1
  Sb  Sb11  1  0.684166  0.342089  0.982339  1
  O  O12  1  0.178036  0.838313  0.595069  1
  O  O13  1  0.041010  0.520514  0.339433  1
  O  O14  1  0.305742  0.652876  0.105291  1
  O  O15  1  0.011095  0.005555  0.303112  1
  O  O16  1  0.016772  0.008412  0.797884  1
  O  O17  1  0.178040  0.339749  0.595064  1
  O  O18  1  0.465435  0.958203  0.342505  1
  O  O19  1  0.465436  0.507248  0.342504  1
  O  O20  1  0.344388  0.172196  0.105550  1
  O  O21  1  0.675454  0.837747  0.588050  1
  O  O22  1  0.506385  0.471943  0.853200  1
  O  O23  1  0.506398  0.034466  0.853189  1
  O  O24  1  0.638365  0.319205  0.603754  1
  O  O25  1  0.843949  0.669344  0.099467  1
  O  O26  1  0.967366  0.483709  0.848612  1
  O  O27  1  0.843948  0.174614  0.099463  1
