# generated using pymatgen
data_Rb4SnO3
_symmetry_space_group_name_H-M   'P 1'
_cell_length_a   10.52266350
_cell_length_b   10.52266350
_cell_length_c   6.89818819
_cell_angle_alpha   83.33569452
_cell_angle_beta   96.66430548
_cell_angle_gamma   37.79584834
_symmetry_Int_Tables_number   1
_chemical_formula_structural   Rb4SnO3
_chemical_formula_sum   'Rb8 Sn2 O6'
_cell_volume   437.02044601
_cell_formula_units_Z   2
loop_
 _symmetry_equiv_pos_site_id
 _symmetry_equiv_pos_as_xyz
  1  'x, y, z'
loop_
 _atom_site_type_symbol
 _atom_site_label
 _atom_site_symmetry_multiplicity
 _atom_site_fract_x
 _atom_site_fract_y
 _atom_site_fract_z
 _atom_site_occupancy
  Rb  Rb0  1  0.617104  0.687039  0.795104  1
  Rb  Rb1  1  0.449634  0.474333  0.744748  1
  Rb  Rb2  1  0.039227  0.052116  0.762197  1
  Rb  Rb3  1  0.261136  0.245956  0.765531  1
  Rb  Rb4  1  0.312961  0.382896  0.295104  1
  Rb  Rb5  1  0.525667  0.550366  0.244748  1
  Rb  Rb6  1  0.947884  0.960773  0.262197  1
  Rb  Rb7  1  0.754044  0.738864  0.265531  1
  Sn  Sn8  1  0.888059  0.836778  0.745307  1
  Sn  Sn9  1  0.163222  0.111941  0.245307  1
  O  O10  1  0.150953  0.704580  0.964239  1
  O  O11  1  0.048273  0.643817  0.556697  1
  O  O12  1  0.295420  0.849047  0.464239  1
  O  O13  1  0.356183  0.951727  0.056697  1
  O  O14  1  0.713915  0.135309  0.558863  1
  O  O15  1  0.864691  0.286085  0.058863  1
