# generated using pymatgen
data_Li2VCrP2(HO5)2
_symmetry_space_group_name_H-M   'P 1'
_cell_length_a   5.41342288
_cell_length_b   7.36308288
_cell_length_c   14.31623025
_cell_angle_alpha   86.44789573
_cell_angle_beta   85.15870942
_cell_angle_gamma   106.32025169
_symmetry_Int_Tables_number   1
_chemical_formula_structural   Li2VCrP2(HO5)2
_chemical_formula_sum   'Li6 V3 Cr3 P6 H6 O30'
_cell_volume   543.49612914
_cell_formula_units_Z   3
loop_
 _symmetry_equiv_pos_site_id
 _symmetry_equiv_pos_as_xyz
  1  'x, y, z'
loop_
 _atom_site_type_symbol
 _atom_site_label
 _atom_site_symmetry_multiplicity
 _atom_site_fract_x
 _atom_site_fract_y
 _atom_site_fract_z
 _atom_site_occupancy
  Li  Li0  1  0.148616  0.573630  0.248671  1
  Li  Li1  1  0.184573  0.759726  0.417813  1
  Li  Li2  1  0.482050  0.906948  0.915507  1
  Li  Li3  1  0.518086  0.093047  0.084670  1
  Li  Li4  1  0.815368  0.240775  0.582248  1
  Li  Li5  1  0.851289  0.425886  0.751062  1
  V  V6  1  0.000225  0.000177  0.000053  1
  V  V7  1  0.333331  0.833347  0.666651  1
  V  V8  1  0.666481  0.666503  0.333275  1
  Cr  Cr9  1  0.999609  0.499881  -0.000059  1
  Cr  Cr10  1  0.333218  0.333276  0.666632  1
  Cr  Cr11  1  0.667091  0.166784  0.333541  1
  P  P12  1  0.197908  0.325412  0.441162  1
  P  P13  1  0.136385  0.008108  0.226371  1
  P  P14  1  0.530293  0.658589  0.107021  1
  P  P15  1  0.468806  0.341283  0.892127  1
  P  P16  1  0.865488  0.993975  0.774153  1
  P  P17  1  0.801190  0.672666  0.559156  1
  H  H18  1  0.061379  0.779346  0.879918  1
  H  H19  1  0.271194  0.550542  0.786647  1
  H  H20  1  0.605297  0.887286  0.453407  1
  H  H21  1  0.395482  0.116141  0.546655  1
  H  H22  1  0.728611  0.446155  0.213138  1
  H  H23  1  0.938035  0.220505  0.120230  1
  O  O24  1  0.130869  0.950238  0.124203  1
  O  O25  1  0.044723  0.824342  0.296168  1
  O  O26  1  0.036640  0.860695  0.758296  1
  O  O27  1  0.090814  0.776841  0.565574  1
  O  O28  1  0.100798  0.776553  0.946334  1
  O  O29  1  0.240781  0.556103  0.101347  1
  O  O30  1  0.288652  0.509046  0.371122  1
  O  O31  1  0.204985  0.384053  0.543384  1
  O  O32  1  0.230050  0.552841  0.720519  1
  O  O33  1  0.621959  0.842385  0.037157  1
  O  O34  1  0.535728  0.716405  0.209106  1
  O  O35  1  0.565937  0.890117  0.387013  1
  O  O36  1  0.294555  0.472774  0.908986  1
  O  O37  1  0.372064  0.193844  0.424366  1
  O  O38  1  0.575872  0.889860  0.767739  1
  O  O39  1  0.425933  0.110573  0.232003  1
  O  O40  1  0.630048  0.805992  0.575015  1
  O  O41  1  0.705266  0.527269  0.090844  1
  O  O42  1  0.436610  0.113842  0.612785  1
  O  O43  1  0.461684  0.282646  0.789931  1
  O  O44  1  0.377979  0.157533  0.962212  1
  O  O45  1  0.767422  0.443271  0.279595  1
  O  O46  1  0.797249  0.615455  0.457078  1
  O  O47  1  0.709974  0.490209  0.629455  1
  O  O48  1  0.758363  0.443399  0.898017  1
  O  O49  1  0.899195  0.223392  0.053750  1
  O  O50  1  0.908325  0.223247  0.435338  1
  O  O51  1  0.961389  0.139441  0.242497  1
  O  O52  1  0.956662  0.176449  0.703868  1
  O  O53  1  0.869466  0.051201  0.876257  1
