# generated using pymatgen
data_LiNiBO3
_symmetry_space_group_name_H-M   'P 1'
_cell_length_a   14.08339205
_cell_length_b   14.08597883
_cell_length_c   3.12522910
_cell_angle_alpha   89.49982498
_cell_angle_beta   90.69824321
_cell_angle_gamma   119.92892734
_symmetry_Int_Tables_number   1
_chemical_formula_structural   LiNiBO3
_chemical_formula_sum   'Li9 Ni9 B9 O27'
_cell_volume   537.25825571
_cell_formula_units_Z   9
loop_
 _symmetry_equiv_pos_site_id
 _symmetry_equiv_pos_as_xyz
  1  'x, y, z'
loop_
 _atom_site_type_symbol
 _atom_site_label
 _atom_site_symmetry_multiplicity
 _atom_site_fract_x
 _atom_site_fract_y
 _atom_site_fract_z
 _atom_site_occupancy
  Li  Li0  1  0.098254  0.873739  0.506007  1
  Li  Li1  1  0.107798  0.564498  0.487478  1
  Li  Li2  1  0.455708  0.891710  0.553161  1
  Li  Li3  1  0.128212  0.227640  0.520436  1
  Li  Li4  1  0.435741  0.544194  0.453685  1
  Li  Li5  1  0.441442  0.246396  0.505593  1
  Li  Li6  1  0.773616  0.901667  0.478991  1
  Li  Li7  1  0.804617  0.557684  0.476231  1
  Li  Li8  1  0.752603  0.194412  0.510733  1
  Ni  Ni9  1  0.250171  0.798385  0.060371  1
  Ni  Ni10  1  0.200226  0.451740  0.000544  1
  Ni  Ni11  1  0.212922  0.095617  0.996198  1
  Ni  Ni12  1  0.547875  0.749649  0.950823  1
  Ni  Ni13  1  0.581180  0.462684  0.953903  1
  Ni  Ni14  1  0.535993  0.117408  0.048432  1
  Ni  Ni15  1  0.881462  0.786683  0.967637  1
  Ni  Ni16  1  0.882275  0.419452  0.996296  1
  Ni  Ni17  1  0.904613  0.117763  0.031792  1
  B  B18  1  0.004578  0.664357  0.011731  1
  B  B19  1  0.333054  0.666825  0.999195  1
  B  B20  1  0.335586  0.341050  0.001784  1
  B  B21  1  0.658602  0.994664  0.995392  1
  B  B22  1  0.330915  0.007553  0.534908  1
  B  B23  1  0.675566  0.668131  0.454035  1
  B  B24  1  0.665802  0.332484  0.987599  1
  B  B25  1  0.999707  0.999956  0.006161  1
  B  B26  1  0.991518  0.323507  0.514731  1
  O  O27  1  0.029385  0.919780  0.008387  1
  O  O28  1  0.008277  0.567933  0.978390  1
  O  O29  1  0.099372  0.762891  0.104592  1
  O  O30  1  0.316017  0.903358  0.561890  1
  O  O31  1  0.095439  0.413244  0.499177  1
  O  O32  1  0.220586  0.603089  0.996392  1
  O  O33  1  0.381557  0.778097  0.062616  1
  O  O34  1  0.079339  0.109279  0.044968  1
  O  O35  1  0.558827  0.991143  0.036736  1
  O  O36  1  0.236137  0.337066  0.077854  1
  O  O37  1  0.396554  0.619014  0.938490  1
  O  O38  1  0.662075  0.900315  0.890078  1
  O  O39  1  0.337475  0.243880  0.968414  1
  O  O40  1  0.431970  0.440745  0.963598  1
  O  O41  1  0.241392  0.022718  0.497046  1
  O  O42  1  0.585915  0.682793  0.452254  1
  O  O43  1  0.660716  0.563358  0.451402  1
  O  O44  1  0.435694  0.097278  0.545234  1
  O  O45  1  0.890369  0.970716  0.964358  1
  O  O46  1  0.780116  0.758142  0.462445  1
  O  O47  1  0.561462  0.315872  0.053769  1
  O  O48  1  0.682241  0.243868  0.955465  1
  O  O49  1  0.753553  0.438345  0.954638  1
  O  O50  1  0.905412  0.661951  0.960434  1
  O  O51  1  0.755705  0.092767  0.052598  1
  O  O52  1  0.901450  0.338263  0.505933  1
  O  O53  1  0.977400  0.219164  0.534813  1
