# generated using pymatgen
data_Rb6Ti2O7
_symmetry_space_group_name_H-M   'P 1'
_cell_length_a   6.91547566
_cell_length_b   9.75584682
_cell_length_c   9.88050174
_cell_angle_alpha   90.00000000
_cell_angle_beta   92.43854066
_cell_angle_gamma   90.00000000
_symmetry_Int_Tables_number   1
_chemical_formula_structural   Rb6Ti2O7
_chemical_formula_sum   'Rb12 Ti4 O14'
_cell_volume   665.99745430
_cell_formula_units_Z   2
loop_
 _symmetry_equiv_pos_site_id
 _symmetry_equiv_pos_as_xyz
  1  'x, y, z'
loop_
 _atom_site_type_symbol
 _atom_site_label
 _atom_site_symmetry_multiplicity
 _atom_site_fract_x
 _atom_site_fract_y
 _atom_site_fract_z
 _atom_site_occupancy
  Rb  Rb0  1  0.117059  0.784434  0.721969  1
  Rb  Rb1  1  0.115314  0.648582  0.081230  1
  Rb  Rb2  1  0.247982  0.526245  0.453598  1
  Rb  Rb3  1  0.252018  0.026245  0.046402  1
  Rb  Rb4  1  0.382941  0.284434  0.778031  1
  Rb  Rb5  1  0.384686  0.148582  0.418770  1
  Rb  Rb6  1  0.615314  0.851418  0.581230  1
  Rb  Rb7  1  0.617059  0.715566  0.221969  1
  Rb  Rb8  1  0.747982  0.973755  0.953598  1
  Rb  Rb9  1  0.752018  0.473755  0.546402  1
  Rb  Rb10  1  0.884686  0.351418  0.918770  1
  Rb  Rb11  1  0.882941  0.215566  0.278031  1
  Ti  Ti12  1  0.050329  0.861834  0.371071  1
  Ti  Ti13  1  0.449671  0.361835  0.128929  1
  Ti  Ti14  1  0.550329  0.638166  0.871071  1
  Ti  Ti15  1  0.949671  0.138165  0.628929  1
  O  O16  1  0.000000  0.000000  0.500000  1
  O  O17  1  0.048298  0.089644  0.795963  1
  O  O18  1  0.073091  0.291128  0.571540  1
  O  O19  1  0.188268  0.334030  0.132384  1
  O  O20  1  0.311732  0.834030  0.367616  1
  O  O21  1  0.426909  0.791128  0.928460  1
  O  O22  1  0.451702  0.589644  0.704037  1
  O  O23  1  0.500000  0.500000  0.000000  1
  O  O24  1  0.548298  0.410356  0.295963  1
  O  O25  1  0.573091  0.208872  0.071540  1
  O  O26  1  0.688268  0.165970  0.632384  1
  O  O27  1  0.811732  0.665970  0.867616  1
  O  O28  1  0.926909  0.708872  0.428460  1
  O  O29  1  0.951702  0.910356  0.204037  1
