# generated using pymatgen
data_Dy2Ge2O7
_symmetry_space_group_name_H-M   'P 1'
_cell_length_a   13.95380643
_cell_length_b   5.28860450
_cell_length_c   8.30306600
_cell_angle_alpha   90.00032895
_cell_angle_beta   89.99723012
_cell_angle_gamma   90.00079726
_symmetry_Int_Tables_number   1
_chemical_formula_structural   Dy2Ge2O7
_chemical_formula_sum   'Dy8 Ge8 O28'
_cell_volume   612.73441551
_cell_formula_units_Z   4
loop_
 _symmetry_equiv_pos_site_id
 _symmetry_equiv_pos_as_xyz
  1  'x, y, z'
loop_
 _atom_site_type_symbol
 _atom_site_label
 _atom_site_symmetry_multiplicity
 _atom_site_fract_x
 _atom_site_fract_y
 _atom_site_fract_z
 _atom_site_occupancy
  Dy  Dy0  1  0.123770  0.337847  0.515220  1
  Dy  Dy1  1  0.125045  0.334345  0.985895  1
  Dy  Dy2  1  0.374978  0.834304  0.485867  1
  Dy  Dy3  1  0.376228  0.837880  0.015232  1
  Dy  Dy4  1  0.623763  0.162168  0.515241  1
  Dy  Dy5  1  0.625042  0.165617  0.985841  1
  Dy  Dy6  1  0.874947  0.665678  0.485813  1
  Dy  Dy7  1  0.876259  0.662165  0.015188  1
  Ge  Ge8  1  0.048772  0.871166  0.252099  1
  Ge  Ge9  1  0.186219  0.868475  0.749002  1
  Ge  Ge10  1  0.313760  0.368444  0.248999  1
  Ge  Ge11  1  0.451236  0.371144  0.752117  1
  Ge  Ge12  1  0.548767  0.628848  0.252109  1
  Ge  Ge13  1  0.686202  0.631528  0.749013  1
  Ge  Ge14  1  0.813766  0.131553  0.249029  1
  Ge  Ge15  1  0.951241  0.128822  0.752127  1
  O  O16  1  0.049207  0.695651  0.072464  1
  O  O17  1  0.047550  0.704514  0.435371  1
  O  O18  1  0.082075  0.079375  0.749291  1
  O  O19  1  0.106965  0.166549  0.250792  1
  O  O20  1  0.154580  0.548675  0.750566  1
  O  O21  1  0.235597  0.995623  0.572159  1
  O  O22  1  0.237039  0.996599  0.924582  1
  O  O23  1  0.262985  0.496554  0.424609  1
  O  O24  1  0.264402  0.495610  0.072165  1
  O  O25  1  0.345443  0.048682  0.250580  1
  O  O26  1  0.393057  0.666519  0.750776  1
  O  O27  1  0.417920  0.579379  0.249295  1
  O  O28  1  0.452451  0.204442  0.935339  1
  O  O29  1  0.450773  0.195671  0.572469  1
  O  O30  1  0.549220  0.804282  0.072463  1
  O  O31  1  0.547532  0.795601  0.435368  1
  O  O32  1  0.582059  0.420648  0.749358  1
  O  O33  1  0.606958  0.333452  0.250785  1
  O  O34  1  0.654568  0.951317  0.750554  1
  O  O35  1  0.735573  0.504427  0.572159  1
  O  O36  1  0.737016  0.503437  0.924589  1
  O  O37  1  0.762977  0.003410  0.424642  1
  O  O38  1  0.764405  0.004471  0.072179  1
  O  O39  1  0.845444  0.451263  0.250541  1
  O  O40  1  0.893046  0.833446  0.750757  1
  O  O41  1  0.917928  0.920593  0.249286  1
  O  O42  1  0.952443  0.295539  0.935383  1
  O  O43  1  0.950793  0.304285  0.572483  1
