# generated using pymatgen
data_Ba3La7Mn(Co3O10)3
_symmetry_space_group_name_H-M   'P 1'
_cell_length_a   19.41461400
_cell_length_b   8.75797864
_cell_length_c   5.55643701
_cell_angle_alpha   50.62132535
_cell_angle_beta   90.00000000
_cell_angle_gamma   63.67021208
_symmetry_Int_Tables_number   1
_chemical_formula_structural   Ba3La7Mn(Co3O10)3
_chemical_formula_sum   'Ba3 La7 Mn1 Co9 O30'
_cell_volume   598.09420616
_cell_formula_units_Z   1
loop_
 _symmetry_equiv_pos_site_id
 _symmetry_equiv_pos_as_xyz
  1  'x, y, z'
loop_
 _atom_site_type_symbol
 _atom_site_label
 _atom_site_symmetry_multiplicity
 _atom_site_fract_x
 _atom_site_fract_y
 _atom_site_fract_z
 _atom_site_occupancy
  Ba  Ba0  1  0.998894  -0.001221  0.001221  1
  Ba  Ba1  1  0.201106  0.001221  -0.001221  1
  Ba  Ba2  1  0.100000  0.500000  0.000000  1
  La  La3  1  0.297504  0.500791  0.999209  1
  La  La4  1  0.399539  0.005967  0.994033  1
  La  La5  1  0.497967  0.502266  0.997734  1
  La  La6  1  0.600000  0.000000  0.000000  1
  La  La7  1  0.800461  0.994033  0.005967  1
  La  La8  1  0.702033  0.497734  0.002266  1
  La  La9  1  0.902496  0.499209  0.000791  1
  Mn  Mn10  1  0.100000  0.000000  0.500000  1
  Co  Co11  1  0.998662  0.498601  0.501399  1
  Co  Co12  1  0.201338  0.501399  0.498601  1
  Co  Co13  1  0.403161  0.496262  0.503738  1
  Co  Co14  1  0.299064  0.000009  0.499991  1
  Co  Co15  1  0.600000  0.500000  0.500000  1
  Co  Co16  1  0.500783  0.996573  0.503427  1
  Co  Co17  1  0.699217  0.003427  0.496573  1
  Co  Co18  1  0.796839  0.503738  0.496262  1
  Co  Co19  1  0.900936  -0.000009  0.500009  1
  O  O20  1  0.042633  0.259132  0.001893  1
  O  O21  1  0.042633  0.259132  0.479843  1
  O  O22  1  0.100000  0.500000  0.500000  1
  O  O23  1  0.994027  0.019769  0.480231  1
  O  O24  1  0.263603  0.240413  0.011456  1
  O  O25  1  0.263603  0.240413  0.507719  1
  O  O26  1  0.157367  0.740868  0.998107  1
  O  O27  1  0.157367  0.740868  0.520157  1
  O  O28  1  0.310654  0.474115  0.525885  1
  O  O29  1  0.205973  0.980231  0.519769  1
  O  O30  1  0.453859  0.247821  0.507892  1
  O  O31  1  0.453859  0.247821  -0.003533  1
  O  O32  1  0.360767  0.730463  0.014180  1
  O  O33  1  0.360767  0.730463  0.524895  1
  O  O34  1  0.501546  0.488264  0.511736  1
  O  O35  1  0.407389  0.987566  0.512434  1
  O  O36  1  0.648071  0.254273  0.989264  1
  O  O37  1  0.551929  0.745727  0.010736  1
  O  O38  1  0.551929  0.745727  0.497810  1
  O  O39  1  0.648071  0.254273  0.502190  1
  O  O40  1  0.600000  0.000000  0.500000  1
  O  O41  1  0.698454  0.511736  0.488264  1
  O  O42  1  0.746141  0.752179  0.003533  1
  O  O43  1  0.839233  0.269537  0.985820  1
  O  O44  1  0.839233  0.269537  0.475105  1
  O  O45  1  0.746141  0.752179  0.492108  1
  O  O46  1  0.889346  0.525885  0.474115  1
  O  O47  1  0.792611  0.012434  0.487566  1
  O  O48  1  0.936397  0.759587  0.988544  1
  O  O49  1  0.936397  0.759587  0.492281  1
