# generated using pymatgen
data_Li2BSbO4
_symmetry_space_group_name_H-M   'P 1'
_cell_length_a   7.54377967
_cell_length_b   4.93817529
_cell_length_c   10.34515834
_cell_angle_alpha   90.00000000
_cell_angle_beta   97.61291430
_cell_angle_gamma   90.00000000
_symmetry_Int_Tables_number   1
_chemical_formula_structural   Li2BSbO4
_chemical_formula_sum   'Li8 B4 Sb4 O16'
_cell_volume   381.98619664
_cell_formula_units_Z   4
loop_
 _symmetry_equiv_pos_site_id
 _symmetry_equiv_pos_as_xyz
  1  'x, y, z'
loop_
 _atom_site_type_symbol
 _atom_site_label
 _atom_site_symmetry_multiplicity
 _atom_site_fract_x
 _atom_site_fract_y
 _atom_site_fract_z
 _atom_site_occupancy
  Li  Li0  1  0.003457  0.309469  0.827772  1
  Li  Li1  1  0.003457  0.190531  0.327772  1
  Li  Li2  1  0.200281  0.207289  0.583934  1
  Li  Li3  1  0.200281  0.292711  0.083934  1
  Li  Li4  1  0.799719  0.707289  0.916066  1
  Li  Li5  1  0.799719  0.792711  0.416066  1
  Li  Li6  1  0.996543  0.809469  0.672228  1
  Li  Li7  1  0.996543  0.690531  0.172228  1
  B  B8  1  0.153465  0.826405  0.940599  1
  B  B9  1  0.153465  0.673595  0.440599  1
  B  B10  1  0.846535  0.326405  0.559401  1
  B  B11  1  0.846535  0.173595  0.059401  1
  Sb  Sb12  1  0.496645  0.236248  0.876000  1
  Sb  Sb13  1  0.503355  0.736248  0.624000  1
  Sb  Sb14  1  0.496645  0.263752  0.376000  1
  Sb  Sb15  1  0.503355  0.763752  0.124000  1
  O  O16  1  0.031635  0.698540  0.853385  1
  O  O17  1  0.031635  0.801460  0.353385  1
  O  O18  1  0.211031  0.089528  0.919695  1
  O  O19  1  0.211031  0.410472  0.419695  1
  O  O20  1  0.219364  0.801251  0.562222  1
  O  O21  1  0.452524  0.354703  0.684015  1
  O  O22  1  0.219364  0.698749  0.062222  1
  O  O23  1  0.452524  0.145297  0.184015  1
  O  O24  1  0.547476  0.854703  0.815985  1
  O  O25  1  0.780636  0.301251  0.937778  1
  O  O26  1  0.547476  0.645297  0.315985  1
  O  O27  1  0.780636  0.198749  0.437778  1
  O  O28  1  0.788969  0.589528  0.580305  1
  O  O29  1  0.788969  0.910472  0.080305  1
  O  O30  1  0.968365  0.198540  0.646615  1
  O  O31  1  0.968365  0.301460  0.146615  1
