# generated using pymatgen
data_Li2Ni2BiO6
_symmetry_space_group_name_H-M   'P 1'
_cell_length_a   5.31023343
_cell_length_b   5.35490660
_cell_length_c   10.15965111
_cell_angle_alpha   90.00000000
_cell_angle_beta   90.00000000
_cell_angle_gamma   59.72131974
_symmetry_Int_Tables_number   1
_chemical_formula_structural   Li2Ni2BiO6
_chemical_formula_sum   'Li4 Ni4 Bi2 O12'
_cell_volume   249.48733566
_cell_formula_units_Z   2
loop_
 _symmetry_equiv_pos_site_id
 _symmetry_equiv_pos_as_xyz
  1  'x, y, z'
loop_
 _atom_site_type_symbol
 _atom_site_label
 _atom_site_symmetry_multiplicity
 _atom_site_fract_x
 _atom_site_fract_y
 _atom_site_fract_z
 _atom_site_occupancy
  Li  Li0  1  0.500000  0.154763  0.750000  1
  Li  Li1  1  0.500000  0.345237  0.250000  1
  Li  Li2  1  0.500000  0.654763  0.750000  1
  Li  Li3  1  0.500000  0.845237  0.250000  1
  Ni  Ni4  1  0.330048  0.334976  0.000000  1
  Ni  Ni5  1  0.330048  0.834976  0.500000  1
  Ni  Ni6  1  0.669952  0.165024  0.500000  1
  Ni  Ni7  1  0.669952  0.665024  0.000000  1
  Bi  Bi8  1  0.000000  0.000000  0.000000  1
  Bi  Bi9  1  0.000000  0.500000  0.500000  1
  O  O10  1  1.000000  0.151907  0.600623  1
  O  O11  1  0.000000  0.348093  0.100623  1
  O  O12  1  1.000000  0.651907  0.899377  1
  O  O13  1  0.359749  0.975076  0.888716  1
  O  O14  1  0.000000  0.848093  0.399377  1
  O  O15  1  0.359749  0.165174  0.388716  1
  O  O16  1  0.359749  0.475076  0.611284  1
  O  O17  1  0.359749  0.665174  0.111284  1
  O  O18  1  0.640251  0.024924  0.111284  1
  O  O19  1  0.640251  0.334826  0.888716  1
  O  O20  1  0.640251  0.524924  0.388716  1
  O  O21  1  0.640251  0.834826  0.611284  1
