# generated using pymatgen
data_Li4Nb2V3Co3O16
_symmetry_space_group_name_H-M   'P 1'
_cell_length_a   5.99166976
_cell_length_b   5.97153504
_cell_length_c   9.78845867
_cell_angle_alpha   89.93020208
_cell_angle_beta   89.55524760
_cell_angle_gamma   119.92899266
_symmetry_Int_Tables_number   1
_chemical_formula_structural   Li4Nb2V3Co3O16
_chemical_formula_sum   'Li4 Nb2 V3 Co3 O16'
_cell_volume   303.50686515
_cell_formula_units_Z   1
loop_
 _symmetry_equiv_pos_site_id
 _symmetry_equiv_pos_as_xyz
  1  'x, y, z'
loop_
 _atom_site_type_symbol
 _atom_site_label
 _atom_site_symmetry_multiplicity
 _atom_site_fract_x
 _atom_site_fract_y
 _atom_site_fract_z
 _atom_site_occupancy
  Li  Li0  1  0.333328  0.664325  0.902955  1
  Li  Li1  1  0.989127  0.995572  0.995441  1
  Li  Li2  1  0.992082  0.997777  0.487713  1
  Li  Li3  1  0.675758  0.338191  0.399384  1
  Nb  Nb4  1  0.306351  0.653197  0.488769  1
  Nb  Nb5  1  0.667623  0.335509  -0.000118  1
  V  V6  1  0.648020  0.825002  0.228119  1
  V  V7  1  0.815823  0.652995  0.717702  1
  V  V8  1  0.812054  0.157190  0.718884  1
  Co  Co9  1  0.176699  0.835256  0.211687  1
  Co  Co10  1  0.176380  0.342419  0.211704  1
  Co  Co11  1  0.337975  0.169182  0.708611  1
  O  O12  1  0.155779  0.827003  0.595047  1
  O  O13  1  0.042901  0.521509  0.349215  1
  O  O14  1  0.370530  0.685489  0.108772  1
  O  O15  1  0.979702  0.990351  0.298577  1
  O  O16  1  0.981809  0.988697  0.806259  1
  O  O17  1  0.156200  0.328781  0.595953  1
  O  O18  1  0.499894  0.967607  0.352614  1
  O  O19  1  0.500286  0.533821  0.353169  1
  O  O20  1  0.332113  0.166828  0.081320  1
  O  O21  1  0.668929  0.835074  0.602801  1
  O  O22  1  0.534231  0.496215  0.836911  1
  O  O23  1  0.534256  0.035202  0.836314  1
  O  O24  1  0.702318  0.351597  0.604403  1
  O  O25  1  0.824246  0.658897  0.090438  1
  O  O26  1  0.961914  0.480372  0.835373  1
  O  O27  1  0.823669  0.166242  0.089825  1
