# generated using pymatgen
data_LiCr2(PO4)3
_symmetry_space_group_name_H-M   'P 1'
_cell_length_a   8.69622552
_cell_length_b   8.88429655
_cell_length_c   11.96309183
_cell_angle_alpha   90.00000000
_cell_angle_beta   90.00000000
_cell_angle_gamma   90.00000000
_symmetry_Int_Tables_number   1
_chemical_formula_structural   LiCr2(PO4)3
_chemical_formula_sum   'Li4 Cr8 P12 O48'
_cell_volume   924.26663708
_cell_formula_units_Z   4
loop_
 _symmetry_equiv_pos_site_id
 _symmetry_equiv_pos_as_xyz
  1  'x, y, z'
loop_
 _atom_site_type_symbol
 _atom_site_label
 _atom_site_symmetry_multiplicity
 _atom_site_fract_x
 _atom_site_fract_y
 _atom_site_fract_z
 _atom_site_occupancy
  Li  Li0  1  0.161041  0.717149  0.250000  1
  Li  Li1  1  0.161041  0.782851  0.750000  1
  Li  Li2  1  0.838959  0.217149  0.250000  1
  Li  Li3  1  0.838959  0.282851  0.750000  1
  Cr  Cr4  1  0.246169  0.025970  0.101126  1
  Cr  Cr5  1  0.246169  0.025970  0.398874  1
  Cr  Cr6  1  0.246169  0.474030  0.601126  1
  Cr  Cr7  1  0.246169  0.474030  0.898874  1
  Cr  Cr8  1  0.753831  0.525970  0.101126  1
  Cr  Cr9  1  0.753831  0.525970  0.398874  1
  Cr  Cr10  1  0.753831  0.974030  0.898874  1
  Cr  Cr11  1  0.753831  0.974030  0.601126  1
  P  P12  1  0.033101  0.750000  0.000000  1
  P  P13  1  0.033101  0.750000  0.500000  1
  P  P14  1  0.399768  0.371628  0.128302  1
  P  P15  1  0.399768  0.128372  0.628302  1
  P  P16  1  0.399768  0.128372  0.871698  1
  P  P17  1  0.399768  0.371628  0.371698  1
  P  P18  1  0.600232  0.628372  0.871698  1
  P  P19  1  0.600232  0.628372  0.628302  1
  P  P20  1  0.600232  0.871628  0.128302  1
  P  P21  1  0.600232  0.871628  0.371698  1
  P  P22  1  0.966899  0.250000  0.000000  1
  P  P23  1  0.966899  0.250000  0.500000  1
  O  O24  1  0.059201  0.139699  0.426712  1
  O  O25  1  0.059201  0.360301  0.573288  1
  O  O26  1  0.059201  0.360301  0.926712  1
  O  O27  1  0.059201  0.139699  0.073288  1
  O  O28  1  0.134392  0.830410  0.410192  1
  O  O29  1  0.134392  0.830410  0.089808  1
  O  O30  1  0.134392  0.669590  0.589808  1
  O  O31  1  0.134392  0.669590  0.910192  1
  O  O32  1  0.211520  0.018398  0.250000  1
  O  O33  1  0.211520  0.481602  0.750000  1
  O  O34  1  0.291341  0.031898  0.556284  1
  O  O35  1  0.291341  0.468102  0.056284  1
  O  O36  1  0.291341  0.468102  0.443716  1
  O  O37  1  0.291341  0.031898  0.943716  1
  O  O38  1  0.342462  0.069884  0.750000  1
  O  O39  1  0.342462  0.430116  0.250000  1
  O  O40  1  0.374385  0.203422  0.379377  1
  O  O41  1  0.374385  0.296578  0.620623  1
  O  O42  1  0.374385  0.296578  0.879377  1
  O  O43  1  0.374385  0.203422  0.120623  1
  O  O44  1  0.430005  0.899358  0.117808  1
  O  O45  1  0.430005  0.600642  0.617808  1
  O  O46  1  0.430005  0.899358  0.382192  1
  O  O47  1  0.430005  0.600642  0.882192  1
  O  O48  1  0.569995  0.100642  0.882192  1
  O  O49  1  0.569995  0.399358  0.117808  1
  O  O50  1  0.569995  0.399358  0.382192  1
  O  O51  1  0.569995  0.100642  0.617808  1
  O  O52  1  0.625615  0.703422  0.120623  1
  O  O53  1  0.625615  0.703422  0.379377  1
  O  O54  1  0.625615  0.796578  0.879377  1
  O  O55  1  0.625615  0.796578  0.620623  1
  O  O56  1  0.657538  0.569884  0.750000  1
  O  O57  1  0.657538  0.930116  0.250000  1
  O  O58  1  0.708659  0.531898  0.556284  1
  O  O59  1  0.708659  0.531898  0.943716  1
  O  O60  1  0.708659  0.968102  0.056284  1
  O  O61  1  0.708659  0.968102  0.443716  1
  O  O62  1  0.788480  0.518398  0.250000  1
  O  O63  1  0.788480  0.981602  0.750000  1
  O  O64  1  0.865608  0.169590  0.589808  1
  O  O65  1  0.865608  0.330410  0.089808  1
  O  O66  1  0.865608  0.330410  0.410192  1
  O  O67  1  0.865608  0.169590  0.910192  1
  O  O68  1  0.940799  0.860301  0.926712  1
  O  O69  1  0.940799  0.639699  0.073288  1
  O  O70  1  0.940799  0.639699  0.426712  1
  O  O71  1  0.940799  0.860301  0.573288  1
