# generated using pymatgen
data_Li3SiNiO5
_symmetry_space_group_name_H-M   'P 1'
_cell_length_a   6.49500739
_cell_length_b   5.49002876
_cell_length_c   4.99222474
_cell_angle_alpha   105.99638891
_cell_angle_beta   74.38642187
_cell_angle_gamma   102.60927346
_symmetry_Int_Tables_number   1
_chemical_formula_structural   Li3SiNiO5
_chemical_formula_sum   'Li6 Si2 Ni2 O10'
_cell_volume   162.79498314
_cell_formula_units_Z   2
loop_
 _symmetry_equiv_pos_site_id
 _symmetry_equiv_pos_as_xyz
  1  'x, y, z'
loop_
 _atom_site_type_symbol
 _atom_site_label
 _atom_site_symmetry_multiplicity
 _atom_site_fract_x
 _atom_site_fract_y
 _atom_site_fract_z
 _atom_site_occupancy
  Li  Li0  1  0.004790  0.750688  0.487762  1
  Li  Li1  1  0.403846  0.549858  0.298500  1
  Li  Li2  1  0.405426  0.049828  0.295779  1
  Li  Li3  1  0.594574  0.950172  0.704221  1
  Li  Li4  1  0.596154  0.450142  0.701500  1
  Li  Li5  1  0.995210  0.249312  0.512238  1
  Si  Si6  1  0.224428  0.156964  0.906596  1
  Si  Si7  1  0.775572  0.843036  0.093404  1
  Ni  Ni8  1  0.203639  0.651547  0.901348  1
  Ni  Ni9  1  0.796361  0.348453  0.098652  1
  O  O10  1  0.278355  0.872571  0.644554  1
  O  O11  1  0.277888  0.340898  0.647512  1
  O  O12  1  0.099403  0.949415  0.154691  1
  O  O13  1  0.468375  0.239089  0.994436  1
  O  O14  1  0.113451  0.429703  0.159081  1
  O  O15  1  0.886549  0.570297  0.840919  1
  O  O16  1  0.531625  0.760911  0.005564  1
  O  O17  1  0.900597  0.050585  0.845309  1
  O  O18  1  0.722112  0.659102  0.352488  1
  O  O19  1  0.721645  0.127429  0.355446  1
