# generated using pymatgen
data_NaTi2(PO4)3
_symmetry_space_group_name_H-M   'P 1'
_cell_length_a   8.62797139
_cell_length_b   9.01909802
_cell_length_c   8.58597089
_cell_angle_alpha   61.24059427
_cell_angle_beta   59.85248973
_cell_angle_gamma   61.31405584
_symmetry_Int_Tables_number   1
_chemical_formula_structural   NaTi2(PO4)3
_chemical_formula_sum   'Na2 Ti4 P6 O24'
_cell_volume   480.79731844
_cell_formula_units_Z   2
loop_
 _symmetry_equiv_pos_site_id
 _symmetry_equiv_pos_as_xyz
  1  'x, y, z'
loop_
 _atom_site_type_symbol
 _atom_site_label
 _atom_site_symmetry_multiplicity
 _atom_site_fract_x
 _atom_site_fract_y
 _atom_site_fract_z
 _atom_site_occupancy
  Na  Na0  1  0.914987  0.167472  0.668343  1
  Na  Na1  1  0.085013  0.832528  0.331657  1
  Ti  Ti2  1  0.856884  0.431793  0.861726  1
  Ti  Ti3  1  0.364636  0.937652  0.351489  1
  Ti  Ti4  1  0.635364  0.062348  0.648511  1
  Ti  Ti5  1  0.143116  0.568207  0.138274  1
  P  P6  1  0.750486  0.746701  0.468781  1
  P  P7  1  0.968387  0.249290  0.247728  1
  P  P8  1  0.532895  0.250934  0.968980  1
  P  P9  1  0.467105  0.749066  0.031020  1
  P  P10  1  0.031613  0.750710  0.752272  1
  P  P11  1  0.249514  0.253299  0.531219  1
  O  O12  1  0.847955  0.910293  0.756463  1
  O  O13  1  0.760086  0.903084  0.491526  1
  O  O14  1  0.913155  0.723038  0.280316  1
  O  O15  1  0.783055  0.575352  0.633239  1
  O  O16  1  0.492054  0.906675  0.843921  1
  O  O17  1  0.720540  0.277425  0.912261  1
  O  O18  1  0.997546  0.418765  0.216534  1
  O  O19  1  0.557753  0.793440  0.458227  1
  O  O20  1  0.811451  0.205396  0.444264  1
  O  O21  1  0.909272  0.277827  0.090826  1
  O  O22  1  0.366976  0.420188  0.995702  1
  O  O23  1  0.549268  0.205057  0.807391  1
  O  O24  1  0.450732  0.794943  0.192609  1
  O  O25  1  0.633024  0.579812  0.004298  1
  O  O26  1  0.090728  0.722173  0.909174  1
  O  O27  1  0.188549  0.794604  0.555736  1
  O  O28  1  0.442247  0.206560  0.541773  1
  O  O29  1  0.002454  0.581235  0.783466  1
  O  O30  1  0.279460  0.722575  0.087739  1
  O  O31  1  0.507946  0.093325  0.156079  1
  O  O32  1  0.216945  0.424648  0.366761  1
  O  O33  1  0.086845  0.276962  0.719684  1
  O  O34  1  0.239914  0.096916  0.508475  1
  O  O35  1  0.152045  0.089707  0.243537  1
