# generated using pymatgen
data_Na2ZnPHO5
_symmetry_space_group_name_H-M   'P 1'
_cell_length_a   8.64033624
_cell_length_b   10.01706363
_cell_length_c   5.85393321
_cell_angle_alpha   90.00000000
_cell_angle_beta   104.93595616
_cell_angle_gamma   90.00000000
_symmetry_Int_Tables_number   1
_chemical_formula_structural   Na2ZnPHO5
_chemical_formula_sum   'Na8 Zn4 P4 H4 O20'
_cell_volume   489.54475363
_cell_formula_units_Z   4
loop_
 _symmetry_equiv_pos_site_id
 _symmetry_equiv_pos_as_xyz
  1  'x, y, z'
loop_
 _atom_site_type_symbol
 _atom_site_label
 _atom_site_symmetry_multiplicity
 _atom_site_fract_x
 _atom_site_fract_y
 _atom_site_fract_z
 _atom_site_occupancy
  Na  Na0  1  0.303096  0.144160  0.685612  1
  Na  Na1  1  0.384910  0.829986  0.646188  1
  Na  Na2  1  0.303096  0.355840  0.185612  1
  Na  Na3  1  0.384910  0.670014  0.146188  1
  Na  Na4  1  0.615090  0.329986  0.853812  1
  Na  Na5  1  0.696904  0.644160  0.814388  1
  Na  Na6  1  0.615090  0.170014  0.353812  1
  Na  Na7  1  0.696904  0.855840  0.314388  1
  Zn  Zn8  1  0.010785  0.859564  0.781729  1
  Zn  Zn9  1  0.010785  0.640436  0.281729  1
  Zn  Zn10  1  0.989215  0.359564  0.718271  1
  Zn  Zn11  1  0.989215  0.140436  0.218271  1
  P  P12  1  0.296662  0.507722  0.637192  1
  P  P13  1  0.296662  0.992278  0.137192  1
  P  P14  1  0.703338  0.007722  0.862808  1
  P  P15  1  0.703338  0.492278  0.362808  1
  H  H16  1  0.040480  0.625495  0.870420  1
  H  H17  1  0.040480  0.874505  0.370420  1
  H  H18  1  0.959520  0.125495  0.629580  1
  H  H19  1  0.959520  0.374505  0.129580  1
  O  O20  1  0.016338  0.193073  0.557722  1
  O  O21  1  0.016338  0.306927  0.057722  1
  O  O22  1  0.153424  0.500753  0.760282  1
  O  O23  1  0.230408  0.935318  0.876915  1
  O  O24  1  0.153424  0.999247  0.260282  1
  O  O25  1  0.230408  0.564682  0.376915  1
  O  O26  1  0.361352  0.366576  0.617039  1
  O  O27  1  0.420900  0.606238  0.782205  1
  O  O28  1  0.361352  0.133424  0.117039  1
  O  O29  1  0.420900  0.893762  0.282205  1
  O  O30  1  0.579100  0.106238  0.717795  1
  O  O31  1  0.638648  0.866576  0.882961  1
  O  O32  1  0.579100  0.393762  0.217795  1
  O  O33  1  0.638648  0.633424  0.382961  1
  O  O34  1  0.769592  0.435318  0.623085  1
  O  O35  1  0.846576  0.000753  0.739718  1
  O  O36  1  0.769592  0.064682  0.123085  1
  O  O37  1  0.846576  0.499247  0.239718  1
  O  O38  1  0.983662  0.693073  0.942278  1
  O  O39  1  0.983662  0.806927  0.442278  1
