# generated using pymatgen
data_Na2Li4Mn2C4SO16
_symmetry_space_group_name_H-M   'P 1'
_cell_length_a   9.72660686
_cell_length_b   9.72657897
_cell_length_c   9.90483012
_cell_angle_alpha   59.37125152
_cell_angle_beta   59.37098661
_cell_angle_gamma   87.84504938
_symmetry_Int_Tables_number   1
_chemical_formula_structural   Na2Li4Mn2C4SO16
_chemical_formula_sum   'Na4 Li8 Mn4 C8 S2 O32'
_cell_volume   661.92462884
_cell_formula_units_Z   2
loop_
 _symmetry_equiv_pos_site_id
 _symmetry_equiv_pos_as_xyz
  1  'x, y, z'
loop_
 _atom_site_type_symbol
 _atom_site_label
 _atom_site_symmetry_multiplicity
 _atom_site_fract_x
 _atom_site_fract_y
 _atom_site_fract_z
 _atom_site_occupancy
  Na  Na0  1  0.845112  0.095115  0.809773  1
  Na  Na1  1  0.595109  0.345109  0.309780  1
  Na  Na2  1  0.404893  0.654890  0.690216  1
  Na  Na3  1  0.154890  0.904887  0.190221  1
  Li  Li4  1  0.009808  0.822944  0.014677  1
  Li  Li5  1  0.475508  0.162380  0.014688  1
  Li  Li6  1  0.662385  0.975512  0.514680  1
  Li  Li7  1  0.677067  0.490198  0.485311  1
  Li  Li8  1  0.322933  0.509804  0.514688  1
  Li  Li9  1  0.337619  0.024483  0.485324  1
  Li  Li10  1  0.524498  0.837619  0.985302  1
  Li  Li11  1  0.990197  0.177064  0.985312  1
  Mn  Mn12  1  0.500006  0.500005  0.000000  1
  Mn  Mn13  1  0.999992  0.000001  0.500002  1
  Mn  Mn14  1  -0.000000  0.500000  0.500006  1
  Mn  Mn15  1  0.999995  0.499999  0.000004  1
  C  C16  1  0.780386  0.327602  0.945392  1
  C  C17  1  0.774223  0.727009  0.945387  1
  C  C18  1  0.827602  0.280388  0.445390  1
  C  C19  1  0.772991  0.725772  0.554615  1
  C  C20  1  0.227008  0.274227  0.445386  1
  C  C21  1  0.172393  0.719615  0.554608  1
  C  C22  1  0.225780  0.272996  0.054605  1
  C  C23  1  0.219622  0.672394  0.054611  1
  S  S24  1  0.375009  0.125007  0.749991  1
  S  S25  1  0.624994  0.874989  0.250008  1
  O  O26  1  0.899893  0.711330  0.959532  1
  O  O27  1  0.904300  0.313883  0.815972  1
  O  O28  1  0.779729  0.870148  0.815973  1
  O  O29  1  0.835813  0.300133  0.561260  1
  O  O30  1  0.897077  0.861389  0.438742  1
  O  O31  1  0.640575  0.329134  0.959545  1
  O  O32  1  0.829131  0.140574  0.459549  1
  O  O33  1  0.788680  0.600121  0.540453  1
  O  O34  1  0.813883  0.404297  0.315970  1
  O  O35  1  0.629853  0.720264  0.684035  1
  O  O36  1  0.438081  0.060520  0.874988  1
  O  O37  1  0.813078  0.935514  0.125004  1
  O  O38  1  0.800126  0.335811  0.061266  1
  O  O39  1  0.361387  0.397080  0.938736  1
  O  O40  1  0.439478  0.061917  0.625011  1
  O  O41  1  0.435509  0.313067  0.625013  1
  O  O42  1  0.564492  0.686931  0.374987  1
  O  O43  1  0.560524  0.938080  0.374991  1
  O  O44  1  0.638621  0.602923  0.061257  1
  O  O45  1  0.199874  0.664184  0.938733  1
  O  O46  1  0.186922  0.064484  0.874994  1
  O  O47  1  0.561918  0.939478  0.125014  1
  O  O48  1  0.370148  0.279732  0.315969  1
  O  O49  1  0.186114  0.595706  0.684030  1
  O  O50  1  0.211323  0.399880  0.459544  1
  O  O51  1  0.170863  0.859431  0.540456  1
  O  O52  1  0.359425  0.670864  0.040453  1
  O  O53  1  0.102919  0.138612  0.561258  1
  O  O54  1  0.164182  0.699873  0.438745  1
  O  O55  1  0.220264  0.129855  0.184023  1
  O  O56  1  0.095703  0.686113  0.184030  1
  O  O57  1  0.100114  0.288681  0.040451  1
