# generated using pymatgen
data_Li3Bi2(PO4)3
_symmetry_space_group_name_H-M   'P 1'
_cell_length_a   9.71711874
_cell_length_b   9.71711874
_cell_length_c   15.75844147
_cell_angle_alpha   85.24338305
_cell_angle_beta   82.41699596
_cell_angle_gamma   130.65597953
_symmetry_Int_Tables_number   1
_chemical_formula_structural   Li3Bi2(PO4)3
_chemical_formula_sum   'Li12 Bi8 P12 O48'
_cell_volume   1090.35166805
_cell_formula_units_Z   4
loop_
 _symmetry_equiv_pos_site_id
 _symmetry_equiv_pos_as_xyz
  1  'x, y, z'
loop_
 _atom_site_type_symbol
 _atom_site_label
 _atom_site_symmetry_multiplicity
 _atom_site_fract_x
 _atom_site_fract_y
 _atom_site_fract_z
 _atom_site_occupancy
  Li  Li0  1  0.142041  0.767923  0.354483  1
  Li  Li1  1  0.918294  0.225091  0.949142  1
  Li  Li2  1  0.215402  0.465402  0.250000  1
  Li  Li3  1  0.674233  0.867436  0.550858  1
  Li  Li4  1  0.622406  0.496524  0.145517  1
  Li  Li5  1  0.500000  0.500000  0.500000  1
  Li  Li6  1  0.377594  0.503476  0.854483  1
  Li  Li7  1  0.325767  0.132564  0.449142  1
  Li  Li8  1  0.784598  0.534598  0.750000  1
  Li  Li9  1  0.081706  0.774909  0.050858  1
  Li  Li10  1  0.857959  0.232077  0.645517  1
  Li  Li11  1  0.500000  0.000000  0.000000  1
  Bi  Bi12  1  0.268078  0.718832  0.529951  1
  Bi  Bi13  1  0.232103  0.749069  0.835311  1
  Bi  Bi14  1  0.084381  0.067414  0.664689  1
  Bi  Bi15  1  0.748782  0.798028  0.970049  1
  Bi  Bi16  1  0.251218  0.201972  0.029951  1
  Bi  Bi17  1  0.915619  0.932586  0.335311  1
  Bi  Bi18  1  0.767897  0.250931  0.164689  1
  Bi  Bi19  1  0.731922  0.281168  0.470049  1
  P  P20  1  0.577767  0.936788  0.363100  1
  P  P21  1  0.242804  0.507611  0.688835  1
  P  P22  1  0.290331  0.613473  0.039014  1
  P  P23  1  0.152487  0.329346  0.460986  1
  P  P24  1  0.696445  0.931639  0.811165  1
  P  P25  1  0.799888  0.940869  0.136900  1
  P  P26  1  0.200112  0.059131  0.863100  1
  P  P27  1  0.303555  0.068361  0.188835  1
  P  P28  1  0.847513  0.670655  0.539014  1
  P  P29  1  0.709669  0.386527  0.960986  1
  P  P30  1  0.757196  0.492389  0.311165  1
  P  P31  1  0.422233  0.063212  0.636900  1
  O  O32  1  0.183177  0.969354  0.284677  1
  O  O33  1  0.185672  0.955391  0.123038  1
  O  O34  1  0.340285  0.035949  0.835168  1
  O  O35  1  0.401833  0.047927  0.538095  1
  O  O36  1  0.038249  0.749978  0.480937  1
  O  O37  1  0.279686  0.857639  0.690174  1
  O  O38  1  0.372123  0.837844  0.368589  1
  O  O39  1  0.072772  0.468613  0.663847  1
  O  O40  1  0.217170  0.706161  0.002132  1
  O  O41  1  0.530347  0.923411  0.823079  1
  O  O42  1  0.185606  0.508949  0.135580  1
  O  O43  1  0.245968  0.532146  0.784677  1
  O  O44  1  0.310987  0.531262  0.473448  1
  O  O45  1  0.421571  0.691291  0.623038  1
  O  O46  1  0.504710  0.784435  0.026552  1
  O  O47  1  0.628884  0.824547  0.335168  1
  O  O48  1  0.144529  0.321186  0.364420  1
  O  O49  1  0.913978  0.060072  0.038095  1
  O  O50  1  0.246490  0.353425  0.676921  1
  O  O51  1  0.269085  0.480814  0.980937  1
  O  O52  1  0.952186  0.030140  0.190174  1
  O  O53  1  0.208294  0.219302  0.497868  1
  O  O54  1  0.706433  0.740713  0.131411  1
  O  O55  1  0.632461  0.736620  0.836153  1
  O  O56  1  0.367539  0.263380  0.163847  1
  O  O57  1  0.293567  0.259287  0.868589  1
  O  O58  1  0.791706  0.780698  0.502132  1
  O  O59  1  0.047814  0.969860  0.809826  1
  O  O60  1  0.730915  0.519186  0.019063  1
  O  O61  1  0.753510  0.646575  0.323079  1
  O  O62  1  0.086022  0.939928  0.961905  1
  O  O63  1  0.855471  0.678814  0.635580  1
  O  O64  1  0.371116  0.175453  0.664832  1
  O  O65  1  0.495290  0.215565  0.973448  1
  O  O66  1  0.578429  0.308709  0.376962  1
  O  O67  1  0.689013  0.468738  0.526552  1
  O  O68  1  0.754032  0.467854  0.215323  1
  O  O69  1  0.814394  0.491051  0.864420  1
  O  O70  1  0.469653  0.076589  0.176921  1
  O  O71  1  0.782830  0.293839  0.997868  1
  O  O72  1  0.927228  0.531387  0.336153  1
  O  O73  1  0.627877  0.162156  0.631411  1
  O  O74  1  0.720314  0.142361  0.309826  1
  O  O75  1  0.961751  0.250022  0.519063  1
  O  O76  1  0.598167  0.952073  0.461905  1
  O  O77  1  0.659715  0.964051  0.164832  1
  O  O78  1  0.814328  0.044609  0.876962  1
  O  O79  1  0.816823  0.030646  0.715323  1
