# generated using pymatgen
data_Li3Fe2(SiO4)2
_symmetry_space_group_name_H-M   'P 1'
_cell_length_a   5.17006873
_cell_length_b   6.61499563
_cell_length_c   10.56600112
_cell_angle_alpha   89.92056378
_cell_angle_beta   89.44612040
_cell_angle_gamma   90.22513045
_symmetry_Int_Tables_number   1
_chemical_formula_structural   Li3Fe2(SiO4)2
_chemical_formula_sum   'Li6 Fe4 Si4 O16'
_cell_volume   361.33700807
_cell_formula_units_Z   2
loop_
 _symmetry_equiv_pos_site_id
 _symmetry_equiv_pos_as_xyz
  1  'x, y, z'
loop_
 _atom_site_type_symbol
 _atom_site_label
 _atom_site_symmetry_multiplicity
 _atom_site_fract_x
 _atom_site_fract_y
 _atom_site_fract_z
 _atom_site_occupancy
  Li  Li0  1  0.635433  0.247209  0.911988  1
  Li  Li1  1  0.234880  0.997124  0.839356  1
  Li  Li2  1  0.756144  0.497181  0.659881  1
  Li  Li3  1  0.641069  0.254733  0.421333  1
  Li  Li4  1  0.234334  0.501851  0.345332  1
  Li  Li5  1  0.757843  0.999661  0.157144  1
  Fe  Fe6  1  0.234495  0.519757  0.821058  1
  Fe  Fe7  1  0.746433  0.990435  0.667943  1
  Fe  Fe8  1  0.246122  0.990889  0.332201  1
  Fe  Fe9  1  0.755630  0.513680  0.163467  1
  Si  Si10  1  0.748374  0.749010  0.911173  1
  Si  Si11  1  0.254175  0.240689  0.592273  1
  Si  Si12  1  0.745489  0.748385  0.413058  1
  Si  Si13  1  0.252296  0.258925  0.091465  1
  O  O14  1  0.205504  0.256786  0.940366  1
  O  O15  1  0.059151  0.757747  0.886830  1
  O  O16  1  0.619558  0.957139  0.853317  1
  O  O17  1  0.635803  0.537044  0.847984  1
  O  O18  1  0.131948  0.044782  0.661534  1
  O  O19  1  0.131407  0.448924  0.647014  1
  O  O20  1  0.575262  0.244650  0.602049  1
  O  O21  1  0.687523  0.738273  0.561349  1
  O  O22  1  0.207467  0.231410  0.432239  1
  O  O23  1  0.056397  0.758073  0.374444  1
  O  O24  1  0.632535  0.542219  0.338158  1
  O  O25  1  0.617585  0.954133  0.342695  1
  O  O26  1  0.113072  0.449278  0.167384  1
  O  O27  1  0.143415  0.054531  0.165505  1
  O  O28  1  0.574404  0.270820  0.113669  1
  O  O29  1  0.689459  0.744721  0.067771  1
