# generated using pymatgen
data_MnZn2Si(HO3)2
_symmetry_space_group_name_H-M   'P 1'
_cell_length_a   8.89832764
_cell_length_b   5.31812270
_cell_length_c   13.47673849
_cell_angle_alpha   90.00000000
_cell_angle_beta   121.23906362
_cell_angle_gamma   90.00000000
_symmetry_Int_Tables_number   1
_chemical_formula_structural   MnZn2Si(HO3)2
_chemical_formula_sum   'Mn4 Zn8 Si4 H8 O24'
_cell_volume   545.28454210
_cell_formula_units_Z   4
loop_
 _symmetry_equiv_pos_site_id
 _symmetry_equiv_pos_as_xyz
  1  'x, y, z'
loop_
 _atom_site_type_symbol
 _atom_site_label
 _atom_site_symmetry_multiplicity
 _atom_site_fract_x
 _atom_site_fract_y
 _atom_site_fract_z
 _atom_site_occupancy
  Mn  Mn0  1  0.620631  0.140679  0.610574  1
  Mn  Mn1  1  0.879369  0.640679  0.389426  1
  Mn  Mn2  1  0.379369  0.859321  0.389426  1
  Mn  Mn3  1  0.120631  0.359321  0.610574  1
  Zn  Zn4  1  0.695014  0.389160  0.106002  1
  Zn  Zn5  1  0.804986  0.889160  0.893998  1
  Zn  Zn6  1  0.304986  0.610840  0.893998  1
  Zn  Zn7  1  0.195014  0.110840  0.106002  1
  Zn  Zn8  1  0.135342  0.354892  0.330353  1
  Zn  Zn9  1  0.364658  0.854892  0.669647  1
  Zn  Zn10  1  0.864658  0.645108  0.669647  1
  Zn  Zn11  1  0.635342  0.145108  0.330353  1
  Si  Si12  1  0.537422  0.338130  0.844787  1
  Si  Si13  1  0.962578  0.838130  0.155213  1
  Si  Si14  1  0.462578  0.661870  0.155213  1
  Si  Si15  1  0.037422  0.161870  0.844787  1
  H  H16  1  0.939768  0.128302  0.384998  1
  H  H17  1  0.560232  0.628302  0.615002  1
  H  H18  1  0.060232  0.871698  0.615002  1
  H  H19  1  0.439768  0.371698  0.384998  1
  H  H20  1  0.167005  0.590471  0.075620  1
  H  H21  1  0.332995  0.090471  0.924380  1
  H  H22  1  0.832995  0.409529  0.924380  1
  H  H23  1  0.667005  0.909529  0.075620  1
  O  O24  1  0.624952  0.480101  0.247847  1
  O  O25  1  0.875048  0.980101  0.752153  1
  O  O26  1  0.375048  0.519899  0.752153  1
  O  O27  1  0.124952  0.019899  0.247847  1
  O  O28  1  0.659113  0.503846  0.664019  1
  O  O29  1  0.840887  0.003846  0.335981  1
  O  O30  1  0.340887  0.496154  0.335981  1
  O  O31  1  0.159113  0.996154  0.664019  1
  O  O32  1  0.275091  0.490053  0.092548  1
  O  O33  1  0.224909  0.990053  0.907452  1
  O  O34  1  0.724909  0.509947  0.907452  1
  O  O35  1  0.775091  0.009947  0.092548  1
  O  O36  1  0.077883  0.425128  0.800495  1
  O  O37  1  0.422117  0.925128  0.199505  1
  O  O38  1  0.922117  0.574872  0.199505  1
  O  O39  1  0.577883  0.074872  0.800495  1
  O  O40  1  0.066217  0.361449  0.441319  1
  O  O41  1  0.433783  0.861449  0.558681  1
  O  O42  1  0.933783  0.638551  0.558681  1
  O  O43  1  0.566217  0.138551  0.441319  1
  O  O44  1  0.486804  0.287249  0.945532  1
  O  O45  1  0.013196  0.787249  0.054468  1
  O  O46  1  0.513196  0.712751  0.054468  1
  O  O47  1  0.986804  0.212751  0.945532  1
