# generated using pymatgen
data_Li2NbFe3O8
_symmetry_space_group_name_H-M   'P 1'
_cell_length_a   6.00691772
_cell_length_b   6.00738234
_cell_length_c   9.81189567
_cell_angle_alpha   89.98405382
_cell_angle_beta   90.00796804
_cell_angle_gamma   120.00255933
_symmetry_Int_Tables_number   1
_chemical_formula_structural   Li2NbFe3O8
_chemical_formula_sum   'Li4 Nb2 Fe6 O16'
_cell_volume   306.62622231
_cell_formula_units_Z   2
loop_
 _symmetry_equiv_pos_site_id
 _symmetry_equiv_pos_as_xyz
  1  'x, y, z'
loop_
 _atom_site_type_symbol
 _atom_site_label
 _atom_site_symmetry_multiplicity
 _atom_site_fract_x
 _atom_site_fract_y
 _atom_site_fract_z
 _atom_site_occupancy
  Li  Li0  1  0.333343  0.666601  0.902019  1
  Li  Li1  1  0.999964  0.000064  0.990499  1
  Li  Li2  1  0.000036  0.000101  0.490499  1
  Li  Li3  1  0.666657  0.333257  0.402019  1
  Nb  Nb4  1  0.333345  0.666690  0.493500  1
  Nb  Nb5  1  0.666655  0.333344  0.993501  1
  Fe  Fe6  1  0.171187  0.828688  0.217059  1
  Fe  Fe7  1  0.171319  0.342627  0.216903  1
  Fe  Fe8  1  0.657444  0.828629  0.217057  1
  Fe  Fe9  1  0.342556  0.171185  0.717057  1
  Fe  Fe10  1  0.828813  0.657500  0.717059  1
  Fe  Fe11  1  0.828681  0.171309  0.716903  1
  O  O12  1  0.167616  0.832362  0.591400  1
  O  O13  1  0.036787  0.518479  0.343718  1
  O  O14  1  0.333251  0.666409  0.107822  1
  O  O15  1  0.000120  0.000381  0.303742  1
  O  O16  1  0.999880  0.000261  0.803742  1
  O  O17  1  0.167723  0.335380  0.591338  1
  O  O18  1  0.481564  0.963140  0.343761  1
  O  O19  1  0.481702  0.518436  0.343731  1
  O  O20  1  0.335318  0.167605  0.091370  1
  O  O21  1  0.664682  0.832288  0.591370  1
  O  O22  1  0.518436  0.481576  0.843761  1
  O  O23  1  0.518298  0.036733  0.843731  1
  O  O24  1  0.666749  0.333158  0.607822  1
  O  O25  1  0.832384  0.664745  0.091400  1
  O  O26  1  0.963213  0.481692  0.843718  1
  O  O27  1  0.832277  0.167657  0.091338  1
