# generated using pymatgen
data_CaFe2P3HO12
_symmetry_space_group_name_H-M   'P 1'
_cell_length_a   6.45567191
_cell_length_b   20.04675964
_cell_length_c   6.60545122
_cell_angle_alpha   90.00000000
_cell_angle_beta   91.27501167
_cell_angle_gamma   90.00000000
_symmetry_Int_Tables_number   1
_chemical_formula_structural   CaFe2P3HO12
_chemical_formula_sum   'Ca4 Fe8 P12 H4 O48'
_cell_volume   854.63482058
_cell_formula_units_Z   4
loop_
 _symmetry_equiv_pos_site_id
 _symmetry_equiv_pos_as_xyz
  1  'x, y, z'
loop_
 _atom_site_type_symbol
 _atom_site_label
 _atom_site_symmetry_multiplicity
 _atom_site_fract_x
 _atom_site_fract_y
 _atom_site_fract_z
 _atom_site_occupancy
  Ca  Ca0  1  0.851764  0.919870  0.055960  1
  Ca  Ca1  1  0.351764  0.580130  0.555960  1
  Ca  Ca2  1  0.148236  0.080130  0.944040  1
  Ca  Ca3  1  0.648236  0.419870  0.444040  1
  Fe  Fe4  1  0.405558  0.901902  0.718232  1
  Fe  Fe5  1  0.905558  0.598098  0.218232  1
  Fe  Fe6  1  0.594442  0.098098  0.281768  1
  Fe  Fe7  1  0.094442  0.401902  0.781768  1
  Fe  Fe8  1  0.438743  0.788139  0.100343  1
  Fe  Fe9  1  0.938743  0.711861  0.600343  1
  Fe  Fe10  1  0.561257  0.211861  0.899657  1
  Fe  Fe11  1  0.061257  0.288139  0.399657  1
  P  P12  1  0.917818  0.878587  0.616070  1
  P  P13  1  0.417818  0.621413  0.116070  1
  P  P14  1  0.082182  0.121413  0.383931  1
  P  P15  1  0.582182  0.378587  0.883930  1
  P  P16  1  0.444067  0.746546  0.588194  1
  P  P17  1  0.944067  0.753454  0.088194  1
  P  P18  1  0.555933  0.253454  0.411806  1
  P  P19  1  0.055933  0.246546  0.911806  1
  P  P20  1  0.384954  0.948537  0.216273  1
  P  P21  1  0.884954  0.551463  0.716273  1
  P  P22  1  0.615046  0.051463  0.783727  1
  P  P23  1  0.115046  0.448537  0.283727  1
  H  H24  1  0.051319  0.946765  0.394875  1
  H  H25  1  0.551319  0.553235  0.894875  1
  H  H26  1  0.948681  0.053235  0.605125  1
  H  H27  1  0.448681  0.446765  0.105125  1
  O  O28  1  0.714603  0.892296  0.723440  1
  O  O29  1  0.214603  0.607704  0.223440  1
  O  O30  1  0.285397  0.107704  0.276560  1
  O  O31  1  0.785397  0.392296  0.776560  1
  O  O32  1  0.913287  0.927530  0.423128  1
  O  O33  1  0.413287  0.572470  0.923128  1
  O  O34  1  0.086713  0.072470  0.576872  1
  O  O35  1  0.586713  0.427530  0.076872  1
  O  O36  1  0.094413  0.901410  0.762101  1
  O  O37  1  0.594413  0.598590  0.262101  1
  O  O38  1  0.905587  0.098590  0.237899  1
  O  O39  1  0.405587  0.401410  0.737899  1
  O  O40  1  0.940953  0.807617  0.540807  1
  O  O41  1  0.440953  0.692383  0.040807  1
  O  O42  1  0.059047  0.192383  0.459193  1
  O  O43  1  0.559047  0.307617  0.959193  1
  O  O44  1  0.409379  0.799937  0.760677  1
  O  O45  1  0.909379  0.700063  0.260677  1
  O  O46  1  0.590621  0.200063  0.239323  1
  O  O47  1  0.090621  0.299937  0.739323  1
  O  O48  1  0.475563  0.785387  0.390849  1
  O  O49  1  0.975563  0.714613  0.890849  1
  O  O50  1  0.524437  0.214613  0.609151  1
  O  O51  1  0.024437  0.285387  0.109151  1
  O  O52  1  0.633729  0.701230  0.631206  1
  O  O53  1  0.133729  0.798770  0.131206  1
  O  O54  1  0.366271  0.298770  0.368794  1
  O  O55  1  0.866271  0.201230  0.868794  1
  O  O56  1  0.254911  0.698813  0.573934  1
  O  O57  1  0.754911  0.801187  0.073934  1
  O  O58  1  0.745089  0.301187  0.426066  1
  O  O59  1  0.245089  0.198813  0.926066  1
  O  O60  1  0.359012  0.918854  0.430174  1
  O  O61  1  0.859012  0.581146  0.930174  1
  O  O62  1  0.640988  0.081146  0.569826  1
  O  O63  1  0.140988  0.418854  0.069826  1
  O  O64  1  0.457265  0.892281  0.064299  1
  O  O65  1  0.957265  0.607719  0.564299  1
  O  O66  1  0.542735  0.107719  0.935701  1
  O  O67  1  0.042735  0.392281  0.435701  1
  O  O68  1  0.174946  0.976702  0.143676  1
  O  O69  1  0.674946  0.523298  0.643676  1
  O  O70  1  0.825054  0.023298  0.856324  1
  O  O71  1  0.325054  0.476702  0.356324  1
  O  O72  1  0.565199  0.999856  0.216286  1
  O  O73  1  0.065199  0.500144  0.716287  1
  O  O74  1  0.434801  0.000144  0.783713  1
  O  O75  1  0.934801  0.499856  0.283714  1
