# generated using pymatgen
data_MnH9CNCl3O2
_symmetry_space_group_name_H-M   'P 1'
_cell_length_a   7.80070411
_cell_length_b   9.07660064
_cell_length_c   11.67315497
_cell_angle_alpha   90.00000000
_cell_angle_beta   91.89610726
_cell_angle_gamma   90.00000000
_symmetry_Int_Tables_number   1
_chemical_formula_structural   MnH9CNCl3O2
_chemical_formula_sum   'Mn4 H36 C4 N4 Cl12 O8'
_cell_volume   826.05207715
_cell_formula_units_Z   4
loop_
 _symmetry_equiv_pos_site_id
 _symmetry_equiv_pos_as_xyz
  1  'x, y, z'
loop_
 _atom_site_type_symbol
 _atom_site_label
 _atom_site_symmetry_multiplicity
 _atom_site_fract_x
 _atom_site_fract_y
 _atom_site_fract_z
 _atom_site_occupancy
  Mn  Mn0  1  0.039717  0.500344  0.750383  1
  Mn  Mn1  1  0.960283  0.000344  0.749617  1
  Mn  Mn2  1  0.960283  0.499656  0.249617  1
  Mn  Mn3  1  0.039717  0.999656  0.250383  1
  H  H4  1  0.461000  0.374003  0.742327  1
  H  H5  1  0.539000  0.874003  0.757673  1
  H  H6  1  0.539000  0.625997  0.257673  1
  H  H7  1  0.461000  0.125997  0.242327  1
  H  H8  1  0.598416  0.431331  0.849378  1
  H  H9  1  0.401584  0.931331  0.650622  1
  H  H10  1  0.401584  0.568669  0.150622  1
  H  H11  1  0.598416  0.068669  0.349378  1
  H  H12  1  0.659695  0.301469  0.761639  1
  H  H13  1  0.340305  0.801469  0.738361  1
  H  H14  1  0.340305  0.698531  0.238361  1
  H  H15  1  0.659695  0.198531  0.261639  1
  H  H16  1  0.806617  0.678776  0.868820  1
  H  H17  1  0.193383  0.178776  0.631180  1
  H  H18  1  0.193383  0.321224  0.131180  1
  H  H19  1  0.806617  0.821224  0.368820  1
  H  H20  1  0.834535  0.537480  0.945674  1
  H  H21  1  0.165465  0.037480  0.554326  1
  H  H22  1  0.165465  0.462520  0.054326  1
  H  H23  1  0.834535  0.962520  0.445674  1
  H  H24  1  0.805582  0.494969  0.557468  1
  H  H25  1  0.194418  0.994969  0.942532  1
  H  H26  1  0.194418  0.505031  0.442532  1
  H  H27  1  0.805582  0.005031  0.057468  1
  H  H28  1  0.824509  0.330221  0.599645  1
  H  H29  1  0.175491  0.830221  0.900355  1
  H  H30  1  0.175491  0.669779  0.400355  1
  H  H31  1  0.824509  0.169779  0.099645  1
  H  H32  1  0.396708  0.148708  0.837233  1
  H  H33  1  0.603292  0.648708  0.662767  1
  H  H34  1  0.603292  0.851292  0.162767  1
  H  H35  1  0.396708  0.351292  0.337233  1
  H  H36  1  0.552052  0.206643  0.958614  1
  H  H37  1  0.447948  0.706643  0.541386  1
  H  H38  1  0.447948  0.793357  0.041386  1
  H  H39  1  0.552052  0.293357  0.458614  1
  C  C40  1  0.483914  0.227573  0.877910  1
  C  C41  1  0.516086  0.727573  0.622090  1
  C  C42  1  0.516086  0.772427  0.122090  1
  C  C43  1  0.483914  0.272427  0.377910  1
  N  N44  1  0.553525  0.339671  0.804534  1
  N  N45  1  0.446475  0.839671  0.695466  1
  N  N46  1  0.446475  0.660329  0.195466  1
  N  N47  1  0.553525  0.160329  0.304534  1
  Cl  Cl48  1  0.263338  0.588426  0.891524  1
  Cl  Cl49  1  0.736662  0.088426  0.608476  1
  Cl  Cl50  1  0.736662  0.411574  0.108476  1
  Cl  Cl51  1  0.263338  0.911574  0.391524  1
  Cl  Cl52  1  0.261851  0.403203  0.616095  1
  Cl  Cl53  1  0.738149  0.903203  0.883905  1
  Cl  Cl54  1  0.738149  0.596797  0.383905  1
  Cl  Cl55  1  0.261851  0.096797  0.116095  1
  Cl  Cl56  1  0.985448  0.250880  0.844469  1
  Cl  Cl57  1  0.014552  0.750880  0.655531  1
  Cl  Cl58  1  0.014552  0.749120  0.155531  1
  Cl  Cl59  1  0.985448  0.249120  0.344469  1
  O  O60  1  0.823894  0.570776  0.864738  1
  O  O61  1  0.176106  0.070776  0.635262  1
  O  O62  1  0.176106  0.429224  0.135262  1
  O  O63  1  0.823894  0.929224  0.364738  1
  O  O64  1  0.823400  0.433510  0.626592  1
  O  O65  1  0.176600  0.933510  0.873408  1
  O  O66  1  0.176600  0.566490  0.373408  1
  O  O67  1  0.823400  0.066490  0.126592  1
