# generated using pymatgen
data_Li3TiCr2O6
_symmetry_space_group_name_H-M   'P 1'
_cell_length_a   15.54704203
_cell_length_b   9.94591059
_cell_length_c   9.94591055
_cell_angle_alpha   17.06219145
_cell_angle_beta   16.56395576
_cell_angle_gamma   16.56395537
_symmetry_Int_Tables_number   1
_chemical_formula_structural   Li3TiCr2O6
_chemical_formula_sum   'Li3 Ti1 Cr2 O6'
_cell_volume   111.08363469
_cell_formula_units_Z   1
loop_
 _symmetry_equiv_pos_site_id
 _symmetry_equiv_pos_as_xyz
  1  'x, y, z'
loop_
 _atom_site_type_symbol
 _atom_site_label
 _atom_site_symmetry_multiplicity
 _atom_site_fract_x
 _atom_site_fract_y
 _atom_site_fract_z
 _atom_site_occupancy
  Li  Li0  1  0.166667  0.500000  0.500000  1
  Li  Li1  1  0.499916  0.498323  0.498323  1
  Li  Li2  1  0.833417  0.501677  0.501677  1
  Ti  Ti3  1  0.666667  0.000000  0.000000  1
  Cr  Cr4  1  0.003128  0.998049  0.998049  1
  Cr  Cr5  1  0.330205  0.001951  0.001951  1
  O  O6  1  0.246804  0.257348  0.257348  1
  O  O7  1  0.580622  0.259054  0.259054  1
  O  O8  1  0.086530  0.742653  0.742653  1
  O  O9  1  0.918738  0.251324  0.251324  1
  O  O10  1  0.414595  0.748676  0.748676  1
  O  O11  1  0.752712  0.740946  0.740946  1
