# generated using pymatgen
data_K4Mo3H4O17
_symmetry_space_group_name_H-M   'P 1'
_cell_length_a   8.65902886
_cell_length_b   12.47728116
_cell_length_c   8.61007713
_cell_angle_alpha   104.41400880
_cell_angle_beta   103.78991659
_cell_angle_gamma   103.22016691
_symmetry_Int_Tables_number   1
_chemical_formula_structural   K4Mo3H4O17
_chemical_formula_sum   'K8 Mo6 H8 O34'
_cell_volume   832.95886348
_cell_formula_units_Z   2
loop_
 _symmetry_equiv_pos_site_id
 _symmetry_equiv_pos_as_xyz
  1  'x, y, z'
loop_
 _atom_site_type_symbol
 _atom_site_label
 _atom_site_symmetry_multiplicity
 _atom_site_fract_x
 _atom_site_fract_y
 _atom_site_fract_z
 _atom_site_occupancy
  K  K0  1  0.696183  0.575690  0.434046  1
  K  K1  1  0.303817  0.424310  0.565954  1
  K  K2  1  0.442728  0.038752  0.765431  1
  K  K3  1  0.557272  0.961248  0.234569  1
  K  K4  1  0.025311  0.916172  0.157936  1
  K  K5  1  0.974689  0.083828  0.842064  1
  K  K6  1  0.764999  0.521288  0.926527  1
  K  K7  1  0.235001  0.478712  0.073473  1
  Mo  Mo8  1  0.584511  0.774334  0.771257  1
  Mo  Mo9  1  0.415489  0.225666  0.228743  1
  Mo  Mo10  1  0.141967  0.738563  0.799378  1
  Mo  Mo11  1  0.858033  0.261437  0.200622  1
  Mo  Mo12  1  0.189543  0.727917  0.413441  1
  Mo  Mo13  1  0.810457  0.272083  0.586559  1
  H  H14  1  0.673580  0.705882  0.202663  1
  H  H15  1  0.326420  0.294118  0.797337  1
  H  H16  1  0.524808  0.645955  0.039753  1
  H  H17  1  0.475192  0.354045  0.960247  1
  H  H18  1  0.766951  0.833933  0.501984  1
  H  H19  1  0.233049  0.166067  0.498016  1
  H  H20  1  0.844644  0.914364  0.411629  1
  H  H21  1  0.155356  0.085636  0.588371  1
  O  O22  1  0.156862  0.906785  0.825277  1
  O  O23  1  0.843138  0.093215  0.174723  1
  O  O24  1  0.255108  0.892353  0.979689  1
  O  O25  1  0.744892  0.107647  0.020311  1
  O  O26  1  0.288658  0.670748  0.935495  1
  O  O27  1  0.711342  0.329252  0.064505  1
  O  O28  1  0.194145  0.588517  0.764450  1
  O  O29  1  0.805855  0.411483  0.235550  1
  O  O30  1  0.192216  0.897255  0.469502  1
  O  O31  1  0.807784  0.102745  0.530498  1
  O  O32  1  0.329087  0.874944  0.403918  1
  O  O33  1  0.670913  0.125056  0.596082  1
  O  O34  1  0.369238  0.660982  0.374320  1
  O  O35  1  0.630762  0.339018  0.625680  1
  O  O36  1  0.242841  0.581429  0.416003  1
  O  O37  1  0.757159  0.418571  0.583997  1
  O  O38  1  0.373383  0.793030  0.702751  1
  O  O39  1  0.626617  0.206970  0.297249  1
  O  O40  1  0.046830  0.699228  0.553579  1
  O  O41  1  0.953170  0.300772  0.446421  1
  O  O42  1  0.959407  0.701270  0.851241  1
  O  O43  1  0.040593  0.298730  0.148759  1
  O  O44  1  0.044254  0.675648  0.212513  1
  O  O45  1  0.955746  0.324352  0.787487  1
  O  O46  1  0.719241  0.851364  0.679009  1
  O  O47  1  0.280759  0.148636  0.320991  1
  O  O48  1  0.669967  0.834226  0.994734  1
  O  O49  1  0.330033  0.165774  0.005266  1
  O  O50  1  0.572987  0.624907  0.711655  1
  O  O51  1  0.427013  0.375093  0.288345  1
  O  O52  1  0.600674  0.627929  0.126736  1
  O  O53  1  0.399326  0.372071  0.873264  1
  O  O54  1  0.789630  0.832975  0.392021  1
  O  O55  1  0.210370  0.167025  0.607979  1
