# generated using pymatgen
data_Lu2TeO6
_symmetry_space_group_name_H-M   'P 1'
_cell_length_a   5.30711835
_cell_length_b   9.71200441
_cell_length_c   9.71200441
_cell_angle_alpha   68.66668238
_cell_angle_beta   76.14369640
_cell_angle_gamma   76.14369640
_symmetry_Int_Tables_number   1
_chemical_formula_structural   Lu2TeO6
_chemical_formula_sum   'Lu8 Te4 O24'
_cell_volume   446.24321258
_cell_formula_units_Z   4
loop_
 _symmetry_equiv_pos_site_id
 _symmetry_equiv_pos_as_xyz
  1  'x, y, z'
loop_
 _atom_site_type_symbol
 _atom_site_label
 _atom_site_symmetry_multiplicity
 _atom_site_fract_x
 _atom_site_fract_y
 _atom_site_fract_z
 _atom_site_occupancy
  Lu  Lu0  1  0.614663  0.060942  0.282832  1
  Lu  Lu1  1  0.114663  0.282832  0.060942  1
  Lu  Lu2  1  0.750000  0.624576  0.375424  1
  Lu  Lu3  1  0.750000  0.102537  0.897463  1
  Lu  Lu4  1  0.250000  0.897463  0.102537  1
  Lu  Lu5  1  0.250000  0.375424  0.624576  1
  Lu  Lu6  1  0.885337  0.717168  0.939058  1
  Lu  Lu7  1  0.385337  0.939058  0.717168  1
  Te  Te8  1  0.933101  0.195020  0.498317  1
  Te  Te9  1  0.433101  0.498317  0.195020  1
  Te  Te10  1  0.566899  0.501683  0.804980  1
  Te  Te11  1  0.066899  0.804980  0.501683  1
  O  O12  1  0.922671  0.106124  0.075154  1
  O  O13  1  0.422671  0.075154  0.106124  1
  O  O14  1  0.744752  0.470522  0.055074  1
  O  O15  1  0.849832  0.214821  0.311541  1
  O  O16  1  0.244752  0.055074  0.470522  1
  O  O17  1  0.349832  0.311541  0.214821  1
  O  O18  1  0.599445  0.179232  0.623217  1
  O  O19  1  0.099445  0.623217  0.179232  1
  O  O20  1  0.989398  0.390393  0.458365  1
  O  O21  1  0.573488  0.687758  0.155062  1
  O  O22  1  0.489398  0.458365  0.390393  1
  O  O23  1  0.073488  0.155062  0.687758  1
  O  O24  1  0.926512  0.844938  0.312242  1
  O  O25  1  0.510602  0.541635  0.609607  1
  O  O26  1  0.426512  0.312242  0.844938  1
  O  O27  1  0.010602  0.609607  0.541635  1
  O  O28  1  0.900555  0.376783  0.820768  1
  O  O29  1  0.400555  0.820768  0.376783  1
  O  O30  1  0.650168  0.688459  0.785179  1
  O  O31  1  0.755248  0.944926  0.529478  1
  O  O32  1  0.150168  0.785179  0.688459  1
  O  O33  1  0.255249  0.529478  0.944926  1
  O  O34  1  0.577329  0.924846  0.893876  1
  O  O35  1  0.077329  0.893876  0.924846  1
