# generated using pymatgen
data_Li2VFeP2(O4F)2
_symmetry_space_group_name_H-M   'P 1'
_cell_length_a   5.24306160
_cell_length_b   10.77144224
_cell_length_c   7.42833034
_cell_angle_alpha   72.99842206
_cell_angle_beta   71.14987392
_cell_angle_gamma   97.67579071
_symmetry_Int_Tables_number   1
_chemical_formula_structural   Li2VFeP2(O4F)2
_chemical_formula_sum   'Li4 V2 Fe2 P4 O16 F4'
_cell_volume   367.41604629
_cell_formula_units_Z   2
loop_
 _symmetry_equiv_pos_site_id
 _symmetry_equiv_pos_as_xyz
  1  'x, y, z'
loop_
 _atom_site_type_symbol
 _atom_site_label
 _atom_site_symmetry_multiplicity
 _atom_site_fract_x
 _atom_site_fract_y
 _atom_site_fract_z
 _atom_site_occupancy
  Li  Li0  1  0.272571  0.808854  0.811019  1
  Li  Li1  1  0.272200  0.307793  0.808277  1
  Li  Li2  1  0.727800  0.692207  0.191723  1
  Li  Li3  1  0.727429  0.191146  0.188981  1
  V  V4  1  0.000000  0.500000  0.000000  1
  V  V5  1  0.000000  0.000000  0.500000  1
  Fe  Fe6  1  0.000000  0.000000  0.000000  1
  Fe  Fe7  1  0.000000  0.500000  0.500000  1
  P  P8  1  0.322808  0.820728  0.236690  1
  P  P9  1  0.323233  0.321077  0.238095  1
  P  P10  1  0.676767  0.678923  0.761905  1
  P  P11  1  0.677192  0.179272  0.763310  1
  O  O12  1  0.130416  0.834061  0.110950  1
  O  O13  1  0.134308  0.334906  0.110115  1
  O  O14  1  0.248924  0.893110  0.389365  1
  O  O15  1  0.305378  0.670701  0.341206  1
  O  O16  1  0.248430  0.393645  0.389828  1
  O  O17  1  0.306195  0.170962  0.343146  1
  O  O18  1  0.633335  0.877484  0.088188  1
  O  O19  1  0.633193  0.375419  0.089458  1
  O  O20  1  0.366807  0.624581  0.910542  1
  O  O21  1  0.366665  0.122516  0.911812  1
  O  O22  1  0.693805  0.829038  0.656854  1
  O  O23  1  0.751570  0.606355  0.610172  1
  O  O24  1  0.694622  0.329299  0.658794  1
  O  O25  1  0.751076  0.106890  0.610635  1
  O  O26  1  0.865692  0.665094  0.889885  1
  O  O27  1  0.869584  0.165939  0.889050  1
  F  F28  1  0.126958  0.963068  0.740419  1
  F  F29  1  0.127331  0.463030  0.734341  1
  F  F30  1  0.872669  0.536970  0.265659  1
  F  F31  1  0.873042  0.036932  0.259581  1
