# generated using pymatgen
data_LiHCO2
_symmetry_space_group_name_H-M   'P 1'
_cell_length_a   8.63782835
_cell_length_b   8.63782835
_cell_length_c   13.77546985
_cell_angle_alpha   82.43335962
_cell_angle_beta   97.56664038
_cell_angle_gamma   89.98717637
_symmetry_Int_Tables_number   1
_chemical_formula_structural   LiHCO2
_chemical_formula_sum   'Li16 H16 C16 O32'
_cell_volume   1009.83336058
_cell_formula_units_Z   16
loop_
 _symmetry_equiv_pos_site_id
 _symmetry_equiv_pos_as_xyz
  1  'x, y, z'
loop_
 _atom_site_type_symbol
 _atom_site_label
 _atom_site_symmetry_multiplicity
 _atom_site_fract_x
 _atom_site_fract_y
 _atom_site_fract_z
 _atom_site_occupancy
  Li  Li0  1  0.167904  0.175083  0.991399  1
  Li  Li1  1  0.175083  0.167904  0.508601  1
  Li  Li2  1  0.832096  0.824917  0.008601  1
  Li  Li3  1  0.824917  0.832096  0.491399  1
  Li  Li4  1  0.941106  0.102836  0.840151  1
  Li  Li5  1  0.102836  0.941106  0.659849  1
  Li  Li6  1  0.058894  0.897164  0.159849  1
  Li  Li7  1  0.897164  0.058894  0.340151  1
  Li  Li8  1  0.608272  0.269226  0.245477  1
  Li  Li9  1  0.269226  0.608272  0.254523  1
  Li  Li10  1  0.391728  0.730774  0.754523  1
  Li  Li11  1  0.730774  0.391728  0.745477  1
  Li  Li12  1  0.392488  0.415393  0.088278  1
  Li  Li13  1  0.415393  0.392488  0.411722  1
  Li  Li14  1  0.607512  0.584607  0.911722  1
  Li  Li15  1  0.584607  0.607512  0.588278  1
  H  H16  1  0.355919  0.907236  0.917073  1
  H  H17  1  0.907236  0.355919  0.582927  1
  H  H18  1  0.644081  0.092764  0.082927  1
  H  H19  1  0.092764  0.644081  0.417073  1
  H  H20  1  0.874100  0.395070  0.024605  1
  H  H21  1  0.395070  0.874100  0.475395  1
  H  H22  1  0.125900  0.604930  0.975395  1
  H  H23  1  0.604930  0.125900  0.524605  1
  H  H24  1  0.229165  0.382759  0.814962  1
  H  H25  1  0.382759  0.229165  0.685038  1
  H  H26  1  0.770835  0.617241  0.185038  1
  H  H27  1  0.617241  0.770835  0.314962  1
  H  H28  1  0.338582  0.021707  0.260362  1
  H  H29  1  0.021707  0.338582  0.239638  1
  H  H30  1  0.661418  0.978293  0.739638  1
  H  H31  1  0.978293  0.661418  0.760362  1
  C  C32  1  0.249332  0.940083  0.863300  1
  C  C33  1  0.940083  0.249332  0.636700  1
  C  C34  1  0.750668  0.059917  0.136700  1
  C  C35  1  0.059917  0.750668  0.363300  1
  C  C36  1  0.857154  0.352226  0.951228  1
  C  C37  1  0.352226  0.857154  0.548772  1
  C  C38  1  0.142846  0.647774  0.048772  1
  C  C39  1  0.647774  0.142846  0.451228  1
  C  C40  1  0.311989  0.423168  0.875046  1
  C  C41  1  0.423168  0.311989  0.624954  1
  C  C42  1  0.688011  0.576832  0.124954  1
  C  C43  1  0.576832  0.688011  0.375046  1
  C  C44  1  0.315427  0.101664  0.189608  1
  C  C45  1  0.101664  0.315427  0.310392  1
  C  C46  1  0.684573  0.898336  0.810392  1
  C  C47  1  0.898336  0.684573  0.689608  1
  O  O48  1  0.157444  0.040256  0.885088  1
  O  O49  1  0.040256  0.157444  0.614912  1
  O  O50  1  0.842556  0.959744  0.114912  1
  O  O51  1  0.959744  0.842556  0.385088  1
  O  O52  1  0.231002  0.874100  0.785693  1
  O  O53  1  0.874100  0.231002  0.714307  1
  O  O54  1  0.768998  0.125900  0.214307  1
  O  O55  1  0.125900  0.768998  0.285693  1
  O  O56  1  0.952942  0.248536  0.938015  1
  O  O57  1  0.248536  0.952942  0.561985  1
  O  O58  1  0.047058  0.751464  0.061985  1
  O  O59  1  0.751464  0.047058  0.438015  1
  O  O60  1  0.744570  0.410830  0.888533  1
  O  O61  1  0.410830  0.744570  0.611467  1
  O  O62  1  0.255430  0.589170  0.111467  1
  O  O63  1  0.589170  0.255430  0.388533  1
  O  O64  1  0.395860  0.538708  0.851914  1
  O  O65  1  0.538708  0.395860  0.648086  1
  O  O66  1  0.604140  0.461292  0.148086  1
  O  O67  1  0.461292  0.604140  0.351914  1
  O  O68  1  0.313912  0.349209  0.961254  1
  O  O69  1  0.349209  0.313912  0.538746  1
  O  O70  1  0.686088  0.650791  0.038746  1
  O  O71  1  0.650791  0.686088  0.461254  1
  O  O72  1  0.404018  0.216770  0.177192  1
  O  O73  1  0.216770  0.404018  0.322808  1
  O  O74  1  0.595982  0.783230  0.822808  1
  O  O75  1  0.783230  0.595982  0.677192  1
  O  O76  1  0.200828  0.069293  0.127892  1
  O  O77  1  0.069293  0.200828  0.372108  1
  O  O78  1  0.799172  0.930707  0.872108  1
  O  O79  1  0.930707  0.799172  0.627892  1
