# generated using pymatgen
data_LiV4O5F7
_symmetry_space_group_name_H-M   'P 1'
_cell_length_a   5.26575827
_cell_length_b   5.45422832
_cell_length_c   7.25544419
_cell_angle_alpha   86.23096146
_cell_angle_beta   89.57327996
_cell_angle_gamma   90.64881534
_symmetry_Int_Tables_number   1
_chemical_formula_structural   LiV4O5F7
_chemical_formula_sum   'Li1 V4 O5 F7'
_cell_volume   207.91001837
_cell_formula_units_Z   1
loop_
 _symmetry_equiv_pos_site_id
 _symmetry_equiv_pos_as_xyz
  1  'x, y, z'
loop_
 _atom_site_type_symbol
 _atom_site_label
 _atom_site_symmetry_multiplicity
 _atom_site_fract_x
 _atom_site_fract_y
 _atom_site_fract_z
 _atom_site_occupancy
  Li  Li0  1  0.019931  0.419305  0.200524  1
  V  V1  1  0.490196  0.505950  0.478786  1
  V  V2  1  0.517529  0.506480  0.975159  1
  V  V3  1  0.988002  0.968582  0.020521  1
  V  V4  1  0.997454  0.002532  0.516201  1
  O  O5  1  0.076757  0.018612  0.254238  1
  O  O6  1  0.404638  0.500036  0.251960  1
  O  O7  1  0.574178  0.496535  0.744725  1
  O  O8  1  0.815140  0.684523  0.047473  1
  O  O9  1  0.929354  0.008216  0.747747  1
  F  F10  1  0.185718  0.688383  0.545639  1
  F  F11  1  0.191010  0.309076  0.968400  1
  F  F12  1  0.309338  0.804551  0.960059  1
  F  F13  1  0.317484  0.191504  0.545457  1
  F  F14  1  0.685602  0.814410  0.454677  1
  F  F15  1  0.700392  0.200787  0.053801  1
  F  F16  1  0.817681  0.328884  0.441194  1
