# generated using pymatgen
data_Ti3Mn2P6WO24
_symmetry_space_group_name_H-M   'P 1'
_cell_length_a   8.74011303
_cell_length_b   8.72917475
_cell_length_c   8.72917408
_cell_angle_alpha   59.99999701
_cell_angle_beta   60.04138767
_cell_angle_gamma   60.04139049
_symmetry_Int_Tables_number   1
_chemical_formula_structural   Ti3Mn2P6WO24
_chemical_formula_sum   'Ti3 Mn2 P6 W1 O24'
_cell_volume   471.21574512
_cell_formula_units_Z   1
loop_
 _symmetry_equiv_pos_site_id
 _symmetry_equiv_pos_as_xyz
  1  'x, y, z'
loop_
 _atom_site_type_symbol
 _atom_site_label
 _atom_site_symmetry_multiplicity
 _atom_site_fract_x
 _atom_site_fract_y
 _atom_site_fract_z
 _atom_site_occupancy
  Ti  Ti0  1  0.061794  0.646068  0.646068  1
  Ti  Ti1  1  0.435701  0.854766  0.854766  1
  Ti  Ti2  1  0.939128  0.353624  0.353624  1
  Mn  Mn3  1  0.006982  0.997673  0.997673  1
  Mn  Mn4  1  0.496882  0.501039  0.501039  1
  P  P5  1  0.246510  0.251683  0.547884  1
  P  P6  1  0.246510  0.953922  0.251683  1
  P  P7  1  0.246510  0.547884  0.953922  1
  P  P8  1  0.752057  0.460928  0.042989  1
  P  P9  1  0.752057  0.042989  0.744026  1
  P  P10  1  0.752057  0.744026  0.460928  1
  W  W11  1  0.574634  0.141789  0.141789  1
  O  O12  1  0.071353  0.118440  0.309634  1
  O  O13  1  0.071353  0.500574  0.118440  1
  O  O14  1  0.071353  0.309634  0.500574  1
  O  O15  1  0.232231  0.088541  0.739119  1
  O  O16  1  0.427179  0.194934  0.395438  1
  O  O17  1  0.252271  0.416440  0.568157  1
  O  O18  1  0.232231  0.940109  0.088541  1
  O  O19  1  0.252271  0.763133  0.416440  1
  O  O20  1  0.572849  0.617997  0.001205  1
  O  O21  1  0.252271  0.568157  0.763133  1
  O  O22  1  0.777458  0.267611  0.053667  1
  O  O23  1  0.572849  0.001205  0.807949  1
  O  O24  1  0.427179  0.982447  0.194934  1
  O  O25  1  0.232231  0.739119  0.940109  1
  O  O26  1  0.736675  0.446448  0.235027  1
  O  O27  1  0.427179  0.395438  0.982447  1
  O  O28  1  0.736675  0.235027  0.581849  1
  O  O29  1  0.777458  0.053667  0.901263  1
  O  O30  1  0.736675  0.581849  0.446448  1
  O  O31  1  0.572849  0.807949  0.617997  1
  O  O32  1  0.777458  0.901263  0.267611  1
  O  O33  1  0.926376  0.682138  0.508577  1
  O  O34  1  0.926376  0.508577  0.882908  1
  O  O35  1  0.926376  0.882908  0.682138  1
