# generated using pymatgen
data_Cs2U2Mo3O16
_symmetry_space_group_name_H-M   'P 1'
_cell_length_a   10.34783771
_cell_length_b   10.34783771
_cell_length_c   16.98591416
_cell_angle_alpha   90.00000000
_cell_angle_beta   90.00000000
_cell_angle_gamma   90.00000000
_symmetry_Int_Tables_number   1
_chemical_formula_structural   Cs2U2Mo3O16
_chemical_formula_sum   'Cs8 U8 Mo12 O64'
_cell_volume   1818.81338964
_cell_formula_units_Z   4
loop_
 _symmetry_equiv_pos_site_id
 _symmetry_equiv_pos_as_xyz
  1  'x, y, z'
loop_
 _atom_site_type_symbol
 _atom_site_label
 _atom_site_symmetry_multiplicity
 _atom_site_fract_x
 _atom_site_fract_y
 _atom_site_fract_z
 _atom_site_occupancy
  Cs  Cs0  1  0.750000  0.250000  0.097190  1
  Cs  Cs1  1  0.750000  0.250000  0.597190  1
  Cs  Cs2  1  0.250000  0.750000  0.402810  1
  Cs  Cs3  1  0.750000  0.750000  0.496639  1
  Cs  Cs4  1  0.250000  0.250000  0.503361  1
  Cs  Cs5  1  0.750000  0.750000  0.003361  1
  Cs  Cs6  1  0.250000  0.250000  0.996639  1
  Cs  Cs7  1  0.250000  0.750000  0.902810  1
  U  U8  1  0.542437  0.444421  0.333946  1
  U  U9  1  0.957563  0.055579  0.333946  1
  U  U10  1  0.042437  0.944421  0.666054  1
  U  U11  1  0.944421  0.457563  0.833946  1
  U  U12  1  0.457563  0.555579  0.666054  1
  U  U13  1  0.055579  0.542437  0.166054  1
  U  U14  1  0.555579  0.042437  0.833946  1
  U  U15  1  0.444421  0.957563  0.166054  1
  Mo  Mo16  1  0.092849  0.581644  0.631519  1
  Mo  Mo17  1  0.907151  0.418356  0.368481  1
  Mo  Mo18  1  0.407151  0.918356  0.631519  1
  Mo  Mo19  1  0.581644  0.407151  0.868481  1
  Mo  Mo20  1  0.592849  0.081644  0.368481  1
  Mo  Mo21  1  0.081644  0.907151  0.131519  1
  Mo  Mo22  1  0.750000  0.750000  0.750000  1
  Mo  Mo23  1  0.750000  0.750000  0.250000  1
  Mo  Mo24  1  0.418356  0.592849  0.131519  1
  Mo  Mo25  1  0.250000  0.250000  0.750000  1
  Mo  Mo26  1  0.918356  0.092849  0.868481  1
  Mo  Mo27  1  0.250000  0.250000  0.250000  1
  O  O28  1  0.484064  0.046519  0.583605  1
  O  O29  1  0.734207  0.483586  0.895546  1
  O  O30  1  0.453481  0.484064  0.916395  1
  O  O31  1  0.142698  0.612029  0.248453  1
  O  O32  1  0.945445  0.076213  0.763692  1
  O  O33  1  0.234207  0.983586  0.104454  1
  O  O34  1  0.869320  0.679017  0.186931  1
  O  O35  1  0.914773  0.261785  0.900355  1
  O  O36  1  0.029219  0.965374  0.414849  1
  O  O37  1  0.970781  0.034626  0.585151  1
  O  O38  1  0.516414  0.234207  0.395546  1
  O  O39  1  0.483586  0.765793  0.604454  1
  O  O40  1  0.576213  0.054555  0.263692  1
  O  O41  1  0.612029  0.357302  0.251547  1
  O  O42  1  0.820983  0.869320  0.313069  1
  O  O43  1  0.112029  0.857302  0.748453  1
  O  O44  1  0.015936  0.453481  0.583605  1
  O  O45  1  0.630680  0.820983  0.186931  1
  O  O46  1  0.085227  0.738215  0.099645  1
  O  O47  1  0.953481  0.984064  0.083605  1
  O  O48  1  0.633337  0.827736  0.812050  1
  O  O49  1  0.366663  0.172264  0.187950  1
  O  O50  1  0.238215  0.914773  0.599645  1
  O  O51  1  0.465374  0.970781  0.914849  1
  O  O52  1  0.546519  0.515936  0.083605  1
  O  O53  1  0.857302  0.387971  0.751547  1
  O  O54  1  0.076213  0.554555  0.736308  1
  O  O55  1  0.470781  0.534626  0.414849  1
  O  O56  1  0.923787  0.445445  0.263692  1
  O  O57  1  0.327736  0.366663  0.312050  1
  O  O58  1  0.672264  0.633337  0.687950  1
  O  O59  1  0.529219  0.465374  0.585151  1
  O  O60  1  0.679017  0.630680  0.313069  1
  O  O61  1  0.887971  0.142698  0.251547  1
  O  O62  1  0.642698  0.112029  0.751547  1
  O  O63  1  0.320983  0.369320  0.686931  1
  O  O64  1  0.130680  0.320983  0.813069  1
  O  O65  1  0.414773  0.761785  0.099645  1
  O  O66  1  0.046519  0.015936  0.916395  1
  O  O67  1  0.265793  0.516414  0.104454  1
  O  O68  1  0.054555  0.923787  0.236308  1
  O  O69  1  0.261785  0.585227  0.599645  1
  O  O70  1  0.369320  0.179017  0.813069  1
  O  O71  1  0.738215  0.414773  0.400355  1
  O  O72  1  0.984064  0.546519  0.416395  1
  O  O73  1  0.133337  0.327736  0.187950  1
  O  O74  1  0.515936  0.953481  0.416395  1
  O  O75  1  0.761785  0.085227  0.400355  1
  O  O76  1  0.585227  0.238215  0.900355  1
  O  O77  1  0.445445  0.576213  0.236308  1
  O  O78  1  0.765793  0.016414  0.895546  1
  O  O79  1  0.034626  0.529219  0.914849  1
  O  O80  1  0.016414  0.734207  0.604454  1
  O  O81  1  0.172264  0.133337  0.312050  1
  O  O82  1  0.179017  0.130680  0.686931  1
  O  O83  1  0.554555  0.423787  0.763692  1
  O  O84  1  0.534626  0.029219  0.085151  1
  O  O85  1  0.827736  0.866663  0.687950  1
  O  O86  1  0.357302  0.887971  0.248453  1
  O  O87  1  0.965374  0.470781  0.085151  1
  O  O88  1  0.983586  0.265793  0.395546  1
  O  O89  1  0.423787  0.945445  0.736308  1
  O  O90  1  0.866663  0.672264  0.812050  1
  O  O91  1  0.387971  0.642698  0.748453  1
