# generated using pymatgen
data_Li8Fe3Co7O20
_symmetry_space_group_name_H-M   'P 1'
_cell_length_a   20.50750118
_cell_length_b   2.87642119
_cell_length_c   5.92033159
_cell_angle_alpha   90.00000000
_cell_angle_beta   83.14895888
_cell_angle_gamma   90.00000000
_symmetry_Int_Tables_number   1
_chemical_formula_structural   Li8Fe3Co7O20
_chemical_formula_sum   'Li8 Fe3 Co7 O20'
_cell_volume   346.73614112
_cell_formula_units_Z   1
loop_
 _symmetry_equiv_pos_site_id
 _symmetry_equiv_pos_as_xyz
  1  'x, y, z'
loop_
 _atom_site_type_symbol
 _atom_site_label
 _atom_site_symmetry_multiplicity
 _atom_site_fract_x
 _atom_site_fract_y
 _atom_site_fract_z
 _atom_site_occupancy
  Li  Li0  1  0.106963  0.500000  0.240016  1
  Li  Li1  1  0.289084  0.500000  0.563089  1
  Li  Li2  1  0.398472  0.000000  0.795179  1
  Li  Li3  1  0.499732  0.500000  0.999498  1
  Li  Li4  1  0.603428  0.000000  0.210508  1
  Li  Li5  1  0.797188  0.000000  0.588909  1
  Li  Li6  1  0.902871  0.500000  0.794559  1
  Li  Li7  1  0.001716  0.000000  0.005989  1
  Fe  Fe8  1  0.398408  0.000000  0.298163  1
  Fe  Fe9  1  0.601585  0.000000  0.681217  1
  Fe  Fe10  1  0.800316  0.000000  0.117945  1
  Co  Co11  1  0.001556  0.000000  0.503555  1
  Co  Co12  1  0.100576  0.500000  0.701447  1
  Co  Co13  1  0.198477  0.000000  0.901682  1
  Co  Co14  1  0.296749  0.500000  0.097124  1
  Co  Co15  1  0.498438  0.500000  0.499166  1
  Co  Co16  1  0.700657  0.500000  0.899861  1
  Co  Co17  1  0.903731  0.500000  0.301768  1
  O  O18  1  0.005396  0.500000  0.725171  1
  O  O19  1  0.095129  0.000000  0.486238  1
  O  O20  1  0.105277  0.000000  0.922893  1
  O  O21  1  0.202728  0.500000  0.108856  1
  O  O22  1  0.194555  0.500000  0.693951  1
  O  O23  1  0.299844  0.000000  0.315863  1
  O  O24  1  0.291431  0.000000  0.878258  1
  O  O25  1  0.393879  0.500000  0.058503  1
  O  O26  1  0.401344  0.500000  0.536568  1
  O  O27  1  0.498141  0.000000  0.274305  1
  O  O28  1  0.501094  0.000000  0.724410  1
  O  O29  1  0.593470  0.500000  0.456263  1
  O  O30  1  0.606784  0.500000  0.927591  1
  O  O31  1  0.701221  0.000000  0.109241  1
  O  O32  1  0.700145  0.000000  0.689817  1
  O  O33  1  0.808316  0.500000  0.343112  1
  O  O34  1  0.794551  0.500000  0.871616  1
  O  O35  1  0.901158  0.000000  0.074423  1
  O  O36  1  0.906463  0.000000  0.521930  1
  O  O37  1  -0.001150  0.500000  0.281342  1
