# generated using pymatgen
data_CuH3(NO2)3
_symmetry_space_group_name_H-M   'P 1'
_cell_length_a   6.77343423
_cell_length_b   8.76791255
_cell_length_c   9.96731934
_cell_angle_alpha   90.00000000
_cell_angle_beta   102.41788201
_cell_angle_gamma   90.00000000
_symmetry_Int_Tables_number   1
_chemical_formula_structural   CuH3(NO2)3
_chemical_formula_sum   'Cu4 H12 N12 O24'
_cell_volume   578.09942611
_cell_formula_units_Z   4
loop_
 _symmetry_equiv_pos_site_id
 _symmetry_equiv_pos_as_xyz
  1  'x, y, z'
loop_
 _atom_site_type_symbol
 _atom_site_label
 _atom_site_symmetry_multiplicity
 _atom_site_fract_x
 _atom_site_fract_y
 _atom_site_fract_z
 _atom_site_occupancy
  Cu  Cu0  1  0.937351  0.918191  0.833481  1
  Cu  Cu1  1  0.062649  0.418191  0.666519  1
  Cu  Cu2  1  0.062649  0.081809  0.166519  1
  Cu  Cu3  1  0.937351  0.581809  0.333481  1
  H  H4  1  0.693629  0.833005  0.614869  1
  H  H5  1  0.306371  0.333005  0.885131  1
  H  H6  1  0.306371  0.166995  0.385131  1
  H  H7  1  0.693629  0.666995  0.114869  1
  H  H8  1  0.687310  0.021115  0.632401  1
  H  H9  1  0.312690  0.521115  0.867599  1
  H  H10  1  0.312690  0.978885  0.367599  1
  H  H11  1  0.687310  0.478885  0.132401  1
  H  H12  1  0.565950  0.910023  0.721582  1
  H  H13  1  0.434050  0.410023  0.778418  1
  H  H14  1  0.434050  0.089977  0.278418  1
  H  H15  1  0.565950  0.589977  0.221582  1
  N  N16  1  0.694375  0.919740  0.684070  1
  N  N17  1  0.305625  0.419740  0.815930  1
  N  N18  1  0.305625  0.080260  0.315930  1
  N  N19  1  0.694375  0.580260  0.184070  1
  N  N20  1  0.665843  0.146943  0.994031  1
  N  N21  1  0.334157  0.646943  0.505969  1
  N  N22  1  0.334157  0.853057  0.005969  1
  N  N23  1  0.665843  0.353057  0.494031  1
  N  N24  1  0.872076  0.598784  0.843488  1
  N  N25  1  0.127924  0.098784  0.656512  1
  N  N26  1  0.127924  0.401216  0.156512  1
  N  N27  1  0.872076  0.901216  0.343488  1
  O  O28  1  0.834122  0.067079  0.004154  1
  O  O29  1  0.165878  0.567079  0.495846  1
  O  O30  1  0.165878  0.932921  0.995846  1
  O  O31  1  0.834122  0.432921  0.504154  1
  O  O32  1  0.533202  0.129905  0.887706  1
  O  O33  1  0.466798  0.629905  0.612294  1
  O  O34  1  0.466798  0.870095  0.112294  1
  O  O35  1  0.533202  0.370095  0.387706  1
  O  O36  1  0.650415  0.232643  0.090976  1
  O  O37  1  0.349585  0.732643  0.409024  1
  O  O38  1  0.349585  0.767357  0.909024  1
  O  O39  1  0.650415  0.267357  0.590976  1
  O  O40  1  0.959136  0.614995  0.741649  1
  O  O41  1  0.040864  0.114995  0.758351  1
  O  O42  1  0.040864  0.385005  0.258350  1
  O  O43  1  0.959136  0.885005  0.241649  1
  O  O44  1  0.844242  0.720400  0.909151  1
  O  O45  1  0.155758  0.220400  0.590849  1
  O  O46  1  0.155758  0.279600  0.090849  1
  O  O47  1  0.844242  0.779600  0.409151  1
  O  O48  1  0.818032  0.473045  0.878441  1
  O  O49  1  0.181968  0.973045  0.621559  1
  O  O50  1  0.181968  0.526955  0.121559  1
  O  O51  1  0.818032  0.026955  0.378441  1
