# generated using pymatgen
data_BaNb2Fe2(PO4)6
_symmetry_space_group_name_H-M   'P 1'
_cell_length_a   9.28317463
_cell_length_b   18.52717803
_cell_length_c   16.38528460
_cell_angle_alpha   27.82322949
_cell_angle_beta   50.47076264
_cell_angle_gamma   55.74406630
_symmetry_Int_Tables_number   1
_chemical_formula_structural   BaNb2Fe2(PO4)6
_chemical_formula_sum   'Ba2 Nb4 Fe4 P12 O48'
_cell_volume   1014.52547202
_cell_formula_units_Z   2
loop_
 _symmetry_equiv_pos_site_id
 _symmetry_equiv_pos_as_xyz
  1  'x, y, z'
loop_
 _atom_site_type_symbol
 _atom_site_label
 _atom_site_symmetry_multiplicity
 _atom_site_fract_x
 _atom_site_fract_y
 _atom_site_fract_z
 _atom_site_occupancy
  Ba  Ba0  1  0.000000  0.500000  0.000000  1
  Ba  Ba1  1  0.500000  0.000000  0.500000  1
  Nb  Nb2  1  0.142458  0.000983  0.146101  1
  Nb  Nb3  1  0.357542  0.500983  0.351933  1
  Nb  Nb4  1  0.857542  0.999017  0.853899  1
  Nb  Nb5  1  0.642458  0.499017  0.648067  1
  Fe  Fe6  1  0.344935  0.998101  0.351689  1
  Fe  Fe7  1  0.155065  0.498101  0.152109  1
  Fe  Fe8  1  0.655065  0.001899  0.648311  1
  Fe  Fe9  1  0.844935  0.501899  0.847891  1
  P  P10  1  0.035375  0.144571  0.461756  1
  P  P11  1  0.743981  0.217179  0.036141  1
  P  P12  1  0.535375  0.355429  0.250897  1
  P  P13  1  0.030034  0.638642  0.471881  1
  P  P14  1  0.469966  0.138642  0.750835  1
  P  P15  1  0.756019  0.717179  0.029501  1
  P  P16  1  0.243981  0.282821  0.970499  1
  P  P17  1  0.530034  0.861358  0.249165  1
  P  P18  1  0.969966  0.361358  0.528119  1
  P  P19  1  0.464625  0.644571  0.749103  1
  P  P20  1  0.256019  0.782821  0.963859  1
  P  P21  1  0.964625  0.855429  0.538244  1
  O  O22  1  0.252480  0.187760  0.141209  1
  O  O23  1  0.068160  0.317814  0.292411  1
  O  O24  1  0.207645  0.067565  0.437896  1
  O  O25  1  0.007222  0.060279  0.640962  1
  O  O26  1  0.575780  0.109254  0.208822  1
  O  O27  1  0.360728  0.368271  0.247284  1
  O  O28  1  0.752480  0.312240  0.016729  1
  O  O29  1  0.928387  0.118079  0.064124  1
  O  O30  1  0.143760  0.375069  0.507288  1
  O  O31  1  0.258634  0.682006  0.142016  1
  O  O32  1  0.568160  0.182186  0.428039  1
  O  O33  1  0.707645  0.432435  0.073025  1
  O  O34  1  0.507222  0.439721  0.261520  1
  O  O35  1  0.067757  0.813591  0.298397  1
  O  O36  1  0.199216  0.573092  0.428058  1
  O  O37  1  0.012555  0.553159  0.643880  1
  O  O38  1  0.487445  0.053159  0.749802  1
  O  O39  1  0.300784  0.073092  0.925758  1
  O  O40  1  0.432243  0.313591  0.574421  1
  O  O41  1  0.571613  0.618079  0.199717  1
  O  O42  1  0.860728  0.131729  0.483825  1
  O  O43  1  0.075780  0.390746  0.927331  1
  O  O44  1  0.241366  0.182006  0.993971  1
  O  O45  1  0.356240  0.875069  0.242575  1
  O  O46  1  0.643760  0.124931  0.757425  1
  O  O47  1  0.758634  0.817994  0.006029  1
  O  O48  1  0.924220  0.609254  0.072669  1
  O  O49  1  0.139272  0.868271  0.516175  1
  O  O50  1  0.428387  0.381921  0.800283  1
  O  O51  1  0.567757  0.686409  0.425579  1
  O  O52  1  0.699216  0.926908  0.074242  1
  O  O53  1  0.512555  0.946841  0.250198  1
  O  O54  1  0.987445  0.446841  0.356120  1
  O  O55  1  0.800784  0.426908  0.571942  1
  O  O56  1  0.932243  0.186409  0.701603  1
  O  O57  1  0.492778  0.560279  0.738480  1
  O  O58  1  0.292355  0.567565  0.926975  1
  O  O59  1  0.431840  0.817814  0.571961  1
  O  O60  1  0.741366  0.317994  0.857984  1
  O  O61  1  0.856240  0.624931  0.492712  1
  O  O62  1  0.071613  0.881921  0.935876  1
  O  O63  1  0.247520  0.687760  0.983271  1
  O  O64  1  0.639272  0.631729  0.752716  1
  O  O65  1  0.424220  0.890746  0.791178  1
  O  O66  1  0.992778  0.939721  0.359038  1
  O  O67  1  0.792355  0.932435  0.562104  1
  O  O68  1  0.931840  0.682186  0.707589  1
  O  O69  1  0.747520  0.812240  0.858791  1
