# generated using pymatgen
data_K2FeP2H3(O4F)2
_symmetry_space_group_name_H-M   'P 1'
_cell_length_a   8.50194363
_cell_length_b   7.19947945
_cell_length_c   8.61899314
_cell_angle_alpha   92.54955570
_cell_angle_beta   79.98966608
_cell_angle_gamma   92.92551046
_symmetry_Int_Tables_number   1
_chemical_formula_structural   K2FeP2H3(O4F)2
_chemical_formula_sum   'K4 Fe2 P4 H6 O16 F4'
_cell_volume   518.51607691
_cell_formula_units_Z   2
loop_
 _symmetry_equiv_pos_site_id
 _symmetry_equiv_pos_as_xyz
  1  'x, y, z'
loop_
 _atom_site_type_symbol
 _atom_site_label
 _atom_site_symmetry_multiplicity
 _atom_site_fract_x
 _atom_site_fract_y
 _atom_site_fract_z
 _atom_site_occupancy
  K  K0  1  0.677827  0.831308  0.585388  1
  K  K1  1  0.283634  0.306983  0.912641  1
  K  K2  1  0.651730  0.582862  0.074904  1
  K  K3  1  0.348803  0.073972  0.539689  1
  Fe  Fe4  1  0.161800  0.728708  0.278508  1
  Fe  Fe5  1  0.750891  0.038485  0.094344  1
  P  P6  1  0.841867  0.444211  0.419209  1
  P  P7  1  0.947322  0.016958  0.763059  1
  P  P8  1  0.110611  0.183320  0.257129  1
  P  P9  1  0.001665  0.594774  0.700541  1
  H  H10  1  0.347003  0.767704  0.977325  1
  H  H11  1  0.573066  0.447474  0.528512  1
  H  H12  1  0.651595  0.898377  0.980568  1
  H  H13  1  0.168783  0.582922  0.666887  1
  H  H14  1  0.543804  0.247305  0.209709  1
  H  H15  1  0.539931  0.977767  0.906544  1
  O  O16  1  0.429810  0.885034  0.231664  1
  O  O17  1  0.578812  0.380891  0.628952  1
  O  O18  1  0.950451  0.034562  0.949333  1
  O  O19  1  0.073586  0.856793  0.687143  1
  O  O20  1  0.391905  0.779198  0.862231  1
  O  O21  1  0.856018  0.643846  0.819321  1
  O  O22  1  0.376570  0.772994  0.356456  1
  O  O23  1  0.101550  0.993993  0.331657  1
  O  O24  1  0.080618  0.206980  0.702203  1
  O  O25  1  0.743933  0.312798  0.571768  1
  O  O26  1  0.929676  0.264269  0.345193  1
  O  O27  1  0.609253  0.235493  0.105154  1
  O  O28  1  0.958734  0.578185  0.517194  1
  O  O29  1  0.975714  0.371396  0.772180  1
  O  O30  1  0.694219  0.524452  0.376410  1
  O  O31  1  0.447537  0.975751  0.845124  1
  F  F32  1  0.960178  0.572603  0.247030  1
  F  F33  1  0.749118  0.938105  0.289177  1
  F  F34  1  0.219585  0.314109  0.370766  1
  F  F35  1  0.272399  0.583217  0.096085  1
