# generated using pymatgen
data_Li4Fe(OF)2
_symmetry_space_group_name_H-M   'P 1'
_cell_length_a   3.71492582
_cell_length_b   5.59299269
_cell_length_c   5.31762512
_cell_angle_alpha   88.06914950
_cell_angle_beta   110.45483095
_cell_angle_gamma   70.62287986
_symmetry_Int_Tables_number   1
_chemical_formula_structural   Li4Fe(OF)2
_chemical_formula_sum   'Li4 Fe1 O2 F2'
_cell_volume   96.24713108
_cell_formula_units_Z   1
loop_
 _symmetry_equiv_pos_site_id
 _symmetry_equiv_pos_as_xyz
  1  'x, y, z'
loop_
 _atom_site_type_symbol
 _atom_site_label
 _atom_site_symmetry_multiplicity
 _atom_site_fract_x
 _atom_site_fract_y
 _atom_site_fract_z
 _atom_site_occupancy
  Li  Li0  1  0.388447  0.472740  0.241378  1
  Li  Li1  1  0.188411  0.155939  0.525823  1
  Li  Li2  1  0.813816  0.852301  0.474610  1
  Li  Li3  1  0.608606  0.533087  0.748911  1
  Fe  Fe4  1  0.001938  0.002292  -0.000062  1
  O  O5  1  0.725851  0.190651  0.635458  1
  O  O6  1  0.278793  0.811573  0.364394  1
  F  F7  1  0.906659  0.357560  0.164164  1
  F  F8  1  0.095959  0.644438  0.833600  1
