# generated using pymatgen
data_K2TeH6(O3F)2
_symmetry_space_group_name_H-M   'P 1'
_cell_length_a   10.03538556
_cell_length_b   11.16602403
_cell_length_c   8.31273171
_cell_angle_alpha   90.00000000
_cell_angle_beta   90.00000000
_cell_angle_gamma   90.00000000
_symmetry_Int_Tables_number   1
_chemical_formula_structural   K2TeH6(O3F)2
_chemical_formula_sum   'K8 Te4 H24 O24 F8'
_cell_volume   931.48611370
_cell_formula_units_Z   4
loop_
 _symmetry_equiv_pos_site_id
 _symmetry_equiv_pos_as_xyz
  1  'x, y, z'
loop_
 _atom_site_type_symbol
 _atom_site_label
 _atom_site_symmetry_multiplicity
 _atom_site_fract_x
 _atom_site_fract_y
 _atom_site_fract_z
 _atom_site_occupancy
  K  K0  1  0.761385  0.255883  0.213098  1
  K  K1  1  0.261385  0.744117  0.286902  1
  K  K2  1  0.238615  0.244117  0.713098  1
  K  K3  1  0.738615  0.755883  0.786902  1
  K  K4  1  0.238615  0.744117  0.786902  1
  K  K5  1  0.738615  0.255883  0.713098  1
  K  K6  1  0.761385  0.755883  0.286902  1
  K  K7  1  0.261385  0.244117  0.213098  1
  Te  Te8  1  0.500000  0.500000  0.000000  1
  Te  Te9  1  0.000000  0.500000  0.500000  1
  Te  Te10  1  0.500000  0.000000  0.500000  1
  Te  Te11  1  0.000000  0.000000  0.000000  1
  H  H12  1  0.728523  0.564480  0.040355  1
  H  H13  1  0.228523  0.435520  0.459645  1
  H  H14  1  0.271477  0.935520  0.540355  1
  H  H15  1  0.771477  0.064480  0.959645  1
  H  H16  1  0.271477  0.435520  0.959645  1
  H  H17  1  0.771477  0.564480  0.540355  1
  H  H18  1  0.728523  0.064480  0.459645  1
  H  H19  1  0.228523  0.935520  0.040355  1
  H  H20  1  0.614371  0.996036  0.762216  1
  H  H21  1  0.114371  0.003964  0.737784  1
  H  H22  1  0.385629  0.503964  0.262216  1
  H  H23  1  0.885629  0.496036  0.237784  1
  H  H24  1  0.385629  0.003964  0.237784  1
  H  H25  1  0.885629  0.996036  0.262216  1
  H  H26  1  0.614371  0.496036  0.737784  1
  H  H27  1  0.114371  0.503964  0.762216  1
  H  H28  1  0.553963  0.508596  0.348113  1
  H  H29  1  0.053963  0.491404  0.151887  1
  H  H30  1  0.446037  0.991404  0.848113  1
  H  H31  1  0.946037  0.008596  0.651887  1
  H  H32  1  0.446037  0.491404  0.651887  1
  H  H33  1  0.946037  0.508596  0.848113  1
  H  H34  1  0.553963  0.008596  0.151887  1
  H  H35  1  0.053963  0.991404  0.348113  1
  O  O36  1  0.624187  0.377816  -0.020381  1
  O  O37  1  0.124187  0.622184  0.520381  1
  O  O38  1  0.375813  0.122184  0.479619  1
  O  O39  1  0.875813  0.877816  0.020381  1
  O  O40  1  0.375813  0.622184  0.020381  1
  O  O41  1  0.875813  0.377816  0.479619  1
  O  O42  1  0.624187  0.877816  0.520381  1
  O  O43  1  0.124187  0.122184  -0.020381  1
  O  O44  1  0.466338  0.457738  0.242810  1
  O  O45  1  0.966338  0.542262  0.257190  1
  O  O46  1  0.533662  0.042262  0.742810  1
  O  O47  1  0.033662  0.957738  0.757190  1
  O  O48  1  0.533662  0.542262  0.757190  1
  O  O49  1  0.033662  0.457738  0.742810  1
  O  O50  1  0.466338  0.957738  0.257190  1
  O  O51  1  0.966338  0.042262  0.242810  1
  O  O52  1  0.647460  0.612076  0.063615  1
  O  O53  1  0.147460  0.387924  0.436385  1
  O  O54  1  0.352540  0.887924  0.563615  1
  O  O55  1  0.852540  0.112076  0.936385  1
  O  O56  1  0.352540  0.387924  0.936385  1
  O  O57  1  0.852540  0.612076  0.563615  1
  O  O58  1  0.647460  0.112076  0.436385  1
  O  O59  1  0.147460  0.887924  0.063615  1
  F  F60  1  0.879298  0.051352  0.574412  1
  F  F61  1  0.379298  0.948648  0.925588  1
  F  F62  1  0.120702  0.448648  0.074412  1
  F  F63  1  0.620702  0.551352  0.425588  1
  F  F64  1  0.120702  0.948648  0.425588  1
  F  F65  1  0.620702  0.051352  0.074412  1
  F  F66  1  0.879298  0.551352  0.925588  1
  F  F67  1  0.379298  0.448648  0.574412  1
