# generated using pymatgen
data_LiNiPO4
_symmetry_space_group_name_H-M   'P 1'
_cell_length_a   8.14134511
_cell_length_b   17.97535147
_cell_length_c   4.94453073
_cell_angle_alpha   89.99907109
_cell_angle_beta   89.99910888
_cell_angle_gamma   89.99975950
_symmetry_Int_Tables_number   1
_chemical_formula_structural   LiNiPO4
_chemical_formula_sum   'Li8 Ni8 P8 O32'
_cell_volume   723.60012954
_cell_formula_units_Z   8
loop_
 _symmetry_equiv_pos_site_id
 _symmetry_equiv_pos_as_xyz
  1  'x, y, z'
loop_
 _atom_site_type_symbol
 _atom_site_label
 _atom_site_symmetry_multiplicity
 _atom_site_fract_x
 _atom_site_fract_y
 _atom_site_fract_z
 _atom_site_occupancy
  Li  Li0  1  0.127274  0.760744  0.472007  1
  Li  Li1  1  0.085632  0.556243  0.567510  1
  Li  Li2  1  0.414371  0.056244  0.067512  1
  Li  Li3  1  0.372728  0.260745  0.972009  1
  Li  Li4  1  0.627275  0.739255  0.472010  1
  Li  Li5  1  0.585634  0.943756  0.567509  1
  Li  Li6  1  0.914370  0.443757  0.067511  1
  Li  Li7  1  0.872726  0.239254  0.972012  1
  Ni  Ni8  1  0.011088  0.931800  0.968065  1
  Ni  Ni9  1  0.150823  0.346422  0.473475  1
  Ni  Ni10  1  0.349167  0.846422  0.973451  1
  Ni  Ni11  1  0.488921  0.431798  0.468062  1
  Ni  Ni12  1  0.511091  0.568201  0.968051  1
  Ni  Ni13  1  0.650815  0.153580  0.473487  1
  Ni  Ni14  1  0.849163  0.653583  0.973419  1
  Ni  Ni15  1  0.988920  0.068202  0.468049  1
  P  P16  1  0.200035  0.682231  0.937770  1
  P  P17  1  0.234568  0.931167  0.436811  1
  P  P18  1  0.265427  0.431168  0.936813  1
  P  P19  1  0.299961  0.182230  0.437764  1
  P  P20  1  0.700038  0.817771  0.937768  1
  P  P21  1  0.734570  0.568832  0.436814  1
  P  P22  1  0.765431  0.068832  0.936812  1
  P  P23  1  0.799961  0.317769  0.437764  1
  O  O24  1  0.053144  0.646554  0.775109  1
  O  O25  1  0.080095  0.973844  0.326679  1
  O  O26  1  0.107213  0.468132  0.841164  1
  O  O27  1  0.142998  0.139688  0.360299  1
  O  O28  1  0.157340  0.679980  0.237715  1
  O  O29  1  0.222935  0.928469  0.753536  1
  O  O30  1  0.219352  0.763037  0.827864  1
  O  O31  1  0.282600  0.351913  0.813163  1
  O  O32  1  0.217405  0.851912  0.313173  1
  O  O33  1  0.280647  0.263040  0.327873  1
  O  O34  1  0.277056  0.428469  0.253555  1
  O  O35  1  0.342671  0.179980  0.737715  1
  O  O36  1  0.356995  0.639692  0.860304  1
  O  O37  1  0.392784  0.968131  0.341182  1
  O  O38  1  0.419904  0.473846  0.826685  1
  O  O39  1  0.446861  0.146553  0.275104  1
  O  O40  1  0.553143  0.853446  0.775107  1
  O  O41  1  0.580094  0.526158  0.326685  1
  O  O42  1  0.607216  0.031868  0.841175  1
  O  O43  1  0.642997  0.360312  0.360297  1
  O  O44  1  0.657338  0.820019  0.237712  1
  O  O45  1  0.722944  0.571527  0.753539  1
  O  O46  1  0.719350  0.736965  0.827868  1
  O  O47  1  0.782597  0.148088  0.813166  1
  O  O48  1  0.717406  0.648088  0.313169  1
  O  O49  1  0.780648  0.236960  0.327878  1
  O  O50  1  0.777057  0.071529  0.253546  1
  O  O51  1  0.842669  0.320019  0.737714  1
  O  O52  1  0.857000  0.860306  0.860291  1
  O  O53  1  0.892783  0.531868  0.341177  1
  O  O54  1  0.919907  0.026155  0.826674  1
  O  O55  1  0.946863  0.353445  0.275100  1
