# generated using pymatgen
data_LiCu2PO4
_symmetry_space_group_name_H-M   'P 1'
_cell_length_a   6.26308135
_cell_length_b   5.56749893
_cell_length_c   10.24669763
_cell_angle_alpha   90.67266020
_cell_angle_beta   90.95767608
_cell_angle_gamma   88.81915550
_symmetry_Int_Tables_number   1
_chemical_formula_structural   LiCu2PO4
_chemical_formula_sum   'Li4 Cu8 P4 O16'
_cell_volume   357.15027253
_cell_formula_units_Z   4
loop_
 _symmetry_equiv_pos_site_id
 _symmetry_equiv_pos_as_xyz
  1  'x, y, z'
loop_
 _atom_site_type_symbol
 _atom_site_label
 _atom_site_symmetry_multiplicity
 _atom_site_fract_x
 _atom_site_fract_y
 _atom_site_fract_z
 _atom_site_occupancy
  Li  Li0  1  0.007762  0.146856  0.749231  1
  Li  Li1  1  0.998298  0.153777  0.250313  1
  Li  Li2  1  0.247369  0.327339  0.495077  1
  Li  Li3  1  0.248140  0.684154  0.246435  1
  Cu  Cu4  1  0.274740  0.341183  0.011011  1
  Cu  Cu5  1  0.282313  0.654332  0.744353  1
  Cu  Cu6  1  0.510905  0.750080  0.987753  1
  Cu  Cu7  1  0.507730  0.750862  0.489517  1
  Cu  Cu8  1  0.702014  0.646122  0.728108  1
  Cu  Cu9  1  0.707432  0.655288  0.223753  1
  Cu  Cu10  1  0.732794  0.369794  0.501799  1
  Cu  Cu11  1  0.718530  0.367448  0.010425  1
  P  P12  1  0.005079  0.849919  0.000394  1
  P  P13  1  0.012852  0.842159  0.497485  1
  P  P14  1  0.491355  0.177519  0.259880  1
  P  P15  1  0.501650  0.178371  0.749215  1
  O  O16  1  0.011562  0.839185  0.649175  1
  O  O17  1  0.014042  0.103171  0.445363  1
  O  O18  1  0.001872  0.843488  0.151714  1
  O  O19  1  0.001004  0.110253  0.946920  1
  O  O20  1  0.207235  0.689547  0.443767  1
  O  O21  1  0.207429  0.707921  0.950360  1
  O  O22  1  0.288153  0.322207  0.211994  1
  O  O23  1  0.296275  0.303735  0.691784  1
  O  O24  1  0.498859  0.170161  0.900114  1
  O  O25  1  0.503753  0.917226  0.693253  1
  O  O26  1  0.496034  0.179576  0.411318  1
  O  O27  1  0.479999  0.914557  0.206610  1
  O  O28  1  0.716189  0.294060  0.705574  1
  O  O29  1  0.703668  0.292391  0.210726  1
  O  O30  1  0.812401  0.709546  0.439339  1
  O  O31  1  0.812566  0.707768  0.939829  1
