# generated using pymatgen
data_KSiHO3
_symmetry_space_group_name_H-M   'P 1'
_cell_length_a   7.59470251
_cell_length_b   7.59470251
_cell_length_c   11.39461216
_cell_angle_alpha   90.00000000
_cell_angle_beta   90.00000000
_cell_angle_gamma   100.55526985
_symmetry_Int_Tables_number   1
_chemical_formula_structural   KSiHO3
_chemical_formula_sum   'K8 Si8 H8 O24'
_cell_volume   646.11429489
_cell_formula_units_Z   8
loop_
 _symmetry_equiv_pos_site_id
 _symmetry_equiv_pos_as_xyz
  1  'x, y, z'
loop_
 _atom_site_type_symbol
 _atom_site_label
 _atom_site_symmetry_multiplicity
 _atom_site_fract_x
 _atom_site_fract_y
 _atom_site_fract_z
 _atom_site_occupancy
  K  K0  1  0.321350  0.321350  0.543175  1
  K  K1  1  0.678650  0.678650  0.456825  1
  K  K2  1  0.178650  0.178650  0.043175  1
  K  K3  1  0.821350  0.821350  0.956825  1
  K  K4  1  0.011210  0.511210  0.250000  1
  K  K5  1  0.488790  0.988790  0.750000  1
  K  K6  1  0.988790  0.488790  0.750000  1
  K  K7  1  0.511210  0.011210  0.250000  1
  Si  Si8  1  0.484471  0.484471  0.815020  1
  Si  Si9  1  0.515529  0.515529  0.184980  1
  Si  Si10  1  0.015529  0.015529  0.315020  1
  Si  Si11  1  0.984471  0.984471  0.684980  1
  Si  Si12  1  0.303144  0.696856  0.000000  1
  Si  Si13  1  0.803144  0.196856  0.500000  1
  Si  Si14  1  0.696856  0.303144  0.000000  1
  Si  Si15  1  0.196856  0.803144  0.500000  1
  H  H16  1  0.167510  0.167510  0.809019  1
  H  H17  1  0.832490  0.832490  0.190981  1
  H  H18  1  0.332490  0.332490  0.309019  1
  H  H19  1  0.667510  0.667510  0.690981  1
  H  H20  1  0.000000  0.500000  0.000000  1
  H  H21  1  0.500000  0.000000  0.000000  1
  H  H22  1  0.000000  0.500000  0.500000  1
  H  H23  1  0.500000  0.000000  0.500000  1
  O  O24  1  0.933594  0.159656  0.612407  1
  O  O25  1  0.840344  0.066406  0.387593  1
  O  O26  1  0.340344  0.566406  0.112407  1
  O  O27  1  0.433594  0.659656  0.887593  1
  O  O28  1  0.066406  0.840344  0.387593  1
  O  O29  1  0.159656  0.933594  0.612407  1
  O  O30  1  0.659656  0.433594  0.887593  1
  O  O31  1  0.566406  0.340344  0.112407  1
  O  O32  1  0.093294  0.637706  0.966889  1
  O  O33  1  0.362294  0.906706  0.033111  1
  O  O34  1  0.862294  0.406706  0.466889  1
  O  O35  1  0.593294  0.137706  0.533111  1
  O  O36  1  0.906706  0.362294  0.033111  1
  O  O37  1  0.637706  0.093294  0.966889  1
  O  O38  1  0.137706  0.593294  0.533111  1
  O  O39  1  0.406706  0.862294  0.466889  1
  O  O40  1  0.061613  0.061613  0.814348  1
  O  O41  1  0.938387  0.938387  0.185652  1
  O  O42  1  0.438387  0.438387  0.314348  1
  O  O43  1  0.561613  0.561613  0.685652  1
  O  O44  1  0.321318  0.321318  0.799212  1
  O  O45  1  0.678682  0.678682  0.200788  1
  O  O46  1  0.178682  0.178682  0.299212  1
  O  O47  1  0.821318  0.821318  0.700788  1
