# generated using pymatgen
data_Li3Cu2(SO4)3
_symmetry_space_group_name_H-M   'P 1'
_cell_length_a   8.59238730
_cell_length_b   9.14556278
_cell_length_c   8.59238717
_cell_angle_alpha   118.01853877
_cell_angle_beta   59.99999954
_cell_angle_gamma   118.01853478
_symmetry_Int_Tables_number   1
_chemical_formula_structural   Li3Cu2(SO4)3
_chemical_formula_sum   'Li6 Cu4 S6 O24'
_cell_volume   491.24780452
_cell_formula_units_Z   2
loop_
 _symmetry_equiv_pos_site_id
 _symmetry_equiv_pos_as_xyz
  1  'x, y, z'
loop_
 _atom_site_type_symbol
 _atom_site_label
 _atom_site_symmetry_multiplicity
 _atom_site_fract_x
 _atom_site_fract_y
 _atom_site_fract_z
 _atom_site_occupancy
  Li  Li0  1  0.271773  0.850994  0.657705  1
  Li  Li1  1  0.342295  0.149006  0.078482  1
  Li  Li2  1  0.078482  0.149006  0.728227  1
  Li  Li3  1  0.921518  0.850994  0.271773  1
  Li  Li4  1  0.657705  0.850994  0.921518  1
  Li  Li5  1  0.728227  0.149006  0.342295  1
  Cu  Cu6  1  0.148002  0.444007  0.148002  1
  Cu  Cu7  1  0.343978  0.031935  0.343978  1
  Cu  Cu8  1  0.656022  0.968065  0.656022  1
  Cu  Cu9  1  0.851998  0.555993  0.851998  1
  S  S10  1  0.046247  0.249234  0.453258  1
  S  S11  1  0.546742  0.750766  0.250271  1
  S  S12  1  0.250271  0.750766  0.953753  1
  S  S13  1  0.749729  0.249234  0.046247  1
  S  S14  1  0.453258  0.249234  0.749729  1
  S  S15  1  0.953753  0.750766  0.546742  1
  O  O16  1  0.204028  0.895370  0.140396  1
  O  O17  1  0.140396  0.895370  0.550946  1
  O  O18  1  0.012897  0.411991  0.594320  1
  O  O19  1  0.148664  0.263822  0.257879  1
  O  O20  1  0.550946  0.895370  0.204028  1
  O  O21  1  0.142720  0.736178  0.851336  1
  O  O22  1  0.405680  0.588009  0.195226  1
  O  O23  1  0.155122  0.193105  0.494936  1
  O  O24  1  0.505064  0.806895  0.456954  1
  O  O25  1  0.195226  0.588009  0.987103  1
  O  O26  1  0.742121  0.736178  0.142720  1
  O  O27  1  0.456954  0.806895  0.844878  1
  O  O28  1  0.543046  0.193105  0.155122  1
  O  O29  1  0.257879  0.263822  0.857280  1
  O  O30  1  0.804774  0.411991  0.012897  1
  O  O31  1  0.494936  0.193105  0.543046  1
  O  O32  1  0.844878  0.806895  0.505064  1
  O  O33  1  0.594320  0.411991  0.804774  1
  O  O34  1  0.857280  0.263822  0.148664  1
  O  O35  1  0.449054  0.104630  0.795972  1
  O  O36  1  0.851336  0.736178  0.742121  1
  O  O37  1  0.987103  0.588009  0.405680  1
  O  O38  1  0.859604  0.104630  0.449054  1
  O  O39  1  0.795972  0.104630  0.859604  1
