# generated using pymatgen
data_Na3Ca2Fe5(SiO3)10
_symmetry_space_group_name_H-M   'P 1'
_cell_length_a   26.74295836
_cell_length_b   13.67040235
_cell_length_c   9.44521876
_cell_angle_alpha   49.17665116
_cell_angle_beta   43.94686748
_cell_angle_gamma   28.36937853
_symmetry_Int_Tables_number   1
_chemical_formula_structural   Na3Ca2Fe5(SiO3)10
_chemical_formula_sum   'Na6 Ca4 Fe10 Si20 O60'
_cell_volume   1136.51070042
_cell_formula_units_Z   2
loop_
 _symmetry_equiv_pos_site_id
 _symmetry_equiv_pos_as_xyz
  1  'x, y, z'
loop_
 _atom_site_type_symbol
 _atom_site_label
 _atom_site_symmetry_multiplicity
 _atom_site_fract_x
 _atom_site_fract_y
 _atom_site_fract_z
 _atom_site_occupancy
  Na  Na0  1  0.128243  0.667447  0.274699  1
  Na  Na1  1  0.312208  0.695528  0.300891  1
  Na  Na2  1  0.512351  0.699210  0.293792  1
  Na  Na3  1  0.726523  0.657274  0.303007  1
  Na  Na4  1  0.889035  0.301400  0.676493  1
  Na  Na5  1  0.912756  0.695254  0.297257  1
  Ca  Ca6  1  0.085786  0.316645  0.698244  1
  Ca  Ca7  1  0.289361  0.309294  0.698241  1
  Ca  Ca8  1  0.486195  0.301929  0.699550  1
  Ca  Ca9  1  0.677280  0.326674  0.723357  1
  Fe  Fe10  1  0.028469  0.102738  0.889494  1
  Fe  Fe11  1  0.229420  0.097525  0.909453  1
  Fe  Fe12  1  0.163867  0.906507  0.109086  1
  Fe  Fe13  1  0.433644  0.087630  0.910071  1
  Fe  Fe14  1  0.371675  0.897181  0.103409  1
  Fe  Fe15  1  0.631015  0.092727  0.907448  1
  Fe  Fe16  1  0.571884  0.896577  0.098490  1
  Fe  Fe17  1  0.831915  0.093707  0.910450  1
  Fe  Fe18  1  0.772257  0.890356  0.110041  1
  Fe  Fe19  1  0.969309  0.906361  0.084464  1
  Si  Si20  1  0.099010  0.201104  0.377093  1
  Si  Si21  1  0.162947  0.377224  0.202552  1
  Si  Si22  1  0.301232  0.193985  0.380851  1
  Si  Si23  1  0.037508  0.622604  0.802114  1
  Si  Si24  1  0.362568  0.382387  0.195666  1
  Si  Si25  1  0.101132  0.807951  0.615136  1
  Si  Si26  1  0.500258  0.193276  0.378617  1
  Si  Si27  1  0.235683  0.627677  0.797261  1
  Si  Si28  1  0.560168  0.377489  0.203848  1
  Si  Si29  1  0.299630  0.807467  0.618716  1
  Si  Si30  1  0.696046  0.195909  0.384682  1
  Si  Si31  1  0.434269  0.626345  0.801616  1
  Si  Si32  1  0.759202  0.379962  0.191252  1
  Si  Si33  1  0.500305  0.807792  0.621079  1
  Si  Si34  1  0.905994  0.108696  0.388672  1
  Si  Si35  1  0.638005  0.617121  0.806130  1
  Si  Si36  1  0.959395  0.377508  0.211877  1
  Si  Si37  1  0.703128  0.800190  0.620932  1
  Si  Si38  1  0.839674  0.631725  0.785185  1
  Si  Si39  1  0.897279  0.822359  0.625467  1
  O  O40  1  0.023510  0.020706  0.189941  1
  O  O41  1  0.088274  0.197690  0.031879  1
  O  O42  1  0.074475  0.106118  0.607865  1
  O  O43  1  0.220752  0.035880  0.193873  1
  O  O44  1  0.096381  0.326688  0.379308  1
  O  O45  1  0.073578  0.608802  0.114329  1
  O  O46  1  0.281154  0.200191  0.036006  1
  O  O47  1  0.188262  0.359893  0.341702  1
  O  O48  1  0.012787  0.635160  0.667651  1
  O  O49  1  0.266169  0.118464  0.620226  1
  O  O50  1  0.416267  0.031449  0.205972  1
  O  O51  1  0.135862  0.382645  0.876415  1
  O  O52  1  0.294901  0.334514  0.363193  1
  O  O53  1  0.108447  0.663074  0.637856  1
  O  O54  1  0.271938  0.616604  0.105634  1
  O  O55  1  0.484393  0.209409  0.024299  1
  O  O56  1  0.136632  0.880663  0.376909  1
  O  O57  1  0.388659  0.362484  0.332716  1
  O  O58  1  0.213850  0.633290  0.663596  1
  O  O59  1  0.467417  0.112600  0.611593  1
  O  O60  1  0.619990  0.034538  0.193588  1
  O  O61  1  0.115176  0.812404  0.952288  1
  O  O62  1  0.325294  0.398619  0.891779  1
  O  O63  1  0.489975  0.335091  0.372292  1
  O  O64  1  0.308389  0.666559  0.630386  1
  O  O65  1  0.471478  0.610554  0.108506  1
  O  O66  1  0.679978  0.196454  0.043604  1
  O  O67  1  0.177659  0.977069  0.796893  1
  O  O68  1  0.327973  0.893358  0.385354  1
  O  O69  1  0.584222  0.355810  0.348283  1
  O  O70  1  0.409068  0.640379  0.668253  1
  O  O71  1  0.662603  0.121014  0.624967  1
  O  O72  1  0.817189  0.022709  0.220893  1
  O  O73  1  0.309787  0.810744  0.962939  1
  O  O74  1  0.528504  0.389757  0.887954  1
  O  O75  1  0.688081  0.340028  0.360156  1
  O  O76  1  0.504277  0.667674  0.645415  1
  O  O77  1  0.672851  0.610439  0.101177  1
  O  O78  1  0.886691  0.202431  0.025266  1
  O  O79  1  0.377892  0.971099  0.806055  1
  O  O80  1  0.523820  0.902194  0.396044  1
  O  O81  1  0.788088  0.340849  0.343246  1
  O  O82  1  0.611369  0.630214  0.673584  1
  O  O83  1  0.869576  0.090740  0.622290  1
  O  O84  1  0.511730  0.797652  0.969319  1
  O  O85  1  0.723077  0.388900  0.904149  1
  O  O86  1  0.896186  0.331319  0.372598  1
  O  O87  1  0.702834  0.668169  0.648542  1
  O  O88  1  0.878729  0.608739  0.096628  1
  O  O89  1  0.583802  0.976705  0.785551  1
  O  O90  1  0.728059  0.887979  0.385620  1
  O  O91  1  0.994166  0.367830  0.318674  1
  O  O92  1  0.814055  0.645520  0.654330  1
  O  O93  1  0.721294  0.803076  0.955741  1
  O  O94  1  0.936419  0.391343  0.864586  1
  O  O95  1  0.907620  0.684241  0.620807  1
  O  O96  1  0.774316  0.980489  0.808294  1
  O  O97  1  0.918378  0.942657  0.408699  1
  O  O98  1  0.915226  0.794207  0.972311  1
  O  O99  1  0.983836  0.973388  0.785291  1
