# generated using pymatgen
data_BaP3
_symmetry_space_group_name_H-M   'P 1'
_cell_length_a   4.80018241
_cell_length_b   7.06415186
_cell_length_c   7.06415186
_cell_angle_alpha   66.52623628
_cell_angle_beta   71.33324389
_cell_angle_gamma   71.33324388
_symmetry_Int_Tables_number   1
_chemical_formula_structural   BaP3
_chemical_formula_sum   'Ba2 P6'
_cell_volume   202.98271181
_cell_formula_units_Z   2
loop_
 _symmetry_equiv_pos_site_id
 _symmetry_equiv_pos_as_xyz
  1  'x, y, z'
loop_
 _atom_site_type_symbol
 _atom_site_label
 _atom_site_symmetry_multiplicity
 _atom_site_fract_x
 _atom_site_fract_y
 _atom_site_fract_z
 _atom_site_occupancy
  P  P0  1  0.020922  0.591569  0.591569  1
  P  P1  1  0.979078  0.408431  0.408431  1
  P  P2  1  0.709151  0.649294  0.184618  1
  P  P3  1  0.290849  0.815382  0.350706  1
  P  P4  1  0.290849  0.350706  0.815382  1
  P  P5  1  0.709151  0.184618  0.649294  1
  Ba  Ba6  1  0.315661  0.825893  0.825893  1
  Ba  Ba7  1  0.684339  0.174107  0.174107  1
