# generated using pymatgen
data_Na3Li3Fe2P2(CO7)2
_symmetry_space_group_name_H-M   'P 1'
_cell_length_a   8.75212659
_cell_length_b   6.63083644
_cell_length_c   10.20111273
_cell_angle_alpha   90.47454834
_cell_angle_beta   88.40339308
_cell_angle_gamma   89.39277029
_symmetry_Int_Tables_number   1
_chemical_formula_structural   Na3Li3Fe2P2(CO7)2
_chemical_formula_sum   'Na6 Li6 Fe4 P4 C4 O28'
_cell_volume   591.72569828
_cell_formula_units_Z   2
loop_
 _symmetry_equiv_pos_site_id
 _symmetry_equiv_pos_as_xyz
  1  'x, y, z'
loop_
 _atom_site_type_symbol
 _atom_site_label
 _atom_site_symmetry_multiplicity
 _atom_site_fract_x
 _atom_site_fract_y
 _atom_site_fract_z
 _atom_site_occupancy
  Na  Na0  1  0.084254  0.252108  0.878694  1
  Na  Na1  1  0.084139  0.241715  0.378735  1
  Na  Na2  1  0.255122  0.995032  0.624916  1
  Na  Na3  1  0.256622  0.502197  0.127555  1
  Na  Na4  1  0.745029  0.501525  0.874732  1
  Na  Na5  1  0.743872  0.500796  0.376046  1
  Li  Li6  1  0.281166  0.471417  0.610675  1
  Li  Li7  1  0.279613  0.027194  0.109398  1
  Li  Li8  1  0.725292  0.979373  0.884038  1
  Li  Li9  1  0.723872  0.978191  0.387628  1
  Li  Li10  1  0.902754  0.756822  0.625938  1
  Li  Li11  1  0.907571  0.779911  0.127002  1
  Fe  Fe12  1  0.353704  0.751403  0.889684  1
  Fe  Fe13  1  0.353812  0.747101  0.389296  1
  Fe  Fe14  1  0.651108  0.242472  0.609966  1
  Fe  Fe15  1  0.651303  0.246280  0.108081  1
  P  P16  1  0.416544  0.249173  0.852708  1
  P  P17  1  0.416137  0.237581  0.353277  1
  P  P18  1  0.590736  0.746005  0.647709  1
  P  P19  1  0.589063  0.758986  0.147063  1
  C  C20  1  0.043024  0.758960  0.864873  1
  C  C21  1  0.042370  0.761233  0.365261  1
  C  C22  1  0.949293  0.257814  0.635202  1
  C  C23  1  0.949583  0.238616  0.135495  1
  O  O24  1  0.095433  0.282017  0.641844  1
  O  O25  1  0.096893  0.221107  0.141393  1
  O  O26  1  0.074437  0.747639  0.988536  1
  O  O27  1  0.075176  0.758820  0.488777  1
  O  O28  1  0.154118  0.750543  0.776402  1
  O  O29  1  0.152490  0.745632  0.276212  1
  O  O30  1  0.314626  0.067559  0.894520  1
  O  O31  1  0.329209  0.439613  0.905114  1
  O  O32  1  0.317161  0.058046  0.401106  1
  O  O33  1  0.325622  0.430892  0.400167  1
  O  O34  1  0.431391  0.259974  0.699220  1
  O  O35  1  0.430303  0.724146  0.588180  1
  O  O36  1  0.429918  0.232696  0.199897  1
  O  O37  1  0.427963  0.772506  0.087445  1
  O  O38  1  0.578222  0.229772  0.908533  1
  O  O39  1  0.571660  0.776055  0.799210  1
  O  O40  1  0.577802  0.231515  0.410238  1
  O  O41  1  0.571744  0.778128  0.299591  1
  O  O42  1  0.694368  0.558054  0.617523  1
  O  O43  1  0.683454  0.925029  0.588312  1
  O  O44  1  0.675187  0.559370  0.110905  1
  O  O45  1  0.695645  0.928983  0.093214  1
  O  O46  1  0.863710  0.238656  0.740646  1
  O  O47  1  0.863522  0.242973  0.241238  1
  O  O48  1  0.883483  0.250240  0.522025  1
  O  O49  1  0.884149  0.252193  0.022409  1
  O  O50  1  0.903661  0.777725  0.826183  1
  O  O51  1  0.902670  0.778215  0.327186  1
