# generated using pymatgen
data_Ba4PdO6
_symmetry_space_group_name_H-M   'P 1'
_cell_length_a   7.36894167
_cell_length_b   7.36894167
_cell_length_c   7.36894196
_cell_angle_alpha   89.58585044
_cell_angle_beta   89.58585044
_cell_angle_gamma   89.58585544
_symmetry_Int_Tables_number   1
_chemical_formula_structural   Ba4PdO6
_chemical_formula_sum   'Ba8 Pd2 O12'
_cell_volume   400.11192856
_cell_formula_units_Z   2
loop_
 _symmetry_equiv_pos_site_id
 _symmetry_equiv_pos_as_xyz
  1  'x, y, z'
loop_
 _atom_site_type_symbol
 _atom_site_label
 _atom_site_symmetry_multiplicity
 _atom_site_fract_x
 _atom_site_fract_y
 _atom_site_fract_z
 _atom_site_occupancy
  Ba  Ba0  1  0.122702  0.750000  0.377298  1
  Ba  Ba1  1  0.250000  0.622702  0.877298  1
  Ba  Ba2  1  0.622702  0.877298  0.250000  1
  Ba  Ba3  1  0.750000  0.750000  0.750000  1
  Ba  Ba4  1  0.250000  0.250000  0.250000  1
  Ba  Ba5  1  0.377298  0.122702  0.750000  1
  Ba  Ba6  1  0.750000  0.377298  0.122702  1
  Ba  Ba7  1  0.877298  0.250000  0.622702  1
  Pd  Pd8  1  0.000000  0.000000  0.000000  1
  Pd  Pd9  1  0.500000  0.500000  0.500000  1
  O  O10  1  0.059288  0.929722  0.727034  1
  O  O11  1  0.272966  0.940712  0.070278  1
  O  O12  1  0.440712  0.772966  0.570278  1
  O  O13  1  0.227034  0.429722  0.559288  1
  O  O14  1  0.070278  0.272966  0.940712  1
  O  O15  1  0.429722  0.559288  0.227034  1
  O  O16  1  0.570278  0.440712  0.772966  1
  O  O17  1  0.772966  0.570278  0.440712  1
  O  O18  1  0.929722  0.727034  0.059288  1
  O  O19  1  0.559288  0.227034  0.429722  1
  O  O20  1  0.727034  0.059288  0.929722  1
  O  O21  1  0.940712  0.070278  0.272966  1
