# generated using pymatgen
data_Ti3N2O3
_symmetry_space_group_name_H-M   'P 1'
_cell_length_a   3.85794674
_cell_length_b   5.24986356
_cell_length_c   9.91043842
_cell_angle_alpha   90.48436359
_cell_angle_beta   90.00000000
_cell_angle_gamma   111.55739943
_symmetry_Int_Tables_number   1
_chemical_formula_structural   Ti3N2O3
_chemical_formula_sum   'Ti6 N4 O6'
_cell_volume   186.67468975
_cell_formula_units_Z   2
loop_
 _symmetry_equiv_pos_site_id
 _symmetry_equiv_pos_as_xyz
  1  'x, y, z'
loop_
 _atom_site_type_symbol
 _atom_site_label
 _atom_site_symmetry_multiplicity
 _atom_site_fract_x
 _atom_site_fract_y
 _atom_site_fract_z
 _atom_site_occupancy
  Ti  Ti0  1  0.146967  0.293934  0.565320  1
  Ti  Ti1  1  0.146614  0.293228  0.941111  1
  Ti  Ti2  1  0.201336  0.402671  0.248919  1
  Ti  Ti3  1  0.798560  0.597119  0.757576  1
  Ti  Ti4  1  0.858349  0.716699  0.055599  1
  Ti  Ti5  1  0.866484  0.732968  0.440327  1
  N  N6  1  0.306384  0.612766  0.427716  1
  N  N7  1  0.309837  0.619673  0.078005  1
  N  N8  1  0.236181  0.472362  0.745313  1
  N  N9  1  0.692147  0.384293  0.926875  1
  O  O10  1  0.046542  0.093083  0.118152  1
  O  O11  1  0.043375  0.086751  0.377650  1
  O  O12  1  0.953208  0.906415  0.615447  1
  O  O13  1  0.953335  0.906670  0.881085  1
  O  O14  1  0.685509  0.371017  0.570181  1
  O  O15  1  0.755174  0.510349  0.250725  1
