# generated using pymatgen
data_NbO2F
_symmetry_space_group_name_H-M   'P 1'
_cell_length_a   5.67911847
_cell_length_b   5.56281994
_cell_length_c   13.83828910
_cell_angle_alpha   90.81476471
_cell_angle_beta   92.79826698
_cell_angle_gamma   61.52466077
_symmetry_Int_Tables_number   1
_chemical_formula_structural   NbO2F
_chemical_formula_sum   'Nb6 O12 F6'
_cell_volume   383.81064387
_cell_formula_units_Z   6
loop_
 _symmetry_equiv_pos_site_id
 _symmetry_equiv_pos_as_xyz
  1  'x, y, z'
loop_
 _atom_site_type_symbol
 _atom_site_label
 _atom_site_symmetry_multiplicity
 _atom_site_fract_x
 _atom_site_fract_y
 _atom_site_fract_z
 _atom_site_occupancy
  Nb  Nb0  1  0.661164  0.677472  0.333305  1
  Nb  Nb1  1  0.983531  0.028142  0.500454  1
  Nb  Nb2  1  0.292942  0.378212  0.667645  1
  Nb  Nb3  1  0.338836  0.322528  0.166695  1
  Nb  Nb4  1  0.707058  0.621788  0.832355  1
  Nb  Nb5  1  0.016469  0.971858  0.999546  1
  O  O6  1  0.833967  0.331871  0.416156  1
  O  O7  1  0.833991  0.333526  0.918753  1
  O  O8  1  0.500000  0.000000  0.250000  1
  O  O9  1  0.836116  0.827520  0.416143  1
  O  O10  1  0.163884  0.172480  0.083857  1
  O  O11  1  0.176242  0.154312  0.582919  1
  O  O12  1  0.823758  0.845688  0.917081  1
  O  O13  1  0.500000  0.500000  0.750000  1
  O  O14  1  0.500000  0.500000  0.250000  1
  O  O15  1  0.166033  0.668129  0.083844  1
  O  O16  1  0.166009  0.666474  0.581247  1
  O  O17  1  0.000000  0.500000  0.750000  1
  F  F18  1  0.500000  0.000000  0.750000  1
  F  F19  1  0.667372  0.167171  0.083789  1
  F  F20  1  0.667782  0.164013  0.583881  1
  F  F21  1  0.000000  0.500000  0.250000  1
  F  F22  1  0.332218  0.835987  0.916119  1
  F  F23  1  0.332628  0.832829  0.416211  1
