# generated using pymatgen
data_MnCuH10Se2(ClO5)2
_symmetry_space_group_name_H-M   'P 1'
_cell_length_a   9.24263513
_cell_length_b   18.73481219
_cell_length_c   7.21470154
_cell_angle_alpha   90.00000000
_cell_angle_beta   90.00000000
_cell_angle_gamma   90.00000000
_symmetry_Int_Tables_number   1
_chemical_formula_structural   MnCuH10Se2(ClO5)2
_chemical_formula_sum   'Mn4 Cu4 H40 Se8 Cl8 O40'
_cell_volume   1249.29074422
_cell_formula_units_Z   4
loop_
 _symmetry_equiv_pos_site_id
 _symmetry_equiv_pos_as_xyz
  1  'x, y, z'
loop_
 _atom_site_type_symbol
 _atom_site_label
 _atom_site_symmetry_multiplicity
 _atom_site_fract_x
 _atom_site_fract_y
 _atom_site_fract_z
 _atom_site_occupancy
  Mn  Mn0  1  0.645806  0.250000  0.933433  1
  Mn  Mn1  1  0.145806  0.250000  0.566567  1
  Mn  Mn2  1  0.354194  0.750000  0.066567  1
  Mn  Mn3  1  0.854194  0.750000  0.433433  1
  Cu  Cu4  1  0.500000  0.500000  0.000000  1
  Cu  Cu5  1  0.000000  0.000000  0.500000  1
  Cu  Cu6  1  0.500000  0.000000  0.000000  1
  Cu  Cu7  1  0.000000  0.500000  0.500000  1
  H  H8  1  0.562778  0.440188  0.611574  1
  H  H9  1  0.062778  0.059812  0.888426  1
  H  H10  1  0.437222  0.940188  0.388426  1
  H  H11  1  0.937222  0.559812  0.111574  1
  H  H12  1  0.437222  0.559812  0.388426  1
  H  H13  1  0.937222  0.940188  0.111574  1
  H  H14  1  0.562778  0.059812  0.611574  1
  H  H15  1  0.062778  0.440188  0.888426  1
  H  H16  1  0.824769  0.342920  0.732412  1
  H  H17  1  0.324769  0.157080  0.767588  1
  H  H18  1  0.175231  0.842920  0.267588  1
  H  H19  1  0.675231  0.657080  0.232412  1
  H  H20  1  0.175231  0.657080  0.267588  1
  H  H21  1  0.675231  0.842920  0.232412  1
  H  H22  1  0.824769  0.157080  0.732412  1
  H  H23  1  0.324769  0.342920  0.767588  1
  H  H24  1  0.770017  0.385981  0.903692  1
  H  H25  1  0.270017  0.114019  0.596308  1
  H  H26  1  0.229983  0.885981  0.096308  1
  H  H27  1  0.729983  0.614019  0.403692  1
  H  H28  1  0.229983  0.614019  0.096308  1
  H  H29  1  0.729983  0.885981  0.403692  1
  H  H30  1  0.770017  0.114019  0.903692  1
  H  H31  1  0.270017  0.385981  0.596308  1
  H  H32  1  0.652759  0.250000  0.522659  1
  H  H33  1  0.152759  0.250000  0.977341  1
  H  H34  1  0.347241  0.750000  0.477341  1
  H  H35  1  0.847241  0.750000  0.022659  1
  H  H36  1  0.491265  0.250000  0.585735  1
  H  H37  1  0.991265  0.250000  0.914265  1
  H  H38  1  0.508735  0.750000  0.414265  1
  H  H39  1  0.008735  0.750000  0.085735  1
  H  H40  1  0.814960  0.290908  0.262217  1
  H  H41  1  0.314960  0.209092  0.237783  1
  H  H42  1  0.185040  0.790908  0.737783  1
  H  H43  1  0.685040  0.709092  0.762217  1
  H  H44  1  0.185040  0.709092  0.737783  1
  H  H45  1  0.685040  0.790908  0.762217  1
  H  H46  1  0.814960  0.209092  0.262217  1
  H  H47  1  0.314960  0.290908  0.237783  1
  Se  Se48  1  0.691455  0.452853  0.337046  1
  Se  Se49  1  0.191455  0.047147  0.162954  1
  Se  Se50  1  0.308545  0.952853  0.662954  1
  Se  Se51  1  0.808545  0.547147  0.837046  1
  Se  Se52  1  0.308545  0.547147  0.662954  1
  Se  Se53  1  0.808545  0.952853  0.837046  1
  Se  Se54  1  0.691455  0.047147  0.337046  1
  Se  Se55  1  0.191455  0.452853  0.162954  1
  Cl  Cl56  1  0.463339  0.346467  0.035350  1
  Cl  Cl57  1  0.963339  0.153533  0.464650  1
  Cl  Cl58  1  0.536661  0.846467  0.964650  1
  Cl  Cl59  1  0.036661  0.653533  0.535350  1
  Cl  Cl60  1  0.536661  0.653533  0.964650  1
  Cl  Cl61  1  0.036661  0.846467  0.535350  1
  Cl  Cl62  1  0.463339  0.153533  0.035350  1
  Cl  Cl63  1  0.963339  0.346467  0.464650  1
  O  O64  1  0.790089  0.520326  0.443583  1
  O  O65  1  0.290089  0.979674  0.056417  1
  O  O66  1  0.209911  0.020326  0.556417  1
  O  O67  1  0.709911  0.479674  0.943583  1
  O  O68  1  0.209911  0.479674  0.556417  1
  O  O69  1  0.709911  0.020326  0.943583  1
  O  O70  1  0.790089  0.979674  0.443583  1
  O  O71  1  0.290089  0.520326  0.056417  1
  O  O72  1  0.540704  0.500845  0.266728  1
  O  O73  1  0.040704  0.999155  0.233272  1
  O  O74  1  0.459296  0.000845  0.733272  1
  O  O75  1  0.959296  0.499155  0.766728  1
  O  O76  1  0.459296  0.499155  0.733272  1
  O  O77  1  0.959296  0.000845  0.766728  1
  O  O78  1  0.540704  0.999155  0.266728  1
  O  O79  1  0.040704  0.500845  0.233272  1
  O  O80  1  0.619907  0.406583  0.530724  1
  O  O81  1  0.119907  0.093417  0.969276  1
  O  O82  1  0.380093  0.906583  0.469276  1
  O  O83  1  0.880093  0.593417  0.030724  1
  O  O84  1  0.380093  0.593417  0.469276  1
  O  O85  1  0.880093  0.906583  0.030724  1
  O  O86  1  0.619907  0.093417  0.530724  1
  O  O87  1  0.119907  0.406583  0.969276  1
  O  O88  1  0.798571  0.337165  0.863710  1
  O  O89  1  0.298571  0.162835  0.636290  1
  O  O90  1  0.201429  0.837165  0.136290  1
  O  O91  1  0.701429  0.662835  0.363710  1
  O  O92  1  0.201429  0.662835  0.136290  1
  O  O93  1  0.701429  0.837165  0.363710  1
  O  O94  1  0.798571  0.162835  0.863710  1
  O  O95  1  0.298571  0.337165  0.636290  1
  O  O96  1  0.589619  0.250000  0.632409  1
  O  O97  1  0.089619  0.250000  0.867591  1
  O  O98  1  0.410381  0.750000  0.367591  1
  O  O99  1  0.910381  0.750000  0.132409  1
  O  O100  1  0.755481  0.250000  0.220577  1
  O  O101  1  0.255481  0.250000  0.279423  1
  O  O102  1  0.244519  0.750000  0.779423  1
  O  O103  1  0.744519  0.750000  0.720577  1
