# generated using pymatgen
data_LiBi(PO3)4
_symmetry_space_group_name_H-M   'P 1'
_cell_length_a   6.98219965
_cell_length_b   7.55813023
_cell_length_c   9.23790789
_cell_angle_alpha   90.00000000
_cell_angle_beta   90.00000000
_cell_angle_gamma   85.81811058
_symmetry_Int_Tables_number   1
_chemical_formula_structural   LiBi(PO3)4
_chemical_formula_sum   'Li2 Bi2 P8 O24'
_cell_volume   486.20838466
_cell_formula_units_Z   2
loop_
 _symmetry_equiv_pos_site_id
 _symmetry_equiv_pos_as_xyz
  1  'x, y, z'
loop_
 _atom_site_type_symbol
 _atom_site_label
 _atom_site_symmetry_multiplicity
 _atom_site_fract_x
 _atom_site_fract_y
 _atom_site_fract_z
 _atom_site_occupancy
  Li  Li0  1  0.217725  0.214735  0.021914  1
  Li  Li1  1  0.782275  0.785265  0.521914  1
  Bi  Bi2  1  0.243977  0.731646  0.364023  1
  Bi  Bi3  1  0.756023  0.268354  0.864023  1
  P  P4  1  0.992780  0.420544  0.360722  1
  P  P5  1  0.097831  0.120950  0.561812  1
  P  P6  1  0.394733  0.592826  0.730187  1
  P  P7  1  0.451469  0.088784  0.390700  1
  P  P8  1  0.548531  0.911216  0.890700  1
  P  P9  1  0.605267  0.407174  0.230187  1
  P  P10  1  0.902169  0.879050  0.061812  1
  P  P11  1  0.007220  0.579456  0.860722  1
  O  O12  1  0.023758  0.764893  0.940291  1
  O  O13  1  0.067716  0.928122  0.530380  1
  O  O14  1  0.049858  0.422420  0.960615  1
  O  O15  1  0.038531  0.191785  0.707973  1
  O  O16  1  0.164817  0.599382  0.739539  1
  O  O17  1  0.183146  0.430994  0.284503  1
  O  O18  1  0.317075  0.162928  0.528487  1
  O  O19  1  0.317813  0.030066  0.272912  1
  O  O20  1  0.469277  0.410688  0.777966  1
  O  O21  1  0.443200  0.737024  0.850668  1
  O  O22  1  0.404326  0.050039  0.944873  1
  O  O23  1  0.435325  0.654807  0.579144  1
  O  O24  1  0.564675  0.345193  0.079144  1
  O  O25  1  0.595674  0.949961  0.444873  1
  O  O26  1  0.556800  0.262976  0.350668  1
  O  O27  1  0.530723  0.589312  0.277966  1
  O  O28  1  0.682187  0.969934  0.772912  1
  O  O29  1  0.682925  0.837072  0.028487  1
  O  O30  1  0.816854  0.569006  0.784503  1
  O  O31  1  0.835183  0.400618  0.239539  1
  O  O32  1  0.961469  0.808215  0.207973  1
  O  O33  1  0.950142  0.577580  0.460615  1
  O  O34  1  0.932284  0.071878  0.030380  1
  O  O35  1  0.976243  0.235107  0.440291  1
