# generated using pymatgen
data_Li3Mn2(SiO4)2
_symmetry_space_group_name_H-M   'P 1'
_cell_length_a   6.36313271
_cell_length_b   10.77408166
_cell_length_c   5.08299667
_cell_angle_alpha   90.00000000
_cell_angle_beta   89.67873862
_cell_angle_gamma   90.00000000
_symmetry_Int_Tables_number   1
_chemical_formula_structural   Li3Mn2(SiO4)2
_chemical_formula_sum   'Li6 Mn4 Si4 O16'
_cell_volume   348.46907460
_cell_formula_units_Z   2
loop_
 _symmetry_equiv_pos_site_id
 _symmetry_equiv_pos_as_xyz
  1  'x, y, z'
loop_
 _atom_site_type_symbol
 _atom_site_label
 _atom_site_symmetry_multiplicity
 _atom_site_fract_x
 _atom_site_fract_y
 _atom_site_fract_z
 _atom_site_occupancy
  Li  Li0  1  0.996786  0.087152  0.678170  1
  Li  Li1  1  0.503214  0.587152  0.821830  1
  Li  Li2  1  0.500450  0.917986  0.332488  1
  Li  Li3  1  0.500324  0.411454  0.183846  1
  Li  Li4  1  -0.000450  0.417986  0.167512  1
  Li  Li5  1  -0.000324  0.911454  0.316154  1
  Mn  Mn6  1  0.254370  0.840468  0.815038  1
  Mn  Mn7  1  0.245630  0.340468  0.684962  1
  Mn  Mn8  1  0.760777  0.657108  0.331357  1
  Mn  Mn9  1  0.739223  0.157108  0.168643  1
  Si  Si10  1  0.242925  0.167264  0.169092  1
  Si  Si11  1  0.257075  0.667264  0.330908  1
  Si  Si12  1  0.750636  0.330810  0.668599  1
  Si  Si13  1  0.749364  0.830810  0.831401  1
  O  O14  1  0.044876  0.590746  0.253545  1
  O  O15  1  0.031189  0.093848  0.280511  1
  O  O16  1  0.226013  0.176190  0.844166  1
  O  O17  1  0.250242  0.812681  0.219929  1
  O  O18  1  0.249758  0.312681  0.280071  1
  O  O19  1  0.273987  0.676190  0.655834  1
  O  O20  1  0.455124  0.090746  0.246455  1
  O  O21  1  0.468811  0.593848  0.219489  1
  O  O22  1  0.534112  0.900329  0.721505  1
  O  O23  1  0.536384  0.403271  0.781682  1
  O  O24  1  0.754672  0.187002  0.776384  1
  O  O25  1  0.748665  0.335069  0.343812  1
  O  O26  1  0.745328  0.687002  0.723616  1
  O  O27  1  0.751335  0.835069  0.156188  1
  O  O28  1  0.965888  0.400329  0.778495  1
  O  O29  1  0.963616  0.903271  0.718318  1
