# generated using pymatgen
data_Zr2N2O
_symmetry_space_group_name_H-M   'P 1'
_cell_length_a   3.31910215
_cell_length_b   7.11388455
_cell_length_c   8.29917703
_cell_angle_alpha   79.80738595
_cell_angle_beta   90.00000000
_cell_angle_gamma   76.50954836
_symmetry_Int_Tables_number   1
_chemical_formula_structural   Zr2N2O
_chemical_formula_sum   'Zr6 N6 O3'
_cell_volume   187.36931191
_cell_formula_units_Z   3
loop_
 _symmetry_equiv_pos_site_id
 _symmetry_equiv_pos_as_xyz
  1  'x, y, z'
loop_
 _atom_site_type_symbol
 _atom_site_label
 _atom_site_symmetry_multiplicity
 _atom_site_fract_x
 _atom_site_fract_y
 _atom_site_fract_z
 _atom_site_occupancy
  Zr  Zr0  1  0.030188  0.939623  0.807406  1
  Zr  Zr1  1  0.629056  0.741889  0.473994  1
  Zr  Zr2  1  0.696023  0.607953  0.131619  1
  Zr  Zr3  1  0.303977  0.392047  0.868381  1
  Zr  Zr4  1  0.370944  0.258111  0.526006  1
  Zr  Zr5  1  0.969812  0.060377  0.192594  1
  N  N6  1  0.534257  0.931488  0.656600  1
  N  N7  1  0.172059  0.655882  0.966050  1
  N  N8  1  0.126552  0.746896  0.287190  1
  N  N9  1  0.873448  0.253104  0.712810  1
  N  N10  1  0.827941  0.344118  0.033950  1
  N  N11  1  0.465743  0.068512  0.343400  1
  O  O12  1  0.209174  0.581652  0.619229  1
  O  O13  1  0.790826  0.418348  0.380771  1
  O  O14  1  0.500000  0.000000  0.000000  1
