# generated using pymatgen
data_Li3Mn2OF5
_symmetry_space_group_name_H-M   'P 1'
_cell_length_a   5.29261571
_cell_length_b   5.29671318
_cell_length_c   9.71580826
_cell_angle_alpha   100.90048438
_cell_angle_beta   79.27128644
_cell_angle_gamma   71.52102006
_symmetry_Int_Tables_number   1
_chemical_formula_structural   Li3Mn2OF5
_chemical_formula_sum   'Li6 Mn4 O2 F10'
_cell_volume   244.64740856
_cell_formula_units_Z   2
loop_
 _symmetry_equiv_pos_site_id
 _symmetry_equiv_pos_as_xyz
  1  'x, y, z'
loop_
 _atom_site_type_symbol
 _atom_site_label
 _atom_site_symmetry_multiplicity
 _atom_site_fract_x
 _atom_site_fract_y
 _atom_site_fract_z
 _atom_site_occupancy
  Li  Li0  1  0.464352  0.285405  0.066564  1
  Li  Li1  1  0.859819  0.387794  0.277615  1
  Li  Li2  1  0.220804  0.026349  0.552017  1
  Li  Li3  1  0.786900  0.955284  0.416358  1
  Li  Li4  1  0.119674  0.630440  0.765813  1
  Li  Li5  1  0.541377  0.707382  0.914279  1
  Mn  Mn6  1  0.960702  0.788988  0.076389  1
  Mn  Mn7  1  0.289847  0.457560  0.416115  1
  Mn  Mn8  1  0.620789  0.126137  0.756219  1
  Mn  Mn9  1  0.039761  0.209300  0.916450  1
  O  O10  1  0.288043  0.455172  0.916398  1
  O  O11  1  0.794010  0.960750  0.916209  1
  F  F12  1  0.654631  0.140985  0.258759  1
  F  F13  1  0.214052  0.048316  0.081975  1
  F  F14  1  0.700923  0.535424  0.083962  1
  F  F15  1  0.973163  0.823439  0.573449  1
  F  F16  1  0.084804  0.614866  0.257934  1
  F  F17  1  0.535761  0.701255  0.417254  1
  F  F18  1  0.876419  0.384105  0.751441  1
  F  F19  1  0.047993  0.210751  0.414505  1
  F  F20  1  0.444288  0.253882  0.575691  1
  F  F21  1  0.366543  0.868293  0.750278  1
