# generated using pymatgen
data_Co6O5F7
_symmetry_space_group_name_H-M   'P 1'
_cell_length_a   4.62198967
_cell_length_b   7.67263136
_cell_length_c   5.62938939
_cell_angle_alpha   92.92849530
_cell_angle_beta   90.26883130
_cell_angle_gamma   88.11459474
_symmetry_Int_Tables_number   1
_chemical_formula_structural   Co6O5F7
_chemical_formula_sum   'Co6 O5 F7'
_cell_volume   199.26448980
_cell_formula_units_Z   1
loop_
 _symmetry_equiv_pos_site_id
 _symmetry_equiv_pos_as_xyz
  1  'x, y, z'
loop_
 _atom_site_type_symbol
 _atom_site_label
 _atom_site_symmetry_multiplicity
 _atom_site_fract_x
 _atom_site_fract_y
 _atom_site_fract_z
 _atom_site_occupancy
  Co  Co0  1  0.507713  0.006704  0.485187  1
  Co  Co1  1  0.484935  0.336360  0.830984  1
  Co  Co2  1  0.550590  0.648348  0.171285  1
  Co  Co3  1  0.971465  0.686783  0.658688  1
  Co  Co4  1  0.006116  0.317493  0.344943  1
  Co  Co5  1  0.961074  0.986530  0.024242  1
  O  O6  1  0.807991  0.768841  0.963321  1
  O  O7  1  0.790756  0.098689  0.297720  1
  O  O8  1  0.700357  0.780206  0.463667  1
  O  O9  1  0.700824  0.432096  0.145887  1
  O  O10  1  0.306318  0.226189  0.519934  1
  F  F11  1  0.809726  0.440451  0.641449  1
  F  F12  1  0.711454  0.102377  0.794223  1
  F  F13  1  0.294203  0.579306  0.865781  1
  F  F14  1  0.300134  0.891229  0.189615  1
  F  F15  1  0.186096  0.223263  0.031385  1
  F  F16  1  0.211286  0.907608  0.694280  1
  F  F17  1  0.198960  0.567528  0.377409  1
