# generated using pymatgen
data_CrH14N4Cl3O
_symmetry_space_group_name_H-M   'P 1'
_cell_length_a   6.85833281
_cell_length_b   10.75180947
_cell_length_c   6.83469620
_cell_angle_alpha   90.00000000
_cell_angle_beta   98.13710775
_cell_angle_gamma   90.00000000
_symmetry_Int_Tables_number   1
_chemical_formula_structural   CrH14N4Cl3O
_chemical_formula_sum   'Cr2 H28 N8 Cl6 O2'
_cell_volume   498.91295352
_cell_formula_units_Z   2
loop_
 _symmetry_equiv_pos_site_id
 _symmetry_equiv_pos_as_xyz
  1  'x, y, z'
loop_
 _atom_site_type_symbol
 _atom_site_label
 _atom_site_symmetry_multiplicity
 _atom_site_fract_x
 _atom_site_fract_y
 _atom_site_fract_z
 _atom_site_occupancy
  Cr  Cr0  1  0.163701  0.250000  0.225668  1
  Cr  Cr1  1  0.836299  0.750000  0.774332  1
  H  H2  1  0.208926  0.021889  0.091358  1
  H  H3  1  0.791074  0.521889  0.908642  1
  H  H4  1  0.791074  0.978111  0.908642  1
  H  H5  1  0.208926  0.478111  0.091358  1
  H  H6  1  0.035720  0.016936  0.236102  1
  H  H7  1  0.964280  0.516936  0.763898  1
  H  H8  1  0.964280  0.983064  0.763898  1
  H  H9  1  0.035720  0.483064  0.236102  1
  H  H10  1  0.271013  0.019015  0.334251  1
  H  H11  1  0.728987  0.519015  0.665749  1
  H  H12  1  0.728987  0.980985  0.665749  1
  H  H13  1  0.271013  0.480985  0.334251  1
  H  H14  1  0.848862  0.327237  0.381375  1
  H  H15  1  0.151138  0.827237  0.618625  1
  H  H16  1  0.151138  0.672763  0.618625  1
  H  H17  1  0.848862  0.172763  0.381375  1
  H  H18  1  0.989876  0.250000  0.557574  1
  H  H19  1  0.010124  0.750000  0.442426  1
  H  H20  1  0.412750  0.327245  0.983750  1
  H  H21  1  0.587250  0.827245  0.016250  1
  H  H22  1  0.587250  0.672755  0.016250  1
  H  H23  1  0.412750  0.172755  0.983750  1
  H  H24  1  0.524535  0.250000  0.178606  1
  H  H25  1  0.475465  0.750000  0.821394  1
  H  H26  1  0.371428  0.325219  0.557914  1
  H  H27  1  0.628572  0.825219  0.442086  1
  H  H28  1  0.628572  0.674781  0.442086  1
  H  H29  1  0.371428  0.174781  0.557914  1
  N  N30  1  0.171028  0.054440  0.221912  1
  N  N31  1  0.828972  0.554440  0.778088  1
  N  N32  1  0.828972  0.945560  0.778088  1
  N  N33  1  0.171028  0.445560  0.221912  1
  N  N34  1  0.937695  0.250000  0.409060  1
  N  N35  1  0.062305  0.750000  0.590940  1
  N  N36  1  0.404930  0.250000  0.070655  1
  N  N37  1  0.595070  0.750000  0.929345  1
  Cl  Cl38  1  0.930033  0.250000  0.944482  1
  Cl  Cl39  1  0.069967  0.750000  0.055518  1
  Cl  Cl40  1  0.685389  0.979837  0.282754  1
  Cl  Cl41  1  0.314611  0.479837  0.717246  1
  Cl  Cl42  1  0.314611  0.020163  0.717246  1
  Cl  Cl43  1  0.685389  0.520163  0.282754  1
  O  O44  1  0.376914  0.250000  0.471538  1
  O  O45  1  0.623086  0.750000  0.528462  1
