# generated using pymatgen
data_Li2SmPCO7
_symmetry_space_group_name_H-M   'P 1'
_cell_length_a   9.25935634
_cell_length_b   6.87808733
_cell_length_c   4.97218196
_cell_angle_alpha   90.00000000
_cell_angle_beta   87.02920671
_cell_angle_gamma   90.00000000
_symmetry_Int_Tables_number   1
_chemical_formula_structural   Li2SmPCO7
_chemical_formula_sum   'Li4 Sm2 P2 C2 O14'
_cell_volume   316.23610254
_cell_formula_units_Z   2
loop_
 _symmetry_equiv_pos_site_id
 _symmetry_equiv_pos_as_xyz
  1  'x, y, z'
loop_
 _atom_site_type_symbol
 _atom_site_label
 _atom_site_symmetry_multiplicity
 _atom_site_fract_x
 _atom_site_fract_y
 _atom_site_fract_z
 _atom_site_occupancy
  Li  Li0  1  0.195685  0.479830  0.201878  1
  Li  Li1  1  0.195685  0.020170  0.201878  1
  Li  Li2  1  0.804315  0.520170  0.798122  1
  Li  Li3  1  0.804315  0.979830  0.798122  1
  Sm  Sm4  1  0.372916  0.750000  0.743144  1
  Sm  Sm5  1  0.627084  0.250000  0.256856  1
  P  P6  1  0.400546  0.250000  0.734368  1
  P  P7  1  0.599454  0.750000  0.265632  1
  C  C8  1  0.068449  0.750000  0.742354  1
  C  C9  1  0.931551  0.250000  0.257646  1
  O  O10  1  0.068461  0.250000  0.271382  1
  O  O11  1  0.132067  0.750000  0.972084  1
  O  O12  1  0.155841  0.750000  0.523523  1
  O  O13  1  0.335026  0.067088  0.872872  1
  O  O14  1  0.335026  0.432912  0.872872  1
  O  O15  1  0.430415  0.750000  0.239659  1
  O  O16  1  0.379684  0.250000  0.426473  1
  O  O17  1  0.620316  0.750000  0.573527  1
  O  O18  1  0.569585  0.250000  0.760341  1
  O  O19  1  0.664974  0.567088  0.127128  1
  O  O20  1  0.664974  0.932912  0.127128  1
  O  O21  1  0.844159  0.250000  0.476477  1
  O  O22  1  0.867933  0.250000  0.027916  1
  O  O23  1  0.931539  0.750000  0.728618  1
