# generated using pymatgen
data_Li3Fe8(BO3)8
_symmetry_space_group_name_H-M   'P 1'
_cell_length_a   5.25739478
_cell_length_b   9.12361338
_cell_length_c   10.13883016
_cell_angle_alpha   90.50235569
_cell_angle_beta   90.66164717
_cell_angle_gamma   89.02579643
_symmetry_Int_Tables_number   1
_chemical_formula_structural   Li3Fe8(BO3)8
_chemical_formula_sum   'Li3 Fe8 B8 O24'
_cell_volume   486.20297484
_cell_formula_units_Z   1
loop_
 _symmetry_equiv_pos_site_id
 _symmetry_equiv_pos_as_xyz
  1  'x, y, z'
loop_
 _atom_site_type_symbol
 _atom_site_label
 _atom_site_symmetry_multiplicity
 _atom_site_fract_x
 _atom_site_fract_y
 _atom_site_fract_z
 _atom_site_occupancy
  Li  Li0  1  0.817935  0.830639  0.142852  1
  Li  Li1  1  0.678109  0.666500  0.411668  1
  Li  Li2  1  0.340467  0.326813  0.657134  1
  Fe  Fe3  1  0.845648  0.150607  0.630106  1
  Fe  Fe4  1  0.817784  0.496016  0.128212  1
  Fe  Fe5  1  0.670032  0.000928  0.868916  1
  Fe  Fe6  1  0.672182  0.329289  0.378848  1
  Fe  Fe7  1  0.336922  0.665251  0.635047  1
  Fe  Fe8  1  0.326881  0.004643  0.122954  1
  Fe  Fe9  1  0.169760  0.847092  0.384340  1
  Fe  Fe10  1  0.167347  0.508013  0.883386  1
  B  B11  1  0.831695  0.494594  0.621426  1
  B  B12  1  0.830254  0.163019  0.133266  1
  B  B13  1  0.661140  0.998194  0.371846  1
  B  B14  1  0.675950  0.334875  0.873811  1
  B  B15  1  0.341289  0.004150  0.627431  1
  B  B16  1  0.326733  0.676580  0.129888  1
  B  B17  1  0.170192  0.506125  0.378640  1
  B  B18  1  0.170655  0.833208  0.883866  1
  O  O19  1  0.908412  0.498728  0.349502  1
  O  O20  1  0.915073  0.851889  0.891667  1
  O  O21  1  0.781086  0.198527  0.841819  1
  O  O22  1  0.758784  0.125356  0.422457  1
  O  O23  1  0.807631  0.870854  0.360717  1
  O  O24  1  0.830896  0.443109  0.925749  1
  O  O25  1  0.701323  0.623122  0.603805  1
  O  O26  1  0.685701  0.041789  0.089041  1
  O  O27  1  0.718789  0.361734  0.581743  1
  O  O28  1  0.709003  0.286730  0.183681  1
  O  O29  1  0.584771  0.671899  0.144355  1
  O  O30  1  0.588157  0.989520  0.678799  1
  O  O31  1  0.409259  0.994723  0.326310  1
  O  O32  1  0.422548  0.363049  0.850340  1
  O  O33  1  0.279855  0.703795  0.838277  1
  O  O34  1  0.271531  0.643713  0.410500  1
  O  O35  1  0.325170  0.386195  0.380518  1
  O  O36  1  0.332130  0.944800  0.928907  1
  O  O37  1  0.185582  0.562086  0.078556  1
  O  O38  1  0.215973  0.134984  0.628771  1
  O  O39  1  0.232561  0.877995  0.572498  1
  O  O40  1  0.187867  0.805849  0.168825  1
  O  O41  1  0.086755  0.152916  0.127055  1
  O  O42  1  0.081311  0.489994  0.673872  1
