# generated using pymatgen
data_Sr20Fe3Co7(MoO6)10
_symmetry_space_group_name_H-M   'P 1'
_cell_length_a   11.29041270
_cell_length_b   28.19413657
_cell_length_c   9.78366361
_cell_angle_alpha   30.16554475
_cell_angle_beta   106.76368846
_cell_angle_gamma   89.99853013
_symmetry_Int_Tables_number   1
_chemical_formula_structural   Sr20Fe3Co7(MoO6)10
_chemical_formula_sum   'Sr20 Fe3 Co7 Mo10 O60'
_cell_volume   1281.45828623
_cell_formula_units_Z   1
loop_
 _symmetry_equiv_pos_site_id
 _symmetry_equiv_pos_as_xyz
  1  'x, y, z'
loop_
 _atom_site_type_symbol
 _atom_site_label
 _atom_site_symmetry_multiplicity
 _atom_site_fract_x
 _atom_site_fract_y
 _atom_site_fract_z
 _atom_site_occupancy
  Sr  Sr0  1  0.120289  0.151207  0.494383  1
  Sr  Sr1  1  0.126847  0.350456  0.502020  1
  Sr  Sr2  1  0.126531  0.547770  0.505185  1
  Sr  Sr3  1  0.122921  0.751150  0.498028  1
  Sr  Sr4  1  0.124154  0.949722  0.500235  1
  Sr  Sr5  1  0.378467  0.051011  0.499385  1
  Sr  Sr6  1  0.374243  0.251441  0.492323  1
  Sr  Sr7  1  0.379265  0.447788  0.509933  1
  Sr  Sr8  1  0.376666  0.649268  0.501424  1
  Sr  Sr9  1  0.373466  0.850266  0.498547  1
  Sr  Sr10  1  0.627767  0.150419  0.496215  1
  Sr  Sr11  1  0.625994  0.349967  0.505197  1
  Sr  Sr12  1  0.625848  0.546153  0.505746  1
  Sr  Sr13  1  0.625970  0.749863  0.498092  1
  Sr  Sr14  1  0.625191  0.950051  0.505466  1
  Sr  Sr15  1  0.870952  0.052552  0.499316  1
  Sr  Sr16  1  0.872930  0.249245  0.494508  1
  Sr  Sr17  1  0.873540  0.448420  0.504917  1
  Sr  Sr18  1  0.873656  0.652825  0.494499  1
  Sr  Sr19  1  0.875241  0.850787  0.494252  1
  Fe  Fe20  1  0.001216  0.200756  0.000383  1
  Fe  Fe21  1  -0.000121  0.599672  0.001493  1
  Fe  Fe22  1  0.499305  0.000561  0.997080  1
  Co  Co23  1  0.999081  0.000629  0.997913  1
  Co  Co24  1  0.001147  0.399632  0.001123  1
  Co  Co25  1  0.998937  0.800225  0.998146  1
  Co  Co26  1  0.499634  0.199467  0.001601  1
  Co  Co27  1  0.500263  0.399013  0.002683  1
  Co  Co28  1  0.500958  0.599438  0.001601  1
  Co  Co29  1  0.500051  0.801158  0.997734  1
  Mo  Mo30  1  0.249630  0.099956  0.000099  1
  Mo  Mo31  1  0.249992  0.300506  -0.000397  1
  Mo  Mo32  1  0.250722  0.500107  -0.000590  1
  Mo  Mo33  1  0.250875  0.700565  0.000449  1
  Mo  Mo34  1  0.250425  0.898293  0.003534  1
  Mo  Mo35  1  0.750299  0.099994  0.001156  1
  Mo  Mo36  1  0.748746  0.300696  0.998376  1
  Mo  Mo37  1  0.749020  0.500055  0.997258  1
  Mo  Mo38  1  0.749193  0.699871  0.000854  1
  Mo  Mo39  1  0.751101  0.899745  0.000165  1
  O  O40  1  0.128349  0.045600  0.512088  1
  O  O41  1  0.129406  0.244360  0.517859  1
  O  O42  1  0.122374  0.452636  0.491674  1
  O  O43  1  0.127105  0.645167  0.515170  1
  O  O44  1  0.130428  0.845984  0.516771  1
  O  O45  1  0.108342  0.141147  0.999386  1
  O  O46  1  0.111365  0.339522  0.001393  1
  O  O47  1  0.108221  0.542817  0.996990  1
  O  O48  1  0.110851  0.740894  -0.000117  1
  O  O49  1  0.115466  0.940599  0.001499  1
  O  O50  1  0.148471  0.044061  0.002356  1
  O  O51  1  0.142759  0.241015  0.999700  1
  O  O52  1  0.146735  0.444612  0.000387  1
  O  O53  1  0.145739  0.644592  0.998854  1
  O  O54  1  0.150415  0.843380  0.003191  1
  O  O55  1  0.377229  0.147445  0.508524  1
  O  O56  1  0.368891  0.354964  0.482557  1
  O  O57  1  0.372028  0.754301  0.485566  1
  O  O58  1  0.371138  0.556743  0.480662  1
  O  O59  1  0.369262  0.955073  0.481132  1
  O  O60  1  0.351464  0.358286  0.998535  1
  O  O61  1  0.348765  0.556320  0.997711  1
  O  O62  1  0.351287  0.155094  0.998775  1
  O  O63  1  0.352528  0.756234  -0.000315  1
  O  O64  1  0.355307  0.955621  0.002681  1
  O  O65  1  0.383672  0.259285  0.997166  1
  O  O66  1  0.391723  0.056831  0.004441  1
  O  O67  1  0.386056  0.660261  0.995731  1
  O  O68  1  0.389096  0.460504  0.998451  1
  O  O69  1  0.388303  0.860113  0.999024  1
  O  O70  1  0.624473  0.048662  0.504175  1
  O  O71  1  0.630918  0.244510  0.520899  1
  O  O72  1  0.625823  0.450822  0.498295  1
  O  O73  1  0.628283  0.644191  0.517405  1
  O  O74  1  0.626709  0.848432  0.505267  1
  O  O75  1  0.612752  0.140980  0.999468  1
  O  O76  1  0.612702  0.541851  0.997657  1
  O  O77  1  0.610189  0.740764  0.996623  1
  O  O78  1  0.606970  0.341984  0.999541  1
  O  O79  1  0.611112  0.939164  0.009662  1
  O  O80  1  0.646527  0.042926  0.003569  1
  O  O81  1  0.645094  0.246456  0.994205  1
  O  O82  1  0.648775  0.444201  0.001072  1
  O  O83  1  0.648871  0.646796  0.992321  1
  O  O84  1  0.643257  0.842853  0.002002  1
  O  O85  1  0.876944  0.151623  0.496644  1
  O  O86  1  0.871488  0.352457  0.488898  1
  O  O87  1  0.871434  0.555401  0.481361  1
  O  O88  1  0.876406  0.747032  0.509483  1
  O  O89  1  0.871774  0.955011  0.485880  1
  O  O90  1  0.856231  0.155475  0.002982  1
  O  O91  1  0.855959  0.355515  0.997462  1
  O  O92  1  0.854325  0.555250  0.002211  1
  O  O93  1  0.850091  0.756610  0.994102  1
  O  O94  1  0.857357  0.954967  0.005854  1
  O  O95  1  0.888206  0.058305  0.005050  1
  O  O96  1  0.894146  0.256769  0.998142  1
  O  O97  1  0.889119  0.459671  0.000398  1
  O  O98  1  0.889909  0.659397  0.996341  1
  O  O99  1  0.890969  0.857768  0.004855  1
