# generated using pymatgen
data_Li2Cu(PO3)4
_symmetry_space_group_name_H-M   'P 1'
_cell_length_a   7.71606120
_cell_length_b   12.76625962
_cell_length_c   10.53207069
_cell_angle_alpha   90.00000000
_cell_angle_beta   103.71501046
_cell_angle_gamma   90.00000000
_symmetry_Int_Tables_number   1
_chemical_formula_structural   Li2Cu(PO3)4
_chemical_formula_sum   'Li8 Cu4 P16 O48'
_cell_volume   1007.88298235
_cell_formula_units_Z   4
loop_
 _symmetry_equiv_pos_site_id
 _symmetry_equiv_pos_as_xyz
  1  'x, y, z'
loop_
 _atom_site_type_symbol
 _atom_site_label
 _atom_site_symmetry_multiplicity
 _atom_site_fract_x
 _atom_site_fract_y
 _atom_site_fract_z
 _atom_site_occupancy
  Li  Li0  1  0.150093  0.062862  0.594458  1
  Li  Li1  1  0.125325  0.710685  0.118432  1
  Li  Li2  1  0.349907  0.562862  0.905542  1
  Li  Li3  1  0.374675  0.210685  0.381568  1
  Li  Li4  1  0.625325  0.789315  0.618432  1
  Li  Li5  1  0.650093  0.437138  0.094458  1
  Li  Li6  1  0.874675  0.289315  0.881568  1
  Li  Li7  1  0.849907  0.937138  0.405542  1
  Cu  Cu8  1  0.238352  0.146341  0.987815  1
  Cu  Cu9  1  0.261648  0.646341  0.512185  1
  Cu  Cu10  1  0.738352  0.353659  0.487815  1
  Cu  Cu11  1  0.761648  0.853659  0.012185  1
  P  P12  1  0.077916  0.812499  0.680370  1
  P  P13  1  0.157737  0.416745  0.608607  1
  P  P14  1  0.062290  0.335568  0.153894  1
  P  P15  1  0.342263  0.916745  0.891393  1
  P  P16  1  0.198966  0.939126  0.128896  1
  P  P17  1  0.422084  0.312499  0.819630  1
  P  P18  1  0.301034  0.439126  0.371104  1
  P  P19  1  0.437710  0.835568  0.346106  1
  P  P20  1  0.562290  0.164432  0.653894  1
  P  P21  1  0.698966  0.560874  0.628896  1
  P  P22  1  0.577916  0.687501  0.180370  1
  P  P23  1  0.801034  0.060874  0.871104  1
  P  P24  1  0.657737  0.083255  0.108607  1
  P  P25  1  0.937710  0.664432  0.846106  1
  P  P26  1  0.842263  0.583255  0.391393  1
  P  P27  1  0.922084  0.187501  0.319630  1
  O  O28  1  0.126540  0.634967  0.911362  1
  O  O29  1  0.989444  0.363658  0.622141  1
  O  O30  1  0.002264  0.904922  0.596021  1
  O  O31  1  0.173635  0.846008  0.825163  1
  O  O32  1  0.084608  0.251152  0.277671  1
  O  O33  1  0.060245  0.855985  0.129030  1
  O  O34  1  0.200049  0.527699  0.651199  1
  O  O35  1  0.202881  0.738700  0.637586  1
  O  O36  1  0.297119  0.238700  0.862414  1
  O  O37  1  0.299951  0.027699  0.848801  1
  O  O38  1  0.170730  0.401046  0.459868  1
  O  O39  1  0.326365  0.346008  0.674837  1
  O  O40  1  0.142854  0.051206  0.100195  1
  O  O41  1  0.160344  0.437539  0.230006  1
  O  O42  1  0.329131  0.792220  0.434190  1
  O  O43  1  0.170869  0.292220  0.065810  1
  O  O44  1  0.339656  0.937539  0.269994  1
  O  O45  1  0.497736  0.404922  0.903979  1
  O  O46  1  0.510556  0.863658  0.877859  1
  O  O47  1  0.357146  0.551206  0.399805  1
  O  O48  1  0.373460  0.134967  0.588638  1
  O  O49  1  0.329270  0.901046  0.040132  1
  O  O50  1  0.584608  0.248848  0.777671  1
  O  O51  1  0.560245  0.644015  0.629030  1
  O  O52  1  0.439755  0.355985  0.370970  1
  O  O53  1  0.415392  0.751152  0.222329  1
  O  O54  1  0.670730  0.098954  0.959868  1
  O  O55  1  0.626540  0.865033  0.411362  1
  O  O56  1  0.642854  0.448794  0.600195  1
  O  O57  1  0.489444  0.136342  0.122141  1
  O  O58  1  0.502264  0.595078  0.096021  1
  O  O59  1  0.660344  0.062461  0.730006  1
  O  O60  1  0.829131  0.707780  0.934190  1
  O  O61  1  0.670869  0.207780  0.565810  1
  O  O62  1  0.839656  0.562461  0.769994  1
  O  O63  1  0.857146  0.948794  0.899805  1
  O  O64  1  0.673635  0.653992  0.325163  1
  O  O65  1  0.829270  0.598954  0.540132  1
  O  O66  1  0.700049  0.972301  0.151199  1
  O  O67  1  0.702881  0.761300  0.137586  1
  O  O68  1  0.797119  0.261300  0.362414  1
  O  O69  1  0.799951  0.472301  0.348801  1
  O  O70  1  0.939755  0.144015  0.870970  1
  O  O71  1  0.915392  0.748848  0.722329  1
  O  O72  1  0.826365  0.153992  0.174837  1
  O  O73  1  0.997736  0.095078  0.403979  1
  O  O74  1  0.010556  0.636342  0.377859  1
  O  O75  1  0.873460  0.365033  0.088638  1
