# generated using pymatgen
data_Li2NbFe3O8
_symmetry_space_group_name_H-M   'P 1'
_cell_length_a   8.60529353
_cell_length_b   8.60532783
_cell_length_c   8.60591296
_cell_angle_alpha   89.99973274
_cell_angle_beta   90.00142168
_cell_angle_gamma   90.00179671
_symmetry_Int_Tables_number   1
_chemical_formula_structural   Li2NbFe3O8
_chemical_formula_sum   'Li8 Nb4 Fe12 O32'
_cell_volume   637.27966087
_cell_formula_units_Z   4
loop_
 _symmetry_equiv_pos_site_id
 _symmetry_equiv_pos_as_xyz
  1  'x, y, z'
loop_
 _atom_site_type_symbol
 _atom_site_label
 _atom_site_symmetry_multiplicity
 _atom_site_fract_x
 _atom_site_fract_y
 _atom_site_fract_z
 _atom_site_occupancy
  Li  Li0  1  0.999531  0.999535  0.999544  1
  Li  Li1  1  0.250457  0.250455  0.250455  1
  Li  Li2  1  0.249553  0.749546  0.750460  1
  Li  Li3  1  0.500472  0.000462  0.499535  1
  Li  Li4  1  0.499538  0.500475  0.000474  1
  Li  Li5  1  0.750458  0.249530  0.749549  1
  Li  Li6  1  0.749539  0.750465  0.249534  1
  Li  Li7  1  0.000471  0.499534  0.500471  1
  Nb  Nb8  1  0.124979  0.875030  0.375025  1
  Nb  Nb9  1  0.375000  0.124981  0.875019  1
  Nb  Nb10  1  0.624993  0.624955  0.624990  1
  Nb  Nb11  1  0.875015  0.375041  0.124993  1
  Fe  Fe12  1  0.117882  0.132107  0.625015  1
  Fe  Fe13  1  0.125021  0.382144  0.867899  1
  Fe  Fe14  1  0.132108  0.625044  0.117901  1
  Fe  Fe15  1  0.367890  0.374973  0.617883  1
  Fe  Fe16  1  0.374981  0.617906  0.367914  1
  Fe  Fe17  1  0.382122  0.867885  0.125025  1
  Fe  Fe18  1  0.617872  0.367877  0.374967  1
  Fe  Fe19  1  0.625028  0.117881  0.132074  1
  Fe  Fe20  1  0.632096  0.874974  0.882094  1
  Fe  Fe21  1  0.867879  0.125018  0.382106  1
  Fe  Fe22  1  0.874979  0.882124  0.632112  1
  Fe  Fe23  1  0.882115  0.632127  0.874985  1
  O  O24  1  0.112096  0.110730  0.384271  1
  O  O25  1  0.115752  0.887909  0.610724  1
  O  O26  1  0.114727  0.614748  0.885311  1
  O  O27  1  0.139309  0.137901  0.865768  1
  O  O28  1  0.110728  0.384266  0.112071  1
  O  O29  1  0.135292  0.364725  0.635311  1
  O  O30  1  0.134210  0.639327  0.362119  1
  O  O31  1  0.137912  0.865799  0.139315  1
  O  O32  1  0.362092  0.134201  0.639308  1
  O  O33  1  0.365804  0.360676  0.862107  1
  O  O34  1  0.364708  0.635276  0.135311  1
  O  O35  1  0.389276  0.615743  0.612090  1
  O  O36  1  0.360695  0.862100  0.365766  1
  O  O37  1  0.385270  0.385274  0.385310  1
  O  O38  1  0.384265  0.112097  0.110714  1
  O  O39  1  0.387898  0.889273  0.884263  1
  O  O40  1  0.612099  0.389272  0.615752  1
  O  O41  1  0.615747  0.612103  0.389297  1
  O  O42  1  0.614731  0.885268  0.114681  1
  O  O43  1  0.639305  0.362117  0.134229  1
  O  O44  1  0.610730  0.115739  0.887915  1
  O  O45  1  0.635268  0.135279  0.364687  1
  O  O46  1  0.634222  0.860675  0.637897  1
  O  O47  1  0.637917  0.634214  0.860700  1
  O  O48  1  0.862073  0.365793  0.360698  1
  O  O49  1  0.865779  0.139330  0.137903  1
  O  O50  1  0.864721  0.864726  0.864709  1
  O  O51  1  0.889268  0.884253  0.387918  1
  O  O52  1  0.860698  0.637899  0.634248  1
  O  O53  1  0.885275  0.114728  0.614690  1
  O  O54  1  0.884248  0.387902  0.889288  1
  O  O55  1  0.887905  0.610731  0.115745  1
