# generated using pymatgen
data_FeP4O11
_symmetry_space_group_name_H-M   'P 1'
_cell_length_a   9.31529247
_cell_length_b   9.36464486
_cell_length_c   10.82460021
_cell_angle_alpha   70.91156320
_cell_angle_beta   108.22854943
_cell_angle_gamma   89.22563783
_symmetry_Int_Tables_number   1
_chemical_formula_structural   FeP4O11
_chemical_formula_sum   'Fe4 P16 O44'
_cell_volume   840.49007763
_cell_formula_units_Z   4
loop_
 _symmetry_equiv_pos_site_id
 _symmetry_equiv_pos_as_xyz
  1  'x, y, z'
loop_
 _atom_site_type_symbol
 _atom_site_label
 _atom_site_symmetry_multiplicity
 _atom_site_fract_x
 _atom_site_fract_y
 _atom_site_fract_z
 _atom_site_occupancy
  Fe  Fe0  1  0.772188  0.769731  0.499013  1
  Fe  Fe1  1  0.227812  0.230269  0.500987  1
  Fe  Fe2  1  0.255908  0.721124  0.020393  1
  Fe  Fe3  1  0.744092  0.278876  0.979607  1
  P  P4  1  0.414554  0.390646  0.284826  1
  P  P5  1  0.585446  0.609354  0.715174  1
  P  P6  1  0.910313  0.946053  0.246379  1
  P  P7  1  0.089687  0.053947  0.753621  1
  P  P8  1  0.236662  0.923921  0.388275  1
  P  P9  1  0.763338  0.076079  0.611725  1
  P  P10  1  0.440335  0.912539  0.228209  1
  P  P11  1  0.559665  0.087461  0.771791  1
  P  P12  1  0.903611  0.727257  0.088791  1
  P  P13  1  0.096389  0.272743  0.911209  1
  P  P14  1  0.431725  0.250245  0.073591  1
  P  P15  1  0.568275  0.749755  0.926409  1
  P  P16  1  0.737110  0.414399  0.442680  1
  P  P17  1  0.262890  0.585601  0.557320  1
  P  P18  1  0.902325  0.404251  0.240305  1
  P  P19  1  0.097675  0.595749  0.759695  1
  O  O20  1  0.053744  0.310034  0.305987  1
  O  O21  1  0.946256  0.689966  0.694013  1
  O  O22  1  0.187692  0.904709  0.820041  1
  O  O23  1  0.812308  0.095291  0.179959  1
  O  O24  1  0.706316  0.480518  0.808438  1
  O  O25  1  0.293684  0.519482  0.191562  1
  O  O26  1  0.183165  0.639875  0.644520  1
  O  O27  1  0.816835  0.360125  0.355480  1
  O  O28  1  0.632416  0.027485  0.674348  1
  O  O29  1  0.367584  0.972515  0.325652  1
  O  O30  1  0.081709  0.166740  0.616328  1
  O  O31  1  0.918291  0.833260  0.383672  1
  O  O32  1  0.261074  0.741048  0.436788  1
  O  O33  1  0.738926  0.258952  0.563212  1
  O  O34  1  0.412506  0.186015  0.686142  1
  O  O35  1  0.587494  0.813985  0.313858  1
  O  O36  1  0.684749  0.137163  0.867174  1
  O  O37  1  0.315251  0.862837  0.132826  1
  O  O38  1  0.803118  0.530989  0.499182  1
  O  O39  1  0.196882  0.469011  0.500818  1
  O  O40  1  0.087607  0.971262  0.254453  1
  O  O41  1  0.912393  0.028738  0.745547  1
  O  O42  1  0.750008  0.729278  0.968037  1
  O  O43  1  0.249992  0.270722  0.031963  1
  O  O44  1  0.484791  0.312556  0.196647  1
  O  O45  1  0.515209  0.687444  0.803353  1
  O  O46  1  0.082787  0.414837  0.777426  1
  O  O47  1  0.917213  0.585163  0.222574  1
  O  O48  1  0.206830  0.591650  0.895131  1
  O  O49  1  0.793170  0.408350  0.104869  1
  O  O50  1  0.389615  0.264288  0.399602  1
  O  O51  1  0.610385  0.735712  0.600398  1
  O  O52  1  0.969655  0.263019  0.965811  1
  O  O53  1  0.030345  0.736981  0.034189  1
  O  O54  1  0.435457  0.534416  0.650632  1
  O  O55  1  0.564543  0.465584  0.349368  1
  O  O56  1  0.505831  0.681453  0.039197  1
  O  O57  1  0.494169  0.318547  0.960803  1
  O  O58  1  0.482023  0.073477  0.140109  1
  O  O59  1  0.517977  0.926523  0.859891  1
  O  O60  1  0.864594  0.866291  0.127741  1
  O  O61  1  0.135406  0.133709  0.872259  1
  O  O62  1  0.238254  0.987082  0.496738  1
  O  O63  1  0.761746  0.012918  0.503262  1
