# generated using pymatgen
data_Ni3OF5
_symmetry_space_group_name_H-M   'P 1'
_cell_length_a   7.39009897
_cell_length_b   5.63057625
_cell_length_c   5.63059727
_cell_angle_alpha   71.58549012
_cell_angle_beta   71.93223596
_cell_angle_gamma   71.93277236
_symmetry_Int_Tables_number   1
_chemical_formula_structural   Ni3OF5
_chemical_formula_sum   'Ni6 O2 F10'
_cell_volume   205.40499552
_cell_formula_units_Z   2
loop_
 _symmetry_equiv_pos_site_id
 _symmetry_equiv_pos_as_xyz
  1  'x, y, z'
loop_
 _atom_site_type_symbol
 _atom_site_label
 _atom_site_symmetry_multiplicity
 _atom_site_fract_x
 _atom_site_fract_y
 _atom_site_fract_z
 _atom_site_occupancy
  Ni  Ni0  1  0.841198  0.658325  0.658322  1
  Ni  Ni1  1  0.334622  0.668856  0.668856  1
  Ni  Ni2  1  0.665378  0.331144  0.331144  1
  Ni  Ni3  1  0.158802  0.341675  0.341678  1
  Ni  Ni4  1  0.500000  0.000000  0.000000  1
  Ni  Ni5  1  0.000000  0.000000  0.000000  1
  O  O6  1  0.999999  0.300586  0.699419  1
  O  O7  1  0.000001  0.699414  0.300581  1
  F  F8  1  0.330700  0.364500  0.975278  1
  F  F9  1  0.669300  0.024724  0.635501  1
  F  F10  1  0.961964  0.234053  0.234062  1
  F  F11  1  0.631408  0.562711  0.562718  1
  F  F12  1  0.299666  0.899645  0.899634  1
  F  F13  1  0.038036  0.765947  0.765938  1
  F  F14  1  0.368592  0.437289  0.437282  1
  F  F15  1  0.700334  0.100355  0.100366  1
  F  F16  1  0.330700  0.975276  0.364499  1
  F  F17  1  0.669300  0.635500  0.024722  1
