# generated using pymatgen
data_PH8N4Cl
_symmetry_space_group_name_H-M   'P 1'
_cell_length_a   4.78679715
_cell_length_b   16.53779477
_cell_length_c   7.75005182
_cell_angle_alpha   89.99999960
_cell_angle_beta   90.00000219
_cell_angle_gamma   89.99999377
_symmetry_Int_Tables_number   1
_chemical_formula_structural   PH8N4Cl
_chemical_formula_sum   'P4 H32 N16 Cl4'
_cell_volume   613.51788599
_cell_formula_units_Z   4
loop_
 _symmetry_equiv_pos_site_id
 _symmetry_equiv_pos_as_xyz
  1  'x, y, z'
loop_
 _atom_site_type_symbol
 _atom_site_label
 _atom_site_symmetry_multiplicity
 _atom_site_fract_x
 _atom_site_fract_y
 _atom_site_fract_z
 _atom_site_occupancy
  P  P0  1  0.000000  0.127202  0.250000  1
  P  P1  1  1.000000  0.872798  0.750000  1
  P  P2  1  0.500000  0.627202  0.250000  1
  P  P3  1  0.500000  0.372798  0.750000  1
  H  H4  1  0.198438  0.245989  0.351493  1
  H  H5  1  0.198438  0.754011  0.851493  1
  H  H6  1  0.228971  0.168269  0.499911  1
  H  H7  1  0.228971  0.831731  -0.000089  1
  H  H8  1  0.240775  0.011146  0.169012  1
  H  H9  1  0.240775  0.988854  0.669012  1
  H  H10  1  0.257834  0.085163  0.011590  1
  H  H11  1  0.257834  0.914837  0.511590  1
  H  H12  1  0.242166  0.414837  0.511590  1
  H  H13  1  0.242166  0.585163  0.011590  1
  H  H14  1  0.259225  0.511146  0.169012  1
  H  H15  1  0.259225  0.488854  0.669012  1
  H  H16  1  0.271029  0.331731  -0.000089  1
  H  H17  1  0.271029  0.668269  0.499911  1
  H  H18  1  0.301562  0.254011  0.851493  1
  H  H19  1  0.301562  0.745989  0.351493  1
  H  H20  1  0.698438  0.254011  0.648507  1
  H  H21  1  0.698438  0.745989  0.148507  1
  H  H22  1  0.728971  0.331731  0.500089  1
  H  H23  1  0.728971  0.668269  0.000089  1
  H  H24  1  0.740775  0.511146  0.330988  1
  H  H25  1  0.740775  0.488854  0.830988  1
  H  H26  1  0.757834  0.585163  0.488410  1
  H  H27  1  0.757834  0.414837  0.988410  1
  H  H28  1  0.742166  0.085163  0.488410  1
  H  H29  1  0.742166  0.914837  0.988410  1
  H  H30  1  0.759225  0.011146  0.330988  1
  H  H31  1  0.759225  0.988854  0.830988  1
  H  H32  1  0.771029  0.168269  0.000089  1
  H  H33  1  0.771029  0.831731  0.500089  1
  H  H34  1  0.801562  0.245989  0.148507  1
  H  H35  1  0.801562  0.754011  0.648507  1
  N  N36  1  0.138721  0.189645  0.389217  1
  N  N37  1  0.138722  0.810355  0.889218  1
  N  N38  1  0.171647  0.065748  0.125246  1
  N  N39  1  0.171647  0.934252  0.625246  1
  N  N40  1  0.328353  0.434252  0.625246  1
  N  N41  1  0.328353  0.565748  0.125246  1
  N  N42  1  0.361279  0.310355  0.889218  1
  N  N43  1  0.361278  0.689645  0.389218  1
  N  N44  1  0.638722  0.310355  0.610782  1
  N  N45  1  0.638721  0.689645  0.110782  1
  N  N46  1  0.671647  0.565748  0.374754  1
  N  N47  1  0.671647  0.434252  0.874754  1
  N  N48  1  0.828353  0.065748  0.374754  1
  N  N49  1  0.828353  0.934252  0.874754  1
  N  N50  1  0.861279  0.810355  0.610783  1
  N  N51  1  0.861278  0.189645  0.110782  1
  Cl  Cl52  1  0.000000  0.385460  0.250000  1
  Cl  Cl53  1  1.000000  0.614540  0.750000  1
  Cl  Cl54  1  0.500000  0.114540  0.750000  1
  Cl  Cl55  1  0.500000  0.885460  0.250000  1
