# generated using pymatgen
data_Na2CrAsCO7
_symmetry_space_group_name_H-M   'P 1'
_cell_length_a   9.10562708
_cell_length_b   6.73618982
_cell_length_c   5.30639730
_cell_angle_alpha   90.00000000
_cell_angle_beta   87.99615967
_cell_angle_gamma   90.00000000
_symmetry_Int_Tables_number   1
_chemical_formula_structural   Na2CrAsCO7
_chemical_formula_sum   'Na4 Cr2 As2 C2 O14'
_cell_volume   325.28068922
_cell_formula_units_Z   2
loop_
 _symmetry_equiv_pos_site_id
 _symmetry_equiv_pos_as_xyz
  1  'x, y, z'
loop_
 _atom_site_type_symbol
 _atom_site_label
 _atom_site_symmetry_multiplicity
 _atom_site_fract_x
 _atom_site_fract_y
 _atom_site_fract_z
 _atom_site_occupancy
  Na  Na0  1  0.223227  0.002247  0.234393  1
  Na  Na1  1  0.223227  0.497753  0.234393  1
  Na  Na2  1  0.776773  0.502247  0.765607  1
  Na  Na3  1  0.776773  0.997753  0.765607  1
  Cr  Cr4  1  0.342701  0.750000  0.788611  1
  Cr  Cr5  1  0.657299  0.250000  0.211389  1
  As  As6  1  0.423365  0.250000  0.711315  1
  As  As7  1  0.576635  0.750000  0.288685  1
  C  C8  1  0.075805  0.750000  0.725612  1
  C  C9  1  0.924195  0.250000  0.274388  1
  O  O10  1  0.059795  0.250000  0.306091  1
  O  O11  1  0.135224  0.750000  0.948408  1
  O  O12  1  0.175434  0.750000  0.537708  1
  O  O13  1  0.318886  0.049015  0.799695  1
  O  O14  1  0.318886  0.450985  0.799695  1
  O  O15  1  0.409011  0.750000  0.149240  1
  O  O16  1  0.454727  0.250000  0.386732  1
  O  O17  1  0.545273  0.750000  0.613268  1
  O  O18  1  0.590989  0.250000  0.850760  1
  O  O19  1  0.681114  0.549015  0.200305  1
  O  O20  1  0.681114  0.950985  0.200305  1
  O  O21  1  0.824566  0.250000  0.462292  1
  O  O22  1  0.864776  0.250000  0.051592  1
  O  O23  1  0.940205  0.750000  0.693909  1
