# generated using pymatgen
data_Na2CuH20C12(N2O3)6
_symmetry_space_group_name_H-M   'P 1'
_cell_length_a   10.54435234
_cell_length_b   10.49860757
_cell_length_c   6.86170255
_cell_angle_alpha   71.17456718
_cell_angle_beta   83.99385196
_cell_angle_gamma   62.85222451
_symmetry_Int_Tables_number   1
_chemical_formula_structural   Na2CuH20C12(N2O3)6
_chemical_formula_sum   'Na2 Cu1 H20 C12 N12 O18'
_cell_volume   638.93835001
_cell_formula_units_Z   1
loop_
 _symmetry_equiv_pos_site_id
 _symmetry_equiv_pos_as_xyz
  1  'x, y, z'
loop_
 _atom_site_type_symbol
 _atom_site_label
 _atom_site_symmetry_multiplicity
 _atom_site_fract_x
 _atom_site_fract_y
 _atom_site_fract_z
 _atom_site_occupancy
  Na  Na0  1  0.397086  0.536134  0.757345  1
  Na  Na1  1  0.602914  0.463866  0.242655  1
  Cu  Cu2  1  0.000000  0.000000  0.000000  1
  H  H3  1  0.367323  0.136845  0.122254  1
  H  H4  1  0.632677  0.863155  0.877746  1
  H  H5  1  0.012856  0.491989  0.773249  1
  H  H6  1  0.987144  0.508011  0.226751  1
  H  H7  1  0.560302  0.118127  0.697718  1
  H  H8  1  0.439698  0.881873  0.302282  1
  H  H9  1  0.212277  0.467013  0.336846  1
  H  H10  1  0.787723  0.532987  0.663154  1
  H  H11  1  0.127407  0.885643  0.698251  1
  H  H12  1  0.872593  0.114357  0.301749  1
  H  H13  1  0.165494  0.025454  0.683529  1
  H  H14  1  0.834506  0.974546  0.316471  1
  H  H15  1  0.322940  0.705092  0.082686  1
  H  H16  1  0.677060  0.294908  0.917314  1
  H  H17  1  0.419971  0.759233  0.928600  1
  H  H18  1  0.580029  0.240767  0.071401  1
  H  H19  1  0.180461  0.817322  0.428181  1
  H  H20  1  0.819539  0.182678  0.571819  1
  H  H21  1  0.096572  0.730987  0.560674  1
  H  H22  1  0.903428  0.269013  0.439326  1
  C  C23  1  0.199633  0.085439  0.099098  1
  C  C24  1  0.800367  0.914561  0.900902  1
  C  C25  1  0.198586  0.329488  0.945814  1
  C  C26  1  0.801414  0.670512  0.054186  1
  C  C27  1  0.995750  0.289781  0.895126  1
  C  C28  1  0.004250  0.710219  0.104874  1
  C  C29  1  0.392428  0.065142  0.675478  1
  C  C30  1  0.607572  0.934858  0.324522  1
  C  C31  1  0.395507  0.306186  0.513414  1
  C  C32  1  0.604493  0.693814  0.486586  1
  C  C33  1  0.191910  0.265653  0.471100  1
  C  C34  1  0.808090  0.734347  0.528900  1
  N  N35  1  0.068446  0.142116  0.008199  1
  N  N36  1  0.931554  0.857884  0.991801  1
  N  N37  1  0.262906  0.180364  0.063105  1
  N  N38  1  0.737094  0.819636  0.936895  1
  N  N39  1  0.062522  0.380678  0.870334  1
  N  N40  1  0.937478  0.619322  0.129666  1
  N  N41  1  0.258750  0.120958  0.594737  1
  N  N42  1  0.741250  0.879042  0.405263  1
  N  N43  1  0.457275  0.159593  0.636844  1
  N  N44  1  0.542725  0.840407  0.363156  1
  N  N45  1  0.263229  0.354511  0.428774  1
  N  N46  1  0.736771  0.645489  0.571226  1
  O  O47  1  0.263716  0.950460  0.209215  1
  O  O48  1  0.736284  0.049540  0.790785  1
  O  O49  1  0.258715  0.411606  0.910157  1
  O  O50  1  0.741286  0.588394  0.089843  1
  O  O51  1  0.874166  0.342182  0.813788  1
  O  O52  1  0.125834  0.657818  0.186212  1
  O  O53  1  0.460364  0.930489  0.786893  1
  O  O54  1  0.539636  0.069511  0.213107  1
  O  O55  1  0.454434  0.389635  0.482506  1
  O  O56  1  0.545566  0.610365  0.517494  1
  O  O57  1  0.067545  0.323314  0.392730  1
  O  O58  1  0.932455  0.676686  0.607270  1
  O  O59  1  0.101459  0.974743  0.745352  1
  O  O60  1  0.898541  0.025257  0.254648  1
  O  O61  1  0.407483  0.668736  0.003819  1
  O  O62  1  0.592517  0.331264  0.996181  1
  O  O63  1  0.175741  0.755045  0.568120  1
  O  O64  1  0.824259  0.244955  0.431880  1
