# generated using pymatgen
data_Fe3(OF2)2
_symmetry_space_group_name_H-M   'P 1'
_cell_length_a   4.78472774
_cell_length_b   4.79955812
_cell_length_c   9.42952409
_cell_angle_alpha   90.00000000
_cell_angle_beta   91.11444913
_cell_angle_gamma   90.00000000
_symmetry_Int_Tables_number   1
_chemical_formula_structural   Fe3(OF2)2
_chemical_formula_sum   'Fe6 O4 F8'
_cell_volume   216.50408797
_cell_formula_units_Z   2
loop_
 _symmetry_equiv_pos_site_id
 _symmetry_equiv_pos_as_xyz
  1  'x, y, z'
loop_
 _atom_site_type_symbol
 _atom_site_label
 _atom_site_symmetry_multiplicity
 _atom_site_fract_x
 _atom_site_fract_y
 _atom_site_fract_z
 _atom_site_occupancy
  Fe  Fe0  1  0.961507  0.985553  0.010040  1
  Fe  Fe1  1  0.000000  0.000000  0.333333  1
  Fe  Fe2  1  0.038493  0.014447  0.656627  1
  Fe  Fe3  1  0.538493  0.485553  0.156627  1
  Fe  Fe4  1  0.500000  0.500000  0.833333  1
  Fe  Fe5  1  0.461507  0.514447  0.510040  1
  O  O6  1  0.194587  0.810355  0.501897  1
  O  O7  1  0.305413  0.310355  0.664770  1
  O  O8  1  0.694587  0.689645  0.001897  1
  O  O9  1  0.805413  0.189645  0.164770  1
  F  F10  1  0.210602  0.784751  0.158400  1
  F  F11  1  0.183722  0.817889  0.835349  1
  F  F12  1  0.289398  0.284751  0.008267  1
  F  F13  1  0.316278  0.317889  0.331317  1
  F  F14  1  0.683722  0.682111  0.335349  1
  F  F15  1  0.710602  0.715249  0.658400  1
  F  F16  1  0.816278  0.182111  0.831317  1
  F  F17  1  0.789398  0.215249  0.508267  1
