# generated using pymatgen
data_Sr3(CoO3)2
_symmetry_space_group_name_H-M   'P 1'
_cell_length_a   11.43813078
_cell_length_b   11.86439458
_cell_length_c   3.89144941
_cell_angle_alpha   80.59270218
_cell_angle_beta   89.97780463
_cell_angle_gamma   118.82551556
_symmetry_Int_Tables_number   1
_chemical_formula_structural   Sr3(CoO3)2
_chemical_formula_sum   'Sr9 Co6 O18'
_cell_volume   454.51758095
_cell_formula_units_Z   3
loop_
 _symmetry_equiv_pos_site_id
 _symmetry_equiv_pos_as_xyz
  1  'x, y, z'
loop_
 _atom_site_type_symbol
 _atom_site_label
 _atom_site_symmetry_multiplicity
 _atom_site_fract_x
 _atom_site_fract_y
 _atom_site_fract_z
 _atom_site_occupancy
  Sr  Sr0  1  0.316835  0.001396  0.999717  1
  Sr  Sr1  1  0.999955  0.000830  0.998677  1
  Sr  Sr2  1  0.683521  0.000649  0.999634  1
  Sr  Sr3  1  0.152104  0.641039  0.179457  1
  Sr  Sr4  1  0.810996  0.622368  0.186432  1
  Sr  Sr5  1  0.487494  0.640281  0.179058  1
  Sr  Sr6  1  0.848572  0.361536  0.818658  1
  Sr  Sr7  1  0.189193  0.379539  0.810191  1
  Sr  Sr8  1  0.512390  0.361328  0.820189  1
  Co  Co9  1  0.598419  0.197054  0.402185  1
  Co  Co10  1  0.263973  0.195158  0.402412  1
  Co  Co11  1  0.930225  0.194996  0.402326  1
  Co  Co12  1  0.070158  0.807250  0.594795  1
  Co  Co13  1  0.402213  0.805047  0.597357  1
  Co  Co14  1  0.735859  0.806202  0.595717  1
  O  O15  1  0.743114  0.173664  0.414098  1
  O  O16  1  0.854626  0.000616  0.499057  1
  O  O17  1  0.145402  0.001373  0.498312  1
  O  O18  1  0.032176  0.387014  0.306634  1
  O  O19  1  0.417624  0.835448  0.082098  1
  O  O20  1  0.754079  0.807423  0.095033  1
  O  O21  1  0.353499  0.386657  0.306586  1
  O  O22  1  0.430732  0.175107  0.414107  1
  O  O23  1  0.695437  0.389665  0.304117  1
  O  O24  1  0.052561  0.807996  0.094483  1
  O  O25  1  0.645744  0.614359  0.691276  1
  O  O26  1  0.569884  0.827173  0.585812  1
  O  O27  1  0.305061  0.612442  0.693511  1
  O  O28  1  0.245812  0.194209  0.903093  1
  O  O29  1  0.582882  0.166102  0.917843  1
  O  O30  1  0.947267  0.193915  0.902859  1
  O  O31  1  0.257801  0.829046  0.585429  1
  O  O32  1  0.968354  0.615749  0.689583  1
