# generated using pymatgen
data_Li5Mn5(SnO6)2
_symmetry_space_group_name_H-M   'P 1'
_cell_length_a   5.39193811
_cell_length_b   5.39193741
_cell_length_c   10.26167581
_cell_angle_alpha   85.10378148
_cell_angle_beta   94.89621798
_cell_angle_gamma   60.31088094
_symmetry_Int_Tables_number   1
_chemical_formula_structural   Li5Mn5(SnO6)2
_chemical_formula_sum   'Li5 Mn5 Sn2 O12'
_cell_volume   255.40528276
_cell_formula_units_Z   1
loop_
 _symmetry_equiv_pos_site_id
 _symmetry_equiv_pos_as_xyz
  1  'x, y, z'
loop_
 _atom_site_type_symbol
 _atom_site_label
 _atom_site_symmetry_multiplicity
 _atom_site_fract_x
 _atom_site_fract_y
 _atom_site_fract_z
 _atom_site_occupancy
  Li  Li0  1  0.165885  0.671988  0.505253  1
  Li  Li1  1  0.328567  0.844295  0.992268  1
  Li  Li2  1  0.671988  0.165885  0.994747  1
  Li  Li3  1  0.844295  0.328567  0.507732  1
  Li  Li4  1  0.914958  0.914958  0.750000  1
  Mn  Mn5  1  0.081177  0.081177  0.250000  1
  Mn  Mn6  1  0.995633  0.512270  0.993294  1
  Mn  Mn7  1  0.512270  0.995633  0.506706  1
  Mn  Mn8  1  0.417621  0.417621  0.250000  1
  Mn  Mn9  1  0.578188  0.578188  0.750000  1
  Sn  Sn10  1  0.246960  0.246960  0.750000  1
  Sn  Sn11  1  0.748322  0.748322  0.250000  1
  O  O12  1  0.973987  0.216174  0.875550  1
  O  O13  1  0.216174  0.973987  0.624450  1
  O  O14  1  0.109080  0.390700  0.368106  1
  O  O15  1  0.390700  0.109080  0.131894  1
  O  O16  1  0.299961  0.526614  0.868120  1
  O  O17  1  0.526614  0.299961  0.631880  1
  O  O18  1  0.469364  0.713334  0.371893  1
  O  O19  1  0.713334  0.469364  0.128107  1
  O  O20  1  0.606639  0.874042  0.864486  1
  O  O21  1  0.874042  0.606639  0.635514  1
  O  O22  1  0.788172  0.026067  0.373372  1
  O  O23  1  0.026067  0.788172  0.126627  1
