# generated using pymatgen
data_LiV2(CO3)4
_symmetry_space_group_name_H-M   'P 1'
_cell_length_a   8.61533883
_cell_length_b   8.61533872
_cell_length_c   8.61533868
_cell_angle_alpha   106.37559390
_cell_angle_beta   108.20217471
_cell_angle_gamma   113.93476413
_symmetry_Int_Tables_number   1
_chemical_formula_structural   LiV2(CO3)4
_chemical_formula_sum   'Li2 V4 C8 O24'
_cell_volume   489.88704963
_cell_formula_units_Z   2
loop_
 _symmetry_equiv_pos_site_id
 _symmetry_equiv_pos_as_xyz
  1  'x, y, z'
loop_
 _atom_site_type_symbol
 _atom_site_label
 _atom_site_symmetry_multiplicity
 _atom_site_fract_x
 _atom_site_fract_y
 _atom_site_fract_z
 _atom_site_occupancy
  Li  Li0  1  0.375000  0.691729  0.816729  1
  Li  Li1  1  0.875000  0.558271  0.183271  1
  V  V2  1  0.157108  0.625000  0.032108  1
  V  V3  1  0.375000  0.393679  0.518679  1
  V  V4  1  0.592892  0.125000  0.967892  1
  V  V5  1  0.875000  0.856321  0.481321  1
  C  C6  1  0.152306  0.819353  0.764012  1
  C  C7  1  0.180713  0.948506  0.339014  1
  C  C8  1  0.140509  0.301494  0.732208  1
  C  C9  1  0.055342  0.388294  0.235988  1
  C  C10  1  0.609491  0.841699  0.660986  1
  C  C11  1  0.597694  0.861706  0.167047  1
  C  C12  1  0.694658  0.430648  0.832953  1
  C  C13  1  0.569287  0.408301  0.267792  1
  O  O14  1  0.041478  0.832236  0.358758  1
  O  O15  1  0.162531  0.711318  0.841959  1
  O  O16  1  0.085438  0.362770  0.841483  1
  O  O17  1  0.307299  0.948538  0.780041  1
  O  O18  1  0.228713  0.887230  0.222668  1
  O  O19  1  0.065176  0.117250  0.644236  1
  O  O20  1  0.118300  0.321190  0.339095  1
  O  O21  1  0.276522  0.417764  0.709242  1
  O  O22  1  0.168497  0.527258  0.219959  1
  O  O23  1  0.473478  0.682720  0.641242  1
  O  O24  1  0.276987  0.132750  0.447927  1
  O  O25  1  0.442701  0.722742  0.141239  1
  O  O26  1  0.684824  0.829059  0.552073  1
  O  O27  1  0.587469  0.929428  0.048787  1
  O  O28  1  0.473013  0.420941  0.355764  1
  O  O29  1  0.581503  0.301462  0.858761  1
  O  O30  1  0.631700  0.470796  0.702891  1
  O  O31  1  0.767905  0.928810  0.297109  1
  O  O32  1  0.880641  0.538682  0.951213  1
  O  O33  1  0.521287  0.243955  0.158517  1
  O  O34  1  0.708522  0.567280  0.290758  1
  O  O35  1  0.664562  0.006045  0.777332  1
  O  O36  1  0.982095  0.779204  0.660905  1
  O  O37  1  0.869359  0.320572  0.158041  1
