# generated using pymatgen
data_Li6Mn3Ni(PO4)6
_symmetry_space_group_name_H-M   'P 1'
_cell_length_a   8.49806479
_cell_length_b   8.57857624
_cell_length_c   8.51006293
_cell_angle_alpha   61.60054735
_cell_angle_beta   61.81406950
_cell_angle_gamma   62.31215272
_symmetry_Int_Tables_number   1
_chemical_formula_structural   Li6Mn3Ni(PO4)6
_chemical_formula_sum   'Li6 Mn3 Ni1 P6 O24'
_cell_volume   457.39334179
_cell_formula_units_Z   1
loop_
 _symmetry_equiv_pos_site_id
 _symmetry_equiv_pos_as_xyz
  1  'x, y, z'
loop_
 _atom_site_type_symbol
 _atom_site_label
 _atom_site_symmetry_multiplicity
 _atom_site_fract_x
 _atom_site_fract_y
 _atom_site_fract_z
 _atom_site_occupancy
  Li  Li0  1  0.013079  0.000369  0.995473  1
  Li  Li1  1  0.751416  0.147465  0.347541  1
  Li  Li2  1  0.477055  0.505550  0.502007  1
  Li  Li3  1  0.220153  0.852101  0.660892  1
  Li  Li4  1  0.666052  0.220116  0.834614  1
  Li  Li5  1  0.845392  0.659888  0.222650  1
  Mn  Mn6  1  0.144139  0.140903  0.138604  1
  Mn  Mn7  1  0.359221  0.362247  0.354524  1
  Mn  Mn8  1  0.640799  0.650917  0.647641  1
  Ni  Ni9  1  0.854953  0.852914  0.853101  1
  P  P10  1  0.050724  0.746727  0.451159  1
  P  P11  1  0.444472  0.058702  0.750942  1
  P  P12  1  0.745776  0.457058  0.046938  1
  P  P13  1  0.250653  0.540301  0.962009  1
  P  P14  1  0.548616  0.966127  0.252689  1
  P  P15  1  0.964459  0.244855  0.531906  1
  O  O16  1  0.137125  0.294920  0.484505  1
  O  O17  1  0.312970  0.505334  0.121965  1
  O  O18  1  0.053053  0.912968  0.262795  1
  O  O19  1  0.531952  0.126986  0.303480  1
  O  O20  1  0.240194  0.583494  0.432333  1
  O  O21  1  0.032835  0.799072  0.608805  1
  O  O22  1  0.251938  0.080167  0.910582  1
  O  O23  1  0.442923  0.246285  0.577189  1
  O  O24  1  0.581426  0.438912  0.244063  1
  O  O25  1  0.200132  0.378021  0.992605  1
  O  O26  1  0.089159  0.728233  0.949798  1
  O  O27  1  0.377142  0.999509  0.215745  1
  O  O28  1  0.606857  0.032910  0.803479  1
  O  O29  1  0.889673  0.260315  0.073222  1
  O  O30  1  0.804678  0.609399  0.028628  1
  O  O31  1  0.408582  0.569568  0.763154  1
  O  O32  1  0.573111  0.769873  0.413638  1
  O  O33  1  0.736064  0.947367  0.086967  1
  O  O34  1  0.979627  0.193906  0.372204  1
  O  O35  1  0.772855  0.398980  0.561539  1
  O  O36  1  0.469107  0.901791  0.695908  1
  O  O37  1  0.957672  0.080966  0.722180  1
  O  O38  1  0.687418  0.496520  0.882773  1
  O  O39  1  0.886545  0.687266  0.490757  1
