# generated using pymatgen
data_Ba4LiNb3O12
_symmetry_space_group_name_H-M   'P 1'
_cell_length_a   5.88214627
_cell_length_b   10.21268493
_cell_length_c   19.35707882
_cell_angle_alpha   90.00003102
_cell_angle_beta   90.00007165
_cell_angle_gamma   89.99977153
_symmetry_Int_Tables_number   1
_chemical_formula_structural   Ba4LiNb3O12
_chemical_formula_sum   'Ba16 Li4 Nb12 O48'
_cell_volume   1162.82824454
_cell_formula_units_Z   4
loop_
 _symmetry_equiv_pos_site_id
 _symmetry_equiv_pos_as_xyz
  1  'x, y, z'
loop_
 _atom_site_type_symbol
 _atom_site_label
 _atom_site_symmetry_multiplicity
 _atom_site_fract_x
 _atom_site_fract_y
 _atom_site_fract_z
 _atom_site_occupancy
  Ba  Ba0  1  0.000019  0.322038  0.133183  1
  Ba  Ba1  1  0.999991  0.334425  0.751442  1
  Ba  Ba2  1  0.999997  0.002317  0.001659  1
  Ba  Ba3  1  0.000007  0.343476  0.361069  1
  Ba  Ba4  1  0.000006  0.997705  0.501642  1
  Ba  Ba5  1  0.000007  0.665581  0.251440  1
  Ba  Ba6  1  0.999998  0.656535  0.861071  1
  Ba  Ba7  1  0.999979  0.677973  0.633184  1
  Ba  Ba8  1  0.500005  0.843495  0.138935  1
  Ba  Ba9  1  0.499989  0.834431  0.748555  1
  Ba  Ba10  1  0.500007  0.165584  0.248559  1
  Ba  Ba11  1  0.499990  0.177964  0.866818  1
  Ba  Ba12  1  0.499996  0.156539  0.638928  1
  Ba  Ba13  1  0.499994  0.502306  0.498356  1
  Ba  Ba14  1  0.500000  0.497703  0.998360  1
  Ba  Ba15  1  0.500012  0.822038  0.366816  1
  Li  Li16  1  0.999998  0.000726  0.166761  1
  Li  Li17  1  0.999992  0.999284  0.666763  1
  Li  Li18  1  0.499999  0.499281  0.833238  1
  Li  Li19  1  0.499996  0.500720  0.333237  1
  Nb  Nb20  1  0.999989  0.330663  0.564215  1
  Nb  Nb21  1  0.000026  0.998542  0.309777  1
  Nb  Nb22  1  0.999980  0.001469  0.809781  1
  Nb  Nb23  1  0.000002  0.336643  0.936994  1
  Nb  Nb24  1  0.000000  0.663360  0.436993  1
  Nb  Nb25  1  0.000007  0.669352  0.064214  1
  Nb  Nb26  1  0.499999  0.836648  0.563006  1
  Nb  Nb27  1  0.500014  0.498542  0.190221  1
  Nb  Nb28  1  0.500006  0.163357  0.063007  1
  Nb  Nb29  1  0.500002  0.169344  0.435782  1
  Nb  Nb30  1  0.499988  0.501475  0.690221  1
  Nb  Nb31  1  0.499997  0.830659  0.935788  1
  O  O32  1  0.000011  0.834534  0.380491  1
  O  O33  1  0.000005  0.497466  0.999503  1
  O  O34  1  0.000003  0.502537  0.499502  1
  O  O35  1  0.999987  0.176935  0.620743  1
  O  O36  1  0.999985  0.165471  0.880488  1
  O  O37  1  0.000007  0.823065  0.120741  1
  O  O38  1  0.000018  0.159460  0.259102  1
  O  O39  1  0.000023  0.840550  0.759098  1
  O  O40  1  0.239664  0.079241  0.758027  1
  O  O41  1  0.239740  0.920778  0.258031  1
  O  O42  1  0.245854  0.416150  0.619090  1
  O  O43  1  0.238271  0.410647  0.879290  1
  O  O44  1  0.245864  0.583847  0.119089  1
  O  O45  1  0.238284  0.589354  0.379293  1
  O  O46  1  0.249983  0.249991  0.999999  1
  O  O47  1  0.249989  0.250002  0.499997  1
  O  O48  1  0.250004  0.749997  0.999997  1
  O  O49  1  0.250020  0.749998  0.499996  1
  O  O50  1  0.254141  0.916154  0.880911  1
  O  O51  1  0.261718  0.910651  0.620707  1
  O  O52  1  0.261721  0.089359  0.120709  1
  O  O53  1  0.254156  0.083849  0.380911  1
  O  O54  1  0.260269  0.579215  0.741974  1
  O  O55  1  0.260345  0.420780  0.241982  1
  O  O56  1  0.500002  0.323068  0.379256  1
  O  O57  1  0.500001  0.002529  0.000501  1
  O  O58  1  0.500005  0.997475  0.500498  1
  O  O59  1  0.500002  0.334531  0.119512  1
  O  O60  1  0.500001  0.676932  0.879259  1
  O  O61  1  0.499979  0.665473  0.619510  1
  O  O62  1  0.500027  0.340550  0.740900  1
  O  O63  1  0.500008  0.659465  0.240899  1
  O  O64  1  0.739666  0.579243  0.741974  1
  O  O65  1  0.739737  0.420787  0.241969  1
  O  O66  1  0.745862  0.916153  0.880912  1
  O  O67  1  0.738276  0.910647  0.620708  1
  O  O68  1  0.745859  0.083854  0.380908  1
  O  O69  1  0.738279  0.089355  0.120705  1
  O  O70  1  0.750005  0.750000  -0.000001  1
  O  O71  1  0.750016  0.750005  0.500004  1
  O  O72  1  0.749982  0.250003  0.999996  1
  O  O73  1  0.749996  0.250005  0.500000  1
  O  O74  1  0.754144  0.416160  0.619087  1
  O  O75  1  0.761710  0.410651  0.879294  1
  O  O76  1  0.754154  0.583850  0.119090  1
  O  O77  1  0.761722  0.589362  0.379292  1
  O  O78  1  0.760273  0.079213  0.758024  1
  O  O79  1  0.760348  0.920779  0.258018  1
