# generated using pymatgen
data_LiSbWO6
_symmetry_space_group_name_H-M   'P 1'
_cell_length_a   7.31717362
_cell_length_b   7.31717398
_cell_length_c   7.20867007
_cell_angle_alpha   60.48207115
_cell_angle_beta   119.51793747
_cell_angle_gamma   119.01438389
_symmetry_Int_Tables_number   1
_chemical_formula_structural   LiSbWO6
_chemical_formula_sum   'Li2 Sb2 W2 O12'
_cell_volume   276.90528492
_cell_formula_units_Z   2
loop_
 _symmetry_equiv_pos_site_id
 _symmetry_equiv_pos_as_xyz
  1  'x, y, z'
loop_
 _atom_site_type_symbol
 _atom_site_label
 _atom_site_symmetry_multiplicity
 _atom_site_fract_x
 _atom_site_fract_y
 _atom_site_fract_z
 _atom_site_occupancy
  Li  Li0  1  0.125000  0.375000  0.375000  1
  Li  Li1  1  0.625000  0.875000  0.375000  1
  Sb  Sb2  1  0.125000  0.875000  0.375000  1
  Sb  Sb3  1  0.125000  0.875000  0.875000  1
  W  W4  1  0.125000  0.375000  0.875000  1
  W  W5  1  0.625000  0.875000  0.875000  1
  O  O6  1  0.190967  0.196383  0.191364  1
  O  O7  1  0.209366  0.790634  0.209370  1
  O  O8  1  0.040634  0.959366  0.540630  1
  O  O9  1  0.059033  0.553617  0.558636  1
  O  O10  1  0.058968  0.553577  0.946735  1
  O  O11  1  0.446383  0.940967  0.558636  1
  O  O12  1  0.803617  0.809033  0.191364  1
  O  O13  1  0.191032  0.196423  0.803265  1
  O  O14  1  0.429871  0.570129  0.930092  1
  O  O15  1  0.446423  0.941032  0.946735  1
  O  O16  1  0.803577  0.808968  0.803265  1
  O  O17  1  0.820129  0.179871  0.819908  1
