# generated using pymatgen
data_Li4Fe5(NiO6)2
_symmetry_space_group_name_H-M   'P 1'
_cell_length_a   5.17242000
_cell_length_b   8.87294043
_cell_length_c   9.76634947
_cell_angle_alpha   90.00000133
_cell_angle_beta   99.21343773
_cell_angle_gamma   90.00000586
_symmetry_Int_Tables_number   1
_chemical_formula_structural   Li4Fe5(NiO6)2
_chemical_formula_sum   'Li8 Fe10 Ni4 O24'
_cell_volume   442.43981980
_cell_formula_units_Z   2
loop_
 _symmetry_equiv_pos_site_id
 _symmetry_equiv_pos_as_xyz
  1  'x, y, z'
loop_
 _atom_site_type_symbol
 _atom_site_label
 _atom_site_symmetry_multiplicity
 _atom_site_fract_x
 _atom_site_fract_y
 _atom_site_fract_z
 _atom_site_occupancy
  Li  Li0  1  0.241772  0.093695  0.995329  1
  Li  Li1  1  0.762866  0.084113  0.506764  1
  Li  Li2  1  0.490434  0.416287  0.752976  1
  Li  Li3  1  0.748225  0.410332  0.505387  1
  Li  Li4  1  0.258228  0.593695  0.504671  1
  Li  Li5  1  0.737134  0.584113  0.993236  1
  Li  Li6  1  0.009566  0.916287  0.747024  1
  Li  Li7  1  0.751775  0.910332  0.994613  1
  Fe  Fe8  1  0.995428  0.081586  0.252327  1
  Fe  Fe9  1  0.502521  0.078128  0.746741  1
  Fe  Fe10  1  0.258007  0.248549  0.505981  1
  Fe  Fe11  1  0.008925  0.419758  0.246211  1
  Fe  Fe12  1  0.738465  0.257140  0.990129  1
  Fe  Fe13  1  0.997479  0.578128  0.753259  1
  Fe  Fe14  1  0.504572  0.581586  0.247673  1
  Fe  Fe15  1  0.241993  0.748549  0.994019  1
  Fe  Fe16  1  0.761535  0.757140  0.509871  1
  Fe  Fe17  1  0.491075  0.919758  0.253789  1
  Ni  Ni18  1  0.004722  0.251484  0.753795  1
  Ni  Ni19  1  0.496157  0.253143  0.243525  1
  Ni  Ni20  1  0.003843  0.753143  0.256475  1
  Ni  Ni21  1  0.495278  0.751484  0.746205  1
  O  O22  1  0.128121  0.103530  0.637811  1
  O  O23  1  0.360361  0.091661  0.363479  1
  O  O24  1  0.101327  0.246048  0.130186  1
  O  O25  1  0.396247  0.232513  0.873527  1
  O  O26  1  0.637236  0.084229  0.129788  1
  O  O27  1  0.872760  0.099436  0.867835  1
  O  O28  1  0.606415  0.238276  0.618106  1
  O  O29  1  0.113050  0.403905  0.634065  1
  O  O30  1  0.365185  0.416421  0.370080  1
  O  O31  1  0.894519  0.251846  0.372830  1
  O  O32  1  0.651623  0.418075  0.130765  1
  O  O33  1  0.139639  0.591661  0.136521  1
  O  O34  1  0.866060  0.404684  0.859549  1
  O  O35  1  0.371879  0.603530  0.862189  1
  O  O36  1  0.103753  0.732513  0.626473  1
  O  O37  1  0.627240  0.599436  0.632165  1
  O  O38  1  0.862764  0.584229  0.370212  1
  O  O39  1  0.398673  0.746049  0.369814  1
  O  O40  1  0.605481  0.751846  0.127170  1
  O  O41  1  0.134815  0.916421  0.129920  1
  O  O42  1  0.386950  0.903905  0.865935  1
  O  O43  1  0.893585  0.738276  0.881894  1
  O  O44  1  0.633940  0.904684  0.640451  1
  O  O45  1  0.848377  0.918075  0.369235  1
