# generated using pymatgen
data_CrH10SNO10
_symmetry_space_group_name_H-M   'P 1'
_cell_length_a   12.23891188
_cell_length_b   6.97357865
_cell_length_c   11.51933969
_cell_angle_alpha   90.00000000
_cell_angle_beta   110.18022775
_cell_angle_gamma   90.00000000
_symmetry_Int_Tables_number   1
_chemical_formula_structural   CrH10SNO10
_chemical_formula_sum   'Cr4 H40 S4 N4 O40'
_cell_volume   922.80992592
_cell_formula_units_Z   4
loop_
 _symmetry_equiv_pos_site_id
 _symmetry_equiv_pos_as_xyz
  1  'x, y, z'
loop_
 _atom_site_type_symbol
 _atom_site_label
 _atom_site_symmetry_multiplicity
 _atom_site_fract_x
 _atom_site_fract_y
 _atom_site_fract_z
 _atom_site_occupancy
  Cr  Cr0  1  0.013250  0.759252  0.285583  1
  Cr  Cr1  1  0.513250  0.740748  0.785583  1
  Cr  Cr2  1  0.986750  0.240748  0.714417  1
  Cr  Cr3  1  0.486750  0.259252  0.214417  1
  H  H4  1  0.998907  0.747974  0.049940  1
  H  H5  1  0.498907  0.752026  0.549940  1
  H  H6  1  0.001093  0.252026  0.950060  1
  H  H7  1  0.501093  0.247974  0.450060  1
  H  H8  1  0.890562  0.619438  0.064038  1
  H  H9  1  0.390562  0.880562  0.564038  1
  H  H10  1  0.109438  0.380562  0.935962  1
  H  H11  1  0.609438  0.119438  0.435962  1
  H  H12  1  0.211161  0.717561  0.238211  1
  H  H13  1  0.711161  0.782439  0.738211  1
  H  H14  1  0.788839  0.282439  0.761789  1
  H  H15  1  0.288839  0.217561  0.261789  1
  H  H16  1  0.201201  0.538126  0.326386  1
  H  H17  1  0.701201  0.961874  0.826386  1
  H  H18  1  0.798799  0.461874  0.673614  1
  H  H19  1  0.298799  0.038126  0.173614  1
  H  H20  1  0.008225  0.088941  0.165780  1
  H  H21  1  0.508225  0.411059  0.665780  1
  H  H22  1  0.991775  0.911059  0.834220  1
  H  H23  1  0.491775  0.588941  0.334220  1
  H  H24  1  0.112070  0.114086  0.297337  1
  H  H25  1  0.612070  0.385914  0.797337  1
  H  H26  1  0.887930  0.885914  0.702663  1
  H  H27  1  0.387930  0.614086  0.202663  1
  H  H28  1  0.152868  0.926326  0.488443  1
  H  H29  1  0.652868  0.573674  0.988443  1
  H  H30  1  0.847132  0.073674  0.511557  1
  H  H31  1  0.347132  0.426326  0.011557  1
  H  H32  1  0.073034  0.777962  0.532824  1
  H  H33  1  0.573034  0.722038  0.032824  1
  H  H34  1  0.926966  0.222038  0.467176  1
  H  H35  1  0.426966  0.277962  0.967176  1
  H  H36  1  0.807617  0.813082  0.309856  1
  H  H37  1  0.307617  0.686918  0.809856  1
  H  H38  1  0.192383  0.186918  0.690144  1
  H  H39  1  0.692383  0.313082  0.190144  1
  H  H40  1  0.816519  0.972554  0.208037  1
  H  H41  1  0.316519  0.527446  0.708037  1
  H  H42  1  0.183481  0.027446  0.791963  1
  H  H43  1  0.683481  0.472554  0.291963  1
  S  S44  1  0.205681  0.749408  0.990305  1
  S  S45  1  0.705681  0.750592  0.490305  1
  S  S46  1  0.794319  0.250592  0.009695  1
  S  S47  1  0.294319  0.249408  0.509695  1
  N  N48  1  0.970385  0.526692  0.321199  1
  N  N49  1  0.470385  0.973308  0.821199  1
  N  N50  1  0.029615  0.473308  0.678801  1
  N  N51  1  0.529615  0.026692  0.178801  1
  O  O52  1  0.946962  0.725861  0.099207  1
  O  O53  1  0.446962  0.774139  0.599207  1
  O  O54  1  0.053038  0.274139  0.900793  1
  O  O55  1  0.553038  0.225861  0.400793  1
  O  O56  1  0.177469  0.672627  0.300325  1
  O  O57  1  0.677469  0.827373  0.800325  1
  O  O58  1  0.822531  0.327373  0.699675  1
  O  O59  1  0.322531  0.172626  0.199675  1
  O  O60  1  0.066289  0.019117  0.236258  1
  O  O61  1  0.566289  0.480883  0.736258  1
  O  O62  1  0.933711  0.980883  0.763742  1
  O  O63  1  0.433711  0.519117  0.263742  1
  O  O64  1  0.078148  0.853198  0.462735  1
  O  O65  1  0.578148  0.646802  0.962735  1
  O  O66  1  0.921852  0.146802  0.537265  1
  O  O67  1  0.421852  0.353198  0.037265  1
  O  O68  1  0.860045  0.888390  0.277980  1
  O  O69  1  0.360045  0.611610  0.777980  1
  O  O70  1  0.139955  0.111610  0.722020  1
  O  O71  1  0.639955  0.388390  0.222020  1
  O  O72  1  0.940728  0.365834  0.337574  1
  O  O73  1  0.440728  0.134166  0.837574  1
  O  O74  1  0.059272  0.634166  0.662426  1
  O  O75  1  0.559272  0.865834  0.162426  1
  O  O76  1  0.079784  0.795374  0.960793  1
  O  O77  1  0.579784  0.704626  0.460793  1
  O  O78  1  0.920216  0.204626  0.039207  1
  O  O79  1  0.420216  0.295374  0.539207  1
  O  O80  1  0.219925  0.537817  0.978082  1
  O  O81  1  0.719925  0.962183  0.478082  1
  O  O82  1  0.780075  0.462183  0.021918  1
  O  O83  1  0.280075  0.037817  0.521918  1
  O  O84  1  0.271995  0.801302  0.123683  1
  O  O85  1  0.771995  0.698698  0.623683  1
  O  O86  1  0.728005  0.198698  0.876317  1
  O  O87  1  0.228005  0.301302  0.376317  1
  O  O88  1  0.252902  0.854090  0.906100  1
  O  O89  1  0.752902  0.645910  0.406100  1
  O  O90  1  0.747098  0.145910  0.093900  1
  O  O91  1  0.247098  0.354090  0.593900  1
