# generated using pymatgen
data_LiCrPO4
_symmetry_space_group_name_H-M   'P 1'
_cell_length_a   7.27195600
_cell_length_b   10.13270672
_cell_length_c   4.78863311
_cell_angle_alpha   90.00000000
_cell_angle_beta   95.76621381
_cell_angle_gamma   90.00000000
_symmetry_Int_Tables_number   1
_chemical_formula_structural   LiCrPO4
_chemical_formula_sum   'Li4 Cr4 P4 O16'
_cell_volume   351.06313379
_cell_formula_units_Z   4
loop_
 _symmetry_equiv_pos_site_id
 _symmetry_equiv_pos_as_xyz
  1  'x, y, z'
loop_
 _atom_site_type_symbol
 _atom_site_label
 _atom_site_symmetry_multiplicity
 _atom_site_fract_x
 _atom_site_fract_y
 _atom_site_fract_z
 _atom_site_occupancy
  Li  Li0  1  0.247028  0.309735  0.264584  1
  Li  Li1  1  0.250710  0.731434  0.657764  1
  Li  Li2  1  0.749290  0.231434  0.342236  1
  Li  Li3  1  0.752972  0.809735  0.735416  1
  Cr  Cr4  1  0.065567  0.008954  0.174264  1
  Cr  Cr5  1  0.446993  0.082551  0.737359  1
  Cr  Cr6  1  0.553007  0.582551  0.262641  1
  Cr  Cr7  1  0.934433  0.508954  0.825736  1
  P  P8  1  0.051123  0.206494  0.796637  1
  P  P9  1  0.480056  0.901586  0.275269  1
  P  P10  1  0.519944  0.401586  0.724731  1
  P  P11  1  0.948877  0.706494  0.203363  1
  O  O12  1  0.086590  0.347994  0.908662  1
  O  O13  1  0.032891  0.200577  0.474727  1
  O  O14  1  0.111806  0.634813  0.080651  1
  O  O15  1  0.227019  0.131021  0.945408  1
  O  O16  1  0.280229  0.903681  0.373595  1
  O  O17  1  0.430451  0.274256  0.591613  1
  O  O18  1  0.475663  0.900769  0.951415  1
  O  O19  1  0.412754  0.525055  0.597734  1
  O  O20  1  0.587246  0.025055  0.402266  1
  O  O21  1  0.524337  0.400769  0.048585  1
  O  O22  1  0.569549  0.774256  0.408387  1
  O  O23  1  0.719771  0.403681  0.626405  1
  O  O24  1  0.772981  0.631021  0.054592  1
  O  O25  1  0.888194  0.134813  0.919349  1
  O  O26  1  0.967109  0.700577  0.525273  1
  O  O27  1  0.913410  0.847994  0.091338  1
