# generated using pymatgen
data_LiFe6O7F5
_symmetry_space_group_name_H-M   'P 1'
_cell_length_a   6.09873656
_cell_length_b   5.85159471
_cell_length_c   6.03869681
_cell_angle_alpha   98.77386173
_cell_angle_beta   100.22655895
_cell_angle_gamma   99.97609011
_symmetry_Int_Tables_number   1
_chemical_formula_structural   LiFe6O7F5
_chemical_formula_sum   'Li1 Fe6 O7 F5'
_cell_volume   205.10576345
_cell_formula_units_Z   1
loop_
 _symmetry_equiv_pos_site_id
 _symmetry_equiv_pos_as_xyz
  1  'x, y, z'
loop_
 _atom_site_type_symbol
 _atom_site_label
 _atom_site_symmetry_multiplicity
 _atom_site_fract_x
 _atom_site_fract_y
 _atom_site_fract_z
 _atom_site_occupancy
  Li  Li0  1  0.995543  0.992742  0.982707  1
  Fe  Fe1  1  0.135059  0.298201  0.611916  1
  Fe  Fe2  1  0.372159  0.850467  0.651254  1
  Fe  Fe3  1  0.349579  0.602307  0.154578  1
  Fe  Fe4  1  0.654584  0.400560  0.856131  1
  Fe  Fe5  1  0.609927  0.147222  0.345492  1
  Fe  Fe6  1  0.872878  0.674782  0.412704  1
  O  O7  1  0.069050  0.928385  0.657805  1
  O  O8  1  0.176437  0.571570  0.403119  1
  O  O9  1  0.410571  0.592647  0.829927  1
  O  O10  1  0.416104  0.188430  0.575399  1
  O  O11  1  0.594265  0.820661  0.418667  1
  O  O12  1  0.590085  0.404267  0.177466  1
  O  O13  1  0.833342  0.413287  0.607187  1
  F  F14  1  0.114976  0.319114  0.959494  1
  F  F15  1  0.316038  0.941712  0.117543  1
  F  F16  1  0.671906  0.055037  0.884867  1
  F  F17  1  0.888047  0.682932  0.056268  1
  F  F18  1  0.929453  0.115680  0.297480  1
