# generated using pymatgen
data_Li6VSn3(PO4)6
_symmetry_space_group_name_H-M   'P 1'
_cell_length_a   8.60393510
_cell_length_b   8.64903080
_cell_length_c   8.63187935
_cell_angle_alpha   64.24934925
_cell_angle_beta   64.41086544
_cell_angle_gamma   64.53823067
_symmetry_Int_Tables_number   1
_chemical_formula_structural   Li6VSn3(PO4)6
_chemical_formula_sum   'Li6 V1 Sn3 P6 O24'
_cell_volume   498.06544452
_cell_formula_units_Z   1
loop_
 _symmetry_equiv_pos_site_id
 _symmetry_equiv_pos_as_xyz
  1  'x, y, z'
loop_
 _atom_site_type_symbol
 _atom_site_label
 _atom_site_symmetry_multiplicity
 _atom_site_fract_x
 _atom_site_fract_y
 _atom_site_fract_z
 _atom_site_occupancy
  Li  Li0  1  0.024866  0.985543  0.981856  1
  Li  Li1  1  0.746579  0.155235  0.368768  1
  Li  Li2  1  0.478982  0.518559  0.516741  1
  Li  Li3  1  0.230731  0.852023  0.676243  1
  Li  Li4  1  0.684474  0.228448  0.854690  1
  Li  Li5  1  0.850687  0.681304  0.229955  1
  V  V6  1  0.847580  0.847498  0.845636  1
  Sn  Sn7  1  0.146202  0.148097  0.143261  1
  Sn  Sn8  1  0.357390  0.362747  0.354209  1
  Sn  Sn9  1  0.665793  0.664567  0.665328  1
  P  P10  1  0.073404  0.746126  0.420593  1
  P  P11  1  0.420616  0.070885  0.745179  1
  P  P12  1  0.747293  0.427080  0.066376  1
  P  P13  1  0.242578  0.553461  0.957142  1
  P  P14  1  0.557604  0.963706  0.243921  1
  P  P15  1  0.953983  0.241597  0.548953  1
  O  O16  1  0.119944  0.302538  0.492766  1
  O  O17  1  0.317696  0.515136  0.108388  1
  O  O18  1  0.093733  0.907614  0.241180  1
  O  O19  1  0.541094  0.113084  0.312130  1
  O  O20  1  0.262982  0.599415  0.415958  1
  O  O21  1  0.015838  0.802181  0.587689  1
  O  O22  1  0.240290  0.101872  0.901719  1
  O  O23  1  0.425762  0.256770  0.590935  1
  O  O24  1  0.603934  0.413198  0.261077  1
  O  O25  1  0.172029  0.397344  0.005096  1
  O  O26  1  0.084872  0.733385  0.949330  1
  O  O27  1  0.385167  0.022716  0.193469  1
  O  O28  1  0.590839  0.013227  0.797250  1
  O  O29  1  0.898545  0.240940  0.102531  1
  O  O30  1  0.800982  0.593122  0.012998  1
  O  O31  1  0.384894  0.577220  0.767498  1
  O  O32  1  0.579894  0.774423  0.384932  1
  O  O33  1  0.729870  0.954495  0.077854  1
  O  O34  1  0.970899  0.183210  0.393197  1
  O  O35  1  0.769244  0.387039  0.583255  1
  O  O36  1  0.406013  0.938414  0.681859  1
  O  O37  1  0.954166  0.080888  0.726300  1
  O  O38  1  0.682007  0.415704  0.933547  1
  O  O39  1  0.940542  0.678186  0.411186  1
