# generated using pymatgen
data_V3OF11
_symmetry_space_group_name_H-M   'P 1'
_cell_length_a   5.45595604
_cell_length_b   5.27322179
_cell_length_c   14.76270508
_cell_angle_alpha   89.94826309
_cell_angle_beta   100.31826270
_cell_angle_gamma   90.07914703
_symmetry_Int_Tables_number   1
_chemical_formula_structural   V3OF11
_chemical_formula_sum   'V6 O2 F22'
_cell_volume   417.86068355
_cell_formula_units_Z   2
loop_
 _symmetry_equiv_pos_site_id
 _symmetry_equiv_pos_as_xyz
  1  'x, y, z'
loop_
 _atom_site_type_symbol
 _atom_site_label
 _atom_site_symmetry_multiplicity
 _atom_site_fract_x
 _atom_site_fract_y
 _atom_site_fract_z
 _atom_site_occupancy
  V  V0  1  0.001913  0.005037  0.001318  1
  V  V1  1  0.155305  0.508215  0.333736  1
  V  V2  1  0.333241  0.000074  0.666276  1
  V  V3  1  0.500088  0.510063  0.993955  1
  V  V4  1  0.625305  0.025533  0.329772  1
  V  V5  1  0.833325  0.500197  0.666377  1
  O  O6  1  0.455000  0.580896  0.885651  1
  O  O7  1  0.374713  0.204688  0.310471  1
  F  F8  1  0.023482  0.198285  0.641935  1
  F  F9  1  0.196770  0.298208  0.975536  1
  F  F10  1  0.143358  0.698527  0.691150  1
  F  F11  1  0.043679  0.081340  0.118699  1
  F  F12  1  0.216080  0.412617  0.450581  1
  F  F13  1  0.375330  0.085540  0.784097  1
  F  F14  1  0.127863  0.577506  0.215237  1
  F  F15  1  0.293974  0.913421  0.549298  1
  F  F16  1  0.523235  0.301832  0.642118  1
  F  F17  1  0.696382  0.207595  0.975708  1
  F  F18  1  0.306350  0.792378  0.026441  1
  F  F19  1  0.469750  0.713641  0.357296  1
  F  F20  1  0.643999  0.801506  0.691588  1
  F  F21  1  0.541482  0.408025  0.115519  1
  F  F22  1  0.726523  0.072358  0.449537  1
  F  F23  1  0.876046  0.413184  0.784134  1
  F  F24  1  0.635105  0.907126  0.218054  1
  F  F25  1  0.791177  0.584960  0.549161  1
  F  F26  1  0.958386  0.911673  0.884512  1
  F  F27  1  0.857453  0.289836  0.308783  1
  F  F28  1  0.802546  0.703340  0.026056  1
  F  F29  1  0.972140  0.792398  0.357002  1
