# generated using pymatgen
data_Li4V2Si(PO6)2
_symmetry_space_group_name_H-M   'P 1'
_cell_length_a   9.00337916
_cell_length_b   9.00337916
_cell_length_c   8.49177658
_cell_angle_alpha   57.88692411
_cell_angle_beta   122.11307589
_cell_angle_gamma   119.77718376
_symmetry_Int_Tables_number   1
_chemical_formula_structural   Li4V2Si(PO6)2
_chemical_formula_sum   'Li8 V4 Si2 P4 O24'
_cell_volume   471.33905797
_cell_formula_units_Z   2
loop_
 _symmetry_equiv_pos_site_id
 _symmetry_equiv_pos_as_xyz
  1  'x, y, z'
loop_
 _atom_site_type_symbol
 _atom_site_label
 _atom_site_symmetry_multiplicity
 _atom_site_fract_x
 _atom_site_fract_y
 _atom_site_fract_z
 _atom_site_occupancy
  Li  Li0  1  0.253780  0.838611  0.755313  1
  Li  Li1  1  0.168110  0.738565  0.272707  1
  Li  Li2  1  0.997883  0.501517  0.986025  1
  Li  Li3  1  0.657894  0.657894  0.750000  1
  Li  Li4  1  0.338678  0.338678  0.250000  1
  Li  Li5  1  0.838611  0.253780  0.744687  1
  Li  Li6  1  0.501517  0.997883  0.513975  1
  Li  Li7  1  0.738565  0.168110  0.227293  1
  V  V8  1  0.642438  0.860037  0.923438  1
  V  V9  1  0.145324  0.358838  0.426516  1
  V  V10  1  0.860037  0.642438  0.576562  1
  V  V11  1  0.358838  0.145324  0.073484  1
  Si  Si12  1  0.250937  0.546811  0.749194  1
  Si  Si13  1  0.546811  0.250937  0.750806  1
  P  P14  1  0.955038  0.955038  0.750000  1
  P  P15  1  0.448999  0.750483  0.244074  1
  P  P16  1  0.045569  0.045569  0.250000  1
  P  P17  1  0.750483  0.448999  0.255926  1
  O  O18  1  0.113670  0.983265  0.940326  1
  O  O19  1  0.010217  0.889804  0.439547  1
  O  O20  1  0.093537  0.578079  0.765234  1
  O  O21  1  0.415337  0.746496  0.731939  1
  O  O22  1  0.305173  0.373957  0.952370  1
  O  O23  1  0.195208  0.519000  0.547480  1
  O  O24  1  0.762842  0.932913  0.731442  1
  O  O25  1  0.428048  0.898640  0.269957  1
  O  O26  1  0.259733  0.596604  0.222276  1
  O  O27  1  0.611352  0.688998  0.432877  1
  O  O28  1  0.479684  0.820203  0.051818  1
  O  O29  1  0.932913  0.762842  0.768558  1
  O  O30  1  0.060134  0.237592  0.224085  1
  O  O31  1  0.519000  0.195208  0.952520  1
  O  O32  1  0.373957  0.305173  0.547630  1
  O  O33  1  0.746496  0.415337  0.768061  1
  O  O34  1  0.578079  0.093537  0.734766  1
  O  O35  1  0.237592  0.060134  0.275915  1
  O  O36  1  0.820203  0.479684  0.448182  1
  O  O37  1  0.688998  0.611352  0.067123  1
  O  O38  1  0.596604  0.259733  0.277724  1
  O  O39  1  0.898640  0.428048  0.230043  1
  O  O40  1  0.983265  0.113670  0.559674  1
  O  O41  1  0.889804  0.010217  0.060453  1
