# generated using pymatgen
data_Dy2SiO5
_symmetry_space_group_name_H-M   'P 1'
_cell_length_a   8.00179389
_cell_length_b   10.62738405
_cell_length_c   8.00179389
_cell_angle_alpha   61.59917309
_cell_angle_beta   129.41513010
_cell_angle_gamma   118.40082691
_symmetry_Int_Tables_number   1
_chemical_formula_structural   Dy2SiO5
_chemical_formula_sum   'Dy8 Si4 O20'
_cell_volume   447.07686232
_cell_formula_units_Z   4
loop_
 _symmetry_equiv_pos_site_id
 _symmetry_equiv_pos_as_xyz
  1  'x, y, z'
loop_
 _atom_site_type_symbol
 _atom_site_label
 _atom_site_symmetry_multiplicity
 _atom_site_fract_x
 _atom_site_fract_y
 _atom_site_fract_z
 _atom_site_occupancy
  Dy  Dy0  1  0.466771  0.658931  0.754988  1
  Dy  Dy1  1  0.295987  0.976079  0.214497  1
  Dy  Dy2  1  0.214497  0.523921  0.295987  1
  Dy  Dy3  1  0.245012  0.158931  0.533229  1
  Dy  Dy4  1  0.754988  0.841069  0.466771  1
  Dy  Dy5  1  0.785503  0.476079  0.704013  1
  Dy  Dy6  1  0.704013  0.023921  0.785503  1
  Dy  Dy7  1  0.533229  0.341069  0.245012  1
  Si  Si8  1  0.271891  0.805924  0.908862  1
  Si  Si9  1  0.091138  0.305924  0.728109  1
  Si  Si10  1  0.908862  0.694076  0.271891  1
  Si  Si11  1  0.728109  0.194076  0.091138  1
  O  O12  1  0.122322  0.926766  0.717231  1
  O  O13  1  0.107970  0.637144  0.929048  1
  O  O14  1  0.446591  0.819178  0.854701  1
  O  O15  1  0.282769  0.426766  0.877678  1
  O  O16  1  0.070952  0.137144  0.892030  1
  O  O17  1  0.154152  0.661069  0.406254  1
  O  O18  1  0.145299  0.319178  0.553409  1
  O  O19  1  0.601646  0.892316  0.573905  1
  O  O20  1  0.573905  0.607684  0.601646  1
  O  O21  1  0.593746  0.161069  0.845848  1
  O  O22  1  0.406254  0.838931  0.154152  1
  O  O23  1  0.426095  0.392316  0.398355  1
  O  O24  1  0.398355  0.107684  0.426095  1
  O  O25  1  0.854701  0.680822  0.446591  1
  O  O26  1  0.845848  0.338931  0.593746  1
  O  O27  1  0.929048  0.862856  0.107970  1
  O  O28  1  0.717231  0.573234  0.122322  1
  O  O29  1  0.553409  0.180822  0.145299  1
  O  O30  1  0.892030  0.362856  0.070952  1
  O  O31  1  0.877678  0.073234  0.282769  1
