# generated using pymatgen
data_Li2Fe3CuO8
_symmetry_space_group_name_H-M   'P 1'
_cell_length_a   8.37760686
_cell_length_b   8.41644467
_cell_length_c   8.30721598
_cell_angle_alpha   89.84301368
_cell_angle_beta   90.05864758
_cell_angle_gamma   90.01071349
_symmetry_Int_Tables_number   1
_chemical_formula_structural   Li2Fe3CuO8
_chemical_formula_sum   'Li8 Fe12 Cu4 O32'
_cell_volume   585.73649672
_cell_formula_units_Z   4
loop_
 _symmetry_equiv_pos_site_id
 _symmetry_equiv_pos_as_xyz
  1  'x, y, z'
loop_
 _atom_site_type_symbol
 _atom_site_label
 _atom_site_symmetry_multiplicity
 _atom_site_fract_x
 _atom_site_fract_y
 _atom_site_fract_z
 _atom_site_occupancy
  Li  Li0  1  0.121150  0.876240  0.376393  1
  Li  Li1  1  0.249349  0.752954  0.747689  1
  Li  Li2  1  0.249157  0.249998  0.247000  1
  Li  Li3  1  0.377996  0.121749  0.878560  1
  Li  Li4  1  0.623902  0.623136  0.621704  1
  Li  Li5  1  0.750879  0.748941  0.250185  1
  Li  Li6  1  0.751521  0.252121  0.750797  1
  Li  Li7  1  0.876986  0.378728  0.122992  1
  Fe  Fe8  1  0.122161  0.624231  0.122276  1
  Fe  Fe9  1  0.121611  0.376390  0.880021  1
  Fe  Fe10  1  0.123626  0.119641  0.624217  1
  Fe  Fe11  1  0.375513  0.879180  0.121923  1
  Fe  Fe12  1  0.375946  0.622591  0.378284  1
  Fe  Fe13  1  0.379015  0.376265  0.623932  1
  Fe  Fe14  1  0.620686  0.875401  0.877672  1
  Fe  Fe15  1  0.622542  0.123768  0.120497  1
  Fe  Fe16  1  0.625401  0.380894  0.376586  1
  Fe  Fe17  1  0.877987  0.621608  0.877603  1
  Fe  Fe18  1  0.878097  0.875407  0.620879  1
  Fe  Fe19  1  0.880190  0.123651  0.375565  1
  Cu  Cu20  1  0.996822  0.502164  0.499112  1
  Cu  Cu21  1  0.505442  0.497306  0.995644  1
  Cu  Cu22  1  0.494937  0.996037  0.504205  1
  Cu  Cu23  1  0.002781  0.000933  0.003485  1
  O  O24  1  0.103575  0.126136  0.386078  1
  O  O25  1  0.106858  0.893182  0.628649  1
  O  O26  1  0.112827  0.616302  0.883830  1
  O  O27  1  0.125989  0.397800  0.106721  1
  O  O28  1  0.119877  0.145018  0.869634  1
  O  O29  1  0.132755  0.364395  0.640127  1
  O  O30  1  0.138574  0.619459  0.356170  1
  O  O31  1  0.138840  0.854886  0.118502  1
  O  O32  1  0.357320  0.136485  0.620073  1
  O  O33  1  0.361538  0.382281  0.861248  1
  O  O34  1  0.361540  0.632895  0.137728  1
  O  O35  1  0.378361  0.852847  0.363664  1
  O  O36  1  0.371661  0.611819  0.600635  1
  O  O37  1  0.382148  0.390304  0.382897  1
  O  O38  1  0.393163  0.106309  0.129603  1
  O  O39  1  0.395275  0.871087  0.887791  1
  O  O40  1  0.609036  0.374346  0.604239  1
  O  O41  1  0.603489  0.608834  0.371617  1
  O  O42  1  0.615869  0.882803  0.113295  1
  O  O43  1  0.627006  0.112075  0.896524  1
  O  O44  1  0.623910  0.361571  0.141018  1
  O  O45  1  0.638506  0.133802  0.361927  1
  O  O46  1  0.639830  0.879015  0.642955  1
  O  O47  1  0.647689  0.633061  0.882269  1
  O  O48  1  0.860647  0.363343  0.377571  1
  O  O49  1  0.860795  0.121338  0.139163  1
  O  O50  1  0.863853  0.859542  0.864815  1
  O  O51  1  0.880042  0.640905  0.639940  1
  O  O52  1  0.872768  0.888507  0.396437  1
  O  O53  1  0.885376  0.113385  0.616567  1
  O  O54  1  0.890129  0.399660  0.873454  1
  O  O55  1  0.897057  0.627352  0.107718  1
