# generated using pymatgen
data_Li4V3P8O29
_symmetry_space_group_name_H-M   'P 1'
_cell_length_a   9.75540113
_cell_length_b   9.75248861
_cell_length_c   14.29849425
_cell_angle_alpha   90.19390858
_cell_angle_beta   90.30320951
_cell_angle_gamma   60.39215038
_symmetry_Int_Tables_number   1
_chemical_formula_structural   Li4V3P8O29
_chemical_formula_sum   'Li8 V6 P16 O58'
_cell_volume   1182.70895498
_cell_formula_units_Z   2
loop_
 _symmetry_equiv_pos_site_id
 _symmetry_equiv_pos_as_xyz
  1  'x, y, z'
loop_
 _atom_site_type_symbol
 _atom_site_label
 _atom_site_symmetry_multiplicity
 _atom_site_fract_x
 _atom_site_fract_y
 _atom_site_fract_z
 _atom_site_occupancy
  Li  Li0  1  0.907505  0.331100  0.563593  1
  Li  Li1  1  0.766819  0.326151  0.061163  1
  Li  Li2  1  0.336374  0.904834  0.062710  1
  Li  Li3  1  0.333198  0.765793  0.558605  1
  Li  Li4  1  0.669806  0.093144  0.939122  1
  Li  Li5  1  0.091278  0.673641  0.438550  1
  Li  Li6  1  0.041822  0.940889  0.997229  1
  Li  Li7  1  0.945569  0.033640  0.499189  1
  V  V8  1  0.563701  0.432674  0.251537  1
  V  V9  1  0.432948  0.564244  0.751737  1
  V  V10  1  0.566921  0.996215  0.744673  1
  V  V11  1  0.435742  0.001037  0.254377  1
  V  V12  1  0.996534  0.566319  0.243711  1
  V  V13  1  0.001539  0.436111  0.752585  1
  P  P14  1  0.917284  0.782810  0.836613  1
  P  P15  1  0.783134  0.916214  0.336927  1
  P  P16  1  0.914026  0.313552  0.343857  1
  P  P17  1  0.660522  0.668988  0.132032  1
  P  P18  1  0.663796  0.663762  0.631615  1
  P  P19  1  0.772389  0.316957  0.843075  1
  P  P20  1  0.693054  0.221818  0.663158  1
  P  P21  1  0.314358  0.912431  0.844569  1
  P  P22  1  0.684413  0.086114  0.154863  1
  P  P23  1  0.316590  0.772106  0.343748  1
  P  P24  1  0.222307  0.692811  0.163480  1
  P  P25  1  0.325776  0.339274  0.365611  1
  P  P26  1  0.340491  0.325931  0.866083  1
  P  P27  1  0.086400  0.686562  0.654547  1
  P  P28  1  0.217903  0.084086  0.664624  1
  P  P29  1  0.085589  0.215920  0.164504  1
  O  O30  1  0.017842  0.763881  0.562999  1
  O  O31  1  0.920717  0.739482  0.331898  1
  O  O32  1  0.758732  0.017368  0.063050  1
  O  O33  1  0.740809  0.920640  0.831529  1
  O  O34  1  0.919995  0.625007  0.829760  1
  O  O35  1  0.812673  0.665593  0.176894  1
  O  O36  1  0.916685  0.468527  0.327172  1
  O  O37  1  0.989960  0.206364  0.085639  1
  O  O38  1  0.912850  0.346221  0.834809  1
  O  O39  1  0.665539  0.811699  0.678278  1
  O  O40  1  0.624634  0.919851  0.331403  1
  O  O41  1  0.811682  0.513340  0.668923  1
  O  O42  1  0.656093  0.679495  0.028193  1
  O  O43  1  0.652547  0.672641  0.527759  1
  O  O44  1  0.669325  0.512714  0.168303  1
  O  O45  1  0.469100  0.915674  0.828322  1
  O  O46  1  0.513383  0.810816  0.176696  1
  O  O47  1  0.742982  0.344927  0.325726  1
  O  O48  1  0.789653  0.198962  0.759643  1
  O  O49  1  0.798711  0.207324  0.583744  1
  O  O50  1  0.768075  0.240072  0.932960  1
  O  O51  1  0.617806  0.474325  0.824617  1
  O  O52  1  0.511421  0.670427  0.673306  1
  O  O53  1  0.655980  0.259128  0.163262  1
  O  O54  1  0.474130  0.616934  0.324974  1
  O  O55  1  0.343782  0.913719  0.337256  1
  O  O56  1  0.803018  0.990541  0.238971  1
  O  O57  1  0.810007  0.997077  0.417041  1
  O  O58  1  0.209460  0.988786  0.585338  1
  O  O59  1  0.654362  0.085520  0.663825  1
  O  O60  1  0.540301  0.382021  0.671256  1
  O  O61  1  0.344204  0.741622  0.827965  1
  O  O62  1  0.476490  0.339952  0.319793  1
  O  O63  1  0.382105  0.538918  0.172010  1
  O  O64  1  0.210604  0.797314  0.083928  1
  O  O65  1  0.238916  0.767200  0.433075  1
  O  O66  1  0.198983  0.789086  0.259759  1
  O  O67  1  0.260103  0.654721  0.662813  1
  O  O68  1  0.490931  0.180960  0.821477  1
  O  O69  1  0.527208  0.089528  0.173732  1
  O  O70  1  0.341492  0.474950  0.819054  1
  O  O71  1  0.360194  0.323357  0.969138  1
  O  O72  1  0.323017  0.353691  0.468923  1
  O  O73  1  0.182111  0.490639  0.320886  1
  O  O74  1  0.379503  0.080108  0.674440  1
  O  O75  1  0.323293  0.195633  0.323380  1
  O  O76  1  0.086198  0.654179  0.163245  1
  O  O77  1  0.992598  0.803407  0.739208  1
  O  O78  1  0.997810  0.809220  0.917102  1
  O  O79  1  0.086253  0.530044  0.671794  1
  O  O80  1  0.194740  0.326081  0.824891  1
  O  O81  1  0.079834  0.378590  0.173694  1
  O  O82  1  0.257570  0.080212  0.162069  1
  O  O83  1  0.238687  0.971806  0.937768  1
  O  O84  1  0.195061  0.014996  0.762823  1
  O  O85  1  0.081539  0.255882  0.662255  1
  O  O86  1  0.971752  0.239657  0.437702  1
  O  O87  1  0.017677  0.193190  0.263235  1
