# generated using pymatgen
data_VZn2HO5
_symmetry_space_group_name_H-M   'P 1'
_cell_length_a   14.79209355
_cell_length_b   6.14185415
_cell_length_c   9.03358284
_cell_angle_alpha   90.00000000
_cell_angle_beta   90.00000000
_cell_angle_gamma   90.00000000
_symmetry_Int_Tables_number   1
_chemical_formula_structural   VZn2HO5
_chemical_formula_sum   'V8 Zn16 H8 O40'
_cell_volume   820.70896102
_cell_formula_units_Z   8
loop_
 _symmetry_equiv_pos_site_id
 _symmetry_equiv_pos_as_xyz
  1  'x, y, z'
loop_
 _atom_site_type_symbol
 _atom_site_label
 _atom_site_symmetry_multiplicity
 _atom_site_fract_x
 _atom_site_fract_y
 _atom_site_fract_z
 _atom_site_occupancy
  V  V0  1  0.925432  0.250000  0.689494  1
  V  V1  1  0.425432  0.250000  0.810506  1
  V  V2  1  0.074568  0.750000  0.310506  1
  V  V3  1  0.574568  0.750000  0.189494  1
  V  V4  1  0.839212  0.750000  0.019737  1
  V  V5  1  0.339212  0.750000  0.480263  1
  V  V6  1  0.160788  0.250000  0.980263  1
  V  V7  1  0.660788  0.250000  0.519737  1
  Zn  Zn8  1  0.924915  0.250000  0.087543  1
  Zn  Zn9  1  0.424915  0.250000  0.412457  1
  Zn  Zn10  1  0.075085  0.750000  0.912457  1
  Zn  Zn11  1  0.575085  0.750000  0.587543  1
  Zn  Zn12  1  0.794000  0.750000  0.660243  1
  Zn  Zn13  1  0.294000  0.750000  0.839757  1
  Zn  Zn14  1  0.206000  0.250000  0.339757  1
  Zn  Zn15  1  0.706000  0.250000  0.160243  1
  Zn  Zn16  1  0.860476  0.994769  0.375061  1
  Zn  Zn17  1  0.360476  0.505231  0.124939  1
  Zn  Zn18  1  0.139524  0.494769  0.624939  1
  Zn  Zn19  1  0.639524  0.005231  0.875061  1
  Zn  Zn20  1  0.139524  0.005231  0.624939  1
  Zn  Zn21  1  0.639524  0.494769  0.875061  1
  Zn  Zn22  1  0.860476  0.505231  0.375061  1
  Zn  Zn23  1  0.360476  0.994769  0.124939  1
  H  H24  1  0.001918  0.250000  0.344209  1
  H  H25  1  0.501918  0.250000  0.155791  1
  H  H26  1  0.998082  0.750000  0.655791  1
  H  H27  1  0.498082  0.750000  0.844209  1
  H  H28  1  0.714240  0.750000  0.400376  1
  H  H29  1  0.214240  0.750000  0.099624  1
  H  H30  1  0.285760  0.250000  0.599624  1
  H  H31  1  0.785760  0.250000  0.900376  1
  O  O32  1  0.753298  0.750000  0.873789  1
  O  O33  1  0.253298  0.750000  0.626211  1
  O  O34  1  0.246702  0.250000  0.126211  1
  O  O35  1  0.746702  0.250000  0.373789  1
  O  O36  1  0.899167  0.250000  0.874939  1
  O  O37  1  0.399167  0.250000  0.625061  1
  O  O38  1  0.100833  0.750000  0.125061  1
  O  O39  1  0.600833  0.750000  0.374939  1
  O  O40  1  0.958499  0.750000  0.343042  1
  O  O41  1  0.458499  0.750000  0.156958  1
  O  O42  1  0.041501  0.250000  0.656958  1
  O  O43  1  0.541501  0.250000  0.843042  1
  O  O44  1  0.878833  0.012569  0.610974  1
  O  O45  1  0.378833  0.487431  0.889026  1
  O  O46  1  0.121167  0.512569  0.389026  1
  O  O47  1  0.621167  0.987431  0.110974  1
  O  O48  1  0.121167  0.987431  0.389026  1
  O  O49  1  0.621167  0.512569  0.110974  1
  O  O50  1  0.878833  0.487431  0.610974  1
  O  O51  1  0.378833  0.012569  0.889026  1
  O  O52  1  0.940410  0.750000  0.933993  1
  O  O53  1  0.440410  0.750000  0.566007  1
  O  O54  1  0.059590  0.250000  0.066007  1
  O  O55  1  0.559590  0.250000  0.433993  1
  O  O56  1  0.832929  0.985771  0.131829  1
  O  O57  1  0.332929  0.514229  0.368171  1
  O  O58  1  0.167071  0.485771  0.868171  1
  O  O59  1  0.667071  0.014229  0.631829  1
  O  O60  1  0.167071  0.014229  0.868171  1
  O  O61  1  0.667071  0.485771  0.631829  1
  O  O62  1  0.832929  0.514229  0.131829  1
  O  O63  1  0.332929  0.985771  0.368171  1
  O  O64  1  0.938460  0.250000  0.313583  1
  O  O65  1  0.438460  0.250000  0.186417  1
  O  O66  1  0.061540  0.750000  0.686417  1
  O  O67  1  0.561540  0.750000  0.813583  1
  O  O68  1  0.778402  0.750000  0.433513  1
  O  O69  1  0.278402  0.750000  0.066487  1
  O  O70  1  0.221598  0.250000  0.566487  1
  O  O71  1  0.721598  0.250000  0.933513  1
