# generated using pymatgen
data_CsTi(NbCl3)6
_symmetry_space_group_name_H-M   'P 1'
_cell_length_a   9.20727962
_cell_length_b   9.20418658
_cell_length_c   17.19844899
_cell_angle_alpha   89.93282332
_cell_angle_beta   90.13430838
_cell_angle_gamma   120.01111339
_symmetry_Int_Tables_number   1
_chemical_formula_structural   CsTi(NbCl3)6
_chemical_formula_sum   'Cs2 Ti2 Nb12 Cl36'
_cell_volume   1262.07981699
_cell_formula_units_Z   2
loop_
 _symmetry_equiv_pos_site_id
 _symmetry_equiv_pos_as_xyz
  1  'x, y, z'
loop_
 _atom_site_type_symbol
 _atom_site_label
 _atom_site_symmetry_multiplicity
 _atom_site_fract_x
 _atom_site_fract_y
 _atom_site_fract_z
 _atom_site_occupancy
  Cs  Cs0  1  0.333473  0.666655  0.750005  1
  Cs  Cs1  1  0.666818  0.333345  0.250005  1
  Ti  Ti2  1  0.333077  0.666332  0.250018  1
  Ti  Ti3  1  0.666745  0.333668  0.750018  1
  Nb  Nb4  1  0.046294  0.843940  0.430560  1
  Nb  Nb5  1  0.155969  0.953807  0.069432  1
  Nb  Nb6  1  0.046377  0.202256  0.069261  1
  Nb  Nb7  1  0.155584  0.201980  0.430795  1
  Nb  Nb8  1  0.202355  0.156060  0.930560  1
  Nb  Nb9  1  0.202161  0.046193  0.569432  1
  Nb  Nb10  1  0.797590  0.953680  0.430485  1
  Nb  Nb11  1  0.797628  0.844040  0.069497  1
  Nb  Nb12  1  0.844120  0.797744  0.569261  1
  Nb  Nb13  1  0.953605  0.798020  0.930795  1
  Nb  Nb14  1  0.843910  0.046320  0.930485  1
  Nb  Nb15  1  0.953589  0.155960  0.569497  1
  Cl  Cl16  1  0.053953  0.812798  0.662156  1
  Cl  Cl17  1  0.187046  0.946404  0.838071  1
  Cl  Cl18  1  0.136184  0.712951  0.997956  1
  Cl  Cl19  1  0.103080  0.641913  0.333766  1
  Cl  Cl20  1  0.287271  0.864073  0.502305  1
  Cl  Cl21  1  0.103237  0.461251  0.166200  1
  Cl  Cl22  1  0.357973  0.896227  0.166353  1
  Cl  Cl23  1  0.135910  0.422833  0.502116  1
  Cl  Cl24  1  0.053469  0.240880  0.837872  1
  Cl  Cl25  1  0.187507  0.240775  0.662122  1
  Cl  Cl26  1  0.286963  0.422873  0.997855  1
  Cl  Cl27  1  0.538909  0.896693  0.334191  1
  Cl  Cl28  1  0.358030  0.461926  0.333591  1
  Cl  Cl29  1  0.576878  0.864118  0.997683  1
  Cl  Cl30  1  0.241154  0.187202  0.162156  1
  Cl  Cl31  1  0.240643  0.053596  0.338071  1
  Cl  Cl32  1  0.538982  0.642337  0.165882  1
  Cl  Cl33  1  0.576802  0.712941  0.502041  1
  Cl  Cl34  1  0.423233  0.287049  0.497956  1
  Cl  Cl35  1  0.461166  0.358087  0.833766  1
  Cl  Cl36  1  0.759289  0.946285  0.661969  1
  Cl  Cl37  1  0.758902  0.812790  0.837820  1
  Cl  Cl38  1  0.423198  0.135927  0.002305  1
  Cl  Cl39  1  0.641986  0.538749  0.666200  1
  Cl  Cl40  1  0.461747  0.103773  0.666353  1
  Cl  Cl41  1  0.713077  0.577167  0.002116  1
  Cl  Cl42  1  0.812590  0.759120  0.337872  1
  Cl  Cl43  1  0.946732  0.759225  0.162122  1
  Cl  Cl44  1  0.864090  0.577127  0.497855  1
  Cl  Cl45  1  0.642216  0.103307  0.834191  1
  Cl  Cl46  1  0.896104  0.538074  0.833591  1
  Cl  Cl47  1  0.712761  0.135882  0.497683  1
  Cl  Cl48  1  0.896645  0.357663  0.665882  1
  Cl  Cl49  1  0.863861  0.287059  0.002041  1
  Cl  Cl50  1  0.813003  0.053715  0.161969  1
  Cl  Cl51  1  0.946112  0.187210  0.337820  1
