# generated using pymatgen
data_Er2TeO6
_symmetry_space_group_name_H-M   'P 1'
_cell_length_a   4.96999873
_cell_length_b   4.96980372
_cell_length_c   10.01958082
_cell_angle_alpha   90.00000000
_cell_angle_beta   90.00000000
_cell_angle_gamma   90.00196539
_symmetry_Int_Tables_number   1
_chemical_formula_structural   Er2TeO6
_chemical_formula_sum   'Er4 Te2 O12'
_cell_volume   247.48282635
_cell_formula_units_Z   2
loop_
 _symmetry_equiv_pos_site_id
 _symmetry_equiv_pos_as_xyz
  1  'x, y, z'
loop_
 _atom_site_type_symbol
 _atom_site_label
 _atom_site_symmetry_multiplicity
 _atom_site_fract_x
 _atom_site_fract_y
 _atom_site_fract_z
 _atom_site_occupancy
  Er  Er0  1  -0.000002  0.999991  0.334578  1
  Er  Er1  1  -0.000002  0.999991  0.665422  1
  Er  Er2  1  0.500018  0.500027  0.165420  1
  Er  Er3  1  0.500018  0.500027  0.834580  1
  Te  Te4  1  0.000042  0.000048  0.000000  1
  Te  Te5  1  0.499995  0.500003  0.500000  1
  O  O6  1  0.183973  0.183971  0.147249  1
  O  O7  1  0.183973  0.183971  0.852751  1
  O  O8  1  0.220596  0.220375  0.500000  1
  O  O9  1  0.279620  0.720576  0.000000  1
  O  O10  1  0.316001  0.683870  0.352760  1
  O  O11  1  0.316001  0.683870  0.647240  1
  O  O12  1  0.684011  0.316134  0.352760  1
  O  O13  1  0.684011  0.316134  0.647240  1
  O  O14  1  0.720577  0.279611  0.000000  1
  O  O15  1  0.779396  0.779616  0.500000  1
  O  O16  1  0.816087  0.816092  0.147235  1
  O  O17  1  0.816087  0.816092  0.852765  1
