# generated using pymatgen
data_Mn12O5F19
_symmetry_space_group_name_H-M   'P 1'
_cell_length_a   4.83523726
_cell_length_b   5.85588926
_cell_length_c   15.99555420
_cell_angle_alpha   89.28302085
_cell_angle_beta   89.61765395
_cell_angle_gamma   89.38485190
_symmetry_Int_Tables_number   1
_chemical_formula_structural   Mn12O5F19
_chemical_formula_sum   'Mn12 O5 F19'
_cell_volume   452.83669727
_cell_formula_units_Z   1
loop_
 _symmetry_equiv_pos_site_id
 _symmetry_equiv_pos_as_xyz
  1  'x, y, z'
loop_
 _atom_site_type_symbol
 _atom_site_label
 _atom_site_symmetry_multiplicity
 _atom_site_fract_x
 _atom_site_fract_y
 _atom_site_fract_z
 _atom_site_occupancy
  Mn  Mn0  1  0.998185  0.173287  0.405891  1
  Mn  Mn1  1  0.017097  0.852221  0.249719  1
  Mn  Mn2  1  0.987942  0.181927  0.080375  1
  Mn  Mn3  1  0.028781  0.145250  0.746843  1
  Mn  Mn4  1  0.010230  0.852914  0.583472  1
  Mn  Mn5  1  0.014152  0.839810  0.911256  1
  Mn  Mn6  1  0.489953  0.315305  0.589470  1
  Mn  Mn7  1  0.520756  0.337529  0.920941  1
  Mn  Mn8  1  0.496802  0.325917  0.261193  1
  Mn  Mn9  1  0.517906  0.642759  0.082832  1
  Mn  Mn10  1  0.516274  0.644736  0.418126  1
  Mn  Mn11  1  0.479292  0.676537  0.751858  1
  O  O12  1  0.216373  0.123986  0.305451  1
  O  O13  1  0.210483  0.099280  0.640991  1
  O  O14  1  0.218782  0.900091  0.802376  1
  O  O15  1  0.716075  0.406035  0.031755  1
  O  O16  1  0.716486  0.374563  0.360437  1
  F  F17  1  0.224565  0.113642  0.972819  1
  F  F18  1  0.247280  0.874373  0.132870  1
  F  F19  1  0.228999  0.898348  0.468674  1
  F  F20  1  0.277934  0.382077  0.150519  1
  F  F21  1  0.266039  0.618411  0.309312  1
  F  F22  1  0.261917  0.392687  0.476867  1
  F  F23  1  0.266204  0.599976  0.639103  1
  F  F24  1  0.271042  0.398759  0.811046  1
  F  F25  1  0.266639  0.615815  0.978849  1
  F  F26  1  0.727647  0.603646  0.196714  1
  F  F27  1  0.738289  0.617096  0.533798  1
  F  F28  1  0.728894  0.619891  0.859526  1
  F  F29  1  0.742282  0.375807  0.699637  1
  F  F30  1  0.761169  0.101164  0.190717  1
  F  F31  1  0.773446  0.120320  0.516471  1
  F  F32  1  0.765836  0.879714  0.358936  1
  F  F33  1  0.766589  0.890468  0.022875  1
  F  F34  1  0.782861  0.124161  0.851999  1
  F  F35  1  0.746797  0.881497  0.686284  1
