# generated using pymatgen
data_Li2Si3NiO8
_symmetry_space_group_name_H-M   'P 1'
_cell_length_a   6.64822391
_cell_length_b   6.32859038
_cell_length_c   8.44887589
_cell_angle_alpha   90.00000000
_cell_angle_beta   90.00000000
_cell_angle_gamma   105.53966959
_symmetry_Int_Tables_number   1
_chemical_formula_structural   Li2Si3NiO8
_chemical_formula_sum   'Li4 Si6 Ni2 O16'
_cell_volume   342.48264648
_cell_formula_units_Z   2
loop_
 _symmetry_equiv_pos_site_id
 _symmetry_equiv_pos_as_xyz
  1  'x, y, z'
loop_
 _atom_site_type_symbol
 _atom_site_label
 _atom_site_symmetry_multiplicity
 _atom_site_fract_x
 _atom_site_fract_y
 _atom_site_fract_z
 _atom_site_occupancy
  Li  Li0  1  0.254336  0.855846  0.300920  1
  Li  Li1  1  0.526361  0.561678  0.813404  1
  Li  Li2  1  0.473639  0.438322  0.313404  1
  Li  Li3  1  0.745664  0.144154  0.800920  1
  Si  Si4  1  0.028740  0.414732  0.519091  1
  Si  Si5  1  0.088671  0.233237  0.188722  1
  Si  Si6  1  0.296689  0.166253  0.664468  1
  Si  Si7  1  0.703311  0.833747  0.164468  1
  Si  Si8  1  0.911329  0.766763  0.688722  1
  Si  Si9  1  0.971260  0.585268  0.019091  1
  Ni  Ni10  1  0.378898  0.026256  0.989298  1
  Ni  Ni11  1  0.621102  0.973744  0.489298  1
  O  O12  1  0.083326  0.994066  0.740982  1
  O  O13  1  0.997188  0.334459  0.033766  1
  O  O14  1  0.108376  0.410434  0.334570  1
  O  O15  1  0.177982  0.765347  0.069065  1
  O  O16  1  0.231171  0.398331  0.628430  1
  O  O17  1  0.320833  0.207063  0.164371  1
  O  O18  1  0.366640  0.070996  0.502400  1
  O  O19  1  0.470062  0.230272  0.805663  1
  O  O20  1  0.529938  0.769728  0.305663  1
  O  O21  1  0.633360  0.929004  0.002400  1
  O  O22  1  0.679167  0.792937  0.664371  1
  O  O23  1  0.768829  0.601669  0.128430  1
  O  O24  1  0.822018  0.234653  0.569065  1
  O  O25  1  0.891624  0.589566  0.834570  1
  O  O26  1  0.002812  0.665541  0.533766  1
  O  O27  1  0.916674  0.005934  0.240982  1
