# generated using pymatgen
data_Li3Mn(PO4)2
_symmetry_space_group_name_H-M   'P 1'
_cell_length_a   8.45065295
_cell_length_b   8.45065272
_cell_length_c   8.45065270
_cell_angle_alpha   64.26556388
_cell_angle_beta   64.26556801
_cell_angle_gamma   64.26556126
_symmetry_Int_Tables_number   1
_chemical_formula_structural   Li3Mn(PO4)2
_chemical_formula_sum   'Li9 Mn3 P6 O24'
_cell_volume   466.73282382
_cell_formula_units_Z   3
loop_
 _symmetry_equiv_pos_site_id
 _symmetry_equiv_pos_as_xyz
  1  'x, y, z'
loop_
 _atom_site_type_symbol
 _atom_site_label
 _atom_site_symmetry_multiplicity
 _atom_site_fract_x
 _atom_site_fract_y
 _atom_site_fract_z
 _atom_site_occupancy
  Li  Li0  1  0.298073  0.826815  0.644958  1
  Li  Li1  1  0.346443  0.746942  0.149790  1
  Li  Li2  1  0.149790  0.346443  0.746942  1
  Li  Li3  1  0.997419  0.997419  0.997419  1
  Li  Li4  1  0.508770  0.508770  0.508770  1
  Li  Li5  1  0.650906  0.650906  0.650906  1
  Li  Li6  1  0.826815  0.644958  0.298073  1
  Li  Li7  1  0.644958  0.298073  0.826815  1
  Li  Li8  1  0.746942  0.149790  0.346443  1
  Mn  Mn9  1  0.144807  0.144807  0.144807  1
  Mn  Mn10  1  0.355574  0.355574  0.355574  1
  Mn  Mn11  1  0.853856  0.853856  0.853856  1
  P  P12  1  0.051505  0.747561  0.446137  1
  P  P13  1  0.549160  0.949986  0.248070  1
  P  P14  1  0.248070  0.549160  0.949986  1
  P  P15  1  0.747561  0.446137  0.051505  1
  P  P16  1  0.446137  0.051505  0.747561  1
  P  P17  1  0.949986  0.248070  0.549160  1
  O  O18  1  0.073516  0.904876  0.252850  1
  O  O19  1  0.098498  0.741257  0.928897  1
  O  O20  1  0.470709  0.895635  0.687878  1
  O  O21  1  0.608064  0.023141  0.805622  1
  O  O22  1  0.247149  0.599174  0.424734  1
  O  O23  1  0.176422  0.390092  0.990793  1
  O  O24  1  0.112632  0.306881  0.521855  1
  O  O25  1  0.553868  0.765227  0.403458  1
  O  O26  1  0.741257  0.928897  0.098498  1
  O  O27  1  0.990793  0.176422  0.390092  1
  O  O28  1  0.306881  0.521855  0.112632  1
  O  O29  1  0.403458  0.553868  0.765227  1
  O  O30  1  0.599174  0.424734  0.247149  1
  O  O31  1  0.687878  0.470709  0.895635  1
  O  O32  1  0.023141  0.805622  0.608064  1
  O  O33  1  0.424734  0.247149  0.599174  1
  O  O34  1  0.252850  0.073516  0.904876  1
  O  O35  1  0.805622  0.608064  0.023141  1
  O  O36  1  0.895635  0.687878  0.470709  1
  O  O37  1  0.765227  0.403458  0.553868  1
  O  O38  1  0.390092  0.990793  0.176422  1
  O  O39  1  0.521855  0.112632  0.306881  1
  O  O40  1  0.904876  0.252850  0.073516  1
  O  O41  1  0.928897  0.098498  0.741257  1
