# generated using pymatgen
data_Li2WS4
_symmetry_space_group_name_H-M   'P 1'
_cell_length_a   13.20763156
_cell_length_b   7.76963905
_cell_length_c   6.07188203
_cell_angle_alpha   90.00000000
_cell_angle_beta   90.00000000
_cell_angle_gamma   90.00000000
_symmetry_Int_Tables_number   1
_chemical_formula_structural   Li2WS4
_chemical_formula_sum   'Li8 W4 S16'
_cell_volume   623.08760781
_cell_formula_units_Z   4
loop_
 _symmetry_equiv_pos_site_id
 _symmetry_equiv_pos_as_xyz
  1  'x, y, z'
loop_
 _atom_site_type_symbol
 _atom_site_label
 _atom_site_symmetry_multiplicity
 _atom_site_fract_x
 _atom_site_fract_y
 _atom_site_fract_z
 _atom_site_occupancy
  Li  Li0  1  0.000000  0.000000  0.000000  1
  Li  Li1  1  0.000000  0.500000  0.000000  1
  Li  Li2  1  0.232453  0.750000  0.504773  1
  Li  Li3  1  0.267547  0.250000  0.004773  1
  Li  Li4  1  0.500000  0.000000  0.500000  1
  Li  Li5  1  0.500000  0.500000  0.500000  1
  Li  Li6  1  0.732453  0.750000  0.995227  1
  Li  Li7  1  0.767547  0.250000  0.495227  1
  W  W8  1  0.088958  0.250000  0.385298  1
  W  W9  1  0.411042  0.750000  0.885298  1
  W  W10  1  0.588958  0.250000  0.114702  1
  W  W11  1  0.911042  0.750000  0.614702  1
  S  S12  1  0.068138  0.750000  0.743899  1
  S  S13  1  0.091102  0.250000  0.747440  1
  S  S14  1  0.166444  0.019201  0.255446  1
  S  S15  1  0.166444  0.480799  0.255446  1
  S  S16  1  0.333556  0.519201  0.755446  1
  S  S17  1  0.333556  0.980799  0.755446  1
  S  S18  1  0.408898  0.750000  0.247440  1
  S  S19  1  0.431862  0.250000  0.243899  1
  S  S20  1  0.568138  0.750000  0.756101  1
  S  S21  1  0.591102  0.250000  0.752560  1
  S  S22  1  0.666444  0.019201  0.244554  1
  S  S23  1  0.666444  0.480799  0.244554  1
  S  S24  1  0.833556  0.519201  0.744554  1
  S  S25  1  0.833556  0.980799  0.744554  1
  S  S26  1  0.908898  0.750000  0.252560  1
  S  S27  1  0.931862  0.250000  0.256101  1
