# generated using pymatgen
data_Co6O5F7
_symmetry_space_group_name_H-M   'P 1'
_cell_length_a   4.55021354
_cell_length_b   7.62441467
_cell_length_c   5.46778738
_cell_angle_alpha   92.95324692
_cell_angle_beta   90.56053814
_cell_angle_gamma   91.35862521
_symmetry_Int_Tables_number   1
_chemical_formula_structural   Co6O5F7
_chemical_formula_sum   'Co6 O5 F7'
_cell_volume   189.37569773
_cell_formula_units_Z   1
loop_
 _symmetry_equiv_pos_site_id
 _symmetry_equiv_pos_as_xyz
  1  'x, y, z'
loop_
 _atom_site_type_symbol
 _atom_site_label
 _atom_site_symmetry_multiplicity
 _atom_site_fract_x
 _atom_site_fract_y
 _atom_site_fract_z
 _atom_site_occupancy
  Co  Co0  1  0.445737  0.007548  0.516380  1
  Co  Co1  1  0.520410  0.340752  0.818687  1
  Co  Co2  1  0.541598  0.659860  0.162848  1
  Co  Co3  1  0.990780  0.672151  0.681671  1
  Co  Co4  1  0.981118  0.340311  0.340446  1
  Co  Co5  1  0.001189  0.985752  0.988113  1
  O  O6  1  0.798192  0.448575  0.635387  1
  O  O7  1  0.816038  0.769534  0.957564  1
  O  O8  1  0.707996  0.420712  0.118730  1
  O  O9  1  0.310777  0.242358  0.533612  1
  O  O10  1  0.188624  0.895315  0.709421  1
  F  F11  1  0.803079  0.082471  0.288644  1
  F  F12  1  0.701101  0.775200  0.479531  1
  F  F13  1  0.711418  0.093809  0.796987  1
  F  F14  1  0.280253  0.567144  0.872949  1
  F  F15  1  0.298319  0.899881  0.196149  1
  F  F16  1  0.209060  0.217856  0.022059  1
  F  F17  1  0.194312  0.580767  0.380821  1
