# generated using pymatgen
data_LiVP2O7
_symmetry_space_group_name_H-M   'P 1'
_cell_length_a   9.27664041
_cell_length_b   8.28980828
_cell_length_c   6.73498490
_cell_angle_alpha   90.00000000
_cell_angle_beta   103.94656851
_cell_angle_gamma   90.00000000
_symmetry_Int_Tables_number   1
_chemical_formula_structural   LiVP2O7
_chemical_formula_sum   'Li4 V4 P8 O28'
_cell_volume   502.66278407
_cell_formula_units_Z   4
loop_
 _symmetry_equiv_pos_site_id
 _symmetry_equiv_pos_as_xyz
  1  'x, y, z'
loop_
 _atom_site_type_symbol
 _atom_site_label
 _atom_site_symmetry_multiplicity
 _atom_site_fract_x
 _atom_site_fract_y
 _atom_site_fract_z
 _atom_site_occupancy
  Li  Li0  1  0.247413  0.077689  0.266073  1
  Li  Li1  1  0.247413  0.422311  0.266073  1
  Li  Li2  1  0.752587  0.577689  0.733927  1
  Li  Li3  1  0.752587  0.922311  0.733927  1
  V  V4  1  0.249829  0.929843  0.751016  1
  V  V5  1  0.249829  0.570157  0.751016  1
  V  V6  1  0.750171  0.070157  0.248984  1
  V  V7  1  0.750171  0.429843  0.248984  1
  P  P8  1  0.049702  0.750000  0.998996  1
  P  P9  1  0.034182  0.250000  0.578868  1
  P  P10  1  0.468250  0.250000  0.918542  1
  P  P11  1  0.446880  0.750000  0.498319  1
  P  P12  1  0.553120  0.250000  0.501681  1
  P  P13  1  0.531750  0.750000  0.081458  1
  P  P14  1  0.965818  0.750000  0.421132  1
  P  P15  1  0.950298  0.250000  0.001004  1
  O  O16  1  0.046082  0.750000  0.238609  1
  O  O17  1  0.142160  0.597072  0.981022  1
  O  O18  1  0.142160  0.902928  0.981022  1
  O  O19  1  0.101054  0.750000  0.610820  1
  O  O20  1  0.125324  0.097835  0.577278  1
  O  O21  1  0.125324  0.402165  0.577278  1
  O  O22  1  0.107648  0.250000  0.130195  1
  O  O23  1  0.376803  0.097867  0.914939  1
  O  O24  1  0.376803  0.402133  0.914939  1
  O  O25  1  0.399209  0.750000  0.888219  1
  O  O26  1  0.354999  0.596938  0.518514  1
  O  O27  1  0.354999  0.903062  0.518514  1
  O  O28  1  0.394666  0.250000  0.376831  1
  O  O29  1  0.445393  0.750000  0.257858  1
  O  O30  1  0.554607  0.250000  0.742142  1
  O  O31  1  0.605334  0.750000  0.623169  1
  O  O32  1  0.645001  0.096938  0.481486  1
  O  O33  1  0.645001  0.403062  0.481486  1
  O  O34  1  0.600791  0.250000  0.111781  1
  O  O35  1  0.623197  0.597867  0.085061  1
  O  O36  1  0.623197  0.902133  0.085061  1
  O  O37  1  0.892352  0.750000  0.869805  1
  O  O38  1  0.874676  0.597835  0.422722  1
  O  O39  1  0.874676  0.902165  0.422722  1
  O  O40  1  0.898946  0.250000  0.389180  1
  O  O41  1  0.857840  0.097072  0.018978  1
  O  O42  1  0.857840  0.402928  0.018978  1
  O  O43  1  0.953918  0.250000  0.761391  1
