# generated using pymatgen
data_Mg5Co19O32
_symmetry_space_group_name_H-M   'P 1'
_cell_length_a   5.77270081
_cell_length_b   5.77270081
_cell_length_c   19.14352009
_cell_angle_alpha   98.67180186
_cell_angle_beta   98.67180186
_cell_angle_gamma   60.00000000
_symmetry_Int_Tables_number   1
_chemical_formula_structural   Mg5Co19O32
_chemical_formula_sum   'Mg5 Co19 O32'
_cell_volume   544.03503667
_cell_formula_units_Z   1
loop_
 _symmetry_equiv_pos_site_id
 _symmetry_equiv_pos_as_xyz
  1  'x, y, z'
loop_
 _atom_site_type_symbol
 _atom_site_label
 _atom_site_symmetry_multiplicity
 _atom_site_fract_x
 _atom_site_fract_y
 _atom_site_fract_z
 _atom_site_occupancy
  Mg  Mg0  1  0.687596  0.687596  0.062787  1
  Mg  Mg1  1  0.999912  0.999912  0.999736  1
  Mg  Mg2  1  0.437387  0.437387  0.312160  1
  Mg  Mg3  1  0.500086  0.500086  0.500258  1
  Mg  Mg4  1  0.250016  0.250016  0.750048  1
  Co  Co5  1  0.219119  0.718090  0.156329  1
  Co  Co6  1  0.343734  0.343734  0.031200  1
  Co  Co7  1  0.749979  0.749979  0.249936  1
  Co  Co8  1  0.968746  0.968746  0.406267  1
  Co  Co9  1  0.219119  0.219119  0.156329  1
  Co  Co10  1  0.468775  0.968746  0.406267  1
  Co  Co11  1  0.718090  0.219119  0.156329  1
  Co  Co12  1  0.968746  0.468775  0.406267  1
  Co  Co13  1  0.843637  0.843637  0.530911  1
  Co  Co14  1  0.093896  0.093896  0.281690  1
  Co  Co15  1  0.219590  0.718380  0.656351  1
  Co  Co16  1  0.718380  0.718380  0.656351  1
  Co  Co17  1  0.937472  0.937472  0.812415  1
  Co  Co18  1  0.187538  0.187538  0.562614  1
  Co  Co19  1  0.593659  0.593659  0.780978  1
  Co  Co20  1  0.468352  0.969427  0.906131  1
  Co  Co21  1  0.718380  0.219590  0.656351  1
  Co  Co22  1  0.468352  0.468352  0.906131  1
  Co  Co23  1  0.969427  0.468352  0.906131  1
  O  O24  1  0.923184  0.923184  0.215517  1
  O  O25  1  0.369150  0.923184  0.215517  1
  O  O26  1  0.513542  0.513542  0.097169  1
  O  O27  1  0.070084  0.513542  0.097169  1
  O  O28  1  0.513542  0.070084  0.097169  1
  O  O29  1  0.402666  0.402666  0.207998  1
  O  O30  1  0.263710  0.820122  0.347541  1
  O  O31  1  0.923184  0.369150  0.215517  1
  O  O32  1  0.034815  0.034815  0.104445  1
  O  O33  1  0.784528  0.784528  0.353586  1
  O  O34  1  0.117315  0.673842  0.465000  1
  O  O35  1  0.673842  0.673842  0.465000  1
  O  O36  1  0.263710  0.263710  0.347541  1
  O  O37  1  0.820122  0.263710  0.347541  1
  O  O38  1  0.014289  0.568564  0.597143  1
  O  O39  1  0.152977  0.152977  0.458929  1
  O  O40  1  0.902851  0.902851  0.708554  1
  O  O41  1  0.423998  0.867231  0.715228  1
  O  O42  1  0.673842  0.117315  0.465000  1
  O  O43  1  0.534829  0.534829  0.604488  1
  O  O44  1  0.423998  0.423998  0.715228  1
  O  O45  1  0.867231  0.423998  0.715228  1
  O  O46  1  0.014289  0.014289  0.597143  1
  O  O47  1  0.568564  0.014289  0.597143  1
  O  O48  1  0.764347  0.764347  0.846991  1
  O  O49  1  0.318296  0.764347  0.846991  1
  O  O50  1  0.652683  0.652683  0.958048  1
  O  O51  1  0.764347  0.318296  0.846991  1
  O  O52  1  0.284801  0.284801  0.854401  1
  O  O53  1  0.173914  0.617444  0.965273  1
  O  O54  1  0.617444  0.173914  0.965273  1
  O  O55  1  0.173914  0.173914  0.965273  1
