# generated using pymatgen
data_Er2Si2O7
_symmetry_space_group_name_H-M   'P 1'
_cell_length_a   4.74786917
_cell_length_b   5.58852201
_cell_length_c   10.81170994
_cell_angle_alpha   90.00000000
_cell_angle_beta   90.00000000
_cell_angle_gamma   96.21273221
_symmetry_Int_Tables_number   1
_chemical_formula_structural   Er2Si2O7
_chemical_formula_sum   'Er4 Si4 O14'
_cell_volume   285.18845301
_cell_formula_units_Z   2
loop_
 _symmetry_equiv_pos_site_id
 _symmetry_equiv_pos_as_xyz
  1  'x, y, z'
loop_
 _atom_site_type_symbol
 _atom_site_label
 _atom_site_symmetry_multiplicity
 _atom_site_fract_x
 _atom_site_fract_y
 _atom_site_fract_z
 _atom_site_occupancy
  O  O0  1  0.620149  0.254773  0.202961  1
  O  O1  1  0.379851  0.245227  0.702961  1
  O  O2  1  0.379851  0.745227  0.797039  1
  O  O3  1  0.620149  0.754773  0.297039  1
  O  O4  1  0.123204  0.958809  0.183676  1
  O  O5  1  0.876796  0.541191  0.683676  1
  O  O6  1  0.876796  0.041191  0.816324  1
  O  O7  1  0.123204  0.458809  0.316324  1
  O  O8  1  0.500000  0.500000  0.500000  1
  O  O9  1  0.500000  0.000000  0.000000  1
  O  O10  1  0.203115  0.866619  0.449655  1
  O  O11  1  0.796885  0.633381  0.949655  1
  O  O12  1  0.796885  0.133381  0.550345  1
  O  O13  1  0.203115  0.366619  0.050345  1
  Si  Si14  1  0.360140  0.145202  0.112417  1
  Si  Si15  1  0.639860  0.354798  0.612417  1
  Si  Si16  1  0.639860  0.854798  0.887583  1
  Si  Si17  1  0.360140  0.645202  0.387583  1
  Er  Er18  1  0.891276  0.591922  0.151432  1
  Er  Er19  1  0.108724  0.908078  0.651432  1
  Er  Er20  1  0.108724  0.408078  0.848568  1
  Er  Er21  1  0.891276  0.091922  0.348568  1
