# generated using pymatgen
data_MgMn2O4
_symmetry_space_group_name_H-M   'P 1'
_cell_length_a   5.86642856
_cell_length_b   5.87066722
_cell_length_c   30.96181000
_cell_angle_alpha   118.00705949
_cell_angle_beta   118.27181360
_cell_angle_gamma   90.00232964
_symmetry_Int_Tables_number   1
_chemical_formula_structural   MgMn2O4
_chemical_formula_sum   'Mg10 Mn20 O40'
_cell_volume   794.48156134
_cell_formula_units_Z   10
loop_
 _symmetry_equiv_pos_site_id
 _symmetry_equiv_pos_as_xyz
  1  'x, y, z'
loop_
 _atom_site_type_symbol
 _atom_site_label
 _atom_site_symmetry_multiplicity
 _atom_site_fract_x
 _atom_site_fract_y
 _atom_site_fract_z
 _atom_site_occupancy
  Mg  Mg0  1  0.004776  0.003832  0.801910  1
  Mg  Mg1  1  0.258333  0.758693  0.903327  1
  Mg  Mg2  1  0.251356  0.752058  0.700562  1
  Mg  Mg3  1  0.991766  0.991868  0.396738  1
  Mg  Mg4  1  0.243844  0.745161  0.497576  1
  Mg  Mg5  1  0.231493  0.741953  0.292596  1
  Mg  Mg6  1  0.997861  0.997510  0.599165  1
  Mg  Mg7  1  0.248313  0.758300  0.099272  1
  Mg  Mg8  1  0.618228  0.370263  0.247288  1
  Mg  Mg9  1  0.631965  0.381671  0.052737  1
  Mn  Mn10  1  0.139152  0.383788  0.955141  1
  Mn  Mn11  1  0.128135  0.377906  0.751277  1
  Mn  Mn12  1  0.636675  0.383773  0.955135  1
  Mn  Mn13  1  0.631789  0.380040  0.852719  1
  Mn  Mn14  1  0.631037  0.879870  0.852411  1
  Mn  Mn15  1  0.120961  0.371741  0.548453  1
  Mn  Mn16  1  0.628127  0.377892  0.751259  1
  Mn  Mn17  1  0.624625  0.374771  0.649884  1
  Mn  Mn18  1  0.624646  0.874838  0.649873  1
  Mn  Mn19  1  0.113087  0.367945  0.345174  1
  Mn  Mn20  1  0.621072  0.371735  0.548435  1
  Mn  Mn21  1  0.002674  0.991372  0.201072  1
  Mn  Mn22  1  0.616153  0.368004  0.446500  1
  Mn  Mn23  1  0.617513  0.869547  0.447028  1
  Mn  Mn24  1  0.127012  0.375728  0.150332  1
  Mn  Mn25  1  0.612679  0.367931  0.345167  1
  Mn  Mn26  1  0.017134  0.007040  0.006797  1
  Mn  Mn27  1  0.616792  0.870671  0.246701  1
  Mn  Mn28  1  0.624826  0.375731  0.150331  1
  Mn  Mn29  1  0.636554  0.876646  0.054570  1
  O  O30  1  0.388386  0.613543  0.955316  1
  O  O31  1  0.397309  0.162701  0.958895  1
  O  O32  1  0.403245  0.627224  0.851240  1
  O  O33  1  0.409900  0.132870  0.854101  1
  O  O34  1  0.381318  0.605885  0.752540  1
  O  O35  1  0.381327  0.156329  0.752547  1
  O  O36  1  0.881766  0.153547  0.952677  1
  O  O37  1  0.875543  0.594875  0.950182  1
  O  O38  1  0.396454  0.621441  0.648504  1
  O  O39  1  0.403096  0.127894  0.651145  1
  O  O40  1  0.852956  0.627237  0.851235  1
  O  O41  1  0.860605  0.132882  0.854096  1
  O  O42  1  0.373956  0.599375  0.549610  1
  O  O43  1  0.373937  0.149813  0.549607  1
  O  O44  1  0.874720  0.149798  0.749905  1
  O  O45  1  0.874701  0.599248  0.749893  1
  O  O46  1  0.387658  0.615667  0.445130  1
  O  O47  1  0.396425  0.122385  0.448450  1
  O  O48  1  0.845947  0.621448  0.648500  1
  O  O49  1  0.852516  0.127914  0.651146  1
  O  O50  1  0.363481  0.595315  0.345409  1
  O  O51  1  0.369818  0.148041  0.347948  1
  O  O52  1  0.867564  0.143279  0.547061  1
  O  O53  1  0.867535  0.593104  0.547042  1
  O  O54  1  0.357743  0.605430  0.236827  1
  O  O55  1  0.402522  0.119485  0.251166  1
  O  O56  1  0.837803  0.615676  0.445124  1
  O  O57  1  0.845648  0.122407  0.448450  1
  O  O58  1  0.369522  0.591224  0.147777  1
  O  O59  1  0.385969  0.163056  0.154361  1
  O  O60  1  0.863845  0.140850  0.345561  1
  O  O61  1  0.854224  0.587994  0.341704  1
  O  O62  1  0.397255  0.633781  0.050536  1
  O  O63  1  0.430940  0.146972  0.064860  1
  O  O64  1  0.826428  0.605445  0.236827  1
  O  O65  1  0.853316  0.119522  0.251168  1
  O  O66  1  0.882420  0.164642  0.152937  1
  O  O67  1  0.864360  0.582640  0.145708  1
  O  O68  1  0.855665  0.633790  0.050527  1
  O  O69  1  0.893597  0.146993  0.064857  1
