# generated using pymatgen
data_LiFe8(BO3)8
_symmetry_space_group_name_H-M   'P 1'
_cell_length_a   5.32351634
_cell_length_b   9.01880056
_cell_length_c   11.41862668
_cell_angle_alpha   113.57834153
_cell_angle_beta   76.64972238
_cell_angle_gamma   89.62389629
_symmetry_Int_Tables_number   1
_chemical_formula_structural   LiFe8(BO3)8
_chemical_formula_sum   'Li1 Fe8 B8 O24'
_cell_volume   485.86299609
_cell_formula_units_Z   1
loop_
 _symmetry_equiv_pos_site_id
 _symmetry_equiv_pos_as_xyz
  1  'x, y, z'
loop_
 _atom_site_type_symbol
 _atom_site_label
 _atom_site_symmetry_multiplicity
 _atom_site_fract_x
 _atom_site_fract_y
 _atom_site_fract_z
 _atom_site_occupancy
  Li  Li0  1  0.931801  0.427003  0.843314  1
  Fe  Fe1  1  0.407301  0.269690  0.875785  1
  Fe  Fe2  1  0.100887  0.227096  0.122525  1
  Fe  Fe3  1  0.835190  0.141779  0.623044  1
  Fe  Fe4  1  0.653703  0.351862  0.372066  1
  Fe  Fe5  1  0.348454  0.647053  0.623913  1
  Fe  Fe6  1  0.152203  0.850121  0.371087  1
  Fe  Fe7  1  0.901424  0.778878  0.873367  1
  Fe  Fe8  1  0.597788  0.725936  0.121703  1
  B  B9  1  0.644474  0.015840  0.370768  1
  B  B10  1  0.900127  0.109612  0.874518  1
  B  B11  1  0.144574  0.514127  0.373676  1
  B  B12  1  0.391469  0.606086  0.870969  1
  B  B13  1  0.847904  0.486574  0.629301  1
  B  B14  1  0.606033  0.391955  0.123383  1
  B  B15  1  0.352011  0.980391  0.620159  1
  B  B16  1  0.103281  0.889643  0.121523  1
  O  O17  1  0.100146  0.158225  0.933811  1
  O  O18  1  0.464733  0.124030  0.668003  1
  O  O19  1  0.192803  0.030320  0.128803  1
  O  O20  1  0.549786  0.152933  0.368881  1
  O  O21  1  0.857046  0.015212  0.424039  1
  O  O22  1  0.810647  0.210788  0.821641  1
  O  O23  1  0.271667  0.475675  0.872642  1
  O  O24  1  0.033980  0.368451  0.327294  1
  O  O25  1  0.719094  0.301454  0.176609  1
  O  O26  1  0.646723  0.483143  0.569427  1
  O  O27  1  0.921269  0.356677  0.650827  1
  O  O28  1  0.389167  0.341940  0.078461  1
  O  O29  1  0.623960  0.642322  0.914617  1
  O  O30  1  0.354072  0.515569  0.429403  1
  O  O31  1  0.288113  0.711369  0.825714  1
  O  O32  1  0.966665  0.630006  0.673659  1
  O  O33  1  0.712517  0.524293  0.111059  1
  O  O34  1  0.217066  0.789149  0.167485  1
  O  O35  1  0.140420  0.981683  0.565965  1
  O  O36  1  0.444955  0.843751  0.624286  1
  O  O37  1  0.056426  0.650188  0.365833  1
  O  O38  1  0.794444  0.969838  0.865699  1
  O  O39  1  0.535429  0.868285  0.320653  1
  O  O40  1  0.890300  0.835786  0.067241  1
