# generated using pymatgen
data_Li5V3P8O29
_symmetry_space_group_name_H-M   'P 1'
_cell_length_a   9.78420581
_cell_length_b   9.77991022
_cell_length_c   14.00756156
_cell_angle_alpha   90.01822853
_cell_angle_beta   89.95100254
_cell_angle_gamma   59.77172129
_symmetry_Int_Tables_number   1
_chemical_formula_structural   Li5V3P8O29
_chemical_formula_sum   'Li10 V6 P16 O58'
_cell_volume   1158.10968093
_cell_formula_units_Z   2
loop_
 _symmetry_equiv_pos_site_id
 _symmetry_equiv_pos_as_xyz
  1  'x, y, z'
loop_
 _atom_site_type_symbol
 _atom_site_label
 _atom_site_symmetry_multiplicity
 _atom_site_fract_x
 _atom_site_fract_y
 _atom_site_fract_z
 _atom_site_occupancy
  Li  Li0  1  0.764015  0.898498  0.560074  1
  Li  Li1  1  0.762072  0.332907  0.058944  1
  Li  Li2  1  0.330874  0.901124  0.059963  1
  Li  Li3  1  0.668554  0.237268  0.440800  1
  Li  Li4  1  0.332241  0.762372  0.559971  1
  Li  Li5  1  0.232171  0.661886  0.942527  1
  Li  Li6  1  0.236512  0.102679  0.440873  1
  Li  Li7  1  0.097633  0.238129  0.940486  1
  Li  Li8  1  0.950173  0.983574  0.994808  1
  Li  Li9  1  0.997597  0.002024  0.498630  1
  V  V10  1  0.565654  0.434837  0.252921  1
  V  V11  1  0.434079  0.564756  0.749169  1
  V  V12  1  0.568765  0.000966  0.755850  1
  V  V13  1  0.437442  0.000450  0.245071  1
  V  V14  1  0.000509  0.567706  0.251857  1
  V  V15  1  0.999346  0.436898  0.744897  1
  P  P16  1  0.917855  0.773385  0.843042  1
  P  P17  1  0.774365  0.913648  0.342087  1
  P  P18  1  0.917986  0.306698  0.342497  1
  P  P19  1  0.670256  0.660829  0.130117  1
  P  P20  1  0.665135  0.670858  0.629943  1
  P  P21  1  0.777088  0.312841  0.841361  1
  P  P22  1  0.688658  0.223725  0.657657  1
  P  P23  1  0.314260  0.911954  0.843198  1
  P  P24  1  0.693075  0.086068  0.157787  1
  P  P25  1  0.313645  0.777873  0.342791  1
  P  P26  1  0.224643  0.686952  0.160725  1
  P  P27  1  0.331805  0.332024  0.370411  1
  P  P28  1  0.328780  0.336101  0.869210  1
  P  P29  1  0.083110  0.694253  0.655573  1
  P  P30  1  0.228494  0.086142  0.660049  1
  P  P31  1  0.084080  0.230341  0.155601  1
  O  O32  1  0.992180  0.792790  0.571710  1
  O  O33  1  0.917276  0.743252  0.335355  1
  O  O34  1  0.789708  0.003226  0.073475  1
  O  O35  1  0.744961  0.910748  0.838801  1
  O  O36  1  0.923718  0.614040  0.829938  1
  O  O37  1  0.812802  0.664310  0.180976  1
  O  O38  1  0.921414  0.461904  0.331560  1
  O  O39  1  0.998416  0.233996  0.065262  1
  O  O40  1  0.921189  0.340463  0.834461  1
  O  O41  1  0.674299  0.815594  0.668842  1
  O  O42  1  0.620126  0.912568  0.329058  1
  O  O43  1  0.812080  0.521620  0.678939  1
  O  O44  1  0.677685  0.655264  0.023997  1
  O  O45  1  0.671329  0.663586  0.523955  1
  O  O46  1  0.675782  0.508675  0.171159  1
  O  O47  1  0.471503  0.906810  0.830006  1
  O  O48  1  0.513210  0.809982  0.166574  1
  O  O49  1  0.746277  0.337454  0.343361  1
  O  O50  1  0.797399  0.203839  0.749307  1
  O  O51  1  0.772130  0.215774  0.566593  1
  O  O52  1  0.792327  0.224883  0.931973  1
  O  O53  1  0.621183  0.468425  0.828513  1
  O  O54  1  0.511659  0.676999  0.669800  1
  O  O55  1  0.656176  0.260303  0.162423  1
  O  O56  1  0.470118  0.619562  0.328902  1
  O  O57  1  0.344370  0.918507  0.334565  1
  O  O58  1  0.793573  0.007958  0.254200  1
  O  O59  1  0.780845  0.995205  0.432472  1
  O  O60  1  0.221971  0.003263  0.570517  1
  O  O61  1  0.660914  0.081524  0.663127  1
  O  O62  1  0.530628  0.382009  0.672328  1
  O  O63  1  0.337421  0.742741  0.840566  1
  O  O64  1  0.487760  0.324276  0.332979  1
  O  O65  1  0.379941  0.531021  0.172848  1
  O  O66  1  0.219958  0.774947  0.070858  1
  O  O67  1  0.229792  0.789976  0.434251  1
  O  O68  1  0.203420  0.797824  0.252084  1
  O  O69  1  0.254970  0.661990  0.656995  1
  O  O70  1  0.479426  0.194907  0.825029  1
  O  O71  1  0.537074  0.081890  0.169056  1
  O  O72  1  0.319494  0.491844  0.831369  1
  O  O73  1  0.313181  0.336745  0.974967  1
  O  O74  1  0.324740  0.335149  0.476575  1
  O  O75  1  0.188021  0.480828  0.321502  1
  O  O76  1  0.385786  0.082235  0.672937  1
  O  O77  1  0.325999  0.186433  0.328615  1
  O  O78  1  0.082302  0.659958  0.166004  1
  O  O79  1  0.002506  0.796114  0.750340  1
  O  O80  1  0.004870  0.784901  0.927692  1
  O  O81  1  0.082518  0.536542  0.668843  1
  O  O82  1  0.183470  0.328964  0.822486  1
  O  O83  1  0.087432  0.383816  0.172687  1
  O  O84  1  0.253393  0.083907  0.156278  1
  O  O85  1  0.225866  0.998477  0.932032  1
  O  O86  1  0.204213  0.998726  0.750904  1
  O  O87  1  0.087322  0.257782  0.663808  1
  O  O88  1  0.011559  0.200893  0.423496  1
  O  O89  1  0.992176  0.208347  0.243755  1
