# generated using pymatgen
data_Li3CuS2
_symmetry_space_group_name_H-M   'P 1'
_cell_length_a   8.19207622
_cell_length_b   8.19207622
_cell_length_c   8.19207622
_cell_angle_alpha   122.36313676
_cell_angle_beta   122.36313676
_cell_angle_gamma   85.95345056
_symmetry_Int_Tables_number   1
_chemical_formula_structural   Li3CuS2
_chemical_formula_sum   'Li12 Cu4 S8'
_cell_volume   373.84535838
_cell_formula_units_Z   4
loop_
 _symmetry_equiv_pos_site_id
 _symmetry_equiv_pos_as_xyz
  1  'x, y, z'
loop_
 _atom_site_type_symbol
 _atom_site_label
 _atom_site_symmetry_multiplicity
 _atom_site_fract_x
 _atom_site_fract_y
 _atom_site_fract_z
 _atom_site_occupancy
  Li  Li0  1  0.837358  0.162642  0.250000  1
  Li  Li1  1  0.000000  0.000000  0.000000  1
  Li  Li2  1  0.500000  0.000000  0.500000  1
  Li  Li3  1  0.837358  0.587358  0.674714  1
  Li  Li4  1  0.412642  0.587358  0.250000  1
  Li  Li5  1  0.587358  0.837358  0.174714  1
  Li  Li6  1  0.000000  0.500000  0.000000  1
  Li  Li7  1  0.000000  0.000000  0.500000  1
  Li  Li8  1  0.162642  0.412642  0.325286  1
  Li  Li9  1  0.587358  0.412642  0.750000  1
  Li  Li10  1  0.412642  0.162642  0.825286  1
  Li  Li11  1  0.162642  0.837358  0.750000  1
  Cu  Cu12  1  0.477463  0.227463  0.250000  1
  Cu  Cu13  1  0.772537  0.522537  0.250000  1
  Cu  Cu14  1  0.227463  0.477463  0.750000  1
  Cu  Cu15  1  0.522537  0.772537  0.750000  1
  S  S16  1  0.790087  0.769737  0.020349  1
  S  S17  1  0.750612  0.230263  0.520349  1
  S  S18  1  0.230263  0.209913  0.479651  1
  S  S19  1  0.769737  0.249388  0.979651  1
  S  S20  1  0.230263  0.750612  0.020349  1
  S  S21  1  0.769737  0.790087  0.520349  1
  S  S22  1  0.209913  0.230263  0.979651  1
  S  S23  1  0.249388  0.769737  0.479651  1
