# generated using pymatgen
data_Li2V2O5F2
_symmetry_space_group_name_H-M   'P 1'
_cell_length_a   5.98968620
_cell_length_b   5.63653340
_cell_length_c   10.13191902
_cell_angle_alpha   91.00163879
_cell_angle_beta   104.47070962
_cell_angle_gamma   68.13116218
_symmetry_Int_Tables_number   1
_chemical_formula_structural   Li2V2O5F2
_chemical_formula_sum   'Li4 V4 O10 F4'
_cell_volume   306.28851534
_cell_formula_units_Z   2
loop_
 _symmetry_equiv_pos_site_id
 _symmetry_equiv_pos_as_xyz
  1  'x, y, z'
loop_
 _atom_site_type_symbol
 _atom_site_label
 _atom_site_symmetry_multiplicity
 _atom_site_fract_x
 _atom_site_fract_y
 _atom_site_fract_z
 _atom_site_occupancy
  Li  Li0  1  0.189254  0.076457  0.394967  1
  Li  Li1  1  0.268550  0.882787  0.084444  1
  Li  Li2  1  0.731450  0.117213  0.915556  1
  Li  Li3  1  0.810746  0.923543  0.605033  1
  V  V4  1  0.242612  0.399747  0.093897  1
  V  V5  1  0.393380  0.469163  0.605295  1
  V  V6  1  0.606620  0.530837  0.394705  1
  V  V7  1  0.757388  0.600253  0.906103  1
  O  O8  1  0.970383  0.296101  0.005085  1
  O  O9  1  0.295882  0.232606  0.568218  1
  O  O10  1  0.380063  0.567119  0.224246  1
  O  O11  1  0.305276  0.692747  0.461456  1
  O  O12  1  0.458105  0.257255  0.013927  1
  O  O13  1  0.541895  0.742745  0.986073  1
  O  O14  1  0.694724  0.307253  0.538544  1
  O  O15  1  0.619937  0.432881  0.775754  1
  O  O16  1  0.704118  0.767394  0.431782  1
  O  O17  1  0.029617  0.703899  0.994915  1
  F  F18  1  0.297391  0.126266  0.226151  1
  F  F19  1  0.140571  0.687460  0.679101  1
  F  F20  1  0.859429  0.312540  0.320899  1
  F  F21  1  0.702609  0.873734  0.773849  1
