# generated using pymatgen
data_Na5CuO4
_symmetry_space_group_name_H-M   'P 1'
_cell_length_a   7.47590101
_cell_length_b   7.20461529
_cell_length_c   5.39675513
_cell_angle_alpha   89.99985186
_cell_angle_beta   90.00057726
_cell_angle_gamma   89.99959476
_symmetry_Int_Tables_number   1
_chemical_formula_structural   Na5CuO4
_chemical_formula_sum   'Na10 Cu2 O8'
_cell_volume   290.67457798
_cell_formula_units_Z   2
loop_
 _symmetry_equiv_pos_site_id
 _symmetry_equiv_pos_as_xyz
  1  'x, y, z'
loop_
 _atom_site_type_symbol
 _atom_site_label
 _atom_site_symmetry_multiplicity
 _atom_site_fract_x
 _atom_site_fract_y
 _atom_site_fract_z
 _atom_site_occupancy
  Na  Na0  1  0.054617  0.010270  0.741765  1
  Na  Na1  1  0.054618  0.489740  0.741771  1
  Na  Na2  1  0.250002  0.750003  0.176089  1
  Na  Na3  1  0.445381  0.489733  0.741768  1
  Na  Na4  1  0.445385  0.010266  0.741782  1
  Na  Na5  1  0.555075  0.510657  0.258033  1
  Na  Na6  1  0.555076  0.989342  0.258028  1
  Na  Na7  1  0.749999  0.249997  0.823184  1
  Na  Na8  1  0.944930  0.510657  0.258024  1
  Na  Na9  1  0.944929  0.989348  0.258025  1
  Cu  Cu10  1  0.249984  0.249985  0.212637  1
  Cu  Cu11  1  0.750003  0.749991  0.788219  1
  O  O12  1  0.022832  0.250003  0.031763  1
  O  O13  1  0.250001  0.478610  0.401538  1
  O  O14  1  0.250001  0.021392  0.401539  1
  O  O15  1  0.477168  0.249998  0.031767  1
  O  O16  1  0.522348  0.750003  0.967948  1
  O  O17  1  0.750001  0.521728  0.599085  1
  O  O18  1  0.750001  0.978274  0.599088  1
  O  O19  1  0.977648  0.750002  0.967947  1
