# generated using pymatgen
data_Na2CoO3
_symmetry_space_group_name_H-M   'P 1'
_cell_length_a   5.30889085
_cell_length_b   5.34032207
_cell_length_c   10.93157637
_cell_angle_alpha   84.89505840
_cell_angle_beta   100.31234603
_cell_angle_gamma   119.80549456
_symmetry_Int_Tables_number   1
_chemical_formula_structural   Na2CoO3
_chemical_formula_sum   'Na8 Co4 O12'
_cell_volume   264.58174742
_cell_formula_units_Z   4
loop_
 _symmetry_equiv_pos_site_id
 _symmetry_equiv_pos_as_xyz
  1  'x, y, z'
loop_
 _atom_site_type_symbol
 _atom_site_label
 _atom_site_symmetry_multiplicity
 _atom_site_fract_x
 _atom_site_fract_y
 _atom_site_fract_z
 _atom_site_occupancy
  Na  Na0  1  0.158206  0.842015  0.499663  1
  Na  Na1  1  0.000000  0.500000  0.000000  1
  Na  Na2  1  0.085965  0.171929  0.250000  1
  Na  Na3  1  0.500000  0.500000  0.500000  1
  Na  Na4  1  0.683809  0.842015  0.000337  1
  Na  Na5  1  0.316191  0.157985  0.999663  1
  Na  Na6  1  0.914035  0.828071  0.750000  1
  Na  Na7  1  0.841794  0.157985  0.500337  1
  Co  Co8  1  0.252486  0.504973  0.750000  1
  Co  Co9  1  0.416274  0.832548  0.250000  1
  Co  Co10  1  0.583726  0.167452  0.750000  1
  Co  Co11  1  0.747514  0.495027  0.250000  1
  O  O12  1  0.057987  0.795145  0.149219  1
  O  O13  1  0.324176  0.812674  0.849089  1
  O  O14  1  0.120529  0.557619  0.350475  1
  O  O15  1  0.488498  0.812674  0.650911  1
  O  O16  1  0.262843  0.204855  0.649219  1
  O  O17  1  0.562911  0.442381  0.850475  1
  O  O18  1  0.437089  0.557619  0.149525  1
  O  O19  1  0.737157  0.795145  0.350781  1
  O  O20  1  0.511502  0.187326  0.349089  1
  O  O21  1  0.879471  0.442381  0.649525  1
  O  O22  1  0.675824  0.187326  0.150911  1
  O  O23  1  0.942013  0.204855  0.850781  1
