# generated using pymatgen
data_Li2SiNiO4
_symmetry_space_group_name_H-M   'P 1'
_cell_length_a   6.36259848
_cell_length_b   10.71008417
_cell_length_c   5.05084190
_cell_angle_alpha   90.00000000
_cell_angle_beta   91.55603815
_cell_angle_gamma   90.00000000
_symmetry_Int_Tables_number   1
_chemical_formula_structural   Li2SiNiO4
_chemical_formula_sum   'Li8 Si4 Ni4 O16'
_cell_volume   344.05747488
_cell_formula_units_Z   4
loop_
 _symmetry_equiv_pos_site_id
 _symmetry_equiv_pos_as_xyz
  1  'x, y, z'
loop_
 _atom_site_type_symbol
 _atom_site_label
 _atom_site_symmetry_multiplicity
 _atom_site_fract_x
 _atom_site_fract_y
 _atom_site_fract_z
 _atom_site_occupancy
  Li  Li0  1  0.005455  0.836727  0.692075  1
  Li  Li1  1  0.240555  0.078398  0.704173  1
  Li  Li2  1  0.259445  0.578398  0.795827  1
  Li  Li3  1  0.494545  0.336727  0.807925  1
  Li  Li4  1  0.505455  0.663273  0.192075  1
  Li  Li5  1  0.740555  0.421602  0.204173  1
  Li  Li6  1  0.759445  0.921602  0.295827  1
  Li  Li7  1  0.994545  0.163273  0.307925  1
  Si  Si8  1  0.245611  0.413712  0.310516  1
  Si  Si9  1  0.254389  0.913712  0.189484  1
  Si  Si10  1  0.745611  0.086288  0.810516  1
  Si  Si11  1  0.754389  0.586288  0.689484  1
  Ni  Ni12  1  0.000232  0.663660  0.193868  1
  Ni  Ni13  1  0.499768  0.163660  0.306132  1
  Ni  Ni14  1  0.500232  0.836340  0.693868  1
  Ni  Ni15  1  0.999768  0.336340  0.806132  1
  O  O16  1  0.029546  0.340302  0.203981  1
  O  O17  1  0.044262  0.839351  0.291922  1
  O  O18  1  0.246396  0.058058  0.300691  1
  O  O19  1  0.247351  0.413407  0.637413  1
  O  O20  1  0.252649  0.913407  0.862587  1
  O  O21  1  0.253604  0.558058  0.199309  1
  O  O22  1  0.455738  0.339351  0.208078  1
  O  O23  1  0.470454  0.840302  0.296019  1
  O  O24  1  0.529546  0.159698  0.703981  1
  O  O25  1  0.544262  0.660649  0.791922  1
  O  O26  1  0.746396  0.441942  0.800691  1
  O  O27  1  0.747351  0.086593  0.137413  1
  O  O28  1  0.752649  0.586593  0.362587  1
  O  O29  1  0.753604  0.941942  0.699309  1
  O  O30  1  0.955738  0.160649  0.708078  1
  O  O31  1  0.970454  0.659698  0.796019  1
