# generated using pymatgen
data_Fe6O7F5
_symmetry_space_group_name_H-M   'P 1'
_cell_length_a   7.59812335
_cell_length_b   5.65500866
_cell_length_c   5.65010260
_cell_angle_alpha   70.14977546
_cell_angle_beta   69.82269435
_cell_angle_gamma   69.71683605
_symmetry_Int_Tables_number   1
_chemical_formula_structural   Fe6O7F5
_chemical_formula_sum   'Fe6 O7 F5'
_cell_volume   206.96159487
_cell_formula_units_Z   1
loop_
 _symmetry_equiv_pos_site_id
 _symmetry_equiv_pos_as_xyz
  1  'x, y, z'
loop_
 _atom_site_type_symbol
 _atom_site_label
 _atom_site_symmetry_multiplicity
 _atom_site_fract_x
 _atom_site_fract_y
 _atom_site_fract_z
 _atom_site_occupancy
  Fe  Fe0  1  0.850166  0.672933  0.678797  1
  Fe  Fe1  1  0.657959  0.332222  0.344290  1
  Fe  Fe2  1  0.317014  0.682387  0.629385  1
  Fe  Fe3  1  0.176285  0.339945  0.359698  1
  Fe  Fe4  1  0.504715  0.978614  0.997534  1
  Fe  Fe5  1  0.997375  0.987412  0.999635  1
  O  O6  1  0.672757  0.019586  0.637850  1
  O  O7  1  0.039873  0.773594  0.776755  1
  O  O8  1  0.377094  0.434547  0.427516  1
  O  O9  1  0.331916  0.985478  0.342476  1
  O  O10  1  0.676092  0.627150  0.025746  1
  O  O11  1  0.993319  0.310396  0.709871  1
  O  O12  1  0.995964  0.698128  0.317454  1
  F  F13  1  0.333938  0.369549  0.957770  1
  F  F14  1  0.300395  0.896154  0.891256  1
  F  F15  1  0.956483  0.225593  0.232973  1
  F  F16  1  0.619689  0.567282  0.568387  1
  F  F17  1  0.698967  0.099028  0.102606  1
