# generated using pymatgen
data_K3P3H4O11
_symmetry_space_group_name_H-M   'P 1'
_cell_length_a   7.64027834
_cell_length_b   11.33640134
_cell_length_c   26.94894873
_cell_angle_alpha   90.00000000
_cell_angle_beta   90.00000000
_cell_angle_gamma   90.00000000
_symmetry_Int_Tables_number   1
_chemical_formula_structural   K3P3H4O11
_chemical_formula_sum   'K24 P24 H32 O88'
_cell_volume   2334.13634651
_cell_formula_units_Z   8
loop_
 _symmetry_equiv_pos_site_id
 _symmetry_equiv_pos_as_xyz
  1  'x, y, z'
loop_
 _atom_site_type_symbol
 _atom_site_label
 _atom_site_symmetry_multiplicity
 _atom_site_fract_x
 _atom_site_fract_y
 _atom_site_fract_z
 _atom_site_occupancy
  K  K0  1  0.766785  0.490563  0.035480  1
  K  K1  1  0.266785  0.009437  0.964520  1
  K  K2  1  0.233215  0.990563  0.464520  1
  K  K3  1  0.733215  0.509437  0.535480  1
  K  K4  1  0.233215  0.509437  0.964520  1
  K  K5  1  0.733215  0.990563  0.035480  1
  K  K6  1  0.766785  0.009437  0.535480  1
  K  K7  1  0.266785  0.490563  0.464520  1
  K  K8  1  0.730001  0.482451  0.206655  1
  K  K9  1  0.230001  0.017549  0.793345  1
  K  K10  1  0.269999  0.982451  0.293345  1
  K  K11  1  0.769999  0.517549  0.706655  1
  K  K12  1  0.269999  0.517549  0.793345  1
  K  K13  1  0.769999  0.982451  0.206655  1
  K  K14  1  0.730001  0.017549  0.706655  1
  K  K15  1  0.230001  0.482451  0.293345  1
  K  K16  1  0.865944  0.027556  0.375511  1
  K  K17  1  0.365944  0.472444  0.624489  1
  K  K18  1  0.134056  0.527556  0.124489  1
  K  K19  1  0.634056  0.972444  0.875511  1
  K  K20  1  0.134056  0.972444  0.624489  1
  K  K21  1  0.634056  0.527556  0.375511  1
  K  K22  1  0.865944  0.472444  0.875511  1
  K  K23  1  0.365944  0.027556  0.124489  1
  P  P24  1  0.609917  0.243954  0.459939  1
  P  P25  1  0.109917  0.256046  0.540061  1
  P  P26  1  0.390083  0.743954  0.040061  1
  P  P27  1  0.890083  0.756046  0.959939  1
  P  P28  1  0.390083  0.756046  0.540061  1
  P  P29  1  0.890083  0.743954  0.459939  1
  P  P30  1  0.609917  0.256046  0.959939  1
  P  P31  1  0.109917  0.243954  0.040061  1
  P  P32  1  0.595445  0.248839  0.291551  1
  P  P33  1  0.095445  0.251161  0.708449  1
  P  P34  1  0.404555  0.748839  0.208449  1
  P  P35  1  0.904555  0.751161  0.791551  1
  P  P36  1  0.404555  0.751161  0.708449  1
  P  P37  1  0.904555  0.748839  0.291551  1
  P  P38  1  0.595445  0.251161  0.791551  1
  P  P39  1  0.095445  0.248839  0.208449  1
  P  P40  1  0.839093  0.222101  0.122796  1
  P  P41  1  0.339093  0.277899  0.877204  1
  P  P42  1  0.160907  0.722101  0.377204  1
  P  P43  1  0.660907  0.777899  0.622796  1
  P  P44  1  0.160907  0.777899  0.877204  1
  P  P45  1  0.660907  0.722101  0.122796  1
  P  P46  1  0.839093  0.277899  0.622796  1
  P  P47  1  0.339093  0.222101  0.377204  1
  H  H48  1  0.949975  0.197646  0.277008  1
  H  H49  1  0.449975  0.302354  0.722992  1
  H  H50  1  0.050025  0.697646  0.222992  1
  H  H51  1  0.550025  0.802354  0.777008  1
  H  H52  1  0.050025  0.802354  0.722992  1
  H  H53  1  0.550025  0.697646  0.277008  1
  H  H54  1  0.949975  0.302354  0.777008  1
  H  H55  1  0.449975  0.197646  0.222992  1
  H  H56  1  0.932482  0.244812  0.973266  1
  H  H57  1  0.432482  0.255188  0.026734  1
  H  H58  1  0.067518  0.744812  0.526734  1
  H  H59  1  0.567518  0.755188  0.473266  1
  H  H60  1  0.067518  0.755188  0.026734  1
  H  H61  1  0.567518  0.744812  0.973266  1
  H  H62  1  0.932482  0.255188  0.473266  1
  H  H63  1  0.432482  0.244812  0.526734  1
  H  H64  1  0.884820  0.327725  0.345403  1
  H  H65  1  0.384820  0.172275  0.654597  1
  H  H66  1  0.115180  0.827725  0.154597  1
  H  H67  1  0.615180  0.672275  0.845403  1
  H  H68  1  0.115180  0.672275  0.654597  1
  H  H69  1  0.615180  0.827725  0.345403  1
  H  H70  1  0.884820  0.172275  0.845403  1
  H  H71  1  0.384820  0.327725  0.154597  1
  H  H72  1  0.537074  0.381830  0.123988  1
  H  H73  1  0.037074  0.118170  0.876012  1
  H  H74  1  0.462926  0.881830  0.376012  1
  H  H75  1  0.962926  0.618170  0.623988  1
  H  H76  1  0.462926  0.618170  0.876012  1
  H  H77  1  0.962926  0.881830  0.123988  1
  H  H78  1  0.537074  0.118170  0.623988  1
  H  H79  1  0.037074  0.381830  0.376012  1
  O  O80  1  0.603006  0.376038  0.456036  1
  O  O81  1  0.103006  0.123962  0.543964  1
  O  O82  1  0.396994  0.876038  0.043964  1
  O  O83  1  0.896994  0.623962  0.956036  1
  O  O84  1  0.396994  0.623962  0.543964  1
  O  O85  1  0.896994  0.876038  0.456036  1
  O  O86  1  0.603006  0.123962  0.956036  1
  O  O87  1  0.103006  0.376038  0.043964  1
  O  O88  1  0.562134  0.378810  0.286394  1
  O  O89  1  0.062134  0.121190  0.713606  1
  O  O90  1  0.437866  0.878810  0.213606  1
  O  O91  1  0.937866  0.621190  0.786394  1
  O  O92  1  0.437866  0.621190  0.713606  1
  O  O93  1  0.937866  0.878810  0.286394  1
  O  O94  1  0.562134  0.121190  0.786394  1
  O  O95  1  0.062134  0.378810  0.213606  1
  O  O96  1  0.773970  0.209307  0.310320  1
  O  O97  1  0.273970  0.290693  0.689680  1
  O  O98  1  0.226030  0.709307  0.189680  1
  O  O99  1  0.726030  0.790693  0.810320  1
  O  O100  1  0.226030  0.790693  0.689680  1
  O  O101  1  0.726030  0.709307  0.310320  1
  O  O102  1  0.773970  0.290693  0.810320  1
  O  O103  1  0.273970  0.209307  0.189680  1
  O  O104  1  0.692936  0.134147  0.120246  1
  O  O105  1  0.192936  0.365853  0.879754  1
  O  O106  1  0.307064  0.634147  0.379754  1
  O  O107  1  0.807064  0.865853  0.620246  1
  O  O108  1  0.307064  0.865853  0.879754  1
  O  O109  1  0.807064  0.634147  0.120246  1
  O  O110  1  0.692936  0.365853  0.620246  1
  O  O111  1  0.192936  0.134147  0.379754  1
  O  O112  1  0.785522  0.182882  0.452837  1
  O  O113  1  0.285522  0.317118  0.547163  1
  O  O114  1  0.214478  0.682882  0.047163  1
  O  O115  1  0.714478  0.817118  0.952837  1
  O  O116  1  0.214478  0.817118  0.547163  1
  O  O117  1  0.714478  0.682882  0.452837  1
  O  O118  1  0.785522  0.317118  0.952837  1
  O  O119  1  0.285522  0.182882  0.047163  1
  O  O120  1  0.803808  0.351968  0.120514  1
  O  O121  1  0.303808  0.148032  0.879486  1
  O  O122  1  0.196192  0.851968  0.379486  1
  O  O123  1  0.696192  0.648032  0.620514  1
  O  O124  1  0.196192  0.648032  0.879486  1
  O  O125  1  0.696192  0.851968  0.120514  1
  O  O126  1  0.803808  0.148032  0.620514  1
  O  O127  1  0.303808  0.351968  0.379486  1
  O  O128  1  0.563043  0.178026  0.241184  1
  O  O129  1  0.063043  0.321974  0.758816  1
  O  O130  1  0.436957  0.678026  0.258816  1
  O  O131  1  0.936957  0.821974  0.741184  1
  O  O132  1  0.436957  0.821974  0.758816  1
  O  O133  1  0.936957  0.678026  0.241184  1
  O  O134  1  0.563043  0.321974  0.741184  1
  O  O135  1  0.063043  0.178026  0.258816  1
  O  O136  1  0.945917  0.188741  0.173358  1
  O  O137  1  0.445917  0.311259  0.826642  1
  O  O138  1  0.054083  0.688741  0.326642  1
  O  O139  1  0.554083  0.811259  0.673358  1
  O  O140  1  0.054083  0.811259  0.826642  1
  O  O141  1  0.554083  0.688741  0.173358  1
  O  O142  1  0.945917  0.311259  0.673358  1
  O  O143  1  0.445917  0.188741  0.326642  1
  O  O144  1  0.978362  0.181427  0.080306  1
  O  O145  1  0.478362  0.318573  0.919694  1
  O  O146  1  0.021638  0.681427  0.419694  1
  O  O147  1  0.521638  0.818573  0.580306  1
  O  O148  1  0.021638  0.818573  0.919694  1
  O  O149  1  0.521638  0.681427  0.080306  1
  O  O150  1  0.978362  0.318573  0.580306  1
  O  O151  1  0.478362  0.181427  0.419694  1
  O  O152  1  0.034503  0.304416  0.488816  1
  O  O153  1  0.534503  0.195584  0.511185  1
  O  O154  1  0.965497  0.804416  0.011184  1
  O  O155  1  0.465497  0.695584  0.988815  1
  O  O156  1  0.965497  0.695584  0.511185  1
  O  O157  1  0.465497  0.804416  0.488816  1
  O  O158  1  0.034503  0.195584  0.988815  1
  O  O159  1  0.534503  0.304416  0.011184  1
  O  O160  1  0.932878  0.403745  0.356988  1
  O  O161  1  0.432878  0.096255  0.643012  1
  O  O162  1  0.067122  0.903745  0.143012  1
  O  O163  1  0.567122  0.596255  0.856988  1
  O  O164  1  0.067122  0.596255  0.643012  1
  O  O165  1  0.567122  0.903745  0.356988  1
  O  O166  1  0.932878  0.096255  0.856988  1
  O  O167  1  0.432878  0.403745  0.143012  1
