# generated using pymatgen
data_Li2FeWO6
_symmetry_space_group_name_H-M   'P 1'
_cell_length_a   5.42681971
_cell_length_b   5.43570930
_cell_length_c   9.58772663
_cell_angle_alpha   151.76826009
_cell_angle_beta   51.42441061
_cell_angle_gamma   123.41286218
_symmetry_Int_Tables_number   1
_chemical_formula_structural   Li2FeWO6
_chemical_formula_sum   'Li2 Fe1 W1 O6'
_cell_volume   104.59223596
_cell_formula_units_Z   1
loop_
 _symmetry_equiv_pos_site_id
 _symmetry_equiv_pos_as_xyz
  1  'x, y, z'
loop_
 _atom_site_type_symbol
 _atom_site_label
 _atom_site_symmetry_multiplicity
 _atom_site_fract_x
 _atom_site_fract_y
 _atom_site_fract_z
 _atom_site_occupancy
  Li  Li0  1  0.288350  -0.000012  0.287298  1
  Li  Li1  1  0.776885  0.999966  0.777401  1
  Fe  Fe2  1  0.002838  -0.000021  0.003843  1
  W  W3  1  0.504373  0.000418  0.504883  1
  O  O4  1  0.369355  0.403132  0.132602  1
  O  O5  1  0.242427  0.754891  0.620616  1
  O  O6  1  0.132992  0.359692  0.729807  1
  O  O7  1  0.867087  0.619353  0.241305  1
  O  O8  1  0.728178  0.234875  0.370379  1
  O  O9  1  0.623116  0.627704  0.867463  1
