# generated using pymatgen
data_Li2Fe3CoO8
_symmetry_space_group_name_H-M   'P 1'
_cell_length_a   8.38333368
_cell_length_b   8.31411224
_cell_length_c   8.42490618
_cell_angle_alpha   89.98928630
_cell_angle_beta   89.99831117
_cell_angle_gamma   90.07545172
_symmetry_Int_Tables_number   1
_chemical_formula_structural   Li2Fe3CoO8
_chemical_formula_sum   'Li8 Fe12 Co4 O32'
_cell_volume   587.21524857
_cell_formula_units_Z   4
loop_
 _symmetry_equiv_pos_site_id
 _symmetry_equiv_pos_as_xyz
  1  'x, y, z'
loop_
 _atom_site_type_symbol
 _atom_site_label
 _atom_site_symmetry_multiplicity
 _atom_site_fract_x
 _atom_site_fract_y
 _atom_site_fract_z
 _atom_site_occupancy
  Li  Li0  1  0.002183  0.002000  0.003237  1
  Li  Li1  1  0.247507  0.247529  0.246884  1
  Li  Li2  1  0.252685  0.752257  0.746607  1
  Li  Li3  1  0.497435  0.998085  0.503042  1
  Li  Li4  1  0.502325  0.497610  0.998287  1
  Li  Li5  1  0.747368  0.252327  0.751767  1
  Li  Li6  1  0.752752  0.747655  0.251614  1
  Li  Li7  1  0.997902  0.502388  0.498393  1
  Fe  Fe8  1  0.126899  0.122276  0.625255  1
  Fe  Fe9  1  0.125749  0.371736  0.878289  1
  Fe  Fe10  1  0.122228  0.624764  0.127131  1
  Fe  Fe11  1  0.377860  0.375221  0.627087  1
  Fe  Fe12  1  0.374292  0.628310  0.378218  1
  Fe  Fe13  1  0.372929  0.877689  0.125185  1
  Fe  Fe14  1  0.627521  0.377745  0.374748  1
  Fe  Fe15  1  0.626159  0.127843  0.122020  1
  Fe  Fe16  1  0.621342  0.874817  0.872747  1
  Fe  Fe17  1  0.878602  0.125343  0.372829  1
  Fe  Fe18  1  0.873675  0.872162  0.621902  1
  Fe  Fe19  1  0.872561  0.622401  0.874741  1
  Co  Co20  1  0.125344  0.876105  0.375061  1
  Co  Co21  1  0.374515  0.123736  0.875037  1
  Co  Co22  1  0.624887  0.624435  0.624800  1
  Co  Co23  1  0.875255  0.375570  0.124958  1
  O  O24  1  0.119173  0.102953  0.383807  1
  O  O25  1  0.115457  0.884194  0.602525  1
  O  O26  1  0.112137  0.612099  0.885208  1
  O  O27  1  0.147377  0.130990  0.866528  1
  O  O28  1  0.103485  0.384077  0.118137  1
  O  O29  1  0.135860  0.359699  0.636268  1
  O  O30  1  0.133775  0.648535  0.369007  1
  O  O31  1  0.133828  0.866538  0.148091  1
  O  O32  1  0.365924  0.133394  0.648001  1
  O  O33  1  0.366318  0.351245  0.869020  1
  O  O34  1  0.364105  0.640257  0.136138  1
  O  O35  1  0.396578  0.615811  0.617962  1
  O  O36  1  0.352428  0.868915  0.366488  1
  O  O37  1  0.387809  0.387968  0.385303  1
  O  O38  1  0.384487  0.115745  0.102560  1
  O  O39  1  0.380703  0.897086  0.883650  1
  O  O40  1  0.619077  0.398068  0.616168  1
  O  O41  1  0.615289  0.617372  0.397403  1
  O  O42  1  0.611262  0.886971  0.114875  1
  O  O43  1  0.647069  0.368643  0.134308  1
  O  O44  1  0.602041  0.115742  0.881055  1
  O  O45  1  0.637257  0.139249  0.364644  1
  O  O46  1  0.633091  0.851658  0.630412  1
  O  O47  1  0.632473  0.633111  0.851838  1
  O  O48  1  0.867776  0.366897  0.351868  1
  O  O49  1  0.866818  0.148255  0.130715  1
  O  O50  1  0.862757  0.860921  0.864424  1
  O  O51  1  0.897835  0.884309  0.381021  1
  O  O52  1  0.853218  0.631566  0.634392  1
  O  O53  1  0.888746  0.113044  0.614928  1
  O  O54  1  0.884782  0.382761  0.897563  1
  O  O55  1  0.881092  0.602065  0.115993  1
