# generated using pymatgen
data_Li5Nb2Ni3O10
_symmetry_space_group_name_H-M   'P 1'
_cell_length_a   5.21924020
_cell_length_b   5.21076365
_cell_length_c   7.93787529
_cell_angle_alpha   109.84348799
_cell_angle_beta   101.78296573
_cell_angle_gamma   99.93293618
_symmetry_Int_Tables_number   1
_chemical_formula_structural   Li5Nb2Ni3O10
_chemical_formula_sum   'Li5 Nb2 Ni3 O10'
_cell_volume   191.80618241
_cell_formula_units_Z   1
loop_
 _symmetry_equiv_pos_site_id
 _symmetry_equiv_pos_as_xyz
  1  'x, y, z'
loop_
 _atom_site_type_symbol
 _atom_site_label
 _atom_site_symmetry_multiplicity
 _atom_site_fract_x
 _atom_site_fract_y
 _atom_site_fract_z
 _atom_site_occupancy
  Li  Li0  1  0.223502  0.903638  0.397420  1
  Li  Li1  1  0.418856  0.307559  0.800764  1
  Li  Li2  1  0.500000  0.500000  0.500000  1
  Li  Li3  1  0.581144  0.692441  0.199236  1
  Li  Li4  1  0.776498  0.096362  0.602580  1
  Nb  Nb5  1  0.101072  0.704721  0.691905  1
  Nb  Nb6  1  0.898928  0.295279  0.308095  1
  Ni  Ni7  1  0.000000  0.500000  0.000000  1
  Ni  Ni8  1  0.698896  0.896772  0.900319  1
  Ni  Ni9  1  0.301104  0.103228  0.099681  1
  O  O10  1  0.047538  0.090808  0.850768  1
  O  O11  1  0.338344  0.706984  0.943554  1
  O  O12  1  0.151377  0.304354  0.549256  1
  O  O13  1  0.226473  0.486636  0.246454  1
  O  O14  1  0.432707  0.889983  0.654347  1
  O  O15  1  0.567293  0.110017  0.345653  1
  O  O16  1  0.773527  0.513364  0.753546  1
  O  O17  1  0.848623  0.695646  0.450744  1
  O  O18  1  0.661656  0.293016  0.056446  1
  O  O19  1  0.952462  0.909192  0.149232  1
