# generated using pymatgen
data_Na5Mn2P2(CO7)2
_symmetry_space_group_name_H-M   'P 1'
_cell_length_a   9.01377730
_cell_length_b   8.46246820
_cell_length_c   8.48063155
_cell_angle_alpha   103.23119215
_cell_angle_beta   89.34313097
_cell_angle_gamma   89.37686753
_symmetry_Int_Tables_number   1
_chemical_formula_structural   Na5Mn2P2(CO7)2
_chemical_formula_sum   'Na10 Mn4 P4 C4 O28'
_cell_volume   629.61836869
_cell_formula_units_Z   2
loop_
 _symmetry_equiv_pos_site_id
 _symmetry_equiv_pos_as_xyz
  1  'x, y, z'
loop_
 _atom_site_type_symbol
 _atom_site_label
 _atom_site_symmetry_multiplicity
 _atom_site_fract_x
 _atom_site_fract_y
 _atom_site_fract_z
 _atom_site_occupancy
  Na  Na0  1  0.920332  0.241304  0.991259  1
  Na  Na1  1  0.766150  0.386963  0.389143  1
  Na  Na2  1  0.761566  0.114522  0.612737  1
  Na  Na3  1  0.747118  0.634651  0.144638  1
  Na  Na4  1  0.744107  0.870422  0.862563  1
  Na  Na5  1  0.255893  0.129578  0.137437  1
  Na  Na6  1  0.252882  0.365349  0.855362  1
  Na  Na7  1  0.233850  0.613037  0.610857  1
  Na  Na8  1  0.238434  0.885478  0.387263  1
  Na  Na9  1  0.079668  0.758696  0.008741  1
  Mn  Mn10  1  0.643627  0.484078  0.735068  1
  Mn  Mn11  1  0.642433  0.985987  0.234671  1
  Mn  Mn12  1  0.356373  0.515922  0.264932  1
  Mn  Mn13  1  0.357567  0.014013  0.765329  1
  P  P14  1  0.581153  0.275945  0.024820  1
  P  P15  1  0.576915  0.772806  0.523617  1
  P  P16  1  0.423085  0.227194  0.476383  1
  P  P17  1  0.418847  0.724055  0.975180  1
  C  C18  1  0.933053  0.005450  0.252355  1
  C  C19  1  0.932064  0.516750  0.769395  1
  C  C20  1  0.067936  0.483250  0.230605  1
  C  C21  1  0.066947  0.994550  0.747645  1
  O  O22  1  0.926396  0.479843  0.223536  1
  O  O23  1  0.924933  0.999089  0.755505  1
  O  O24  1  0.861382  0.408340  0.660610  1
  O  O25  1  0.859363  0.898188  0.145587  1
  O  O26  1  0.855240  0.110276  0.356213  1
  O  O27  1  0.849851  0.619294  0.872438  1
  O  O28  1  0.677332  0.145369  0.078425  1
  O  O29  1  0.666388  0.636300  0.578302  1
  O  O30  1  0.676196  0.331307  0.892315  1
  O  O31  1  0.666905  0.825725  0.389216  1
  O  O32  1  0.556901  0.425968  0.173095  1
  O  O33  1  0.579342  0.285721  0.536417  1
  O  O34  1  0.570755  0.789343  0.038327  1
  O  O35  1  0.559195  0.920537  0.672589  1
  O  O36  1  0.440805  0.079463  0.327411  1
  O  O37  1  0.429245  0.210657  0.961673  1
  O  O38  1  0.420658  0.714279  0.463583  1
  O  O39  1  0.443099  0.574032  0.826905  1
  O  O40  1  0.333095  0.174275  0.610784  1
  O  O41  1  0.333612  0.363700  0.421698  1
  O  O42  1  0.323804  0.668693  0.107685  1
  O  O43  1  0.322668  0.854631  0.921575  1
  O  O44  1  0.150149  0.380706  0.127562  1
  O  O45  1  0.144760  0.889724  0.643787  1
  O  O46  1  0.140637  0.101812  0.854413  1
  O  O47  1  0.138618  0.591660  0.339390  1
  O  O48  1  0.075067  0.000911  0.244495  1
  O  O49  1  0.073604  0.520157  0.776464  1
