# generated using pymatgen
data_Fe2O3F
_symmetry_space_group_name_H-M   'P 1'
_cell_length_a   6.00185043
_cell_length_b   6.89943133
_cell_length_c   7.06117730
_cell_angle_alpha   90.00000000
_cell_angle_beta   115.14998991
_cell_angle_gamma   90.00000000
_symmetry_Int_Tables_number   1
_chemical_formula_structural   Fe2O3F
_chemical_formula_sum   'Fe8 O12 F4'
_cell_volume   264.67890716
_cell_formula_units_Z   4
loop_
 _symmetry_equiv_pos_site_id
 _symmetry_equiv_pos_as_xyz
  1  'x, y, z'
loop_
 _atom_site_type_symbol
 _atom_site_label
 _atom_site_symmetry_multiplicity
 _atom_site_fract_x
 _atom_site_fract_y
 _atom_site_fract_z
 _atom_site_occupancy
  Fe  Fe0  1  0.499887  0.035330  0.999773  1
  Fe  Fe1  1  0.999887  0.964670  0.999773  1
  Fe  Fe2  1  0.749988  0.500000  0.999976  1
  Fe  Fe3  1  0.249988  0.500000  0.999976  1
  Fe  Fe4  1  0.500012  0.000000  0.500023  1
  Fe  Fe5  1  0.000012  0.000000  0.500023  1
  Fe  Fe6  1  0.750113  0.535330  0.500227  1
  Fe  Fe7  1  0.250113  0.464670  0.500227  1
  O  O8  1  0.346306  0.000000  0.192612  1
  O  O9  1  0.846306  0.000000  0.192612  1
  O  O10  1  0.499135  0.321947  0.998269  1
  O  O11  1  0.250865  0.178053  0.501731  1
  O  O12  1  0.999135  0.678053  0.998269  1
  O  O13  1  0.653632  0.000000  0.807263  1
  O  O14  1  0.153632  0.000000  0.807263  1
  O  O15  1  0.403694  0.500000  0.307388  1
  O  O16  1  0.903694  0.500000  0.307388  1
  O  O17  1  0.096368  0.500000  0.692737  1
  O  O18  1  0.596368  0.500000  0.692737  1
  O  O19  1  0.750865  0.821947  0.501731  1
  F  F20  1  0.000882  0.298726  0.001763  1
  F  F21  1  0.500882  0.701274  0.001763  1
  F  F22  1  0.749118  0.201274  0.498237  1
  F  F23  1  0.249118  0.798726  0.498237  1
