# generated using pymatgen
data_Ba4Sn3O10
_symmetry_space_group_name_H-M   'P 1'
_cell_length_a   6.05277087
_cell_length_b   7.44603219
_cell_length_c   14.08963256
_cell_angle_alpha   90.00000000
_cell_angle_beta   90.00000000
_cell_angle_gamma   113.98157000
_symmetry_Int_Tables_number   1
_chemical_formula_structural   Ba4Sn3O10
_chemical_formula_sum   'Ba8 Sn6 O20'
_cell_volume   580.19120825
_cell_formula_units_Z   2
loop_
 _symmetry_equiv_pos_site_id
 _symmetry_equiv_pos_as_xyz
  1  'x, y, z'
loop_
 _atom_site_type_symbol
 _atom_site_label
 _atom_site_symmetry_multiplicity
 _atom_site_fract_x
 _atom_site_fract_y
 _atom_site_fract_z
 _atom_site_occupancy
  Ba  Ba0  1  0.262910  0.525821  0.391172  1
  Ba  Ba1  1  0.468390  0.936778  0.143322  1
  Ba  Ba2  1  0.031610  0.063222  0.643322  1
  Ba  Ba3  1  0.237090  0.474179  0.891172  1
  Ba  Ba4  1  0.531610  0.063222  0.856678  1
  Ba  Ba5  1  0.762910  0.525821  0.108828  1
  Ba  Ba6  1  0.968390  0.936778  0.356678  1
  Ba  Ba7  1  0.737090  0.474179  0.608828  1
  Sn  Sn8  1  0.000000  0.000000  0.000000  1
  Sn  Sn9  1  0.135399  0.270799  0.154582  1
  Sn  Sn10  1  0.364601  0.729201  0.654582  1
  Sn  Sn11  1  0.500000  0.000000  0.500000  1
  Sn  Sn12  1  0.864601  0.729201  0.845418  1
  Sn  Sn13  1  0.635399  0.270799  0.345418  1
  O  O14  1  0.117883  0.778596  0.962028  1
  O  O15  1  0.134187  0.768374  0.750000  1
  O  O16  1  0.160714  0.778596  0.537972  1
  O  O17  1  0.281792  0.563583  0.155902  1
  O  O18  1  0.218208  0.436417  0.655902  1
  O  O19  1  0.031938  0.063878  0.854391  1
  O  O20  1  0.468062  0.936122  0.354391  1
  O  O21  1  0.339286  0.221404  0.037972  1
  O  O22  1  0.617883  0.778596  0.537972  1
  O  O23  1  0.365813  0.231626  0.250000  1
  O  O24  1  0.634187  0.768374  0.750000  1
  O  O25  1  0.382117  0.221404  0.462028  1
  O  O26  1  0.660714  0.778596  0.962028  1
  O  O27  1  0.781792  0.563583  0.344098  1
  O  O28  1  0.718208  0.436417  0.844098  1
  O  O29  1  0.968062  0.936122  0.145609  1
  O  O30  1  0.531938  0.063878  0.645609  1
  O  O31  1  0.839286  0.221404  0.462028  1
  O  O32  1  0.865813  0.231626  0.250000  1
  O  O33  1  0.882117  0.221404  0.037972  1
