# generated using pymatgen
data_Na6Cr2B4PO16
_symmetry_space_group_name_H-M   'P 1'
_cell_length_a   9.90512907
_cell_length_b   9.90799349
_cell_length_c   9.90944139
_cell_angle_alpha   60.02801473
_cell_angle_beta   59.98878997
_cell_angle_gamma   60.00658322
_symmetry_Int_Tables_number   1
_chemical_formula_structural   Na6Cr2B4PO16
_chemical_formula_sum   'Na12 Cr4 B8 P2 O32'
_cell_volume   687.79129995
_cell_formula_units_Z   2
loop_
 _symmetry_equiv_pos_site_id
 _symmetry_equiv_pos_as_xyz
  1  'x, y, z'
loop_
 _atom_site_type_symbol
 _atom_site_label
 _atom_site_symmetry_multiplicity
 _atom_site_fract_x
 _atom_site_fract_y
 _atom_site_fract_z
 _atom_site_occupancy
  Na  Na0  1  0.088198  0.661621  0.088501  1
  Na  Na1  1  0.088328  0.088385  0.661774  1
  Na  Na2  1  0.661510  0.088368  0.088464  1
  Na  Na3  1  0.088262  0.661691  0.661695  1
  Na  Na4  1  0.338616  0.911373  0.338445  1
  Na  Na5  1  0.338668  0.338410  0.911489  1
  Na  Na6  1  0.661473  0.661790  0.088340  1
  Na  Na7  1  0.661517  0.088493  0.661718  1
  Na  Na8  1  0.911545  0.338497  0.338469  1
  Na  Na9  1  0.338615  0.911482  0.911398  1
  Na  Na10  1  0.911617  0.338569  0.911348  1
  Na  Na11  1  0.911473  0.911442  0.338405  1
  Cr  Cr12  1  0.000159  0.499722  0.500076  1
  Cr  Cr13  1  0.499915  0.000002  0.500104  1
  Cr  Cr14  1  0.500156  0.499987  -0.000096  1
  Cr  Cr15  1  0.500092  0.500043  0.499854  1
  B  B16  1  0.289014  0.289471  0.288822  1
  B  B17  1  0.288803  0.288986  0.632943  1
  B  B18  1  0.289287  0.632698  0.289186  1
  B  B19  1  0.632462  0.288934  0.289349  1
  B  B20  1  0.367510  0.711030  0.710652  1
  B  B21  1  0.710664  0.367329  0.710749  1
  B  B22  1  0.711280  0.711061  0.367077  1
  B  B23  1  0.711076  0.710519  0.711087  1
  P  P24  1  0.124956  0.125034  0.125019  1
  P  P25  1  0.875017  0.874988  0.874984  1
  O  O26  1  0.060825  0.060914  0.060929  1
  O  O27  1  0.060853  0.060968  0.317277  1
  O  O28  1  0.060843  0.317286  0.060951  1
  O  O29  1  0.317337  0.060905  0.060894  1
  O  O30  1  0.133452  0.405534  0.322573  1
  O  O31  1  0.323572  0.133344  0.405059  1
  O  O32  1  0.134087  0.321904  0.639148  1
  O  O33  1  0.405082  0.321205  0.134472  1
  O  O34  1  0.133152  0.638066  0.404924  1
  O  O35  1  0.322987  0.638482  0.133809  1
  O  O36  1  0.404815  0.134238  0.639191  1
  O  O37  1  0.323619  0.404801  0.638169  1
  O  O38  1  0.638651  0.134068  0.321924  1
  O  O39  1  0.405021  0.639362  0.321333  1
  O  O40  1  0.638054  0.405513  0.133433  1
  O  O41  1  0.361710  0.677288  0.594569  1
  O  O42  1  0.638280  0.322733  0.405421  1
  O  O43  1  0.361981  0.594515  0.866553  1
  O  O44  1  0.594982  0.360678  0.678656  1
  O  O45  1  0.361265  0.865958  0.678134  1
  O  O46  1  0.676348  0.595239  0.361787  1
  O  O47  1  0.595137  0.865779  0.360860  1
  O  O48  1  0.677053  0.361505  0.866150  1
  O  O49  1  0.866849  0.361840  0.595123  1
  O  O50  1  0.594931  0.678844  0.865498  1
  O  O51  1  0.865943  0.677960  0.360950  1
  O  O52  1  0.676373  0.866682  0.594981  1
  O  O53  1  0.866554  0.594431  0.677434  1
  O  O54  1  0.682609  0.939125  0.939113  1
  O  O55  1  0.939128  0.939067  0.682701  1
  O  O56  1  0.939136  0.682713  0.939059  1
  O  O57  1  0.939157  0.939127  0.939068  1
