# generated using pymatgen
data_Ca3Zr2Fe2SiO12
_symmetry_space_group_name_H-M   'P 1'
_cell_length_a   11.07406499
_cell_length_b   11.07433134
_cell_length_c   11.07429653
_cell_angle_alpha   110.54700254
_cell_angle_beta   108.93638418
_cell_angle_gamma   108.93624310
_symmetry_Int_Tables_number   1
_chemical_formula_structural   Ca3Zr2Fe2SiO12
_chemical_formula_sum   'Ca12 Zr8 Fe8 Si4 O48'
_cell_volume   1045.20302541
_cell_formula_units_Z   4
loop_
 _symmetry_equiv_pos_site_id
 _symmetry_equiv_pos_as_xyz
  1  'x, y, z'
loop_
 _atom_site_type_symbol
 _atom_site_label
 _atom_site_symmetry_multiplicity
 _atom_site_fract_x
 _atom_site_fract_y
 _atom_site_fract_z
 _atom_site_occupancy
  Ca  Ca0  1  0.249997  0.874999  0.625005  1
  Ca  Ca1  1  0.124411  0.374417  0.750003  1
  Ca  Ca2  1  0.124411  0.250003  0.374406  1
  Ca  Ca3  1  0.250019  0.375010  0.125009  1
  Ca  Ca4  1  0.624415  0.874422  0.750008  1
  Ca  Ca5  1  0.375583  0.749995  0.125582  1
  Ca  Ca6  1  0.624417  0.250005  0.874418  1
  Ca  Ca7  1  0.749981  0.624990  0.874991  1
  Ca  Ca8  1  0.375585  0.125578  0.249992  1
  Ca  Ca9  1  0.875589  0.749997  0.625594  1
  Ca  Ca10  1  0.875589  0.625583  0.249997  1
  Ca  Ca11  1  0.750003  0.125001  0.374995  1
  Zr  Zr12  1  0.000000  0.500000  0.500000  1
  Zr  Zr13  1  0.000000  0.500000  0.000000  1
  Zr  Zr14  1  0.000000  0.000000  0.000000  1
  Zr  Zr15  1  0.500000  0.500000  0.500000  1
  Zr  Zr16  1  0.500000  0.000000  0.500000  1
  Zr  Zr17  1  0.500000  0.500000  0.000000  1
  Zr  Zr18  1  0.500000  0.000000  0.000000  1
  Zr  Zr19  1  0.000000  0.000000  0.500000  1
  Fe  Fe20  1  0.125847  0.749990  0.875856  1
  Fe  Fe21  1  0.125862  0.875802  0.249970  1
  Fe  Fe22  1  0.374162  0.624148  0.750004  1
  Fe  Fe23  1  0.374085  0.249946  0.624121  1
  Fe  Fe24  1  0.625915  0.750054  0.375879  1
  Fe  Fe25  1  0.625838  0.375852  0.249996  1
  Fe  Fe26  1  0.874138  0.124198  0.750030  1
  Fe  Fe27  1  0.874153  0.250010  0.124144  1
  Si  Si28  1  0.250015  0.125000  0.874988  1
  Si  Si29  1  0.249991  0.625019  0.375004  1
  Si  Si30  1  0.750009  0.374981  0.624996  1
  Si  Si31  1  0.749985  0.875000  0.125012  1
  O  O32  1  0.114706  0.001762  0.702473  1
  O  O33  1  0.125976  0.599998  0.922024  1
  O  O34  1  0.030180  0.318951  0.905355  1
  O  O35  1  0.086404  0.711223  0.681034  1
  O  O36  1  0.086389  0.875170  0.405364  1
  O  O37  1  0.114726  0.612948  0.412231  1
  O  O38  1  0.177967  0.474013  0.599988  1
  O  O39  1  0.413592  0.818962  0.788765  1
  O  O40  1  0.299296  0.297521  0.912244  1
  O  O41  1  0.374021  0.577966  0.900007  1
  O  O42  1  0.322038  0.922032  0.296048  1
  O  O43  1  0.030196  0.211193  0.124817  1
  O  O44  1  0.177974  0.203956  0.577966  1
  O  O45  1  0.200705  0.587762  0.202478  1
  O  O46  1  0.385290  0.797510  0.498222  1
  O  O47  1  0.322023  0.900004  0.025985  1
  O  O48  1  0.299295  0.501755  0.387051  1
  O  O49  1  0.125959  0.025991  0.203909  1
  O  O50  1  0.385280  0.087768  0.887060  1
  O  O51  1  0.530192  0.624831  0.711229  1
  O  O52  1  0.530192  0.405366  0.818967  1
  O  O53  1  0.374024  0.296053  0.474018  1
  O  O54  1  0.586410  0.905374  0.375186  1
  O  O55  1  0.200681  0.112939  0.998242  1
  O  O56  1  0.799319  0.887061  0.001758  1
  O  O57  1  0.413590  0.094626  0.624814  1
  O  O58  1  0.625976  0.703947  0.525982  1
  O  O59  1  0.469808  0.594634  0.181033  1
  O  O60  1  0.469808  0.375169  0.288771  1
  O  O61  1  0.614720  0.912232  0.112940  1
  O  O62  1  0.874041  0.974009  0.796091  1
  O  O63  1  0.700705  0.498245  0.612949  1
  O  O64  1  0.677977  0.099996  0.974015  1
  O  O65  1  0.614710  0.202490  0.501778  1
  O  O66  1  0.799295  0.412238  0.797522  1
  O  O67  1  0.822026  0.796044  0.422034  1
  O  O68  1  0.969804  0.788807  0.875183  1
  O  O69  1  0.677962  0.077968  0.703952  1
  O  O70  1  0.625979  0.422034  0.099993  1
  O  O71  1  0.700704  0.702479  0.087756  1
  O  O72  1  0.586408  0.181038  0.211235  1
  O  O73  1  0.822033  0.525987  0.400012  1
  O  O74  1  0.885274  0.387052  0.587769  1
  O  O75  1  0.913611  0.124830  0.594636  1
  O  O76  1  0.913596  0.288777  0.318966  1
  O  O77  1  0.969820  0.681049  0.094645  1
  O  O78  1  0.874024  0.400002  0.077976  1
  O  O79  1  0.885294  0.998238  0.297527  1
