# generated using pymatgen
data_LiMn2(BO3)2
_symmetry_space_group_name_H-M   'P 1'
_cell_length_a   9.21774280
_cell_length_b   9.09193113
_cell_length_c   10.36828804
_cell_angle_alpha   89.99748711
_cell_angle_beta   91.55225507
_cell_angle_gamma   60.00527575
_symmetry_Int_Tables_number   1
_chemical_formula_structural   LiMn2(BO3)2
_chemical_formula_sum   'Li6 Mn12 B12 O36'
_cell_volume   752.19183096
_cell_formula_units_Z   6
loop_
 _symmetry_equiv_pos_site_id
 _symmetry_equiv_pos_as_xyz
  1  'x, y, z'
loop_
 _atom_site_type_symbol
 _atom_site_label
 _atom_site_symmetry_multiplicity
 _atom_site_fract_x
 _atom_site_fract_y
 _atom_site_fract_z
 _atom_site_occupancy
  Li  Li0  1  0.954343  0.946684  0.329542  1
  Li  Li1  1  0.632081  0.598574  0.324585  1
  Li  Li2  1  0.603637  0.633477  0.836936  1
  Li  Li3  1  0.296624  0.270328  0.330792  1
  Li  Li4  1  0.283524  0.296945  0.830019  1
  Li  Li5  1  0.023936  0.073599  0.651589  1
  Mn  Mn6  1  0.946701  0.629433  0.862647  1
  Mn  Mn7  1  0.626114  0.925524  0.380449  1
  Mn  Mn8  1  0.955662  0.271668  0.372958  1
  Mn  Mn9  1  0.692184  0.412493  0.608589  1
  Mn  Mn10  1  0.683679  0.065513  0.127268  1
  Mn  Mn11  1  0.388305  0.711127  0.115027  1
  Mn  Mn12  1  0.653711  0.258139  0.876890  1
  Mn  Mn13  1  0.262861  0.951337  0.868622  1
  Mn  Mn14  1  0.281711  0.618904  0.369125  1
  Mn  Mn15  1  0.392437  0.056164  0.621209  1
  Mn  Mn16  1  0.065413  0.698610  0.616666  1
  Mn  Mn17  1  0.051874  0.393440  0.117011  1
  B  B18  1  0.953835  0.596308  0.378402  1
  B  B19  1  0.944150  0.293356  0.867985  1
  B  B20  1  0.600397  0.949679  0.871385  1
  B  B21  1  0.740579  0.372404  0.126063  1
  B  B22  1  0.285543  0.937794  0.379339  1
  B  B23  1  0.606301  0.281442  0.363711  1
  B  B24  1  0.730917  0.053832  0.630310  1
  B  B25  1  0.364715  0.745766  0.632143  1
  B  B26  1  0.299204  0.595526  0.857145  1
  B  B27  1  0.047186  0.728735  0.123749  1
  B  B28  1  0.390416  0.044659  0.122475  1
  B  B29  1  0.041844  0.390820  0.634026  1
  O  O30  1  0.929114  0.885140  0.156058  1
  O  O31  1  0.898789  0.958284  0.619249  1
  O  O32  1  0.014691  0.622992  0.042695  1
  O  O33  1  0.952511  0.567153  0.670812  1
  O  O34  1  0.622069  0.005549  0.574810  1
  O  O35  1  0.784917  0.670939  0.378210  1
  O  O36  1  0.949972  0.319868  0.584949  1
  O  O37  1  0.697484  0.779627  0.863367  1
  O  O38  1  0.905140  0.291748  0.167002  1
  O  O39  1  0.558025  0.952194  0.171760  1
  O  O40  1  0.768884  0.388587  0.847921  1
  O  O41  1  0.631520  0.537666  0.146176  1
  O  O42  1  0.697493  0.356833  0.408787  1
  O  O43  1  0.531367  0.657549  0.653923  1
  O  O44  1  0.334585  0.951720  0.048588  1
  O  O45  1  0.679716  0.272374  0.063454  1
  O  O46  1  0.699159  0.113055  0.313799  1
  O  O47  1  0.387692  0.776864  0.328826  1
  O  O48  1  0.660322  0.212829  0.692447  1
  O  O49  1  0.268452  0.916532  0.676448  1
  O  O50  1  0.362482  0.699362  0.904073  1
  O  O51  1  0.655721  0.048174  0.937234  1
  O  O52  1  0.438287  0.360441  0.368442  1
  O  O53  1  0.277938  0.680639  0.565437  1
  O  O54  1  0.392710  0.425846  0.864576  1
  O  O55  1  0.210457  0.652121  0.174071  1
  O  O56  1  0.131877  0.680821  0.804184  1
  O  O57  1  0.437559  0.040225  0.815000  1
  O  O58  1  0.295488  0.209704  0.149301  1
  O  O59  1  0.368891  0.023722  0.430461  1
  O  O60  1  0.035507  0.683109  0.428354  1
  O  O61  1  0.211146  0.302159  0.648121  1
  O  O62  1  0.054787  0.434851  0.330451  1
  O  O63  1  0.031657  0.374369  0.905571  1
  O  O64  1  0.116454  0.011744  0.382564  1
  O  O65  1  0.025361  0.122575  0.846359  1
