# generated using pymatgen
data_H8AuC2S2N4ClO4
_symmetry_space_group_name_H-M   'P 1'
_cell_length_a   18.12793177
_cell_length_b   8.45780876
_cell_length_c   7.28949575
_cell_angle_alpha   90.00000000
_cell_angle_beta   90.00000000
_cell_angle_gamma   90.00000000
_symmetry_Int_Tables_number   1
_chemical_formula_structural   H8AuC2S2N4ClO4
_chemical_formula_sum   'H32 Au4 C8 S8 N16 Cl4 O16'
_cell_volume   1117.64429620
_cell_formula_units_Z   4
loop_
 _symmetry_equiv_pos_site_id
 _symmetry_equiv_pos_as_xyz
  1  'x, y, z'
loop_
 _atom_site_type_symbol
 _atom_site_label
 _atom_site_symmetry_multiplicity
 _atom_site_fract_x
 _atom_site_fract_y
 _atom_site_fract_z
 _atom_site_occupancy
  H  H0  1  0.092509  0.519488  0.872582  1
  H  H1  1  0.407491  0.480512  0.872582  1
  H  H2  1  0.592509  0.480512  0.627418  1
  H  H3  1  0.907491  0.519488  0.627418  1
  H  H4  1  0.907491  0.480512  0.127418  1
  H  H5  1  0.592509  0.519488  0.127418  1
  H  H6  1  0.407491  0.519488  0.372582  1
  H  H7  1  0.092509  0.480512  0.372582  1
  H  H8  1  0.167928  0.457408  0.742399  1
  H  H9  1  0.332072  0.542592  0.742399  1
  H  H10  1  0.667928  0.542592  0.757601  1
  H  H11  1  0.832072  0.457408  0.757601  1
  H  H12  1  0.832072  0.542592  0.257601  1
  H  H13  1  0.667928  0.457408  0.257601  1
  H  H14  1  0.332072  0.457408  0.242399  1
  H  H15  1  0.167928  0.542592  0.242399  1
  H  H16  1  0.064455  0.789319  0.890765  1
  H  H17  1  0.435545  0.210681  0.890765  1
  H  H18  1  0.564455  0.210681  0.609235  1
  H  H19  1  0.935545  0.789319  0.609235  1
  H  H20  1  0.935545  0.210681  0.109235  1
  H  H21  1  0.564455  0.789319  0.109235  1
  H  H22  1  0.435545  0.789319  0.390765  1
  H  H23  1  0.064455  0.210681  0.390765  1
  H  H24  1  0.116152  0.927129  0.766513  1
  H  H25  1  0.383848  0.072871  0.766513  1
  H  H26  1  0.616152  0.072871  0.733487  1
  H  H27  1  0.883848  0.927129  0.733487  1
  H  H28  1  0.883848  0.072871  0.233487  1
  H  H29  1  0.616152  0.927129  0.233487  1
  H  H30  1  0.383848  0.927129  0.266513  1
  H  H31  1  0.116152  0.072871  0.266513  1
  Au  Au32  1  0.250000  0.000000  0.601706  1
  Au  Au33  1  0.750000  0.000000  0.898294  1
  Au  Au34  1  0.750000  0.000000  0.398294  1
  Au  Au35  1  0.250000  0.000000  0.101706  1
  C  C36  1  0.149877  0.697247  0.740211  1
  C  C37  1  0.350123  0.302753  0.740211  1
  C  C38  1  0.649877  0.302753  0.759789  1
  C  C39  1  0.850123  0.697247  0.759789  1
  C  C40  1  0.850123  0.302753  0.259789  1
  C  C41  1  0.649877  0.697247  0.259789  1
  C  C42  1  0.350123  0.697247  0.240211  1
  C  C43  1  0.149877  0.302753  0.240211  1
  S  S44  1  0.223424  0.731920  0.593618  1
  S  S45  1  0.276576  0.268080  0.593618  1
  S  S46  1  0.723424  0.268080  0.906382  1
  S  S47  1  0.776576  0.731920  0.906382  1
  S  S48  1  0.776576  0.268080  0.406382  1
  S  S49  1  0.723424  0.731920  0.406382  1
  S  S50  1  0.276576  0.731920  0.093618  1
  S  S51  1  0.223424  0.268080  0.093618  1
  N  N52  1  0.135523  0.547504  0.788177  1
  N  N53  1  0.364477  0.452496  0.788177  1
  N  N54  1  0.635523  0.452496  0.711823  1
  N  N55  1  0.864477  0.547504  0.711823  1
  N  N56  1  0.864477  0.452496  0.211823  1
  N  N57  1  0.635523  0.547504  0.211823  1
  N  N58  1  0.364477  0.547504  0.288177  1
  N  N59  1  0.135523  0.452496  0.288177  1
  N  N60  1  0.107094  0.812612  0.803338  1
  N  N61  1  0.392906  0.187388  0.803338  1
  N  N62  1  0.607094  0.187388  0.696662  1
  N  N63  1  0.892906  0.812612  0.696662  1
  N  N64  1  0.892906  0.187388  0.196662  1
  N  N65  1  0.607094  0.812612  0.196662  1
  N  N66  1  0.392906  0.812612  0.303338  1
  N  N67  1  0.107094  0.187388  0.303338  1
  Cl  Cl68  1  0.500000  0.762765  0.750000  1
  Cl  Cl69  1  0.000000  0.237235  0.750000  1
  Cl  Cl70  1  0.500000  0.237235  0.250000  1
  Cl  Cl71  1  0.000000  0.762765  0.250000  1
  O  O72  1  0.506745  0.662583  0.585800  1
  O  O73  1  0.993255  0.337417  0.585800  1
  O  O74  1  0.006745  0.337417  0.914200  1
  O  O75  1  0.493255  0.662583  0.914200  1
  O  O76  1  0.493255  0.337417  0.414200  1
  O  O77  1  0.006745  0.662583  0.414200  1
  O  O78  1  0.993255  0.662583  0.085800  1
  O  O79  1  0.506745  0.337417  0.085800  1
  O  O80  1  0.434403  0.860136  0.729282  1
  O  O81  1  0.065597  0.139864  0.729282  1
  O  O82  1  0.934403  0.139864  0.770718  1
  O  O83  1  0.565597  0.860136  0.770718  1
  O  O84  1  0.565597  0.139864  0.270718  1
  O  O85  1  0.934403  0.860136  0.270718  1
  O  O86  1  0.065597  0.860136  0.229282  1
  O  O87  1  0.434403  0.139864  0.229282  1
