# generated using pymatgen
data_Li6MnV3(PO4)6
_symmetry_space_group_name_H-M   'P 1'
_cell_length_a   8.62615528
_cell_length_b   8.62615456
_cell_length_c   12.74538887
_cell_angle_alpha   74.02353623
_cell_angle_beta   105.97646253
_cell_angle_gamma   85.68425450
_symmetry_Int_Tables_number   1
_chemical_formula_structural   Li6MnV3(PO4)6
_chemical_formula_sum   'Li12 Mn2 V6 P12 O48'
_cell_volume   864.76349484
_cell_formula_units_Z   2
loop_
 _symmetry_equiv_pos_site_id
 _symmetry_equiv_pos_as_xyz
  1  'x, y, z'
loop_
 _atom_site_type_symbol
 _atom_site_label
 _atom_site_symmetry_multiplicity
 _atom_site_fract_x
 _atom_site_fract_y
 _atom_site_fract_z
 _atom_site_occupancy
  Li  Li0  1  0.005667  0.006358  0.873143  1
  Li  Li1  1  0.006358  0.005667  0.376857  1
  Li  Li2  1  0.286217  0.286217  0.625000  1
  Li  Li3  1  0.499765  0.501759  0.748583  1
  Li  Li4  1  0.287999  0.287999  0.125000  1
  Li  Li5  1  0.501759  0.499765  0.501417  1
  Li  Li6  1  0.711109  0.713892  0.873418  1
  Li  Li7  1  0.500264  0.499914  0.250154  1
  Li  Li8  1  0.499914  0.500264  0.999846  1
  Li  Li9  1  0.713892  0.711109  0.376582  1
  Li  Li10  1  0.993897  0.993897  0.625000  1
  Li  Li11  1  0.993175  0.993175  0.125000  1
  Mn  Mn12  1  0.375471  0.942247  0.566810  1
  Mn  Mn13  1  0.942247  0.375471  0.683190  1
  V  V14  1  0.057400  0.621706  0.819749  1
  V  V15  1  0.057358  0.620083  0.321453  1
  V  V16  1  0.620083  0.057358  0.928547  1
  V  V17  1  0.380431  0.942760  0.070156  1
  V  V18  1  0.621706  0.057400  0.430251  1
  V  V19  1  0.942760  0.380431  0.179844  1
  P  P20  1  0.284568  0.287129  0.874875  1
  P  P21  1  0.135093  0.663299  0.567854  1
  P  P22  1  0.339216  0.862546  0.817572  1
  P  P23  1  0.287129  0.284568  0.375125  1
  P  P24  1  0.137557  0.661337  0.068193  1
  P  P25  1  0.339348  0.861763  0.318447  1
  P  P26  1  0.663299  0.135093  0.682146  1
  P  P27  1  0.861763  0.339348  0.931553  1
  P  P28  1  0.714653  0.714653  0.625000  1
  P  P29  1  0.661337  0.137557  0.181807  1
  P  P30  1  0.862546  0.339216  0.432428  1
  P  P31  1  0.714543  0.714543  0.125000  1
  O  O32  1  0.012215  0.659702  0.954726  1
  O  O33  1  0.052677  0.607085  0.664469  1
  O  O34  1  0.256678  0.171057  0.982792  1
  O  O35  1  0.010240  0.655478  0.454887  1
  O  O36  1  0.170357  0.261687  0.763998  1
  O  O37  1  0.156593  0.841972  0.805376  1
  O  O38  1  0.263396  0.462124  0.884998  1
  O  O39  1  0.147464  0.848727  0.548393  1
  O  O40  1  0.050245  0.601669  0.163125  1
  O  O41  1  0.261687  0.170357  0.486002  1
  O  O42  1  0.171057  0.256678  0.267208  1
  O  O43  1  0.156032  0.841974  0.304544  1
  O  O44  1  0.294477  0.547716  0.600882  1
  O  O45  1  0.399715  0.950092  0.912653  1
  O  O46  1  0.336748  0.987974  0.702262  1
  O  O47  1  0.460264  0.262609  0.866053  1
  O  O48  1  0.262609  0.460264  0.383947  1
  O  O49  1  0.456760  0.704093  0.852036  1
  O  O50  1  0.157979  0.844771  0.053806  1
  O  O51  1  0.296164  0.543927  0.102249  1
  O  O52  1  0.401022  0.950274  0.413201  1
  O  O53  1  0.547716  0.294477  0.649118  1
  O  O54  1  0.339575  0.987719  0.204454  1
  O  O55  1  0.462124  0.263396  0.365002  1
  O  O56  1  0.537893  0.738031  0.634265  1
  O  O57  1  0.655478  0.010240  0.795113  1
  O  O58  1  0.455667  0.703422  0.351507  1
  O  O59  1  0.607085  0.052677  0.585531  1
  O  O60  1  0.703422  0.455667  0.898493  1
  O  O61  1  0.841974  0.156032  0.945456  1
  O  O62  1  0.543927  0.296164  0.147751  1
  O  O63  1  0.738031  0.537893  0.615735  1
  O  O64  1  0.538339  0.737131  0.134003  1
  O  O65  1  0.659702  0.012215  0.295274  1
  O  O66  1  0.601669  0.050245  0.086875  1
  O  O67  1  0.704093  0.456760  0.397964  1
  O  O68  1  0.848727  0.147464  0.701607  1
  O  O69  1  0.828274  0.742894  0.733628  1
  O  O70  1  0.742894  0.828274  0.516372  1
  O  O71  1  0.950274  0.401022  0.836799  1
  O  O72  1  0.841972  0.156593  0.444624  1
  O  O73  1  0.737131  0.538339  0.115997  1
  O  O74  1  0.844771  0.157979  0.196194  1
  O  O75  1  0.829049  0.741521  0.233520  1
  O  O76  1  0.987974  0.336748  0.547738  1
  O  O77  1  0.741521  0.829049  0.016480  1
  O  O78  1  0.950092  0.399715  0.337347  1
  O  O79  1  0.987719  0.339575  0.045546  1
