# generated using pymatgen
data_LiVB2O5
_symmetry_space_group_name_H-M   'P 1'
_cell_length_a   6.94083157
_cell_length_b   9.63027159
_cell_length_c   5.80959932
_cell_angle_alpha   90.00000000
_cell_angle_beta   73.33935759
_cell_angle_gamma   90.00000000
_symmetry_Int_Tables_number   1
_chemical_formula_structural   LiVB2O5
_chemical_formula_sum   'Li4 V4 B8 O20'
_cell_volume   372.02373083
_cell_formula_units_Z   4
loop_
 _symmetry_equiv_pos_site_id
 _symmetry_equiv_pos_as_xyz
  1  'x, y, z'
loop_
 _atom_site_type_symbol
 _atom_site_label
 _atom_site_symmetry_multiplicity
 _atom_site_fract_x
 _atom_site_fract_y
 _atom_site_fract_z
 _atom_site_occupancy
  Li  Li0  1  0.215788  0.442267  0.335828  1
  Li  Li1  1  0.215788  0.057733  0.835828  1
  Li  Li2  1  0.784212  0.942267  0.164172  1
  Li  Li3  1  0.784212  0.557733  0.664172  1
  V  V4  1  0.244001  0.823816  0.210582  1
  V  V5  1  0.244001  0.676184  0.710582  1
  V  V6  1  0.755999  0.323816  0.289418  1
  V  V7  1  0.755999  0.176184  0.789418  1
  B  B8  1  0.090131  0.115792  0.327445  1
  B  B9  1  0.090131  0.384208  0.827445  1
  B  B10  1  0.453455  0.087937  0.262178  1
  B  B11  1  0.546545  0.587937  0.237822  1
  B  B12  1  0.453455  0.412063  0.762178  1
  B  B13  1  0.546545  0.912063  0.737822  1
  B  B14  1  0.909869  0.615792  0.172555  1
  B  B15  1  0.909869  0.884208  0.672555  1
  O  O16  1  0.073637  0.700013  0.073947  1
  O  O17  1  0.076705  0.998489  0.201419  1
  O  O18  1  0.073637  0.799987  0.573947  1
  O  O19  1  0.076705  0.501511  0.701419  1
  O  O20  1  0.272706  0.161664  0.356961  1
  O  O21  1  0.373014  0.663970  0.330988  1
  O  O22  1  0.272706  0.338336  0.856961  1
  O  O23  1  0.465217  0.947894  0.256150  1
  O  O24  1  0.373014  0.836030  0.830988  1
  O  O25  1  0.534783  0.447894  0.243850  1
  O  O26  1  0.465217  0.552106  0.756150  1
  O  O27  1  0.626986  0.163970  0.169012  1
  O  O28  1  0.534783  0.052106  0.743850  1
  O  O29  1  0.727294  0.661664  0.143039  1
  O  O30  1  0.626986  0.336030  0.669012  1
  O  O31  1  0.727294  0.838336  0.643039  1
  O  O32  1  0.923295  0.498489  0.298581  1
  O  O33  1  0.926363  0.200013  0.426053  1
  O  O34  1  0.923295  0.001511  0.798581  1
  O  O35  1  0.926363  0.299987  0.926053  1
