# generated using pymatgen
data_Li5SbS
_symmetry_space_group_name_H-M   'P 1'
_cell_length_a   4.85752535
_cell_length_b   8.69489766
_cell_length_c   6.20142812
_cell_angle_alpha   89.52880778
_cell_angle_beta   91.68709049
_cell_angle_gamma   106.22033722
_symmetry_Int_Tables_number   1
_chemical_formula_structural   Li5SbS
_chemical_formula_sum   'Li10 Sb2 S2'
_cell_volume   251.38665765
_cell_formula_units_Z   2
loop_
 _symmetry_equiv_pos_site_id
 _symmetry_equiv_pos_as_xyz
  1  'x, y, z'
loop_
 _atom_site_type_symbol
 _atom_site_label
 _atom_site_symmetry_multiplicity
 _atom_site_fract_x
 _atom_site_fract_y
 _atom_site_fract_z
 _atom_site_occupancy
  Li  Li0  1  0.178310  0.924758  0.089370  1
  Li  Li1  1  0.197649  0.382054  0.994797  1
  Li  Li2  1  0.364235  0.728470  0.750000  1
  Li  Li3  1  0.184405  0.382054  0.505203  1
  Li  Li4  1  0.253551  0.075242  0.589370  1
  Li  Li5  1  0.746449  0.924758  0.410630  1
  Li  Li6  1  0.815595  0.617946  0.494797  1
  Li  Li7  1  0.635765  0.271530  0.250000  1
  Li  Li8  1  0.802351  0.617946  0.005203  1
  Li  Li9  1  0.821690  0.075242  0.910630  1
  Sb  Sb10  1  0.333089  0.666180  0.250000  1
  Sb  Sb11  1  0.666911  0.333820  0.750000  1
  S  S12  1  0.074959  0.149919  0.250000  1
  S  S13  1  0.925041  0.850081  0.750000  1
