# generated using pymatgen
data_Fe6O5F7
_symmetry_space_group_name_H-M   'P 1'
_cell_length_a   4.76752582
_cell_length_b   7.87215069
_cell_length_c   5.69555205
_cell_angle_alpha   94.79960023
_cell_angle_beta   92.44825152
_cell_angle_gamma   88.14597138
_symmetry_Int_Tables_number   1
_chemical_formula_structural   Fe6O5F7
_chemical_formula_sum   'Fe6 O5 F7'
_cell_volume   212.72503223
_cell_formula_units_Z   1
loop_
 _symmetry_equiv_pos_site_id
 _symmetry_equiv_pos_as_xyz
  1  'x, y, z'
loop_
 _atom_site_type_symbol
 _atom_site_label
 _atom_site_symmetry_multiplicity
 _atom_site_fract_x
 _atom_site_fract_y
 _atom_site_fract_z
 _atom_site_occupancy
  Fe  Fe0  1  0.559563  0.662337  0.169164  1
  Fe  Fe1  1  0.499674  0.005620  0.513423  1
  Fe  Fe2  1  0.508081  0.323547  0.834267  1
  Fe  Fe3  1  0.976276  0.673432  0.665711  1
  Fe  Fe4  1  0.009284  0.334381  0.334255  1
  Fe  Fe5  1  0.964125  0.987319  0.990912  1
  O  O6  1  0.804558  0.771044  0.970034  1
  O  O7  1  0.700242  0.104211  0.796115  1
  O  O8  1  0.673577  0.781980  0.457673  1
  O  O9  1  0.704280  0.425249  0.130630  1
  O  O10  1  0.300360  0.235269  0.534634  1
  F  F11  1  0.796961  0.426805  0.623820  1
  F  F12  1  0.808932  0.101993  0.294207  1
  F  F13  1  0.312683  0.559794  0.874699  1
  F  F14  1  0.292046  0.907942  0.196041  1
  F  F15  1  0.194393  0.225412  0.038349  1
  F  F16  1  0.192686  0.564176  0.364149  1
  F  F17  1  0.202283  0.909490  0.711915  1
