# generated using pymatgen
data_Li2CrSiO4
_symmetry_space_group_name_H-M   'P 1'
_cell_length_a   6.57724743
_cell_length_b   10.54488237
_cell_length_c   5.01318499
_cell_angle_alpha   89.99670947
_cell_angle_beta   90.00000291
_cell_angle_gamma   90.00002836
_symmetry_Int_Tables_number   1
_chemical_formula_structural   Li2CrSiO4
_chemical_formula_sum   'Li8 Cr4 Si4 O16'
_cell_volume   347.69596418
_cell_formula_units_Z   4
loop_
 _symmetry_equiv_pos_site_id
 _symmetry_equiv_pos_as_xyz
  1  'x, y, z'
loop_
 _atom_site_type_symbol
 _atom_site_label
 _atom_site_symmetry_multiplicity
 _atom_site_fract_x
 _atom_site_fract_y
 _atom_site_fract_z
 _atom_site_occupancy
  Li  Li0  1  0.001967  0.410369  0.182103  1
  Li  Li1  1  0.001933  0.910389  0.317929  1
  Li  Li2  1  0.498066  0.910390  0.317930  1
  Li  Li3  1  0.498034  0.410367  0.182103  1
  Li  Li4  1  0.501993  0.089634  0.682102  1
  Li  Li5  1  0.501944  0.589610  0.817828  1
  Li  Li6  1  0.998056  0.589612  0.817830  1
  Li  Li7  1  0.998004  0.089634  0.682103  1
  Cr  Cr8  1  0.250001  0.148614  0.192753  1
  Cr  Cr9  1  0.249988  0.648734  0.307284  1
  Cr  Cr10  1  0.749998  0.351382  0.692835  1
  Cr  Cr11  1  0.749992  0.851247  0.807578  1
  Si  Si12  1  0.250003  0.332371  0.669187  1
  Si  Si13  1  0.250001  0.832435  0.830721  1
  Si  Si14  1  0.750003  0.667588  0.330749  1
  Si  Si15  1  0.749999  0.167597  0.169267  1
  O  O16  1  0.042501  0.403176  0.781056  1
  O  O17  1  0.042438  0.903174  0.718863  1
  O  O18  1  0.250000  0.340136  0.341041  1
  O  O19  1  0.250003  0.681301  0.737937  1
  O  O20  1  0.249997  0.181259  0.762058  1
  O  O21  1  0.249995  0.840246  0.158850  1
  O  O22  1  0.457566  0.903171  0.718871  1
  O  O23  1  0.457509  0.403170  0.781049  1
  O  O24  1  0.542480  0.596843  0.218841  1
  O  O25  1  0.542494  0.096821  0.281128  1
  O  O26  1  0.750001  0.659783  0.658889  1
  O  O27  1  0.750002  0.159823  0.841076  1
  O  O28  1  0.750004  0.318730  0.262029  1
  O  O29  1  0.750000  0.818731  0.238020  1
  O  O30  1  0.957532  0.596847  0.218842  1
  O  O31  1  0.957496  0.096817  0.281145  1
