# generated using pymatgen
data_Li24Mn5Cr7O36
_symmetry_space_group_name_H-M   'P 1'
_cell_length_a   5.01683131
_cell_length_b   13.26759462
_cell_length_c   9.73880845
_cell_angle_alpha   96.99252262
_cell_angle_beta   94.82358193
_cell_angle_gamma   100.44130695
_symmetry_Int_Tables_number   1
_chemical_formula_structural   Li24Mn5Cr7O36
_chemical_formula_sum   'Li24 Mn5 Cr7 O36'
_cell_volume   628.99944308
_cell_formula_units_Z   1
loop_
 _symmetry_equiv_pos_site_id
 _symmetry_equiv_pos_as_xyz
  1  'x, y, z'
loop_
 _atom_site_type_symbol
 _atom_site_label
 _atom_site_symmetry_multiplicity
 _atom_site_fract_x
 _atom_site_fract_y
 _atom_site_fract_z
 _atom_site_occupancy
  Li  Li0  1  0.833154  0.166751  0.999912  1
  Li  Li1  1  0.947861  0.385884  0.998981  1
  Li  Li2  1  0.000222  0.749732  0.249601  1
  Li  Li3  1  0.663972  0.083197  0.249769  1
  Li  Li4  1  0.954222  0.889132  0.502210  1
  Li  Li5  1  0.617789  0.219380  0.499377  1
  Li  Li6  1  0.832889  0.666803  0.500509  1
  Li  Li7  1  0.499667  -0.000004  0.500434  1
  Li  Li8  1  0.716274  0.446696  0.500077  1
  Li  Li9  1  0.666636  0.583967  0.749895  1
  Li  Li10  1  0.505239  0.500803  0.998809  1
  Li  Li11  1  0.713713  0.946164  0.998803  1
  Li  Li12  1  0.383792  0.279525  0.000738  1
  Li  Li13  1  0.619138  0.719824  0.999749  1
  Li  Li14  1  0.287148  0.052989  0.000888  1
  Li  Li15  1  0.329557  0.415967  0.250308  1
  Li  Li16  1  0.282718  0.553626  0.500093  1
  Li  Li17  1  0.169583  0.334001  0.499100  1
  Li  Li18  1  0.382386  0.779285  0.499367  1
  Li  Li19  1  0.048375  0.111144  0.498971  1
  Li  Li20  1  0.333568  0.918075  0.749835  1
  Li  Li21  1  0.164300  0.833528  0.000818  1
  Li  Li22  1  0.996661  0.249203  0.750179  1
  Li  Li23  1  0.047508  0.614099  0.000471  1
  Mn  Mn24  1  0.886991  0.026122  0.748441  1
  Mn  Mn25  1  0.890663  0.528146  0.251339  1
  Mn  Mn26  1  0.778679  0.805492  0.750565  1
  Mn  Mn27  1  0.556830  0.361567  0.750637  1
  Mn  Mn28  1  0.223247  0.194050  0.249440  1
  Cr  Cr29  1  0.772402  0.306648  0.250239  1
  Cr  Cr30  1  0.437245  0.139917  0.750474  1
  Cr  Cr31  1  0.557757  0.858787  0.249300  1
  Cr  Cr32  1  0.438865  0.636333  0.248552  1
  Cr  Cr33  1  0.228274  0.696921  0.751980  1
  Cr  Cr34  1  0.105501  0.471656  0.748599  1
  Cr  Cr35  1  0.107636  0.974104  0.250951  1
  O  O36  1  0.001865  0.071630  0.138561  1
  O  O37  1  0.932318  0.215912  0.363592  1
  O  O38  1  0.005833  0.570584  0.638559  1
  O  O39  1  0.855573  0.356561  0.638063  1
  O  O40  1  0.735948  0.117747  0.636457  1
  O  O41  1  0.670714  0.404253  0.139002  1
  O  O42  1  0.925598  0.716173  0.865519  1
  O  O43  1  0.806930  0.475774  0.861956  1
  O  O44  1  0.598637  0.048663  0.863884  1
  O  O45  1  0.848878  0.857538  0.137100  1
  O  O46  1  0.740989  0.617774  0.135202  1
  O  O47  1  0.519127  0.188876  0.137104  1
  O  O48  1  0.670188  0.264193  0.863475  1
  O  O49  1  0.818098  0.976194  0.362365  1
  O  O50  1  0.598102  0.548921  0.363707  1
  O  O51  1  0.479072  0.309136  0.361313  1
  O  O52  1  0.662150  0.761803  0.361409  1
  O  O53  1  0.338067  0.098128  0.363268  1
  O  O54  1  0.664289  0.904595  0.638419  1
  O  O55  1  0.337152  0.237538  0.638913  1
  O  O56  1  0.529179  0.691608  0.637366  1
  O  O57  1  0.407296  0.451113  0.635003  1
  O  O58  1  0.184163  0.021854  0.636951  1
  O  O59  1  0.334592  0.735530  0.136767  1
  O  O60  1  0.476723  0.809448  0.861519  1
  O  O61  1  0.265503  0.382917  0.863738  1
  O  O62  1  0.145369  0.141161  0.861310  1
  O  O63  1  0.399425  0.951242  0.135260  1
  O  O64  1  0.189072  0.523306  0.138373  1
  O  O65  1  0.070535  0.284989  0.135864  1
  O  O66  1  0.328962  0.596593  0.862303  1
  O  O67  1  0.267386  0.882901  0.364087  1
  O  O68  1  0.138251  0.642901  0.362321  1
  O  O69  1  0.003885  0.430722  0.363664  1
  O  O70  1  0.068673  0.783629  0.636489  1
  O  O71  1  0.000999  0.928581  0.861708  1
