# generated using pymatgen
data_Li14Mn9(P2O7)8
_symmetry_space_group_name_H-M   'P 1'
_cell_length_a   10.90907249
_cell_length_b   9.80556510
_cell_length_c   13.06488568
_cell_angle_alpha   69.23538363
_cell_angle_beta   116.71550466
_cell_angle_gamma   107.24390457
_symmetry_Int_Tables_number   1
_chemical_formula_structural   Li14Mn9(P2O7)8
_chemical_formula_sum   'Li14 Mn9 P16 O56'
_cell_volume   1151.44718548
_cell_formula_units_Z   1
loop_
 _symmetry_equiv_pos_site_id
 _symmetry_equiv_pos_as_xyz
  1  'x, y, z'
loop_
 _atom_site_type_symbol
 _atom_site_label
 _atom_site_symmetry_multiplicity
 _atom_site_fract_x
 _atom_site_fract_y
 _atom_site_fract_z
 _atom_site_occupancy
  Li  Li0  1  0.379186  0.548005  0.410315  1
  Li  Li1  1  0.624009  0.954999  0.087688  1
  Li  Li2  1  0.375991  0.045001  0.912312  1
  Li  Li3  1  0.861653  0.064035  0.404304  1
  Li  Li4  1  0.138347  0.935965  0.595696  1
  Li  Li5  1  0.499645  0.637043  0.184368  1
  Li  Li6  1  0.511787  0.137538  0.677908  1
  Li  Li7  1  0.980908  0.850168  0.109533  1
  Li  Li8  1  0.488213  0.862462  0.322092  1
  Li  Li9  1  0.145551  0.431086  0.102084  1
  Li  Li10  1  0.500355  0.362957  0.815632  1
  Li  Li11  1  0.854449  0.568914  0.897916  1
  Li  Li12  1  0.620814  0.451995  0.589685  1
  Li  Li13  1  0.019092  0.149832  0.890467  1
  Mn  Mn14  1  0.787679  0.305324  0.082617  1
  Mn  Mn15  1  0.725150  0.430793  0.289011  1
  Mn  Mn16  1  0.212321  0.694676  0.917383  1
  Mn  Mn17  1  0.741902  0.938334  0.799174  1
  Mn  Mn18  1  0.274850  0.569207  0.710989  1
  Mn  Mn19  1  0.258098  0.061666  0.200826  1
  Mn  Mn20  1  0.211729  0.193721  0.417464  1
  Mn  Mn21  1  0.788271  0.806279  0.582536  1
  Mn  Mn22  1  0.000000  0.500000  0.500000  1
  P  P23  1  0.698579  0.642260  0.009552  1
  P  P24  1  0.301421  0.357740  0.990448  1
  P  P25  1  0.055039  0.473358  0.275901  1
  P  P26  1  0.056573  0.975493  0.773963  1
  P  P27  1  0.206780  0.233914  0.661215  1
  P  P28  1  0.297807  0.851205  0.491018  1
  P  P29  1  0.944961  0.526643  0.724099  1
  P  P30  1  0.533718  0.181485  0.133995  1
  P  P31  1  0.538437  0.687928  0.634423  1
  P  P32  1  0.793220  0.766086  0.338785  1
  P  P33  1  0.943427  0.024507  0.226037  1
  P  P34  1  0.791453  0.271541  0.836782  1
  P  P35  1  0.466282  0.818515  0.866005  1
  P  P36  1  0.461563  0.312072  0.365577  1
  P  P37  1  0.702193  0.148795  0.508982  1
  P  P38  1  0.208547  0.728459  0.163218  1
  O  O39  1  0.004993  0.091491  0.332387  1
  O  O40  1  0.547322  0.682414  0.910127  1
  O  O41  1  0.902239  0.846007  0.272216  1
  O  O42  1  0.275965  0.978236  0.521473  1
  O  O43  1  0.693025  0.105454  0.629584  1
  O  O44  1  0.993536  0.405254  0.170093  1
  O  O45  1  0.201025  0.706227  0.520874  1
  O  O46  1  0.956103  0.964812  0.829036  1
  O  O47  1  0.545289  0.178363  0.410526  1
  O  O48  1  0.715973  0.515638  0.975962  1
  O  O49  1  0.908112  0.348571  0.775196  1
  O  O50  1  0.091888  0.651429  0.224804  1
  O  O51  1  0.311626  0.248281  0.289846  1
  O  O52  1  0.724035  0.021764  0.478527  1
  O  O53  1  0.806373  0.576193  0.634722  1
  O  O54  1  0.306975  0.894546  0.370416  1
  O  O55  1  0.687902  0.597334  0.129381  1
  O  O56  1  0.452678  0.317586  0.089873  1
  O  O57  1  0.047152  0.545629  0.667529  1
  O  O58  1  0.193428  0.921501  0.864079  1
  O  O59  1  0.839040  0.845831  0.435243  1
  O  O60  1  0.195791  0.217491  0.011336  1
  O  O61  1  0.469383  0.554105  0.705437  1
  O  O62  1  0.466100  0.849899  0.973664  1
  O  O63  1  0.316270  0.754012  0.791304  1
  O  O64  1  0.454711  0.821637  0.589474  1
  O  O65  1  0.097761  0.153993  0.727784  1
  O  O66  1  0.353670  0.703343  0.257308  1
  O  O67  1  0.462455  0.050067  0.204603  1
  O  O68  1  0.646680  0.788880  0.246915  1
  O  O69  1  0.178721  0.886102  0.112192  1
  O  O70  1  0.284027  0.484362  0.024038  1
  O  O71  1  0.537545  0.949933  0.795397  1
  O  O72  1  0.312098  0.402666  0.870619  1
  O  O73  1  0.819338  0.605835  0.389529  1
  O  O74  1  0.952848  0.454371  0.332471  1
  O  O75  1  0.683730  0.245988  0.208696  1
  O  O76  1  0.460894  0.343270  0.473505  1
  O  O77  1  0.821279  0.113898  0.887808  1
  O  O78  1  0.180662  0.394165  0.610471  1
  O  O79  1  0.006464  0.594746  0.829907  1
  O  O80  1  0.806572  0.078499  0.135921  1
  O  O81  1  0.193627  0.423807  0.365278  1
  O  O82  1  0.353320  0.211120  0.753085  1
  O  O83  1  0.995007  0.908509  0.667613  1
  O  O84  1  0.166510  0.646940  0.068840  1
  O  O85  1  0.688374  0.751719  0.710154  1
  O  O86  1  0.533900  0.150101  0.026336  1
  O  O87  1  0.833490  0.353060  0.931160  1
  O  O88  1  0.043897  0.035188  0.170964  1
  O  O89  1  0.530617  0.445895  0.294563  1
  O  O90  1  0.798975  0.293773  0.479126  1
  O  O91  1  0.539106  0.656730  0.526495  1
  O  O92  1  0.160960  0.154169  0.564757  1
  O  O93  1  0.646330  0.296657  0.742692  1
  O  O94  1  0.804209  0.782509  0.988664  1
