# generated using pymatgen
data_Li5Cr2Fe3(PO4)6
_symmetry_space_group_name_H-M   'P 1'
_cell_length_a   8.43117585
_cell_length_b   8.81815716
_cell_length_c   8.60434310
_cell_angle_alpha   60.94257814
_cell_angle_beta   62.22003778
_cell_angle_gamma   61.57224084
_symmetry_Int_Tables_number   1
_chemical_formula_structural   Li5Cr2Fe3(PO4)6
_chemical_formula_sum   'Li5 Cr2 Fe3 P6 O24'
_cell_volume   468.24979209
_cell_formula_units_Z   1
loop_
 _symmetry_equiv_pos_site_id
 _symmetry_equiv_pos_as_xyz
  1  'x, y, z'
loop_
 _atom_site_type_symbol
 _atom_site_label
 _atom_site_symmetry_multiplicity
 _atom_site_fract_x
 _atom_site_fract_y
 _atom_site_fract_z
 _atom_site_occupancy
  Li  Li0  1  0.753680  0.143193  0.356276  1
  Li  Li1  1  0.194521  0.849978  0.669846  1
  Li  Li2  1  0.663469  0.181038  0.852177  1
  Li  Li3  1  0.857425  0.670079  0.185144  1
  Li  Li4  1  0.846271  0.830724  0.839621  1
  Cr  Cr5  1  0.005430  0.997421  0.995344  1
  Cr  Cr6  1  0.494007  0.505671  0.498723  1
  Fe  Fe7  1  0.147479  0.149614  0.140412  1
  Fe  Fe8  1  0.352066  0.356772  0.355445  1
  Fe  Fe9  1  0.644838  0.655788  0.655879  1
  P  P10  1  0.056658  0.750231  0.452858  1
  P  P11  1  0.445098  0.047692  0.758109  1
  P  P12  1  0.751672  0.455083  0.057064  1
  P  P13  1  0.255272  0.538585  0.955089  1
  P  P14  1  0.553969  0.965730  0.257659  1
  P  P15  1  0.947742  0.254049  0.535951  1
  O  O16  1  0.103842  0.333617  0.466083  1
  O  O17  1  0.338992  0.486396  0.104498  1
  O  O18  1  0.051611  0.915396  0.262142  1
  O  O19  1  0.529722  0.109928  0.325235  1
  O  O20  1  0.037500  0.810277  0.599983  1
  O  O21  1  0.251669  0.592834  0.423118  1
  O  O22  1  0.246449  0.066629  0.913047  1
  O  O23  1  0.430461  0.232544  0.590349  1
  O  O24  1  0.196385  0.382911  0.989386  1
  O  O25  1  0.596554  0.418908  0.256569  1
  O  O26  1  0.092944  0.724440  0.949114  1
  O  O27  1  0.385317  0.017454  0.197559  1
  O  O28  1  0.600172  0.017811  0.822958  1
  O  O29  1  0.902793  0.258585  0.078480  1
  O  O30  1  0.404039  0.576107  0.751969  1
  O  O31  1  0.812056  0.601986  0.034443  1
  O  O32  1  0.575315  0.769540  0.408966  1
  O  O33  1  0.745301  0.949257  0.094453  1
  O  O34  1  0.744886  0.402481  0.572103  1
  O  O35  1  0.965908  0.189079  0.389679  1
  O  O36  1  0.483588  0.888348  0.701457  1
  O  O37  1  0.952613  0.097098  0.728391  1
  O  O38  1  0.689509  0.498739  0.894014  1
  O  O39  1  0.892776  0.684989  0.503408  1
