# generated using pymatgen
data_Fe7(SiO6)2
_symmetry_space_group_name_H-M   'P 1'
_cell_length_a   5.94569576
_cell_length_b   5.94569576
_cell_length_c   13.39874947
_cell_angle_alpha   103.13492117
_cell_angle_beta   76.86507883
_cell_angle_gamma   90.07142225
_symmetry_Int_Tables_number   1
_chemical_formula_structural   Fe7(SiO6)2
_chemical_formula_sum   'Fe14 Si4 O24'
_cell_volume   448.56846794
_cell_formula_units_Z   2
loop_
 _symmetry_equiv_pos_site_id
 _symmetry_equiv_pos_as_xyz
  1  'x, y, z'
loop_
 _atom_site_type_symbol
 _atom_site_label
 _atom_site_symmetry_multiplicity
 _atom_site_fract_x
 _atom_site_fract_y
 _atom_site_fract_z
 _atom_site_occupancy
  Fe  Fe0  1  0.708244  0.541648  0.083347  1
  Fe  Fe1  1  0.208362  0.541650  0.083323  1
  Fe  Fe2  1  0.878667  0.878126  0.246973  1
  Fe  Fe3  1  0.878449  0.369129  0.246931  1
  Fe  Fe4  1  0.331769  0.665122  0.333341  1
  Fe  Fe5  1  0.544822  0.212008  0.419669  1
  Fe  Fe6  1  0.035781  0.211713  0.419708  1
  Fe  Fe7  1  0.208350  0.541638  0.583323  1
  Fe  Fe8  1  0.208352  0.041756  0.583347  1
  Fe  Fe9  1  0.380871  0.871551  0.746931  1
  Fe  Fe10  1  0.871874  0.871333  0.746973  1
  Fe  Fe11  1  0.084878  0.418231  0.833341  1
  Fe  Fe12  1  0.537992  0.205178  0.919669  1
  Fe  Fe13  1  0.538287  0.714219  0.919708  1
  Si  Si14  1  0.995700  0.998351  0.997596  1
  Si  Si15  1  0.420979  0.084969  0.169090  1
  Si  Si16  1  0.751649  0.754300  0.497596  1
  Si  Si17  1  0.665031  0.329021  0.669090  1
  O  O18  1  0.954218  0.806120  0.073426  1
  O  O19  1  0.953793  0.268745  0.074113  1
  O  O20  1  0.462437  0.277236  0.093259  1
  O  O21  1  0.462853  0.814611  0.092560  1
  O  O22  1  0.149883  0.120763  0.242920  1
  O  O23  1  0.608952  0.122484  0.245518  1
  O  O24  1  0.121223  0.622281  0.244444  1
  O  O25  1  0.636997  0.620013  0.238831  1
  O  O26  1  0.286712  0.970390  0.427837  1
  O  O27  1  0.288907  0.454541  0.422223  1
  O  O28  1  0.789146  0.942207  0.421131  1
  O  O29  1  0.787385  0.483175  0.423761  1
  O  O30  1  0.943880  0.795782  0.573426  1
  O  O31  1  0.481255  0.796207  0.574113  1
  O  O32  1  0.935389  0.287147  0.592560  1
  O  O33  1  0.472764  0.287563  0.593259  1
  O  O34  1  0.627516  0.141048  0.745518  1
  O  O35  1  0.629237  0.600117  0.742920  1
  O  O36  1  0.129987  0.113003  0.738831  1
  O  O37  1  0.127719  0.628777  0.744444  1
  O  O38  1  0.295459  0.461093  0.922223  1
  O  O39  1  0.779610  0.463288  0.927837  1
  O  O40  1  0.266825  0.962615  0.923761  1
  O  O41  1  0.807793  0.960854  0.921131  1
