# generated using pymatgen
data_Ni2(SO4)3
_symmetry_space_group_name_H-M   'P 1'
_cell_length_a   8.30790341
_cell_length_b   8.93641601
_cell_length_c   8.30790377
_cell_angle_alpha   117.69949334
_cell_angle_beta   60.00000543
_cell_angle_gamma   117.69949528
_symmetry_Int_Tables_number   1
_chemical_formula_structural   Ni2(SO4)3
_chemical_formula_sum   'Ni4 S6 O24'
_cell_volume   450.70056681
_cell_formula_units_Z   2
loop_
 _symmetry_equiv_pos_site_id
 _symmetry_equiv_pos_as_xyz
  1  'x, y, z'
loop_
 _atom_site_type_symbol
 _atom_site_label
 _atom_site_symmetry_multiplicity
 _atom_site_fract_x
 _atom_site_fract_y
 _atom_site_fract_z
 _atom_site_occupancy
  Ni  Ni0  1  0.143053  0.429159  0.143053  1
  Ni  Ni1  1  0.347549  0.042647  0.347549  1
  Ni  Ni2  1  0.652451  0.957353  0.652451  1
  Ni  Ni3  1  0.856947  0.570841  0.856947  1
  S  S4  1  0.042978  0.247836  0.458894  1
  S  S5  1  0.541106  0.752164  0.254036  1
  S  S6  1  0.254036  0.752164  0.957022  1
  S  S7  1  0.745964  0.247836  0.042978  1
  S  S8  1  0.458894  0.247836  0.745964  1
  S  S9  1  0.957022  0.752164  0.541106  1
  O  O10  1  0.215711  0.893142  0.149767  1
  O  O11  1  0.149767  0.893142  0.527665  1
  O  O12  1  0.017665  0.418102  0.604887  1
  O  O13  1  0.131200  0.261641  0.259365  1
  O  O14  1  0.527665  0.893142  0.215711  1
  O  O15  1  0.128923  0.738359  0.868800  1
  O  O16  1  0.395113  0.581898  0.204450  1
  O  O17  1  0.169458  0.199632  0.492280  1
  O  O18  1  0.507720  0.800368  0.462106  1
  O  O19  1  0.204450  0.581898  0.982335  1
  O  O20  1  0.740635  0.738359  0.128923  1
  O  O21  1  0.462106  0.800368  0.830542  1
  O  O22  1  0.537894  0.199632  0.169458  1
  O  O23  1  0.259365  0.261641  0.871077  1
  O  O24  1  0.795550  0.418102  0.017665  1
  O  O25  1  0.492280  0.199632  0.537894  1
  O  O26  1  0.830542  0.800368  0.507720  1
  O  O27  1  0.604887  0.418102  0.795550  1
  O  O28  1  0.871077  0.261641  0.131200  1
  O  O29  1  0.472335  0.106858  0.784289  1
  O  O30  1  0.868800  0.738359  0.740635  1
  O  O31  1  0.982335  0.581898  0.395113  1
  O  O32  1  0.850233  0.106858  0.472335  1
  O  O33  1  0.784289  0.106858  0.850233  1
