# generated using pymatgen
data_Li2FeF4
_symmetry_space_group_name_H-M   'P 1'
_cell_length_a   4.11549676
_cell_length_b   5.38812194
_cell_length_c   5.79266943
_cell_angle_alpha   90.10586824
_cell_angle_beta   134.72970239
_cell_angle_gamma   112.59454780
_symmetry_Int_Tables_number   1
_chemical_formula_structural   Li2FeF4
_chemical_formula_sum   'Li2 Fe1 F4'
_cell_volume   76.65210765
_cell_formula_units_Z   1
loop_
 _symmetry_equiv_pos_site_id
 _symmetry_equiv_pos_as_xyz
  1  'x, y, z'
loop_
 _atom_site_type_symbol
 _atom_site_label
 _atom_site_symmetry_multiplicity
 _atom_site_fract_x
 _atom_site_fract_y
 _atom_site_fract_z
 _atom_site_occupancy
  Li  Li0  1  -0.001057  0.500000  0.749472  1
  Li  Li1  1  0.996268  0.500000  0.248134  1
  Fe  Fe2  1  0.995447  0.000000  0.997724  1
  F  F3  1  0.529994  0.533075  0.764938  1
  F  F4  1  0.463844  0.466925  0.231981  1
  F  F5  1  0.493188  0.999976  0.495917  1
  F  F6  1  0.493236  0.000024  0.997295  1
