# generated using pymatgen
data_Li2Mn2P4H6O17
_symmetry_space_group_name_H-M   'P 1'
_cell_length_a   9.32940875
_cell_length_b   9.06539502
_cell_length_c   8.74086873
_cell_angle_alpha   90.04404357
_cell_angle_beta   100.11588843
_cell_angle_gamma   63.30066795
_symmetry_Int_Tables_number   1
_chemical_formula_structural   Li2Mn2P4H6O17
_chemical_formula_sum   'Li4 Mn4 P8 H12 O34'
_cell_volume   647.59640689
_cell_formula_units_Z   2
loop_
 _symmetry_equiv_pos_site_id
 _symmetry_equiv_pos_as_xyz
  1  'x, y, z'
loop_
 _atom_site_type_symbol
 _atom_site_label
 _atom_site_symmetry_multiplicity
 _atom_site_fract_x
 _atom_site_fract_y
 _atom_site_fract_z
 _atom_site_occupancy
  Li  Li0  1  0.887206  0.197613  0.245288  1
  Li  Li1  1  0.482302  0.735107  0.679216  1
  Li  Li2  1  0.517698  0.264893  0.320784  1
  Li  Li3  1  0.112794  0.802387  0.754712  1
  Mn  Mn4  1  0.753250  0.709157  0.132620  1
  Mn  Mn5  1  0.733748  0.220286  0.627501  1
  Mn  Mn6  1  0.266252  0.779714  0.372499  1
  Mn  Mn7  1  0.246750  0.290843  0.867380  1
  P  P8  1  0.856969  0.912423  0.411024  1
  P  P9  1  0.839393  0.412757  0.895293  1
  P  P10  1  0.695878  0.551146  0.429763  1
  P  P11  1  0.350121  0.991012  0.139958  1
  P  P12  1  0.649879  0.008988  0.860042  1
  P  P13  1  0.304122  0.448854  0.570237  1
  P  P14  1  0.160607  0.587243  0.104707  1
  P  P15  1  0.143031  0.087577  0.588976  1
  H  H16  1  0.951785  0.800432  0.974598  1
  H  H17  1  0.891361  0.710715  0.570496  1
  H  H18  1  0.891234  0.494057  0.656033  1
  H  H19  1  0.442894  0.016442  0.704414  1
  H  H20  1  0.604445  0.400556  0.119971  1
  H  H21  1  0.591989  0.241849  0.054315  1
  H  H22  1  0.408011  0.758151  0.945685  1
  H  H23  1  0.395555  0.599444  0.880029  1
  H  H24  1  0.557106  0.983558  0.295586  1
  H  H25  1  0.108766  0.505943  0.343967  1
  H  H26  1  0.108639  0.289285  0.429504  1
  H  H27  1  0.048216  0.199568  0.025402  1
  O  O28  1  0.985998  0.924777  0.336042  1
  O  O29  1  0.940631  0.790004  0.567259  1
  O  O30  1  0.747764  0.846607  0.307638  1
  O  O31  1  0.973651  0.413126  0.815284  1
  O  O32  1  0.927867  0.267399  0.033353  1
  O  O33  1  0.770129  0.870460  0.990524  1
  O  O34  1  0.828917  0.574294  0.555738  1
  O  O35  1  0.747456  0.542979  0.269036  1
  O  O36  1  0.559783  0.928687  0.740743  1
  O  O37  1  0.480952  0.843450  0.079193  1
  O  O38  1  0.739164  0.577501  0.959499  1
  O  O39  1  0.708306  0.378018  0.460820  1
  O  O40  1  0.531442  0.693486  0.440003  1
  O  O41  1  0.710207  0.385521  0.778566  1
  O  O42  1  0.634810  0.285206  0.148990  1
  O  O43  1  0.730909  0.081975  0.451049  1
  O  O44  1  0.763813  0.051381  0.782406  1
  O  O45  1  0.236187  0.948619  0.217594  1
  O  O46  1  0.269091  0.918025  0.548951  1
  O  O47  1  0.365190  0.714794  0.851010  1
  O  O48  1  0.289793  0.614479  0.221434  1
  O  O49  1  0.468558  0.306514  0.559997  1
  O  O50  1  0.291695  0.621982  0.539180  1
  O  O51  1  0.260836  0.422499  0.040501  1
  O  O52  1  0.519048  0.156550  0.920807  1
  O  O53  1  0.440217  0.071313  0.259257  1
  O  O54  1  0.252544  0.457021  0.730964  1
  O  O55  1  0.171083  0.425706  0.444262  1
  O  O56  1  0.229871  0.129540  0.009476  1
  O  O57  1  0.072133  0.732601  0.966647  1
  O  O58  1  0.026349  0.586874  0.184716  1
  O  O59  1  0.252236  0.153393  0.692362  1
  O  O60  1  0.059369  0.209996  0.432741  1
  O  O61  1  0.014002  0.075223  0.663958  1
