# generated using pymatgen
data_Ba2Sr7I18
_symmetry_space_group_name_H-M   'P 1'
_cell_length_a   10.74593562
_cell_length_b   12.09577299
_cell_length_c   11.52290983
_cell_angle_alpha   95.21044903
_cell_angle_beta   96.20607283
_cell_angle_gamma   116.39829402
_symmetry_Int_Tables_number   1
_chemical_formula_structural   Ba2Sr7I18
_chemical_formula_sum   'Ba2 Sr7 I18'
_cell_volume   1317.39187491
_cell_formula_units_Z   1
loop_
 _symmetry_equiv_pos_site_id
 _symmetry_equiv_pos_as_xyz
  1  'x, y, z'
loop_
 _atom_site_type_symbol
 _atom_site_label
 _atom_site_symmetry_multiplicity
 _atom_site_fract_x
 _atom_site_fract_y
 _atom_site_fract_z
 _atom_site_occupancy
  Ba  Ba0  1  0.310634  0.780522  0.610582  1
  Ba  Ba1  1  0.689366  0.219478  0.389418  1
  Sr  Sr2  1  0.207193  0.880540  0.175497  1
  Sr  Sr3  1  0.000000  0.000000  0.500000  1
  Sr  Sr4  1  0.200978  0.384448  0.220862  1
  Sr  Sr5  1  0.408886  0.294618  0.887956  1
  Sr  Sr6  1  0.591114  0.705382  0.112044  1
  Sr  Sr7  1  0.799022  0.615552  0.779138  1
  Sr  Sr8  1  0.792807  0.119460  0.824503  1
  I  I9  1  0.133785  0.748133  0.901086  1
  I  I10  1  0.153892  0.635025  0.309858  1
  I  I11  1  0.048097  0.278460  0.448614  1
  I  I12  1  0.074793  0.086827  0.788522  1
  I  I13  1  0.281396  0.486484  0.970406  1
  I  I14  1  0.534735  0.946438  0.183205  1
  I  I15  1  0.521640  0.578999  0.346195  1
  I  I16  1  0.357572  0.197460  0.155924  1
  I  I17  1  0.679803  0.971521  0.540338  1
  I  I18  1  0.320197  0.028479  0.459662  1
  I  I19  1  0.642428  0.802540  0.844076  1
  I  I20  1  0.478360  0.421001  0.653805  1
  I  I21  1  0.465265  0.053562  0.816795  1
  I  I22  1  0.718604  0.513516  0.029594  1
  I  I23  1  0.925207  0.913173  0.211478  1
  I  I24  1  0.951903  0.721540  0.551386  1
  I  I25  1  0.846108  0.364975  0.690142  1
  I  I26  1  0.866215  0.251867  0.098914  1
