# generated using pymatgen
data_Li3V2(O2F)2
_symmetry_space_group_name_H-M   'P 1'
_cell_length_a   5.97683422
_cell_length_b   6.03120820
_cell_length_c   15.16973264
_cell_angle_alpha   95.14707319
_cell_angle_beta   79.61718810
_cell_angle_gamma   120.56638798
_symmetry_Int_Tables_number   1
_chemical_formula_structural   Li3V2(O2F)2
_chemical_formula_sum   'Li12 V8 O16 F8'
_cell_volume   463.13298810
_cell_formula_units_Z   4
loop_
 _symmetry_equiv_pos_site_id
 _symmetry_equiv_pos_as_xyz
  1  'x, y, z'
loop_
 _atom_site_type_symbol
 _atom_site_label
 _atom_site_symmetry_multiplicity
 _atom_site_fract_x
 _atom_site_fract_y
 _atom_site_fract_z
 _atom_site_occupancy
  Li  Li0  1  0.063823  0.859033  0.164280  1
  Li  Li1  1  0.073335  0.289323  0.163656  1
  Li  Li2  1  0.203685  0.670156  0.287368  1
  Li  Li3  1  0.333072  0.834002  0.663740  1
  Li  Li4  1  0.501618  0.524487  0.043674  1
  Li  Li5  1  0.566089  0.326922  0.175776  1
  Li  Li6  1  0.323929  0.334917  0.666532  1
  Li  Li7  1  0.502107  0.999219  0.045466  1
  Li  Li8  1  0.670903  0.669663  0.299492  1
  Li  Li9  1  0.835689  0.849168  0.666603  1
  Li  Li10  1  0.982442  0.497189  0.026098  1
  Li  Li11  1  0.677409  0.144243  0.295467  1
  V  V12  1  0.242962  0.497285  0.496953  1
  V  V13  1  0.247720  0.000947  0.492504  1
  V  V14  1  0.416790  0.668907  0.835091  1
  V  V15  1  0.746936  0.498350  0.508654  1
  V  V16  1  0.419090  0.166792  0.832016  1
  V  V17  1  0.747081  0.998821  0.502145  1
  V  V18  1  0.914401  0.664095  0.830061  1
  V  V19  1  0.919727  0.169640  0.833311  1
  O  O20  1  0.065463  0.682110  0.572330  1
  O  O21  1  0.228056  0.820973  0.896495  1
  O  O22  1  0.444900  0.829492  0.429845  1
  O  O23  1  0.123489  0.496014  0.759404  1
  O  O24  1  0.062582  0.166359  0.571469  1
  O  O25  1  0.450936  0.343062  0.436378  1
  O  O26  1  0.203308  0.328022  0.899288  1
  O  O27  1  0.118520  0.001958  0.756304  1
  O  O28  1  0.533118  0.664816  0.577458  1
  O  O29  1  0.719507  0.839080  0.899219  1
  O  O30  1  0.952940  0.831046  0.436036  1
  O  O31  1  0.601029  0.511083  0.760387  1
  O  O32  1  0.526624  0.150949  0.571560  1
  O  O33  1  0.960364  0.342239  0.436505  1
  O  O34  1  0.723864  0.331727  0.897814  1
  O  O35  1  0.627515  0.995412  0.759955  1
  F  F36  1  0.285283  0.659457  0.075986  1
  F  F37  1  0.371363  0.491630  0.245747  1
  F  F38  1  0.313768  0.177736  0.089190  1
  F  F39  1  0.369710  0.001327  0.248900  1
  F  F40  1  0.803026  0.648489  0.087973  1
  F  F41  1  0.864145  0.495123  0.255256  1
  F  F42  1  0.801433  0.198433  0.091212  1
  F  F43  1  0.876915  0.996972  0.249734  1
