# generated using pymatgen
data_Li3Mn(BO3)2
_symmetry_space_group_name_H-M   'P 1'
_cell_length_a   9.26345258
_cell_length_b   6.16020181
_cell_length_c   10.02849430
_cell_angle_alpha   90.00000000
_cell_angle_beta   57.33812997
_cell_angle_gamma   90.00000000
_symmetry_Int_Tables_number   1
_chemical_formula_structural   Li3Mn(BO3)2
_chemical_formula_sum   'Li12 Mn4 B8 O24'
_cell_volume   481.77987150
_cell_formula_units_Z   4
loop_
 _symmetry_equiv_pos_site_id
 _symmetry_equiv_pos_as_xyz
  1  'x, y, z'
loop_
 _atom_site_type_symbol
 _atom_site_label
 _atom_site_symmetry_multiplicity
 _atom_site_fract_x
 _atom_site_fract_y
 _atom_site_fract_z
 _atom_site_occupancy
  Li  Li0  1  0.124920  0.237823  0.487324  1
  Li  Li1  1  0.025833  0.564784  0.685066  1
  Li  Li2  1  0.375080  0.737823  0.012676  1
  Li  Li3  1  0.298867  0.774974  0.580347  1
  Li  Li4  1  0.525833  0.935216  0.185066  1
  Li  Li5  1  0.201133  0.274974  0.919653  1
  Li  Li6  1  0.798867  0.725026  0.080347  1
  Li  Li7  1  0.474167  0.064784  0.814934  1
  Li  Li8  1  0.701133  0.225026  0.419653  1
  Li  Li9  1  0.624920  0.262177  0.987324  1
  Li  Li10  1  0.974167  0.435216  0.314934  1
  Li  Li11  1  0.875080  0.762177  0.512676  1
  Mn  Mn12  1  0.982528  0.033148  0.790445  1
  Mn  Mn13  1  0.482527  0.466852  0.290445  1
  Mn  Mn14  1  0.517472  0.533148  0.709555  1
  Mn  Mn15  1  0.017473  0.966852  0.209555  1
  B  B16  1  0.265749  0.146867  0.181081  1
  B  B17  1  0.234251  0.646867  0.318919  1
  B  B18  1  0.140824  0.699001  0.914411  1
  B  B19  1  0.359176  0.199001  0.585589  1
  B  B20  1  0.640824  0.800999  0.414411  1
  B  B21  1  0.859176  0.300999  0.085589  1
  B  B22  1  0.765749  0.353133  0.681081  1
  B  B23  1  0.734251  0.853133  0.818919  1
  O  O24  1  0.092012  0.691906  0.319694  1
  O  O25  1  0.099209  0.170460  0.313732  1
  O  O26  1  0.262174  0.054103  0.053097  1
  O  O27  1  0.237826  0.554103  0.446903  1
  O  O28  1  0.400791  0.670460  0.186268  1
  O  O29  1  0.011842  0.774413  0.063618  1
  O  O30  1  0.216513  0.095366  0.601214  1
  O  O31  1  0.407988  0.191906  0.180306  1
  O  O32  1  0.112773  0.718702  0.794561  1
  O  O33  1  0.387227  0.218702  0.705439  1
  O  O34  1  0.283487  0.595366  0.898786  1
  O  O35  1  0.488158  0.274412  0.436382  1
  O  O36  1  0.511842  0.725587  0.563618  1
  O  O37  1  0.716513  0.404634  0.101214  1
  O  O38  1  0.612773  0.781298  0.294561  1
  O  O39  1  0.887227  0.281298  0.205439  1
  O  O40  1  0.592012  0.808094  0.819695  1
  O  O41  1  0.783487  0.904634  0.398786  1
  O  O42  1  0.988158  0.225587  0.936382  1
  O  O43  1  0.599209  0.329540  0.813732  1
  O  O44  1  0.762174  0.445897  0.553097  1
  O  O45  1  0.737826  0.945897  0.946903  1
  O  O46  1  0.900791  0.829540  0.686268  1
  O  O47  1  0.907988  0.308094  0.680305  1
