# generated using pymatgen
data_Fe11O12
_symmetry_space_group_name_H-M   'P 1'
_cell_length_a   6.24220610
_cell_length_b   11.04309993
_cell_length_c   8.09288147
_cell_angle_alpha   38.52294026
_cell_angle_beta   55.18839967
_cell_angle_gamma   45.87787889
_symmetry_Int_Tables_number   1
_chemical_formula_structural   Fe11O12
_chemical_formula_sum   'Fe11 O12'
_cell_volume   248.99530531
_cell_formula_units_Z   1
loop_
 _symmetry_equiv_pos_site_id
 _symmetry_equiv_pos_as_xyz
  1  'x, y, z'
loop_
 _atom_site_type_symbol
 _atom_site_label
 _atom_site_symmetry_multiplicity
 _atom_site_fract_x
 _atom_site_fract_y
 _atom_site_fract_z
 _atom_site_occupancy
  Fe  Fe0  1  0.500000  0.000000  0.000000  1
  Fe  Fe1  1  0.347815  0.328322  0.996876  1
  Fe  Fe2  1  0.403287  0.162630  0.516800  1
  Fe  Fe3  1  0.160084  0.677376  0.998964  1
  Fe  Fe4  1  0.839916  0.322624  0.001036  1
  Fe  Fe5  1  0.241485  0.519842  0.479630  1
  Fe  Fe6  1  0.915577  0.163662  0.511953  1
  Fe  Fe7  1  0.652185  0.671678  0.003124  1
  Fe  Fe8  1  0.084423  0.836338  0.488047  1
  Fe  Fe9  1  0.758515  0.480158  0.520370  1
  Fe  Fe10  1  0.596713  0.837370  0.483200  1
  O  O11  1  0.222775  0.073974  0.261750  1
  O  O12  1  0.068101  0.404751  0.253425  1
  O  O13  1  0.682902  0.081066  0.280107  1
  O  O14  1  0.139018  0.262843  0.730288  1
  O  O15  1  0.546246  0.402390  0.255669  1
  O  O16  1  0.595307  0.265869  0.737834  1
  O  O17  1  0.404693  0.734131  0.262166  1
  O  O18  1  0.453754  0.597610  0.744331  1
  O  O19  1  0.860982  0.737157  0.269712  1
  O  O20  1  0.317098  0.918934  0.719893  1
  O  O21  1  0.931899  0.595249  0.746575  1
  O  O22  1  0.777225  0.926026  0.738250  1
