# generated using pymatgen
data_Na2CuH4(SO5)2
_symmetry_space_group_name_H-M   'P 1'
_cell_length_a   5.87792613
_cell_length_b   12.84290768
_cell_length_c   5.63956875
_cell_angle_alpha   90.00000000
_cell_angle_beta   109.76311992
_cell_angle_gamma   90.00000000
_symmetry_Int_Tables_number   1
_chemical_formula_structural   Na2CuH4(SO5)2
_chemical_formula_sum   'Na4 Cu2 H8 S4 O20'
_cell_volume   400.65310477
_cell_formula_units_Z   2
loop_
 _symmetry_equiv_pos_site_id
 _symmetry_equiv_pos_as_xyz
  1  'x, y, z'
loop_
 _atom_site_type_symbol
 _atom_site_label
 _atom_site_symmetry_multiplicity
 _atom_site_fract_x
 _atom_site_fract_y
 _atom_site_fract_z
 _atom_site_occupancy
  Na  Na0  1  0.568980  0.376406  0.711825  1
  Na  Na1  1  0.431020  0.876406  0.788175  1
  Na  Na2  1  0.431020  0.623594  0.288175  1
  Na  Na3  1  0.568980  0.123594  0.211825  1
  Cu  Cu4  1  0.000000  0.500000  0.500000  1
  Cu  Cu5  1  0.000000  0.000000  0.000000  1
  H  H6  1  0.927860  0.300997  0.484204  1
  H  H7  1  0.072140  0.800997  0.015796  1
  H  H8  1  0.072140  0.699003  0.515796  1
  H  H9  1  0.927860  0.199003  0.984204  1
  H  H10  1  0.702888  0.355311  0.283617  1
  H  H11  1  0.297112  0.855311  0.216383  1
  H  H12  1  0.297112  0.644689  0.716383  1
  H  H13  1  0.702888  0.144689  0.783617  1
  S  S14  1  0.239440  0.380756  0.045105  1
  S  S15  1  0.760560  0.880756  0.454895  1
  S  S16  1  0.760560  0.619244  0.954895  1
  S  S17  1  0.239440  0.119244  0.545105  1
  O  O18  1  0.008680  0.324527  0.985704  1
  O  O19  1  0.991320  0.824527  0.514296  1
  O  O20  1  0.991320  0.675473  0.014296  1
  O  O21  1  0.008680  0.175473  0.485704  1
  O  O22  1  0.293146  0.441576  0.281529  1
  O  O23  1  0.706854  0.941576  0.218471  1
  O  O24  1  0.706854  0.558424  0.718471  1
  O  O25  1  0.293146  0.058424  0.781529  1
  O  O26  1  0.231531  0.455206  0.832238  1
  O  O27  1  0.768469  0.955206  0.667762  1
  O  O28  1  0.768469  0.544794  0.167762  1
  O  O29  1  0.231531  0.044794  0.332238  1
  O  O30  1  0.446029  0.308560  0.066237  1
  O  O31  1  0.553971  0.808560  0.433763  1
  O  O32  1  0.553971  0.691440  0.933763  1
  O  O33  1  0.446029  0.191440  0.566237  1
  O  O34  1  0.828332  0.366061  0.453530  1
  O  O35  1  0.171668  0.866061  0.046470  1
  O  O36  1  0.171668  0.633939  0.546470  1
  O  O37  1  0.828332  0.133939  0.953530  1
