# generated using pymatgen
data_Fe2O3F
_symmetry_space_group_name_H-M   'P 1'
_cell_length_a   4.65740101
_cell_length_b   13.06082862
_cell_length_c   5.53865801
_cell_angle_alpha   102.98815223
_cell_angle_beta   90.75981902
_cell_angle_gamma   89.29575939
_symmetry_Int_Tables_number   1
_chemical_formula_structural   Fe2O3F
_chemical_formula_sum   'Fe10 O15 F5'
_cell_volume   328.25061665
_cell_formula_units_Z   5
loop_
 _symmetry_equiv_pos_site_id
 _symmetry_equiv_pos_as_xyz
  1  'x, y, z'
loop_
 _atom_site_type_symbol
 _atom_site_label
 _atom_site_symmetry_multiplicity
 _atom_site_fract_x
 _atom_site_fract_y
 _atom_site_fract_z
 _atom_site_occupancy
  Fe  Fe0  1  0.524562  0.991434  0.499076  1
  Fe  Fe1  1  0.471626  0.407666  0.301881  1
  Fe  Fe2  1  0.500852  0.200436  0.898751  1
  Fe  Fe3  1  0.515316  0.604798  0.692897  1
  Fe  Fe4  1  0.502140  0.798910  0.098900  1
  Fe  Fe5  1  0.982695  0.393171  0.796975  1
  Fe  Fe6  1  0.012890  0.801442  0.601564  1
  Fe  Fe7  1  0.999414  0.199818  0.399745  1
  Fe  Fe8  1  0.963980  0.592725  0.210839  1
  Fe  Fe9  1  0.022536  0.008486  0.000846  1
  O  O10  1  0.797803  0.253943  0.707183  1
  O  O11  1  0.814016  0.667764  0.522830  1
  O  O12  1  0.815042  0.065700  0.315724  1
  O  O13  1  0.796891  0.455802  0.108391  1
  O  O14  1  0.695188  0.062018  0.816604  1
  O  O15  1  0.688996  0.464818  0.616188  1
  O  O16  1  0.688547  0.661643  0.016133  1
  O  O17  1  0.707521  0.854113  0.409660  1
  O  O18  1  0.302254  0.337812  0.982253  1
  O  O19  1  0.311495  0.741316  0.784221  1
  O  O20  1  0.314424  0.934423  0.183338  1
  O  O21  1  0.296603  0.546059  0.390713  1
  O  O22  1  0.202623  0.146896  0.092308  1
  O  O23  1  0.196373  0.937315  0.686503  1
  O  O24  1  0.185598  0.334531  0.484401  1
  F  F25  1  0.810293  0.863881  0.922831  1
  F  F26  1  0.690245  0.265248  0.221849  1
  F  F27  1  0.307244  0.133585  0.577903  1
  F  F28  1  0.188163  0.539265  0.886086  1
  F  F29  1  0.194670  0.734982  0.273401  1
