# generated using pymatgen
data_LiCuPO4
_symmetry_space_group_name_H-M   'P 1'
_cell_length_a   9.82987850
_cell_length_b   14.00339838
_cell_length_c   4.94276216
_cell_angle_alpha   90.00000000
_cell_angle_beta   90.00000000
_cell_angle_gamma   90.00000000
_symmetry_Int_Tables_number   1
_chemical_formula_structural   LiCuPO4
_chemical_formula_sum   'Li8 Cu8 P8 O32'
_cell_volume   680.37963707
_cell_formula_units_Z   8
loop_
 _symmetry_equiv_pos_site_id
 _symmetry_equiv_pos_as_xyz
  1  'x, y, z'
loop_
 _atom_site_type_symbol
 _atom_site_label
 _atom_site_symmetry_multiplicity
 _atom_site_fract_x
 _atom_site_fract_y
 _atom_site_fract_z
 _atom_site_occupancy
  Li  Li0  1  0.033226  0.751817  0.052531  1
  Li  Li1  1  0.220169  0.003190  0.561387  1
  Li  Li2  1  0.279831  0.503190  0.561387  1
  Li  Li3  1  0.466774  0.251817  0.052531  1
  Li  Li4  1  0.533226  0.751817  0.947469  1
  Li  Li5  1  0.720169  0.003190  0.438613  1
  Li  Li6  1  0.779831  0.503190  0.438613  1
  Li  Li7  1  0.966774  0.251817  0.947469  1
  Cu  Cu8  1  0.025591  0.499907  0.945536  1
  Cu  Cu9  1  0.227383  0.752691  0.544553  1
  Cu  Cu10  1  0.272617  0.252691  0.544553  1
  Cu  Cu11  1  0.474409  -0.000093  0.945536  1
  Cu  Cu12  1  0.525591  0.499907  0.054464  1
  Cu  Cu13  1  0.727383  0.752691  0.455447  1
  Cu  Cu14  1  0.772617  0.252691  0.455447  1
  Cu  Cu15  1  0.974409  -0.000093  0.054464  1
  P  P16  1  0.032435  0.376517  0.441225  1
  P  P17  1  0.214702  0.127213  0.068692  1
  P  P18  1  0.285298  0.627213  0.068692  1
  P  P19  1  0.467565  0.876517  0.441225  1
  P  P20  1  0.532435  0.376517  0.558775  1
  P  P21  1  0.714702  0.127213  0.931308  1
  P  P22  1  0.785298  0.627213  0.931308  1
  P  P23  1  0.967565  0.876517  0.558775  1
  O  O24  1  0.989587  0.876181  0.871696  1
  O  O25  1  0.966607  0.468152  0.559414  1
  O  O26  1  0.032276  0.784339  0.442030  1
  O  O27  1  0.057857  0.126110  0.018103  1
  O  O28  1  0.186347  0.377746  0.512280  1
  O  O29  1  0.225156  0.534737  0.943497  1
  O  O30  1  0.274116  0.219429  0.942637  1
  O  O31  1  0.246664  0.127571  0.376706  1
  O  O32  1  0.253336  0.627571  0.376706  1
  O  O33  1  0.225884  0.719429  0.942637  1
  O  O34  1  0.274844  0.034737  0.943497  1
  O  O35  1  0.313653  0.877746  0.512280  1
  O  O36  1  0.442143  0.626110  0.018103  1
  O  O37  1  0.467724  0.284339  0.442030  1
  O  O38  1  0.533393  0.968152  0.559414  1
  O  O39  1  0.510413  0.376181  0.871696  1
  O  O40  1  0.489587  0.876181  0.128304  1
  O  O41  1  0.466607  0.468152  0.440586  1
  O  O42  1  0.532276  0.784339  0.557970  1
  O  O43  1  0.557857  0.126110  0.981897  1
  O  O44  1  0.686347  0.377746  0.487720  1
  O  O45  1  0.725156  0.534737  0.056503  1
  O  O46  1  0.774116  0.219429  0.057363  1
  O  O47  1  0.746664  0.127571  0.623294  1
  O  O48  1  0.753336  0.627571  0.623294  1
  O  O49  1  0.725884  0.719429  0.057363  1
  O  O50  1  0.774844  0.034737  0.056503  1
  O  O51  1  0.813653  0.877746  0.487720  1
  O  O52  1  0.942143  0.626110  0.981897  1
  O  O53  1  0.967724  0.284339  0.557970  1
  O  O54  1  0.033393  0.968152  0.440586  1
  O  O55  1  0.010413  0.376181  0.128304  1
