# generated using pymatgen
data_LiFe4OF7
_symmetry_space_group_name_H-M   'P 1'
_cell_length_a   5.08352797
_cell_length_b   8.09078932
_cell_length_c   8.09143494
_cell_angle_alpha   74.89202758
_cell_angle_beta   90.00000000
_cell_angle_gamma   90.00000000
_symmetry_Int_Tables_number   1
_chemical_formula_structural   LiFe4OF7
_chemical_formula_sum   'Li2 Fe8 O2 F14'
_cell_volume   321.29599607
_cell_formula_units_Z   2
loop_
 _symmetry_equiv_pos_site_id
 _symmetry_equiv_pos_as_xyz
  1  'x, y, z'
loop_
 _atom_site_type_symbol
 _atom_site_label
 _atom_site_symmetry_multiplicity
 _atom_site_fract_x
 _atom_site_fract_y
 _atom_site_fract_z
 _atom_site_occupancy
  Li  Li0  1  0.998315  0.192685  0.707594  1
  Li  Li1  1  0.498316  0.932320  0.917413  1
  Fe  Fe2  1  0.037074  0.514308  0.497881  1
  Fe  Fe3  1  0.485931  0.163539  0.585484  1
  Fe  Fe4  1  0.503936  0.868695  0.391485  1
  Fe  Fe5  1  0.537073  0.610692  0.127119  1
  Fe  Fe6  1  0.985931  0.961461  0.039516  1
  Fe  Fe7  1  0.003936  0.256305  0.233515  1
  Fe  Fe8  1  0.476696  0.380486  0.851262  1
  Fe  Fe9  1  0.976696  0.744514  0.773738  1
  O  O10  1  0.286140  0.346336  0.645873  1
  O  O11  1  0.786140  0.778664  0.979127  1
  F  F12  1  0.195172  0.746450  0.539398  1
  F  F13  1  0.193812  0.980982  0.781410  1
  F  F14  1  0.219949  0.477685  0.262543  1
  F  F15  1  0.175463  0.196240  0.015816  1
  F  F16  1  0.303697  0.598253  0.902955  1
  F  F17  1  0.295678  0.106167  0.378550  1
  F  F18  1  0.335983  0.846717  0.154308  1
  F  F19  1  0.695172  0.378550  0.085602  1
  F  F20  1  0.693812  0.144018  0.843590  1
  F  F21  1  0.719949  0.647315  0.362457  1
  F  F22  1  0.675463  0.928760  0.609184  1
  F  F23  1  0.803697  0.526747  0.722045  1
  F  F24  1  0.795678  0.018833  0.246450  1
  F  F25  1  0.835983  0.278283  0.470692  1
