# generated using pymatgen
data_Li32Ti3Cr13O48
_symmetry_space_group_name_H-M   'P 1'
_cell_length_a   5.04713585
_cell_length_b   8.72597564
_cell_length_c   19.50216433
_cell_angle_alpha   98.06852289
_cell_angle_beta   94.92061785
_cell_angle_gamma   89.66399080
_symmetry_Int_Tables_number   1
_chemical_formula_structural   Li32Ti3Cr13O48
_chemical_formula_sum   'Li32 Ti3 Cr13 O48'
_cell_volume   847.24537011
_cell_formula_units_Z   1
loop_
 _symmetry_equiv_pos_site_id
 _symmetry_equiv_pos_as_xyz
  1  'x, y, z'
loop_
 _atom_site_type_symbol
 _atom_site_label
 _atom_site_symmetry_multiplicity
 _atom_site_fract_x
 _atom_site_fract_y
 _atom_site_fract_z
 _atom_site_occupancy
  Li  Li0  1  0.992212  0.170959  0.249480  1
  Li  Li1  1  0.875573  0.375438  0.375013  1
  Li  Li2  1  0.749247  0.251669  0.000288  1
  Li  Li3  1  0.741269  0.921104  0.000793  1
  Li  Li4  1  0.991082  0.169243  0.749968  1
  Li  Li5  1  0.761856  0.580167  0.500183  1
  Li  Li6  1  0.873186  0.374951  0.875946  1
  Li  Li7  1  0.741587  0.252811  0.499988  1
  Li  Li8  1  0.743184  0.919544  0.499370  1
  Li  Li9  1  0.625605  0.124462  0.124965  1
  Li  Li10  1  0.757311  0.578583  0.000043  1
  Li  Li11  1  0.509258  0.330136  0.249859  1
  Li  Li12  1  0.625442  0.125766  0.625037  1
  Li  Li13  1  0.502744  0.998061  0.249651  1
  Li  Li14  1  0.492584  0.670228  0.249858  1
  Li  Li15  1  0.515628  0.333990  0.750837  1
  Li  Li16  1  0.375581  0.874903  0.374509  1
  Li  Li17  1  0.500200  0.000118  0.750197  1
  Li  Li18  1  0.255035  0.749328  0.999737  1
  Li  Li19  1  0.485018  0.666159  0.749282  1
  Li  Li20  1  0.243694  0.420714  0.999684  1
  Li  Li21  1  0.374197  0.874587  0.874984  1
  Li  Li22  1  0.257408  0.078917  0.499807  1
  Li  Li23  1  0.250186  0.748929  0.499989  1
  Li  Li24  1  0.124858  0.625242  0.124981  1
  Li  Li25  1  0.243780  0.420458  0.500625  1
  Li  Li26  1  0.007903  0.830169  0.250274  1
  Li  Li27  1  0.255476  0.078239  0.000082  1
  Li  Li28  1  0.125331  0.624758  0.624642  1
  Li  Li29  1  0.993976  0.501167  0.250323  1
  Li  Li30  1  0.008772  0.830440  0.750240  1
  Li  Li31  1  0.999183  0.500473  0.749908  1
  Ti  Ti32  1  0.870485  0.711520  0.873619  1
  Ti  Ti33  1  0.378123  0.538350  0.375391  1
  Ti  Ti34  1  0.128231  0.288091  0.625110  1
  Cr  Cr35  1  0.876173  0.711752  0.375050  1
  Cr  Cr36  1  0.873931  0.046804  0.374576  1
  Cr  Cr37  1  0.878530  0.047467  0.875812  1
  Cr  Cr38  1  0.632370  0.789439  0.124678  1
  Cr  Cr39  1  0.618619  0.459794  0.125115  1
  Cr  Cr40  1  0.627200  0.797751  0.625423  1
  Cr  Cr41  1  0.622808  0.461738  0.624638  1
  Cr  Cr42  1  0.371925  0.202064  0.374159  1
  Cr  Cr43  1  0.371319  0.538710  0.875094  1
  Cr  Cr44  1  0.377928  0.203448  0.875960  1
  Cr  Cr45  1  0.119002  0.959913  0.125340  1
  Cr  Cr46  1  0.131014  0.289732  0.124684  1
  Cr  Cr47  1  0.124024  0.953072  0.624749  1
  O  O48  1  0.965676  0.101690  0.068624  1
  O  O49  1  0.921057  0.784356  0.068862  1
  O  O50  1  0.925977  0.427497  0.068473  1
  O  O51  1  0.964298  0.103559  0.568789  1
  O  O52  1  0.829015  0.966361  0.181434  1
  O  O53  1  0.823564  0.322899  0.181721  1
  O  O54  1  0.935990  0.788148  0.568965  1
  O  O55  1  0.922543  0.429153  0.567776  1
  O  O56  1  0.784345  0.648367  0.181402  1
  O  O57  1  0.713773  0.859385  0.319195  1
  O  O58  1  0.815402  0.960971  0.681274  1
  O  O59  1  0.821625  0.323431  0.683050  1
  O  O60  1  0.680467  0.535948  0.318347  1
  O  O61  1  0.683038  0.173873  0.317028  1
  O  O62  1  0.783647  0.645141  0.680362  1
  O  O63  1  0.712620  0.860440  0.818477  1
  O  O64  1  0.465889  0.601464  0.068821  1
  O  O65  1  0.577063  0.717010  0.431149  1
  O  O66  1  0.564526  0.075380  0.432064  1
  O  O67  1  0.674960  0.533070  0.819124  1
  O  O68  1  0.685493  0.174657  0.817861  1
  O  O69  1  0.428070  0.925914  0.068148  1
  O  O70  1  0.418122  0.283430  0.068778  1
  O  O71  1  0.536211  0.389913  0.431335  1
  O  O72  1  0.465748  0.607589  0.569338  1
  O  O73  1  0.567719  0.712719  0.931268  1
  O  O74  1  0.566629  0.075025  0.932996  1
  O  O75  1  0.323615  0.824323  0.181607  1
  O  O76  1  0.330721  0.466659  0.181239  1
  O  O77  1  0.432687  0.923635  0.567141  1
  O  O78  1  0.428921  0.284771  0.568336  1
  O  O79  1  0.537450  0.388543  0.931346  1
  O  O80  1  0.284082  0.147826  0.181190  1
  O  O81  1  0.214387  0.354234  0.318702  1
  O  O82  1  0.315400  0.824883  0.681968  1
  O  O83  1  0.327875  0.466480  0.681172  1
  O  O84  1  0.171663  0.679781  0.317599  1
  O  O85  1  0.185801  0.038323  0.318493  1
  O  O86  1  0.286670  0.139851  0.681647  1
  O  O87  1  0.217138  0.359056  0.820148  1
  O  O88  1  0.073520  0.572592  0.433278  1
  O  O89  1  0.063772  0.209982  0.430992  1
  O  O90  1  0.173991  0.678543  0.816200  1
  O  O91  1  0.185374  0.040347  0.818884  1
  O  O92  1  0.035148  0.893270  0.430104  1
  O  O93  1  0.079795  0.570708  0.932632  1
  O  O94  1  0.063933  0.211684  0.931368  1
  O  O95  1  0.034539  0.895768  0.931355  1
