# generated using pymatgen
data_Li2Fe(PO4)2
_symmetry_space_group_name_H-M   'P 1'
_cell_length_a   9.23850958
_cell_length_b   9.15078692
_cell_length_c   13.74193824
_cell_angle_alpha   90.00000000
_cell_angle_beta   90.00000000
_cell_angle_gamma   90.00000000
_symmetry_Int_Tables_number   1
_chemical_formula_structural   Li2Fe(PO4)2
_chemical_formula_sum   'Li16 Fe8 P16 O64'
_cell_volume   1161.73841036
_cell_formula_units_Z   8
loop_
 _symmetry_equiv_pos_site_id
 _symmetry_equiv_pos_as_xyz
  1  'x, y, z'
loop_
 _atom_site_type_symbol
 _atom_site_label
 _atom_site_symmetry_multiplicity
 _atom_site_fract_x
 _atom_site_fract_y
 _atom_site_fract_z
 _atom_site_occupancy
  Li  Li0  1  0.039599  0.216510  0.373167  1
  Li  Li1  1  0.039599  0.283490  0.873167  1
  Li  Li2  1  0.225950  0.954395  0.374164  1
  Li  Li3  1  0.225950  0.545605  0.874164  1
  Li  Li4  1  0.274050  0.045605  0.874164  1
  Li  Li5  1  0.274050  0.454395  0.374164  1
  Li  Li6  1  0.460401  0.716510  0.373167  1
  Li  Li7  1  0.460401  0.783490  0.873167  1
  Li  Li8  1  0.539599  0.216510  0.126833  1
  Li  Li9  1  0.539599  0.283490  0.626833  1
  Li  Li10  1  0.725950  0.545605  0.625836  1
  Li  Li11  1  0.725950  0.954395  0.125836  1
  Li  Li12  1  0.774050  0.045605  0.625836  1
  Li  Li13  1  0.774050  0.454395  0.125836  1
  Li  Li14  1  0.960401  0.783490  0.626833  1
  Li  Li15  1  0.960401  0.716510  0.126833  1
  Fe  Fe16  1  0.140181  0.104841  0.125312  1
  Fe  Fe17  1  0.140181  0.395159  0.625312  1
  Fe  Fe18  1  0.359819  0.604841  0.125312  1
  Fe  Fe19  1  0.359819  0.895159  0.625312  1
  Fe  Fe20  1  0.640181  0.104841  0.374688  1
  Fe  Fe21  1  0.640181  0.395159  0.874688  1
  Fe  Fe22  1  0.859819  0.604841  0.374688  1
  Fe  Fe23  1  0.859819  0.895159  0.874688  1
  P  P24  1  0.074112  0.066601  0.722632  1
  P  P25  1  0.074112  0.433399  0.222632  1
  P  P26  1  0.161181  0.686683  0.490336  1
  P  P27  1  0.161181  0.813317  0.990336  1
  P  P28  1  0.338819  0.186683  0.490336  1
  P  P29  1  0.338819  0.313317  0.990336  1
  P  P30  1  0.425888  0.566601  0.722632  1
  P  P31  1  0.425888  0.933399  0.222632  1
  P  P32  1  0.574112  0.433399  0.277368  1
  P  P33  1  0.574112  0.066601  0.777368  1
  P  P34  1  0.661181  0.686683  0.009664  1
  P  P35  1  0.661181  0.813317  0.509664  1
  P  P36  1  0.838819  0.186683  0.009664  1
  P  P37  1  0.838819  0.313317  0.509664  1
  P  P38  1  0.925888  0.566601  0.777368  1
  P  P39  1  0.925888  0.933399  0.277368  1
  O  O40  1  0.994522  0.699494  0.474476  1
  O  O41  1  0.994522  0.800506  0.974476  1
  O  O42  1  0.022927  0.000667  0.354485  1
  O  O43  1  0.022927  0.499333  0.854485  1
  O  O44  1  0.020488  0.466460  0.329058  1
  O  O45  1  0.020488  0.033540  0.829058  1
  O  O46  1  0.078583  0.237283  0.719846  1
  O  O47  1  0.078583  0.262717  0.219846  1
  O  O48  1  0.188136  0.724166  0.084754  1
  O  O49  1  0.188136  0.775834  0.584754  1
  O  O50  1  0.201949  0.524027  0.510543  1
  O  O51  1  0.201949  0.975973  0.010543  1
  O  O52  1  0.231166  0.004559  0.720099  1
  O  O53  1  0.231166  0.495441  0.220099  1
  O  O54  1  0.246765  0.739123  0.402423  1
  O  O55  1  0.246765  0.760877  0.902423  1
  O  O56  1  0.253235  0.239123  0.402423  1
  O  O57  1  0.253235  0.260877  0.902423  1
  O  O58  1  0.268834  0.995441  0.220099  1
  O  O59  1  0.268834  0.504559  0.720099  1
  O  O60  1  0.298051  0.024027  0.510543  1
  O  O61  1  0.298051  0.475973  0.010543  1
  O  O62  1  0.311864  0.224165  0.084754  1
  O  O63  1  0.311864  0.275834  0.584754  1
  O  O64  1  0.421417  0.737283  0.719846  1
  O  O65  1  0.421417  0.762717  0.219846  1
  O  O66  1  0.479512  0.533540  0.829058  1
  O  O67  1  0.479512  0.966460  0.329058  1
  O  O68  1  0.477073  0.500667  0.354485  1
  O  O69  1  0.477073  0.999333  0.854485  1
  O  O70  1  0.505478  0.199494  0.474476  1
  O  O71  1  0.505478  0.300506  0.974476  1
  O  O72  1  0.494522  0.699494  0.025524  1
  O  O73  1  0.494522  0.800506  0.525524  1
  O  O74  1  0.522927  0.499333  0.645515  1
  O  O75  1  0.522927  0.000667  0.145515  1
  O  O76  1  0.520488  0.466460  0.170942  1
  O  O77  1  0.520488  0.033540  0.670942  1
  O  O78  1  0.578583  0.237283  0.780154  1
  O  O79  1  0.578583  0.262717  0.280154  1
  O  O80  1  0.688136  0.724166  0.415246  1
  O  O81  1  0.688136  0.775834  0.915246  1
  O  O82  1  0.701949  0.524027  0.989457  1
  O  O83  1  0.701949  0.975973  0.489457  1
  O  O84  1  0.731166  0.495441  0.279901  1
  O  O85  1  0.731166  0.004559  0.779901  1
  O  O86  1  0.746765  0.739123  0.097577  1
  O  O87  1  0.746765  0.760877  0.597577  1
  O  O88  1  0.753235  0.239123  0.097577  1
  O  O89  1  0.753235  0.260877  0.597577  1
  O  O90  1  0.768834  0.504559  0.779901  1
  O  O91  1  0.768834  0.995441  0.279901  1
  O  O92  1  0.798051  0.024027  0.989457  1
  O  O93  1  0.798051  0.475973  0.489457  1
  O  O94  1  0.811864  0.224165  0.415246  1
  O  O95  1  0.811864  0.275834  0.915246  1
  O  O96  1  0.921417  0.737283  0.780154  1
  O  O97  1  0.921417  0.762717  0.280154  1
  O  O98  1  0.979512  0.533540  0.670942  1
  O  O99  1  0.979512  0.966460  0.170942  1
  O  O100  1  0.977073  0.999333  0.645515  1
  O  O101  1  0.977073  0.500667  0.145515  1
  O  O102  1  0.005478  0.199494  0.025524  1
  O  O103  1  0.005478  0.300506  0.525524  1
