# generated using pymatgen
data_Co6O5F7
_symmetry_space_group_name_H-M   'P 1'
_cell_length_a   4.62862808
_cell_length_b   7.65434790
_cell_length_c   5.52889086
_cell_angle_alpha   93.57467289
_cell_angle_beta   93.23552743
_cell_angle_gamma   88.06430186
_symmetry_Int_Tables_number   1
_chemical_formula_structural   Co6O5F7
_chemical_formula_sum   'Co6 O5 F7'
_cell_volume   195.10102305
_cell_formula_units_Z   1
loop_
 _symmetry_equiv_pos_site_id
 _symmetry_equiv_pos_as_xyz
  1  'x, y, z'
loop_
 _atom_site_type_symbol
 _atom_site_label
 _atom_site_symmetry_multiplicity
 _atom_site_fract_x
 _atom_site_fract_y
 _atom_site_fract_z
 _atom_site_occupancy
  Co  Co0  1  0.535543  0.012568  0.479189  1
  Co  Co1  1  0.467767  0.345858  0.822170  1
  Co  Co2  1  0.518308  0.649043  0.169506  1
  Co  Co3  1  0.003282  0.672798  0.661420  1
  Co  Co4  1  0.987454  0.327444  0.339415  1
  Co  Co5  1  0.993055  0.000678  0.013029  1
  O  O6  1  0.807172  0.111011  0.310850  1
  O  O7  1  0.710299  0.757761  0.456577  1
  O  O8  1  0.691795  0.431907  0.133799  1
  O  O9  1  0.303789  0.574237  0.874465  1
  O  O10  1  0.289926  0.234601  0.537517  1
  F  F11  1  0.805369  0.426749  0.625832  1
  F  F12  1  0.799642  0.770616  0.956788  1
  F  F13  1  0.688001  0.108956  0.803460  1
  F  F14  1  0.315648  0.881632  0.198343  1
  F  F15  1  0.191782  0.236382  0.055027  1
  F  F16  1  0.204976  0.906990  0.696315  1
  F  F17  1  0.186191  0.550770  0.366296  1
