# generated using pymatgen
data_Li2VO2F
_symmetry_space_group_name_H-M   'P 1'
_cell_length_a   6.02297826
_cell_length_b   5.25481965
_cell_length_c   4.13395601
_cell_angle_alpha   113.16304460
_cell_angle_beta   90.00000000
_cell_angle_gamma   110.50839174
_symmetry_Int_Tables_number   1
_chemical_formula_structural   Li2VO2F
_chemical_formula_sum   'Li4 V2 O4 F2'
_cell_volume   111.21528614
_cell_formula_units_Z   2
loop_
 _symmetry_equiv_pos_site_id
 _symmetry_equiv_pos_as_xyz
  1  'x, y, z'
loop_
 _atom_site_type_symbol
 _atom_site_label
 _atom_site_symmetry_multiplicity
 _atom_site_fract_x
 _atom_site_fract_y
 _atom_site_fract_z
 _atom_site_occupancy
  Li  Li0  1  0.677641  0.676559  0.338280  1
  Li  Li1  1  0.993932  0.994967  0.997483  1
  Li  Li2  1  0.858693  0.297533  0.648767  1
  Li  Li3  1  0.318153  0.332929  0.666465  1
  V  V4  1  0.510708  0.012492  0.006245  1
  V  V5  1  0.136939  0.687438  0.343720  1
  O  O6  1  0.832076  0.331715  0.165857  1
  O  O7  1  0.487825  0.984862  0.492431  1
  O  O8  1  0.006545  0.983847  0.491924  1
  O  O9  1  0.181520  0.679646  0.839823  1
  F  F10  1  0.346710  0.337212  0.168606  1
  F  F11  1  0.649260  0.680801  0.840400  1
