# generated using pymatgen
data_LiMnF3
_symmetry_space_group_name_H-M   'P 1'
_cell_length_a   5.93823025
_cell_length_b   5.93696376
_cell_length_c   11.67697038
_cell_angle_alpha   89.91145128
_cell_angle_beta   89.97098238
_cell_angle_gamma   60.01225662
_symmetry_Int_Tables_number   1
_chemical_formula_structural   LiMnF3
_chemical_formula_sum   'Li6 Mn6 F18'
_cell_volume   356.56222148
_cell_formula_units_Z   6
loop_
 _symmetry_equiv_pos_site_id
 _symmetry_equiv_pos_as_xyz
  1  'x, y, z'
loop_
 _atom_site_type_symbol
 _atom_site_label
 _atom_site_symmetry_multiplicity
 _atom_site_fract_x
 _atom_site_fract_y
 _atom_site_fract_z
 _atom_site_occupancy
  Li  Li0  1  0.001003  0.670391  0.746714  1
  Li  Li1  1  0.325161  0.996018  0.746074  1
  Li  Li2  1  0.329279  0.665724  0.244920  1
  Li  Li3  1  0.000317  0.321546  0.245674  1
  Li  Li4  1  0.674886  0.321390  0.746177  1
  Li  Li5  1  0.672707  0.991911  0.244828  1
  Mn  Mn6  1  0.668151  0.660545  0.027875  1
  Mn  Mn7  1  0.667621  0.659538  0.529163  1
  Mn  Mn8  1  0.000664  0.992683  0.494057  1
  Mn  Mn9  1  0.334748  0.327837  0.963100  1
  Mn  Mn10  1  0.334400  0.326252  0.462189  1
  Mn  Mn11  1  0.001191  0.994802  0.999800  1
  F  F12  1  0.690719  0.948875  0.417728  1
  F  F13  1  0.645083  0.036858  0.073049  1
  F  F14  1  0.958281  0.685952  0.919524  1
  F  F15  1  0.043955  0.639919  0.571946  1
  F  F16  1  0.352635  0.951745  0.919406  1
  F  F17  1  0.311840  0.035410  0.571644  1
  F  F18  1  0.667510  0.661007  0.712082  1
  F  F19  1  0.667298  0.659642  0.211202  1
  F  F20  1  0.000438  0.993264  0.242334  1
  F  F21  1  0.999887  0.995841  0.744796  1
  F  F22  1  0.957512  0.346867  0.418071  1
  F  F23  1  0.354733  0.682178  0.417766  1
  F  F24  1  0.044461  0.306972  0.073139  1
  F  F25  1  0.314352  0.638026  0.073022  1
  F  F26  1  0.692868  0.346043  0.919457  1
  F  F27  1  0.647131  0.303516  0.571795  1
  F  F28  1  0.333453  0.329542  0.780215  1
  F  F29  1  0.334091  0.325905  0.279151  1
