# generated using pymatgen
data_Li4Mn3Co2Sn3O16
_symmetry_space_group_name_H-M   'P 1'
_cell_length_a   6.08491061
_cell_length_b   6.08904357
_cell_length_c   9.76504486
_cell_angle_alpha   89.95331940
_cell_angle_beta   89.64091067
_cell_angle_gamma   120.01115103
_symmetry_Int_Tables_number   1
_chemical_formula_structural   Li4Mn3Co2Sn3O16
_chemical_formula_sum   'Li4 Mn3 Co2 Sn3 O16'
_cell_volume   313.28983330
_cell_formula_units_Z   1
loop_
 _symmetry_equiv_pos_site_id
 _symmetry_equiv_pos_as_xyz
  1  'x, y, z'
loop_
 _atom_site_type_symbol
 _atom_site_label
 _atom_site_symmetry_multiplicity
 _atom_site_fract_x
 _atom_site_fract_y
 _atom_site_fract_z
 _atom_site_occupancy
  Li  Li0  1  0.345655  0.672816  0.882639  1
  Li  Li1  1  0.972726  0.986546  0.995041  1
  Li  Li2  1  0.978491  0.989310  0.502051  1
  Li  Li3  1  0.675522  0.337731  0.391258  1
  Mn  Mn4  1  0.662876  0.830991  0.216297  1
  Mn  Mn5  1  0.832294  0.662487  0.715240  1
  Mn  Mn6  1  0.832121  0.170190  0.714894  1
  Co  Co7  1  0.336627  0.668564  0.497451  1
  Co  Co8  1  0.672631  0.335798  0.990393  1
  Sn  Sn9  1  0.170929  0.832199  0.214630  1
  Sn  Sn10  1  0.170787  0.338519  0.214884  1
  Sn  Sn11  1  0.339253  0.169584  0.714571  1
  O  O12  1  0.146854  0.833236  0.602539  1
  O  O13  1  0.034911  0.517337  0.341000  1
  O  O14  1  0.357096  0.678394  0.099687  1
  O  O15  1  0.979468  0.989618  0.318051  1
  O  O16  1  0.978811  0.989486  0.811119  1
  O  O17  1  0.147198  0.313961  0.602598  1
  O  O18  1  0.496584  0.967302  0.335050  1
  O  O19  1  0.497005  0.529319  0.335135  1
  O  O20  1  0.312514  0.156455  0.092630  1
  O  O21  1  0.679500  0.839964  0.611931  1
  O  O22  1  0.532651  0.494916  0.832941  1
  O  O23  1  0.532739  0.037778  0.832956  1
  O  O24  1  0.690739  0.345531  0.606599  1
  O  O25  1  0.829739  0.680742  0.104521  1
  O  O26  1  0.964624  0.482664  0.827102  1
  O  O27  1  0.829657  0.148862  0.104635  1
