# generated using pymatgen
data_LiCuPO4
_symmetry_space_group_name_H-M   'P 1'
_cell_length_a   7.98880874
_cell_length_b   5.09408311
_cell_length_c   8.58259193
_cell_angle_alpha   90.00000000
_cell_angle_beta   97.75453368
_cell_angle_gamma   90.00000000
_symmetry_Int_Tables_number   1
_chemical_formula_structural   LiCuPO4
_chemical_formula_sum   'Li4 Cu4 P4 O16'
_cell_volume   346.08017155
_cell_formula_units_Z   4
loop_
 _symmetry_equiv_pos_site_id
 _symmetry_equiv_pos_as_xyz
  1  'x, y, z'
loop_
 _atom_site_type_symbol
 _atom_site_label
 _atom_site_symmetry_multiplicity
 _atom_site_fract_x
 _atom_site_fract_y
 _atom_site_fract_z
 _atom_site_occupancy
  Li  Li0  1  0.038374  0.559709  0.918189  1
  Li  Li1  1  0.551006  0.471003  0.690815  1
  Li  Li2  1  0.448994  0.971003  0.309185  1
  Li  Li3  1  0.961626  0.059709  0.081811  1
  Cu  Cu4  1  0.181294  0.979990  0.591284  1
  Cu  Cu5  1  0.408533  0.557826  0.091546  1
  Cu  Cu6  1  0.591467  0.057826  0.908454  1
  Cu  Cu7  1  0.818706  0.479990  0.408716  1
  P  P8  1  0.215955  0.466231  0.396376  1
  P  P9  1  0.274496  0.058635  0.957634  1
  P  P10  1  0.725504  0.558635  0.042366  1
  P  P11  1  0.784045  0.966231  0.603624  1
  O  O12  1  0.028777  0.460711  0.320526  1
  O  O13  1  0.240932  0.617368  0.555502  1
  O  O14  1  0.226387  0.767612  0.973807  1
  O  O15  1  0.134520  0.237677  0.995095  1
  O  O16  1  0.286571  0.181076  0.429065  1
  O  O17  1  0.335624  0.112060  0.794928  1
  O  O18  1  0.326523  0.612094  0.288111  1
  O  O19  1  0.440695  0.110091  0.079582  1
  O  O20  1  0.559305  0.610091  0.920418  1
  O  O21  1  0.673477  0.112094  0.711889  1
  O  O22  1  0.664376  0.612060  0.205072  1
  O  O23  1  0.713429  0.681076  0.570935  1
  O  O24  1  0.865480  0.737677  0.004905  1
  O  O25  1  0.773613  0.267612  0.026193  1
  O  O26  1  0.759068  0.117368  0.444498  1
  O  O27  1  0.971223  0.960711  0.679474  1
