# generated using pymatgen
data_MnOF
_symmetry_space_group_name_H-M   'P 1'
_cell_length_a   4.66507899
_cell_length_b   7.63951032
_cell_length_c   7.66857035
_cell_angle_alpha   95.20610370
_cell_angle_beta   88.62041541
_cell_angle_gamma   90.94966759
_symmetry_Int_Tables_number   1
_chemical_formula_structural   MnOF
_chemical_formula_sum   'Mn8 O8 F8'
_cell_volume   272.06481055
_cell_formula_units_Z   8
loop_
 _symmetry_equiv_pos_site_id
 _symmetry_equiv_pos_as_xyz
  1  'x, y, z'
loop_
 _atom_site_type_symbol
 _atom_site_label
 _atom_site_symmetry_multiplicity
 _atom_site_fract_x
 _atom_site_fract_y
 _atom_site_fract_z
 _atom_site_occupancy
  Mn  Mn0  1  0.517671  0.690832  0.059084  1
  Mn  Mn1  1  0.565315  0.291757  0.943025  1
  Mn  Mn2  1  0.512836  0.209392  0.531578  1
  Mn  Mn3  1  0.432524  0.803418  0.450792  1
  Mn  Mn4  1  0.985688  0.940687  0.805113  1
  Mn  Mn5  1  0.968382  0.555578  0.710602  1
  Mn  Mn6  1  0.986468  0.464511  0.290216  1
  Mn  Mn7  1  0.013524  0.061459  0.207956  1
  O  O8  1  0.801634  0.096282  0.986967  1
  O  O9  1  0.757656  0.732605  0.858340  1
  O  O10  1  0.791171  0.244697  0.339563  1
  O  O11  1  0.736423  0.339751  0.723748  1
  O  O12  1  0.749711  0.489400  0.093342  1
  O  O13  1  0.262905  0.658158  0.265746  1
  O  O14  1  0.269545  0.028290  0.398774  1
  O  O15  1  0.189966  0.762767  0.657306  1
  F  F16  1  0.714268  0.604565  0.483618  1
  F  F17  1  0.697359  0.963653  0.594526  1
  F  F18  1  0.740170  0.852756  0.253511  1
  F  F19  1  0.272385  0.136167  0.760038  1
  F  F20  1  0.284346  0.488999  0.896799  1
  F  F21  1  0.206217  0.419207  0.515855  1
  F  F22  1  0.287716  0.268197  0.141940  1
  F  F23  1  0.256121  0.896873  0.031564  1
