# generated using pymatgen
data_Na6Sn2O7
_symmetry_space_group_name_H-M   'P 1'
_cell_length_a   6.62888341
_cell_length_b   6.63152992
_cell_length_c   11.05000405
_cell_angle_alpha   79.24502238
_cell_angle_beta   90.00000007
_cell_angle_gamma   60.01320579
_symmetry_Int_Tables_number   1
_chemical_formula_structural   Na6Sn2O7
_chemical_formula_sum   'Na12 Sn4 O14'
_cell_volume   410.85056684
_cell_formula_units_Z   2
loop_
 _symmetry_equiv_pos_site_id
 _symmetry_equiv_pos_as_xyz
  1  'x, y, z'
loop_
 _atom_site_type_symbol
 _atom_site_label
 _atom_site_symmetry_multiplicity
 _atom_site_fract_x
 _atom_site_fract_y
 _atom_site_fract_z
 _atom_site_occupancy
  Na  Na0  1  0.469941  0.856170  0.622135  1
  Na  Na1  1  0.924016  0.860993  0.596634  1
  Na  Na2  1  0.673889  0.856170  0.122135  1
  Na  Na3  1  0.214990  0.860993  0.096634  1
  Na  Na4  1  0.328055  0.597243  0.880546  1
  Na  Na5  1  0.074701  0.597243  0.380546  1
  Na  Na6  1  0.925299  0.402757  0.619454  1
  Na  Na7  1  0.671945  0.402757  0.119454  1
  Na  Na8  1  0.785010  0.139007  0.903366  1
  Na  Na9  1  0.326111  0.143830  0.877865  1
  Na  Na10  1  0.075984  0.139007  0.403366  1
  Na  Na11  1  0.530059  0.143830  0.377865  1
  Sn  Sn12  1  0.824207  0.645530  0.873722  1
  Sn  Sn13  1  0.530264  0.645530  0.373722  1
  Sn  Sn14  1  0.469736  0.354470  0.626278  1
  Sn  Sn15  1  0.175793  0.354470  0.126278  1
  O  O16  1  0.530874  0.745983  0.958613  1
  O  O17  1  0.723143  0.745983  0.458613  1
  O  O18  1  0.281157  0.714885  0.503461  1
  O  O19  1  0.078528  0.527643  0.758463  1
  O  O20  1  0.606172  0.472357  0.741537  1
  O  O21  1  0.003958  0.714885  0.003461  1
  O  O22  1  0.996042  0.285115  0.996539  1
  O  O23  1  0.393828  0.527643  0.258463  1
  O  O24  1  0.921472  0.472357  0.241537  1
  O  O25  1  0.718843  0.285115  0.496539  1
  O  O26  1  0.276857  0.254017  0.541387  1
  O  O27  1  0.656148  1.000000  0.750000  1
  O  O28  1  0.469126  0.254017  0.041387  1
  O  O29  1  0.343852  0.000000  0.250000  1
