# generated using pymatgen
data_Li3CoSiBO7
_symmetry_space_group_name_H-M   'P 1'
_cell_length_a   8.32324660
_cell_length_b   6.13820877
_cell_length_c   5.01818202
_cell_angle_alpha   90.00000000
_cell_angle_beta   84.11072013
_cell_angle_gamma   90.00000000
_symmetry_Int_Tables_number   1
_chemical_formula_structural   Li3CoSiBO7
_chemical_formula_sum   'Li6 Co2 Si2 B2 O14'
_cell_volume   255.02488777
_cell_formula_units_Z   2
loop_
 _symmetry_equiv_pos_site_id
 _symmetry_equiv_pos_as_xyz
  1  'x, y, z'
loop_
 _atom_site_type_symbol
 _atom_site_label
 _atom_site_symmetry_multiplicity
 _atom_site_fract_x
 _atom_site_fract_y
 _atom_site_fract_z
 _atom_site_occupancy
  Li  Li0  1  0.105272  0.250000  0.758571  1
  Li  Li1  1  0.250519  0.998468  0.252529  1
  Li  Li2  1  0.250519  0.501532  0.252529  1
  Li  Li3  1  0.749481  0.498468  0.747471  1
  Li  Li4  1  0.749481  0.001532  0.747471  1
  Li  Li5  1  0.894728  0.750000  0.241429  1
  Co  Co6  1  0.314804  0.750000  0.800482  1
  Co  Co7  1  0.685196  0.250000  0.199518  1
  Si  Si8  1  0.430918  0.250000  0.723159  1
  Si  Si9  1  0.569082  0.750000  0.276841  1
  B  B10  1  0.040051  0.750000  0.713918  1
  B  B11  1  0.959949  0.250000  0.286082  1
  O  O12  1  0.110499  0.250000  0.358386  1
  O  O13  1  0.089112  0.750000  0.970723  1
  O  O14  1  0.177651  0.750000  0.526871  1
  O  O15  1  0.301780  0.052465  0.819120  1
  O  O16  1  0.301780  0.447535  0.819120  1
  O  O17  1  0.475412  0.250000  0.397060  1
  O  O18  1  0.403531  0.750000  0.133245  1
  O  O19  1  0.596469  0.250000  0.866755  1
  O  O20  1  0.524588  0.750000  0.602940  1
  O  O21  1  0.698220  0.552465  0.180880  1
  O  O22  1  0.698220  0.947535  0.180880  1
  O  O23  1  0.822349  0.250000  0.473129  1
  O  O24  1  0.910888  0.250000  0.029277  1
  O  O25  1  0.889501  0.750000  0.641614  1
