# generated using pymatgen
data_TbGaO3
_symmetry_space_group_name_H-M   'P 1'
_cell_length_a   5.32099745
_cell_length_b   5.60395033
_cell_length_c   7.65955526
_cell_angle_alpha   90.00000000
_cell_angle_beta   90.00000000
_cell_angle_gamma   90.00000000
_symmetry_Int_Tables_number   1
_chemical_formula_structural   TbGaO3
_chemical_formula_sum   'Tb4 Ga4 O12'
_cell_volume   228.39725596
_cell_formula_units_Z   4
loop_
 _symmetry_equiv_pos_site_id
 _symmetry_equiv_pos_as_xyz
  1  'x, y, z'
loop_
 _atom_site_type_symbol
 _atom_site_label
 _atom_site_symmetry_multiplicity
 _atom_site_fract_x
 _atom_site_fract_y
 _atom_site_fract_z
 _atom_site_occupancy
  Tb  Tb0  1  0.019058  0.066184  0.009158  1
  Tb  Tb1  1  0.480942  0.566184  0.009158  1
  Tb  Tb2  1  0.519058  0.433816  0.509158  1
  Tb  Tb3  1  0.980942  0.933816  0.509158  1
  Ga  Ga4  1  0.000045  0.500036  0.759077  1
  Ga  Ga5  1  0.499955  0.000036  0.759077  1
  Ga  Ga6  1  0.500045  0.999964  0.259077  1
  Ga  Ga7  1  0.999955  0.499964  0.259077  1
  O  O8  1  0.108785  0.537420  0.509089  1
  O  O9  1  0.196431  0.801987  0.815112  1
  O  O10  1  0.196375  0.802051  0.202934  1
  O  O11  1  0.303625  0.302051  0.202934  1
  O  O12  1  0.303569  0.301987  0.815112  1
  O  O13  1  0.391215  0.037420  0.509089  1
  O  O14  1  0.608785  0.962580  0.009089  1
  O  O15  1  0.696431  0.698013  0.315112  1
  O  O16  1  0.696375  0.697949  0.702934  1
  O  O17  1  0.803625  0.197949  0.702934  1
  O  O18  1  0.803569  0.198013  0.315112  1
  O  O19  1  0.891215  0.462580  0.009089  1
