# generated using pymatgen
data_K4H4WC8(N4O)2
_symmetry_space_group_name_H-M   'P 1'
_cell_length_a   17.02935946
_cell_length_b   11.91402377
_cell_length_c   8.80965625
_cell_angle_alpha   90.00000000
_cell_angle_beta   90.00000000
_cell_angle_gamma   90.00000000
_symmetry_Int_Tables_number   1
_chemical_formula_structural   K4H4WC8(N4O)2
_chemical_formula_sum   'K16 H16 W4 C32 N32 O8'
_cell_volume   1787.37524099
_cell_formula_units_Z   4
loop_
 _symmetry_equiv_pos_site_id
 _symmetry_equiv_pos_as_xyz
  1  'x, y, z'
loop_
 _atom_site_type_symbol
 _atom_site_label
 _atom_site_symmetry_multiplicity
 _atom_site_fract_x
 _atom_site_fract_y
 _atom_site_fract_z
 _atom_site_occupancy
  K  K0  1  0.361525  0.250000  0.531066  1
  K  K1  1  0.861525  0.250000  0.968934  1
  K  K2  1  0.638475  0.750000  0.468934  1
  K  K3  1  0.138475  0.750000  0.031066  1
  K  K4  1  0.457162  0.250000  0.021164  1
  K  K5  1  0.957162  0.250000  0.478836  1
  K  K6  1  0.542838  0.750000  0.978836  1
  K  K7  1  0.042838  0.750000  0.521164  1
  K  K8  1  0.650939  0.049854  0.804223  1
  K  K9  1  0.150939  0.450146  0.695777  1
  K  K10  1  0.349061  0.549854  0.195777  1
  K  K11  1  0.849061  0.950146  0.304223  1
  K  K12  1  0.349061  0.950146  0.195777  1
  K  K13  1  0.849061  0.549854  0.304223  1
  K  K14  1  0.650939  0.450146  0.804223  1
  K  K15  1  0.150939  0.049854  0.695777  1
  H  H16  1  0.431955  0.015769  0.868309  1
  H  H17  1  0.931955  0.484231  0.631691  1
  H  H18  1  0.568045  0.515769  0.131691  1
  H  H19  1  0.068045  0.984231  0.368309  1
  H  H20  1  0.568045  0.984231  0.131691  1
  H  H21  1  0.068045  0.515769  0.368309  1
  H  H22  1  0.431955  0.484231  0.868309  1
  H  H23  1  0.931955  0.015769  0.631691  1
  H  H24  1  0.346354  0.050875  0.843294  1
  H  H25  1  0.846354  0.449125  0.656706  1
  H  H26  1  0.653646  0.550875  0.156706  1
  H  H27  1  0.153646  0.949125  0.343294  1
  H  H28  1  0.653646  0.949125  0.156706  1
  H  H29  1  0.153646  0.550875  0.343294  1
  H  H30  1  0.346354  0.449125  0.843294  1
  H  H31  1  0.846354  0.050875  0.656706  1
  W  W32  1  0.635983  0.250000  0.402878  1
  W  W33  1  0.135983  0.250000  0.097122  1
  W  W34  1  0.364017  0.750000  0.597122  1
  W  W35  1  0.864017  0.750000  0.902878  1
  C  C36  1  0.640519  0.250000  0.155880  1
  C  C37  1  0.140519  0.250000  0.344120  1
  C  C38  1  0.359481  0.750000  0.844120  1
  C  C39  1  0.859481  0.750000  0.655880  1
  C  C40  1  0.714854  0.250000  0.601474  1
  C  C41  1  0.214854  0.250000  0.898526  1
  C  C42  1  0.285146  0.750000  0.398526  1
  C  C43  1  0.785146  0.750000  0.101474  1
  C  C44  1  0.560766  0.250000  0.605320  1
  C  C45  1  0.060766  0.250000  0.894680  1
  C  C46  1  0.439234  0.750000  0.394680  1
  C  C47  1  0.939234  0.750000  0.105320  1
  C  C48  1  0.758454  0.250000  0.323757  1
  C  C49  1  0.258454  0.250000  0.176243  1
  C  C50  1  0.241546  0.750000  0.676243  1
  C  C51  1  0.741546  0.750000  0.823757  1
  C  C52  1  0.671630  0.425209  0.427948  1
  C  C53  1  0.171630  0.074791  0.072052  1
  C  C54  1  0.328370  0.925209  0.572052  1
  C  C55  1  0.828370  0.574791  0.927948  1
  C  C56  1  0.328370  0.574791  0.572052  1
  C  C57  1  0.828370  0.925209  0.927948  1
  C  C58  1  0.671630  0.074791  0.427948  1
  C  C59  1  0.171630  0.425209  0.072052  1
  C  C60  1  0.538612  0.361346  0.331259  1
  C  C61  1  0.038612  0.138654  0.168741  1
  C  C62  1  0.461388  0.861346  0.668741  1
  C  C63  1  0.961388  0.638654  0.831259  1
  C  C64  1  0.461388  0.638654  0.668741  1
  C  C65  1  0.961388  0.861346  0.831259  1
  C  C66  1  0.538612  0.138654  0.331259  1
  C  C67  1  0.038612  0.361346  0.168741  1
  N  N68  1  0.257205  0.250000  0.792928  1
  N  N69  1  0.757205  0.250000  0.707072  1
  N  N70  1  0.742795  0.750000  0.207072  1
  N  N71  1  0.242795  0.750000  0.292928  1
  N  N72  1  0.519880  0.250000  0.713130  1
  N  N73  1  0.019880  0.250000  0.786870  1
  N  N74  1  0.480120  0.750000  0.286870  1
  N  N75  1  0.980120  0.750000  0.213130  1
  N  N76  1  0.324168  0.250000  0.217431  1
  N  N77  1  0.824168  0.250000  0.282569  1
  N  N78  1  0.675832  0.750000  0.782569  1
  N  N79  1  0.175832  0.750000  0.717431  1
  N  N80  1  0.637869  0.250000  0.022259  1
  N  N81  1  0.137869  0.250000  0.477741  1
  N  N82  1  0.362131  0.750000  0.977741  1
  N  N83  1  0.862131  0.750000  0.522259  1
  N  N84  1  0.307891  0.481060  0.556111  1
  N  N85  1  0.807891  0.018940  0.943889  1
  N  N86  1  0.692109  0.981060  0.443889  1
  N  N87  1  0.192109  0.518940  0.056111  1
  N  N88  1  0.692109  0.518940  0.443889  1
  N  N89  1  0.192109  0.981060  0.056111  1
  N  N90  1  0.307891  0.018940  0.556111  1
  N  N91  1  0.807891  0.481060  0.943889  1
  N  N92  1  0.489060  0.420322  0.282868  1
  N  N93  1  0.989060  0.079678  0.217132  1
  N  N94  1  0.510940  0.920322  0.717132  1
  N  N95  1  0.010940  0.579678  0.782868  1
  N  N96  1  0.510940  0.579678  0.717132  1
  N  N97  1  0.010940  0.920322  0.782868  1
  N  N98  1  0.489060  0.079678  0.282868  1
  N  N99  1  0.989060  0.420322  0.217132  1
  O  O100  1  0.388138  0.053429  0.919106  1
  O  O101  1  0.888138  0.446571  0.580894  1
  O  O102  1  0.611862  0.553429  0.080894  1
  O  O103  1  0.111862  0.946571  0.419106  1
  O  O104  1  0.611862  0.946571  0.080894  1
  O  O105  1  0.111862  0.553429  0.419106  1
  O  O106  1  0.388138  0.446571  0.919106  1
  O  O107  1  0.888138  0.053429  0.580894  1
