# generated using pymatgen
data_Mn6OF11
_symmetry_space_group_name_H-M   'P 1'
_cell_length_a   7.78554418
_cell_length_b   5.93216497
_cell_length_c   5.93216497
_cell_angle_alpha   70.72726803
_cell_angle_beta   72.81080511
_cell_angle_gamma   72.81080511
_symmetry_Int_Tables_number   1
_chemical_formula_structural   Mn6OF11
_chemical_formula_sum   'Mn6 O1 F11'
_cell_volume   241.04399252
_cell_formula_units_Z   1
loop_
 _symmetry_equiv_pos_site_id
 _symmetry_equiv_pos_as_xyz
  1  'x, y, z'
loop_
 _atom_site_type_symbol
 _atom_site_label
 _atom_site_symmetry_multiplicity
 _atom_site_fract_x
 _atom_site_fract_y
 _atom_site_fract_z
 _atom_site_occupancy
  Mn  Mn0  1  0.842336  0.647021  0.667832  1
  Mn  Mn1  1  0.668134  0.327606  0.337776  1
  Mn  Mn2  1  0.331866  0.662224  0.672394  1
  Mn  Mn3  1  0.157664  0.332168  0.352979  1
  Mn  Mn4  1  0.500000  0.998456  0.001544  1
  Mn  Mn5  1  0.000000  0.025929  0.974071  1
  O  O6  1  0.000000  0.300634  0.699366  1
  F  F7  1  0.672532  0.012826  0.637444  1
  F  F8  1  0.327468  0.362556  0.987174  1
  F  F9  1  0.292877  0.903342  0.898816  1
  F  F10  1  0.629408  0.562980  0.567377  1
  F  F11  1  0.966683  0.231626  0.222825  1
  F  F12  1  0.707123  0.101184  0.096658  1
  F  F13  1  0.033317  0.777175  0.768374  1
  F  F14  1  0.370592  0.432623  0.437020  1
  F  F15  1  0.334318  0.969129  0.365325  1
  F  F16  1  0.665682  0.634675  0.030871  1
  F  F17  1  0.000000  0.717845  0.282155  1
