# generated using pymatgen
data_Li3V2(O2F)2
_symmetry_space_group_name_H-M   'P 1'
_cell_length_a   5.93517641
_cell_length_b   5.17996625
_cell_length_c   8.05819626
_cell_angle_alpha   69.78456221
_cell_angle_beta   100.75852435
_cell_angle_gamma   90.87318473
_symmetry_Int_Tables_number   1
_chemical_formula_structural   Li3V2(O2F)2
_chemical_formula_sum   'Li6 V4 O8 F4'
_cell_volume   228.06769034
_cell_formula_units_Z   2
loop_
 _symmetry_equiv_pos_site_id
 _symmetry_equiv_pos_as_xyz
  1  'x, y, z'
loop_
 _atom_site_type_symbol
 _atom_site_label
 _atom_site_symmetry_multiplicity
 _atom_site_fract_x
 _atom_site_fract_y
 _atom_site_fract_z
 _atom_site_occupancy
  Li  Li0  1  0.178973  0.016251  0.623732  1
  Li  Li1  1  0.095852  0.515476  0.353619  1
  Li  Li2  1  0.412941  0.548798  0.627434  1
  Li  Li3  1  0.587059  0.451202  0.372566  1
  Li  Li4  1  0.904148  0.484524  0.646381  1
  Li  Li5  1  0.821027  0.983749  0.376268  1
  V  V6  1  0.000000  0.000000  0.000000  1
  V  V7  1  0.249257  0.484395  0.013491  1
  V  V8  1  0.500000  0.000000  0.000000  1
  V  V9  1  0.750743  0.515605  0.986509  1
  O  O10  1  0.030297  0.275829  0.141323  1
  O  O11  1  0.216374  0.244453  0.859569  1
  O  O12  1  0.276034  0.738354  0.143609  1
  O  O13  1  0.454958  0.731943  0.860997  1
  O  O14  1  0.545042  0.268057  0.139003  1
  O  O15  1  0.723966  0.261646  0.856391  1
  O  O16  1  0.783626  0.755547  0.140431  1
  O  O17  1  0.969703  0.724171  0.858677  1
  F  F18  1  0.109816  0.743163  0.512015  1
  F  F19  1  0.357405  0.289892  0.502270  1
  F  F20  1  0.642595  0.710108  0.497730  1
  F  F21  1  0.890184  0.256837  0.487985  1
