# generated using pymatgen
data_MgCr7(SO4)12
_symmetry_space_group_name_H-M   'P 1'
_cell_length_a   8.29758605
_cell_length_b   8.85046874
_cell_length_c   14.70612193
_cell_angle_alpha   85.80567747
_cell_angle_beta   73.64259324
_cell_angle_gamma   117.97917193
_symmetry_Int_Tables_number   1
_chemical_formula_structural   MgCr7(SO4)12
_chemical_formula_sum   'Mg1 Cr7 S12 O48'
_cell_volume   887.89083167
_cell_formula_units_Z   1
loop_
 _symmetry_equiv_pos_site_id
 _symmetry_equiv_pos_as_xyz
  1  'x, y, z'
loop_
 _atom_site_type_symbol
 _atom_site_label
 _atom_site_symmetry_multiplicity
 _atom_site_fract_x
 _atom_site_fract_y
 _atom_site_fract_z
 _atom_site_occupancy
  Mg  Mg0  1  0.357663  0.392859  0.678160  1
  Cr  Cr1  1  0.152732  0.376292  0.075053  1
  Cr  Cr2  1  0.354222  0.889415  0.178178  1
  Cr  Cr3  1  0.150071  0.878101  0.574775  1
  Cr  Cr4  1  0.643413  0.608464  0.323204  1
  Cr  Cr5  1  0.848724  0.122374  0.424493  1
  Cr  Cr6  1  0.645156  0.110888  0.820264  1
  Cr  Cr7  1  0.848459  0.623326  0.924385  1
  S  S8  1  0.041229  0.021234  0.231535  1
  S  S9  1  0.040720  0.523588  0.729761  1
  S  S10  1  0.461709  0.876021  0.374014  1
  S  S11  1  0.538226  0.621585  0.126052  1
  S  S12  1  0.251769  0.271201  0.478092  1
  S  S13  1  0.251478  0.768879  0.979130  1
  S  S14  1  0.748939  0.231626  0.019764  1
  S  S15  1  0.750210  0.732117  0.520500  1
  S  S16  1  0.460874  0.377805  0.875469  1
  S  S17  1  0.539390  0.121979  0.625189  1
  S  S18  1  0.958356  0.478345  0.268674  1
  S  S19  1  0.956829  0.978599  0.769480  1
  O  O20  1  0.297417  0.866986  0.054404  1
  O  O21  1  0.107440  0.664113  0.257601  1
  O  O22  1  0.013451  0.131559  0.163583  1
  O  O23  1  0.009366  0.633764  0.663246  1
  O  O24  1  0.378443  0.924463  0.307896  1
  O  O25  1  0.026574  0.071068  0.326643  1
  O  O26  1  0.019413  0.567808  0.827384  1
  O  O27  1  0.326145  0.818501  0.476455  1
  O  O28  1  0.348110  0.459371  0.141968  1
  O  O29  1  0.346448  0.959296  0.640168  1
  O  O30  1  0.045645  0.211981  0.489349  1
  O  O31  1  0.046142  0.710393  0.991909  1
  O  O32  1  0.509971  0.769166  0.149436  1
  O  O33  1  0.485116  0.725855  0.350388  1
  O  O34  1  0.239459  0.046516  0.189127  1
  O  O35  1  0.234690  0.547634  0.689824  1
  O  O36  1  0.673147  0.680789  0.023430  1
  O  O37  1  0.384146  0.382344  0.377540  1
  O  O38  1  0.382322  0.886721  0.880726  1
  O  O39  1  0.296618  0.366825  0.552495  1
  O  O40  1  0.106456  0.159553  0.757987  1
  O  O41  1  0.625529  0.578025  0.190998  1
  O  O42  1  0.280998  0.115669  0.487252  1
  O  O43  1  0.285000  0.617844  0.987153  1
  O  O44  1  0.716204  0.383057  0.011916  1
  O  O45  1  0.716871  0.884077  0.509314  1
  O  O46  1  0.378960  0.426503  0.811507  1
  O  O47  1  0.891701  0.835188  0.244717  1
  O  O48  1  0.702380  0.633349  0.444813  1
  O  O49  1  0.616928  0.113839  0.118085  1
  O  O50  1  0.622875  0.620472  0.618004  1
  O  O51  1  0.327211  0.314221  0.979712  1
  O  O52  1  0.760087  0.452854  0.309660  1
  O  O53  1  0.756475  0.950799  0.810676  1
  O  O54  1  0.514222  0.269084  0.647407  1
  O  O55  1  0.490233  0.230360  0.851245  1
  O  O56  1  0.959905  0.794571  0.503377  1
  O  O57  1  0.954058  0.289281  0.007700  1
  O  O58  1  0.654493  0.035357  0.357479  1
  O  O59  1  0.653433  0.537626  0.860729  1
  O  O60  1  0.674311  0.176991  0.522225  1
  O  O61  1  0.977732  0.432038  0.172063  1
  O  O62  1  0.972224  0.928328  0.673636  1
  O  O63  1  0.621184  0.069083  0.691204  1
  O  O64  1  0.983474  0.366027  0.336254  1
  O  O65  1  0.979547  0.862510  0.836768  1
  O  O66  1  0.887710  0.337846  0.742696  1
  O  O67  1  0.703564  0.134351  0.944109  1
