# generated using pymatgen
data_MnFe5(PO4)6
_symmetry_space_group_name_H-M   'P 1'
_cell_length_a   8.43542532
_cell_length_b   8.66532771
_cell_length_c   8.66532817
_cell_angle_alpha   59.99999989
_cell_angle_beta   59.09425945
_cell_angle_gamma   59.09426292
_symmetry_Int_Tables_number   1
_chemical_formula_structural   MnFe5(PO4)6
_chemical_formula_sum   'Mn1 Fe5 P6 O24'
_cell_volume   441.65048253
_cell_formula_units_Z   1
loop_
 _symmetry_equiv_pos_site_id
 _symmetry_equiv_pos_as_xyz
  1  'x, y, z'
loop_
 _atom_site_type_symbol
 _atom_site_label
 _atom_site_symmetry_multiplicity
 _atom_site_fract_x
 _atom_site_fract_y
 _atom_site_fract_z
 _atom_site_occupancy
  Mn  Mn0  1  0.564738  0.145087  0.145087  1
  Fe  Fe1  1  0.002556  0.999148  0.999148  1
  Fe  Fe2  1  0.061897  0.646035  0.646035  1
  Fe  Fe3  1  0.498483  0.500505  0.500505  1
  Fe  Fe4  1  0.438828  0.853724  0.853724  1
  Fe  Fe5  1  0.937022  0.354326  0.354326  1
  P  P6  1  0.248631  0.250925  0.546747  1
  P  P7  1  0.248631  0.953697  0.250925  1
  P  P8  1  0.248631  0.546747  0.953697  1
  P  P9  1  0.750087  0.452314  0.046391  1
  P  P10  1  0.750087  0.046391  0.751209  1
  P  P11  1  0.750087  0.751209  0.452314  1
  O  O12  1  0.063875  0.106008  0.327668  1
  O  O13  1  0.063875  0.502449  0.106008  1
  O  O14  1  0.063875  0.327668  0.502449  1
  O  O15  1  0.214696  0.093908  0.748003  1
  O  O16  1  0.435529  0.178554  0.394309  1
  O  O17  1  0.282121  0.404422  0.564426  1
  O  O18  1  0.214696  0.943392  0.093908  1
  O  O19  1  0.282121  0.749032  0.404422  1
  O  O20  1  0.566944  0.606976  0.001272  1
  O  O21  1  0.282121  0.564426  0.749032  1
  O  O22  1  0.787570  0.249715  0.058491  1
  O  O23  1  0.566944  0.001272  0.824808  1
  O  O24  1  0.435529  0.991608  0.178554  1
  O  O25  1  0.214696  0.748003  0.943392  1
  O  O26  1  0.714448  0.438833  0.249617  1
  O  O27  1  0.435529  0.394309  0.991608  1
  O  O28  1  0.714448  0.249617  0.597103  1
  O  O29  1  0.787570  0.058491  0.904225  1
  O  O30  1  0.714448  0.597103  0.438833  1
  O  O31  1  0.566944  0.824808  0.606976  1
  O  O32  1  0.787570  0.904225  0.249715  1
  O  O33  1  0.934927  0.678941  0.495644  1
  O  O34  1  0.934927  0.495644  0.890488  1
  O  O35  1  0.934927  0.890488  0.678941  1
