# generated using pymatgen
data_LiVF6
_symmetry_space_group_name_H-M   'P 1'
_cell_length_a   5.40844168
_cell_length_b   5.43610966
_cell_length_c   11.19792386
_cell_angle_alpha   103.48825714
_cell_angle_beta   76.05199906
_cell_angle_gamma   60.15920856
_symmetry_Int_Tables_number   1
_chemical_formula_structural   LiVF6
_chemical_formula_sum   'Li2 V2 F12'
_cell_volume   251.58487968
_cell_formula_units_Z   2
loop_
 _symmetry_equiv_pos_site_id
 _symmetry_equiv_pos_as_xyz
  1  'x, y, z'
loop_
 _atom_site_type_symbol
 _atom_site_label
 _atom_site_symmetry_multiplicity
 _atom_site_fract_x
 _atom_site_fract_y
 _atom_site_fract_z
 _atom_site_occupancy
  Li  Li0  1  0.515422  0.472824  0.825673  1
  Li  Li1  1  0.686279  0.972453  0.325707  1
  V  V2  1  0.526518  0.441465  0.146869  1
  V  V3  1  0.385091  0.941603  0.646819  1
  F  F4  1  0.350499  0.256956  0.099293  1
  F  F5  1  0.423062  0.034510  0.499158  1
  F  F6  1  0.126949  0.806222  0.255653  1
  F  F7  1  0.311129  0.306609  0.755648  1
  F  F8  1  0.513065  0.346290  0.293826  1
  F  F9  1  0.911299  0.089561  0.054301  1
  F  F10  1  0.444295  0.590001  0.554524  1
  F  F11  1  0.347036  0.846811  0.793961  1
  F  F12  1  0.675600  0.667454  0.199873  1
  F  F13  1  0.956861  0.167845  0.699936  1
  F  F14  1  0.542907  0.534470  0.999165  1
  F  F15  1  0.793043  0.757137  0.599230  1
