# generated using pymatgen
data_Li4V3Fe3(SnO8)2
_symmetry_space_group_name_H-M   'P 1'
_cell_length_a   6.00551355
_cell_length_b   5.99181608
_cell_length_c   9.80311412
_cell_angle_alpha   89.92975746
_cell_angle_beta   90.22908312
_cell_angle_gamma   120.12533114
_symmetry_Int_Tables_number   1
_chemical_formula_structural   Li4V3Fe3(SnO8)2
_chemical_formula_sum   'Li4 V3 Fe3 Sn2 O16'
_cell_volume   305.10533528
_cell_formula_units_Z   1
loop_
 _symmetry_equiv_pos_site_id
 _symmetry_equiv_pos_as_xyz
  1  'x, y, z'
loop_
 _atom_site_type_symbol
 _atom_site_label
 _atom_site_symmetry_multiplicity
 _atom_site_fract_x
 _atom_site_fract_y
 _atom_site_fract_z
 _atom_site_occupancy
  Li  Li0  1  0.341212  0.672165  0.895719  1
  Li  Li1  1  0.992573  0.995545  0.993106  1
  Li  Li2  1  0.994087  0.996157  0.494164  1
  Li  Li3  1  0.675202  0.338464  0.393439  1
  V  V4  1  0.826397  0.650833  0.717205  1
  V  V5  1  0.657020  0.828011  0.219898  1
  V  V6  1  0.828490  0.171265  0.713614  1
  Fe  Fe7  1  0.166946  0.829212  0.212899  1
  Fe  Fe8  1  0.167657  0.338087  0.212859  1
  Fe  Fe9  1  0.331228  0.163392  0.714357  1
  Sn  Sn10  1  0.334221  0.665970  0.491706  1
  Sn  Sn11  1  0.663569  0.331489  0.992013  1
  O  O12  1  0.157914  0.835247  0.599476  1
  O  O13  1  0.040618  0.519626  0.339035  1
  O  O14  1  0.358424  0.679528  0.107319  1
  O  O15  1  0.984340  0.991985  0.306722  1
  O  O16  1  0.988348  0.982550  0.805887  1
  O  O17  1  0.157193  0.318671  0.600171  1
  O  O18  1  0.491657  0.966796  0.339055  1
  O  O19  1  0.490357  0.523752  0.338495  1
  O  O20  1  0.317815  0.159229  0.098668  1
  O  O21  1  0.675988  0.833340  0.599058  1
  O  O22  1  0.523321  0.487547  0.837287  1
  O  O23  1  0.520788  0.037315  0.837568  1
  O  O24  1  0.673605  0.352622  0.606055  1
  O  O25  1  0.835716  0.676081  0.100881  1
  O  O26  1  0.968445  0.495049  0.841506  1
  O  O27  1  0.836870  0.160374  0.099678  1
