# generated using pymatgen
data_LiBiB2O5
_symmetry_space_group_name_H-M   'P 1'
_cell_length_a   7.65538061
_cell_length_b   7.65538061
_cell_length_c   10.70523985
_cell_angle_alpha   68.60162356
_cell_angle_beta   111.39837644
_cell_angle_gamma   89.80691362
_symmetry_Int_Tables_number   1
_chemical_formula_structural   LiBiB2O5
_chemical_formula_sum   'Li4 Bi4 B8 O20'
_cell_volume   537.08179585
_cell_formula_units_Z   4
loop_
 _symmetry_equiv_pos_site_id
 _symmetry_equiv_pos_as_xyz
  1  'x, y, z'
loop_
 _atom_site_type_symbol
 _atom_site_label
 _atom_site_symmetry_multiplicity
 _atom_site_fract_x
 _atom_site_fract_y
 _atom_site_fract_z
 _atom_site_occupancy
  Li  Li0  1  0.141156  0.141156  0.750000  1
  Li  Li1  1  0.606772  0.606772  0.750000  1
  Li  Li2  1  0.393228  0.393228  0.250000  1
  Li  Li3  1  0.858844  0.858844  0.250000  1
  Bi  Bi4  1  0.031796  0.600724  0.642983  1
  Bi  Bi5  1  0.399276  0.968204  0.142983  1
  Bi  Bi6  1  0.600724  0.031796  0.857017  1
  Bi  Bi7  1  0.968204  0.399276  0.357017  1
  B  B8  1  0.232878  0.771910  0.878775  1
  B  B9  1  0.273118  0.406955  0.986748  1
  B  B10  1  0.228090  0.767122  0.378775  1
  B  B11  1  0.593045  0.726882  0.486748  1
  B  B12  1  0.406955  0.273118  0.513252  1
  B  B13  1  0.771910  0.232878  0.621225  1
  B  B14  1  0.726882  0.593045  0.013252  1
  B  B15  1  0.767122  0.228090  0.121225  1
  O  O16  1  0.298423  0.920959  0.916245  1
  O  O17  1  0.134097  0.809941  0.734399  1
  O  O18  1  0.079041  0.701577  0.416245  1
  O  O19  1  0.211582  0.370619  0.862859  1
  O  O20  1  0.653300  0.735335  0.875071  1
  O  O21  1  0.190059  0.865903  0.234399  1
  O  O22  1  0.410334  0.727123  0.491674  1
  O  O23  1  0.727123  0.410334  0.008326  1
  O  O24  1  0.629381  0.788418  0.362859  1
  O  O25  1  0.264665  0.346700  0.375071  1
  O  O26  1  0.735335  0.653300  0.624929  1
  O  O27  1  0.370619  0.211582  0.637141  1
  O  O28  1  0.272877  0.589666  0.991674  1
  O  O29  1  0.589666  0.272877  0.508326  1
  O  O30  1  0.809941  0.134097  0.765601  1
  O  O31  1  0.346700  0.264665  0.124929  1
  O  O32  1  0.788418  0.629381  0.137141  1
  O  O33  1  0.920959  0.298423  0.583755  1
  O  O34  1  0.865903  0.190059  0.265601  1
  O  O35  1  0.701577  0.079041  0.083755  1
