# generated using pymatgen
data_ErLuO3
_symmetry_space_group_name_H-M   'P 1'
_cell_length_a   5.84386639
_cell_length_b   8.22650539
_cell_length_c   5.58268792
_cell_angle_alpha   90.00000000
_cell_angle_beta   90.00000000
_cell_angle_gamma   90.00000000
_symmetry_Int_Tables_number   1
_chemical_formula_structural   ErLuO3
_chemical_formula_sum   'Er4 Lu4 O12'
_cell_volume   268.38547950
_cell_formula_units_Z   4
loop_
 _symmetry_equiv_pos_site_id
 _symmetry_equiv_pos_as_xyz
  1  'x, y, z'
loop_
 _atom_site_type_symbol
 _atom_site_label
 _atom_site_symmetry_multiplicity
 _atom_site_fract_x
 _atom_site_fract_y
 _atom_site_fract_z
 _atom_site_occupancy
  Er  Er0  1  0.052248  0.250000  0.987238  1
  Er  Er1  1  0.447752  0.750000  0.487238  1
  Er  Er2  1  0.552248  0.250000  0.512762  1
  Er  Er3  1  0.947752  0.750000  0.012762  1
  Lu  Lu4  1  0.000000  0.000000  0.500000  1
  Lu  Lu5  1  0.000000  0.500000  0.500000  1
  Lu  Lu6  1  0.500000  0.000000  0.000000  1
  Lu  Lu7  1  0.500000  0.500000  0.000000  1
  O  O8  1  0.074549  0.750000  0.642187  1
  O  O9  1  0.182056  0.574035  0.178181  1
  O  O10  1  0.182056  0.925965  0.178181  1
  O  O11  1  0.317944  0.425965  0.678181  1
  O  O12  1  0.317944  0.074035  0.678181  1
  O  O13  1  0.425451  0.250000  0.142187  1
  O  O14  1  0.574549  0.750000  0.857813  1
  O  O15  1  0.682056  0.574035  0.321819  1
  O  O16  1  0.682056  0.925965  0.321819  1
  O  O17  1  0.817944  0.074035  0.821819  1
  O  O18  1  0.817944  0.425965  0.821819  1
  O  O19  1  0.925451  0.250000  0.357813  1
