# generated using pymatgen
data_Li2Fe3SbO8
_symmetry_space_group_name_H-M   'P 1'
_cell_length_a   6.00675772
_cell_length_b   6.00597830
_cell_length_c   9.77889754
_cell_angle_alpha   89.99635886
_cell_angle_beta   89.99152909
_cell_angle_gamma   119.99579307
_symmetry_Int_Tables_number   1
_chemical_formula_structural   Li2Fe3SbO8
_chemical_formula_sum   'Li4 Fe6 Sb2 O16'
_cell_volume   305.53628965
_cell_formula_units_Z   2
loop_
 _symmetry_equiv_pos_site_id
 _symmetry_equiv_pos_as_xyz
  1  'x, y, z'
loop_
 _atom_site_type_symbol
 _atom_site_label
 _atom_site_symmetry_multiplicity
 _atom_site_fract_x
 _atom_site_fract_y
 _atom_site_fract_z
 _atom_site_occupancy
  Li  Li0  1  0.333344  0.666696  0.902844  1
  Li  Li1  1  0.000119  0.000081  0.988602  1
  Li  Li2  1  0.000069  0.000050  0.488611  1
  Li  Li3  1  0.666713  0.333381  0.402871  1
  Fe  Fe4  1  0.170321  0.829761  0.213245  1
  Fe  Fe5  1  0.170326  0.340560  0.213272  1
  Fe  Fe6  1  0.659357  0.829690  0.213211  1
  Fe  Fe7  1  0.340517  0.170290  0.713263  1
  Fe  Fe8  1  0.829709  0.659397  0.713223  1
  Fe  Fe9  1  0.829723  0.170326  0.713245  1
  Sb  Sb10  1  0.333463  0.666768  0.486241  1
  Sb  Sb11  1  0.666764  0.333418  0.986268  1
  O  O12  1  0.167819  0.832295  0.595282  1
  O  O13  1  0.036794  0.518386  0.347077  1
  O  O14  1  0.333411  0.666731  0.106999  1
  O  O15  1  0.999913  0.999939  0.302402  1
  O  O16  1  0.999974  0.999989  0.802386  1
  O  O17  1  0.167807  0.335530  0.595282  1
  O  O18  1  0.481504  0.963202  0.347098  1
  O  O19  1  0.481481  0.518296  0.347090  1
  O  O20  1  0.335514  0.167789  0.095299  1
  O  O21  1  0.664376  0.832201  0.595241  1
  O  O22  1  0.518328  0.481566  0.847073  1
  O  O23  1  0.518344  0.036791  0.847074  1
  O  O24  1  0.666682  0.333353  0.606997  1
  O  O25  1  0.832229  0.664390  0.095257  1
  O  O26  1  0.963123  0.481564  0.847122  1
  O  O27  1  0.832274  0.167862  0.095267  1
