# generated using pymatgen
data_Li5Mn2(PO4)3
_symmetry_space_group_name_H-M   'P 1'
_cell_length_a   8.89919506
_cell_length_b   8.92231964
_cell_length_c   12.58011956
_cell_angle_alpha   89.99988447
_cell_angle_beta   89.48252091
_cell_angle_gamma   89.99969346
_symmetry_Int_Tables_number   1
_chemical_formula_structural   Li5Mn2(PO4)3
_chemical_formula_sum   'Li20 Mn8 P12 O48'
_cell_volume   998.83915614
_cell_formula_units_Z   4
loop_
 _symmetry_equiv_pos_site_id
 _symmetry_equiv_pos_as_xyz
  1  'x, y, z'
loop_
 _atom_site_type_symbol
 _atom_site_label
 _atom_site_symmetry_multiplicity
 _atom_site_fract_x
 _atom_site_fract_y
 _atom_site_fract_z
 _atom_site_occupancy
  Li  Li0  1  0.950615  0.519467  0.342332  1
  Li  Li1  1  0.926815  0.095776  0.696974  1
  Li  Li2  1  0.870477  0.727639  0.746493  1
  Li  Li3  1  0.904857  0.645293  0.983652  1
  Li  Li4  1  0.792477  0.770078  0.182457  1
  Li  Li5  1  0.707522  0.270080  0.317543  1
  Li  Li6  1  0.595147  0.145298  0.516347  1
  Li  Li7  1  0.629520  0.227638  0.753507  1
  Li  Li8  1  0.573183  0.595778  0.803025  1
  Li  Li9  1  0.549382  0.019466  0.157669  1
  Li  Li10  1  0.454474  0.983253  0.837896  1
  Li  Li11  1  0.422181  0.406754  0.194765  1
  Li  Li12  1  0.386607  0.776670  0.256146  1
  Li  Li13  1  0.345894  0.682558  0.489572  1
  Li  Li14  1  0.297033  0.734746  0.696075  1
  Li  Li15  1  0.202969  0.234742  0.803925  1
  Li  Li16  1  0.154104  0.182562  0.010430  1
  Li  Li17  1  0.113396  0.276672  0.243856  1
  Li  Li18  1  0.077818  0.906750  0.305237  1
  Li  Li19  1  0.045520  0.483249  0.662101  1
  Mn  Mn20  1  0.741997  0.535318  0.600667  1
  Mn  Mn21  1  0.758003  0.035314  0.899336  1
  Mn  Mn22  1  0.744410  0.439801  0.107385  1
  Mn  Mn23  1  0.755584  0.939810  0.392609  1
  Mn  Mn24  1  0.249677  0.045837  0.599130  1
  Mn  Mn25  1  0.250326  0.545834  0.900869  1
  Mn  Mn26  1  0.248507  0.933923  0.102403  1
  Mn  Mn27  1  0.251487  0.433919  0.397603  1
  P  P28  1  0.946878  0.247718  0.492481  1
  P  P29  1  0.896429  0.393122  0.845175  1
  P  P30  1  0.900313  0.101685  0.156973  1
  P  P31  1  0.603569  0.893128  0.654822  1
  P  P32  1  0.599681  0.601679  0.343027  1
  P  P33  1  0.553122  0.747720  0.007519  1
  P  P34  1  0.448096  0.243470  0.990630  1
  P  P35  1  0.400159  0.403345  0.652852  1
  P  P36  1  0.398989  0.110816  0.342864  1
  P  P37  1  0.099840  0.903341  0.847150  1
  P  P38  1  0.101017  0.610813  0.157135  1
  P  P39  1  0.051905  0.743469  0.509370  1
  O  O40  1  0.968570  0.858746  0.440599  1
  O  O41  1  0.927726  0.869848  0.857942  1
  O  O42  1  0.958313  0.683152  0.605342  1
  O  O43  1  0.931154  0.595997  0.189678  1
  O  O44  1  0.913510  0.379120  0.569630  1
  O  O45  1  0.842378  0.234182  0.811180  1
  O  O46  1  0.876210  0.419665  0.965136  1
  O  O47  1  0.874858  0.972524  0.239000  1
  O  O48  1  0.844466  0.255485  0.199423  1
  O  O49  1  0.795280  0.182564  0.450393  1
  O  O50  1  0.818106  0.061291  0.054578  1
  O  O51  1  0.808906  0.516957  0.782869  1
  O  O52  1  0.691091  0.016962  0.717127  1
  O  O53  1  0.681894  0.561284  0.445426  1
  O  O54  1  0.704723  0.682566  0.049601  1
  O  O55  1  0.655528  0.755480  0.300577  1
  O  O56  1  0.623790  0.919670  0.534860  1
  O  O57  1  0.625144  0.472521  0.261002  1
  O  O58  1  0.657617  0.734188  0.688820  1
  O  O59  1  0.586481  0.879125  0.930369  1
  O  O60  1  0.541683  0.183146  0.894659  1
  O  O61  1  0.572274  0.369854  0.642061  1
  O  O62  1  0.568854  0.095997  0.310322  1
  O  O63  1  0.531427  0.358747  0.059402  1
  O  O64  1  0.467049  0.629560  0.942541  1
  O  O65  1  0.433870  0.907851  0.688010  1
  O  O66  1  0.425125  0.617320  0.357888  1
  O  O67  1  0.461939  0.807690  0.105853  1
  O  O68  1  0.400231  0.114443  0.066748  1
  O  O69  1  0.339144  0.262838  0.298414  1
  O  O70  1  0.375082  0.525120  0.740781  1
  O  O71  1  0.385444  0.115137  0.465581  1
  O  O72  1  0.323918  0.253205  0.682113  1
  O  O73  1  0.298898  0.310475  0.943923  1
  O  O74  1  0.334986  0.471838  0.550124  1
  O  O75  1  0.311715  0.979686  0.291152  1
  O  O76  1  0.188294  0.479683  0.208849  1
  O  O77  1  0.165011  0.971832  0.949880  1
  O  O78  1  0.201103  0.810472  0.556077  1
  O  O79  1  0.176086  0.753204  0.817888  1
  O  O80  1  0.124917  0.025120  0.759221  1
  O  O81  1  0.114561  0.615125  0.034418  1
  O  O82  1  0.160864  0.762834  0.201585  1
  O  O83  1  0.099767  0.614441  0.433253  1
  O  O84  1  0.066127  0.407842  0.811984  1
  O  O85  1  0.038065  0.307690  0.394149  1
  O  O86  1  0.074872  0.117326  0.142114  1
  O  O87  1  0.032949  0.129559  0.557459  1
