# generated using pymatgen
data_Co(MoS2)2
_symmetry_space_group_name_H-M   'P 1'
_cell_length_a   6.42784337
_cell_length_b   6.74984120
_cell_length_c   11.71344649
_cell_angle_alpha   79.42298935
_cell_angle_beta   74.07461164
_cell_angle_gamma   61.56561946
_symmetry_Int_Tables_number   1
_chemical_formula_structural   Co(MoS2)2
_chemical_formula_sum   'Co4 Mo8 S16'
_cell_volume   428.90727241
_cell_formula_units_Z   4
loop_
 _symmetry_equiv_pos_site_id
 _symmetry_equiv_pos_as_xyz
  1  'x, y, z'
loop_
 _atom_site_type_symbol
 _atom_site_label
 _atom_site_symmetry_multiplicity
 _atom_site_fract_x
 _atom_site_fract_y
 _atom_site_fract_z
 _atom_site_occupancy
  Co  Co0  1  0.795111  0.191211  0.967893  1
  Co  Co1  1  0.294272  0.193980  0.968036  1
  Co  Co2  1  0.543668  0.693960  0.468157  1
  Co  Co3  1  0.045787  0.691098  0.467945  1
  Mo  Mo4  1  0.207554  0.635719  0.207053  1
  Mo  Mo5  1  0.455762  0.138328  0.707455  1
  Mo  Mo6  1  0.131918  0.250245  0.228460  1
  Mo  Mo7  1  0.641328  0.247626  0.227911  1
  Mo  Mo8  1  0.949758  0.135622  0.707033  1
  Mo  Mo9  1  0.698373  0.638402  0.207438  1
  Mo  Mo10  1  0.883169  0.747513  0.727912  1
  Mo  Mo11  1  0.389471  0.750183  0.728396  1
  S  S12  1  0.281243  0.849750  0.336269  1
  S  S13  1  0.756888  0.364229  0.370699  1
  S  S14  1  0.009674  0.860119  0.868831  1
  S  S15  1  0.329425  0.025631  0.566533  1
  S  S16  1  0.532737  0.349727  0.836251  1
  S  S17  1  0.806556  0.535934  0.598993  1
  S  S18  1  0.032391  0.347818  0.835325  1
  S  S19  1  0.582419  0.521946  0.064691  1
  S  S20  1  0.508195  0.864118  0.870686  1
  S  S21  1  0.784466  0.847892  0.335245  1
  S  S22  1  0.261320  0.360239  0.368854  1
  S  S23  1  0.058562  0.036036  0.098961  1
  S  S24  1  0.830974  0.021867  0.564693  1
  S  S25  1  0.555275  0.037862  0.100242  1
  S  S26  1  0.306610  0.537826  0.600260  1
  S  S27  1  0.078494  0.525520  0.066579  1
