# generated using pymatgen
data_H4CSN2
_symmetry_space_group_name_H-M   'P 1'
_cell_length_a   5.64076172
_cell_length_b   7.43541586
_cell_length_c   25.46811001
_cell_angle_alpha   90.00000000
_cell_angle_beta   90.00000000
_cell_angle_gamma   90.00000000
_symmetry_Int_Tables_number   1
_chemical_formula_structural   H4CSN2
_chemical_formula_sum   'H48 C12 S12 N24'
_cell_volume   1068.16842234
_cell_formula_units_Z   12
loop_
 _symmetry_equiv_pos_site_id
 _symmetry_equiv_pos_as_xyz
  1  'x, y, z'
loop_
 _atom_site_type_symbol
 _atom_site_label
 _atom_site_symmetry_multiplicity
 _atom_site_fract_x
 _atom_site_fract_y
 _atom_site_fract_z
 _atom_site_occupancy
  H  H0  1  0.965572  0.523528  0.204856  1
  H  H1  1  0.534428  0.023528  0.295144  1
  H  H2  1  0.034428  0.476472  0.704856  1
  H  H3  1  0.465572  0.976472  0.795144  1
  H  H4  1  0.034428  0.476472  0.795144  1
  H  H5  1  0.465572  0.976472  0.704856  1
  H  H6  1  0.965572  0.523528  0.295144  1
  H  H7  1  0.534428  0.023528  0.204856  1
  H  H8  1  0.228868  0.497356  0.169390  1
  H  H9  1  0.271132  0.997356  0.330610  1
  H  H10  1  0.771132  0.502644  0.669390  1
  H  H11  1  0.728868  0.002644  0.830610  1
  H  H12  1  0.771132  0.502644  0.830610  1
  H  H13  1  0.728868  0.002644  0.669390  1
  H  H14  1  0.228868  0.497356  0.330610  1
  H  H15  1  0.271132  0.997356  0.169390  1
  H  H16  1  0.925507  0.726707  0.045995  1
  H  H17  1  0.574493  0.226707  0.454005  1
  H  H18  1  0.074493  0.273293  0.545995  1
  H  H19  1  0.425507  0.773293  0.954005  1
  H  H20  1  0.074493  0.273293  0.954005  1
  H  H21  1  0.425507  0.773293  0.545995  1
  H  H22  1  0.925507  0.726707  0.454005  1
  H  H23  1  0.574493  0.226707  0.045995  1
  H  H24  1  0.722653  0.597416  0.008694  1
  H  H25  1  0.777347  0.097416  0.491306  1
  H  H26  1  0.277347  0.402584  0.508694  1
  H  H27  1  0.222653  0.902584  0.991306  1
  H  H28  1  0.277347  0.402584  0.991306  1
  H  H29  1  0.222653  0.902584  0.508694  1
  H  H30  1  0.722653  0.597416  0.491306  1
  H  H31  1  0.777347  0.097416  0.008694  1
  H  H32  1  0.856824  0.783415  0.132876  1
  H  H33  1  0.643176  0.283415  0.367124  1
  H  H34  1  0.143176  0.216585  0.632876  1
  H  H35  1  0.356824  0.716585  0.867124  1
  H  H36  1  0.143176  0.216585  0.867124  1
  H  H37  1  0.356824  0.716585  0.632876  1
  H  H38  1  0.856824  0.783415  0.367124  1
  H  H39  1  0.643176  0.283415  0.132876  1
  H  H40  1  0.615021  0.683048  0.164821  1
  H  H41  1  0.884979  0.183048  0.335179  1
  H  H42  1  0.384979  0.316952  0.664821  1
  H  H43  1  0.115021  0.816952  0.835179  1
  H  H44  1  0.384979  0.316952  0.835179  1
  H  H45  1  0.115021  0.816952  0.664821  1
  H  H46  1  0.615021  0.683048  0.335179  1
  H  H47  1  0.884979  0.183048  0.164821  1
  C  C48  1  0.265221  0.488749  0.250000  1
  C  C49  1  0.234779  0.988749  0.250000  1
  C  C50  1  0.734779  0.511251  0.750000  1
  C  C51  1  0.765221  0.011251  0.750000  1
  C  C52  1  0.631321  0.634883  0.085738  1
  C  C53  1  0.868679  0.134883  0.414262  1
  C  C54  1  0.368679  0.365117  0.585738  1
  C  C55  1  0.131321  0.865117  0.914262  1
  C  C56  1  0.368679  0.365117  0.914262  1
  C  C57  1  0.131321  0.865117  0.585738  1
  C  C58  1  0.631321  0.634883  0.414262  1
  C  C59  1  0.868679  0.134883  0.085738  1
  S  S60  1  0.566116  0.459979  0.250000  1
  S  S61  1  0.933884  0.959978  0.250000  1
  S  S62  1  0.433884  0.540022  0.750000  1
  S  S63  1  0.066116  0.040022  0.750000  1
  S  S64  1  0.373299  0.513416  0.082088  1
  S  S65  1  0.126701  0.013416  0.417912  1
  S  S66  1  0.626701  0.486584  0.582088  1
  S  S67  1  0.873299  0.986584  0.917912  1
  S  S68  1  0.626701  0.486584  0.917912  1
  S  S69  1  0.873299  0.986584  0.582088  1
  S  S70  1  0.373299  0.513416  0.417912  1
  S  S71  1  0.126701  0.013416  0.082088  1
  N  N72  1  0.142922  0.498010  0.204883  1
  N  N73  1  0.357078  0.998010  0.295117  1
  N  N74  1  0.857078  0.501990  0.704883  1
  N  N75  1  0.642922  0.001990  0.795117  1
  N  N76  1  0.857078  0.501990  0.795117  1
  N  N77  1  0.642922  0.001990  0.704883  1
  N  N78  1  0.142922  0.498010  0.295117  1
  N  N79  1  0.357078  0.998010  0.204883  1
  N  N80  1  0.770585  0.655124  0.043522  1
  N  N81  1  0.729415  0.155124  0.456478  1
  N  N82  1  0.229415  0.344876  0.543522  1
  N  N83  1  0.270585  0.844876  0.956478  1
  N  N84  1  0.229415  0.344876  0.956478  1
  N  N85  1  0.270585  0.844876  0.543522  1
  N  N86  1  0.770585  0.655124  0.456478  1
  N  N87  1  0.729415  0.155124  0.043522  1
  N  N88  1  0.700949  0.712826  0.130762  1
  N  N89  1  0.799051  0.212826  0.369238  1
  N  N90  1  0.299051  0.287174  0.630762  1
  N  N91  1  0.200949  0.787174  0.869238  1
  N  N92  1  0.299051  0.287174  0.869238  1
  N  N93  1  0.200949  0.787174  0.630762  1
  N  N94  1  0.700949  0.712826  0.369238  1
  N  N95  1  0.799051  0.212826  0.130762  1
