# generated using pymatgen
data_MnOF
_symmetry_space_group_name_H-M   'P 1'
_cell_length_a   4.81254189
_cell_length_b   14.26241731
_cell_length_c   3.07522778
_cell_angle_alpha   90.00000000
_cell_angle_beta   90.00000000
_cell_angle_gamma   93.96598695
_symmetry_Int_Tables_number   1
_chemical_formula_structural   MnOF
_chemical_formula_sum   'Mn6 O6 F6'
_cell_volume   210.57348865
_cell_formula_units_Z   6
loop_
 _symmetry_equiv_pos_site_id
 _symmetry_equiv_pos_as_xyz
  1  'x, y, z'
loop_
 _atom_site_type_symbol
 _atom_site_label
 _atom_site_symmetry_multiplicity
 _atom_site_fract_x
 _atom_site_fract_y
 _atom_site_fract_z
 _atom_site_occupancy
  Mn  Mn0  1  0.907008  0.001920  0.000000  1
  Mn  Mn1  1  0.092992  0.331414  0.000000  1
  Mn  Mn2  1  0.000000  0.666667  0.000000  1
  Mn  Mn3  1  0.500000  0.166667  0.500000  1
  Mn  Mn4  1  0.545063  0.500095  0.500000  1
  Mn  Mn5  1  0.454937  0.833238  0.500000  1
  O  O6  1  0.248213  0.269948  0.500000  1
  O  O7  1  0.279598  0.767223  0.000000  1
  O  O8  1  0.363193  0.434320  0.000000  1
  O  O9  1  0.720402  0.566111  0.000000  1
  O  O10  1  0.636807  0.899013  0.000000  1
  O  O11  1  0.751787  0.063386  0.500000  1
  F  F12  1  0.199323  0.602648  0.500000  1
  F  F13  1  0.121236  0.941965  0.500000  1
  F  F14  1  0.258132  0.102579  0.000000  1
  F  F15  1  0.741868  0.230754  0.000000  1
  F  F16  1  0.878764  0.391368  0.500000  1
  F  F17  1  0.800677  0.730685  0.500000  1
