# generated using pymatgen
data_LiMn3Al2(HO2)6
_symmetry_space_group_name_H-M   'P 1'
_cell_length_a   10.56637659
_cell_length_b   7.90496747
_cell_length_c   5.95335789
_cell_angle_alpha   101.89545774
_cell_angle_beta   107.03915140
_cell_angle_gamma   67.79928083
_symmetry_Int_Tables_number   1
_chemical_formula_structural   LiMn3Al2(HO2)6
_chemical_formula_sum   'Li2 Mn6 Al4 H12 O24'
_cell_volume   437.62750130
_cell_formula_units_Z   2
loop_
 _symmetry_equiv_pos_site_id
 _symmetry_equiv_pos_as_xyz
  1  'x, y, z'
loop_
 _atom_site_type_symbol
 _atom_site_label
 _atom_site_symmetry_multiplicity
 _atom_site_fract_x
 _atom_site_fract_y
 _atom_site_fract_z
 _atom_site_occupancy
  Li  Li0  1  0.500842  0.010729  0.258981  1
  Li  Li1  1  0.499173  0.322628  0.574508  1
  Mn  Mn2  1  0.003778  0.997327  0.000052  1
  Mn  Mn3  1  0.002719  0.998365  0.499277  1
  Mn  Mn4  1  0.997429  0.335631  0.331834  1
  Mn  Mn5  1  0.999109  0.667462  0.165996  1
  Mn  Mn6  1  0.995244  0.336388  0.833170  1
  Mn  Mn7  1  0.002879  0.664786  0.668429  1
  Al  Al8  1  0.502559  0.004845  0.749305  1
  Al  Al9  1  0.497600  0.328405  0.084038  1
  Al  Al10  1  0.499874  0.666708  0.417022  1
  Al  Al11  1  0.499931  0.666663  0.916319  1
  H  H12  1  0.709691  0.025731  0.098030  1
  H  H13  1  0.290124  0.324804  0.201458  1
  H  H14  1  0.710118  0.008878  0.631140  1
  H  H15  1  0.287140  0.650681  0.057955  1
  H  H16  1  0.290231  0.306012  0.736766  1
  H  H17  1  0.703937  0.362870  0.425225  1
  H  H18  1  0.295768  0.659434  0.557791  1
  H  H19  1  0.703750  0.675363  0.272572  1
  H  H20  1  0.699122  0.360912  0.955457  1
  H  H21  1  0.295860  0.970532  0.408754  1
  H  H22  1  0.713026  0.679170  0.779159  1
  H  H23  1  0.300778  0.974599  0.877156  1
  O  O24  1  0.101113  0.067969  0.318312  1
  O  O25  1  0.606112  0.074848  0.053964  1
  O  O26  1  0.392798  0.285739  0.246403  1
  O  O27  1  0.098535  0.399963  0.149496  1
  O  O28  1  0.104779  0.073684  0.808771  1
  O  O29  1  0.607447  0.047423  0.587087  1
  O  O30  1  0.894261  0.279727  0.017083  1
  O  O31  1  0.392075  0.609934  0.095677  1
  O  O32  1  0.099925  0.395007  0.651311  1
  O  O33  1  0.393668  0.258951  0.778977  1
  O  O34  1  0.895614  0.268734  0.513434  1
  O  O35  1  0.600790  0.409904  0.384528  1
  O  O36  1  0.399390  0.617303  0.602917  1
  O  O37  1  0.108766  0.739515  0.469044  1
  O  O38  1  0.897691  0.601789  0.347395  1
  O  O39  1  0.595845  0.409842  0.919128  1
  O  O40  1  0.600653  0.715710  0.230807  1
  O  O41  1  0.398884  0.923688  0.448652  1
  O  O42  1  0.108089  0.713505  0.989875  1
  O  O43  1  0.896429  0.927814  0.189656  1
  O  O44  1  0.889324  0.597385  0.861114  1
  O  O45  1  0.607589  0.724204  0.737281  1
  O  O46  1  0.403964  0.923407  0.914429  1
  O  O47  1  0.904978  0.935231  0.683862  1
