# generated using pymatgen
data_Li2MnSi3O8
_symmetry_space_group_name_H-M   'P 1'
_cell_length_a   6.77467151
_cell_length_b   10.20353312
_cell_length_c   5.05444627
_cell_angle_alpha   90.00000000
_cell_angle_beta   90.33710380
_cell_angle_gamma   90.00000000
_symmetry_Int_Tables_number   1
_chemical_formula_structural   Li2MnSi3O8
_chemical_formula_sum   'Li4 Mn2 Si6 O16'
_cell_volume   349.38550870
_cell_formula_units_Z   2
loop_
 _symmetry_equiv_pos_site_id
 _symmetry_equiv_pos_as_xyz
  1  'x, y, z'
loop_
 _atom_site_type_symbol
 _atom_site_label
 _atom_site_symmetry_multiplicity
 _atom_site_fract_x
 _atom_site_fract_y
 _atom_site_fract_z
 _atom_site_occupancy
  Li  Li0  1  0.005433  0.145410  0.186952  1
  Li  Li1  1  0.494567  0.645410  0.313048  1
  Li  Li2  1  0.497923  0.343402  0.653003  1
  Li  Li3  1  0.002077  0.843402  0.846997  1
  Mn  Mn4  1  0.508190  0.164455  0.157237  1
  Mn  Mn5  1  0.991810  0.664455  0.342763  1
  Si  Si6  1  0.977134  0.335792  0.702532  1
  Si  Si7  1  0.270062  0.911568  0.289401  1
  Si  Si8  1  0.229938  0.411568  0.210599  1
  Si  Si9  1  0.522866  0.835792  0.797468  1
  Si  Si10  1  0.774149  0.593569  0.848022  1
  Si  Si11  1  0.725851  0.093569  0.651978  1
  O  O12  1  0.061305  0.846809  0.218046  1
  O  O13  1  0.047985  0.338953  0.391068  1
  O  O14  1  0.336172  0.875425  0.604696  1
  O  O15  1  0.242349  0.565545  0.261567  1
  O  O16  1  0.163828  0.375426  0.895304  1
  O  O17  1  0.257651  0.065545  0.238433  1
  O  O18  1  0.452015  0.838953  0.108932  1
  O  O19  1  0.438695  0.346809  0.281954  1
  O  O20  1  0.582848  0.682620  0.713230  1
  O  O21  1  0.529602  0.165371  0.751902  1
  O  O22  1  0.719355  0.934798  0.761057  1
  O  O23  1  0.739227  0.596281  0.162027  1
  O  O24  1  0.780645  0.434798  0.738943  1
  O  O25  1  0.760773  0.096281  0.337973  1
  O  O26  1  0.970398  0.665371  0.748098  1
  O  O27  1  0.917152  0.182620  0.786770  1
