# generated using pymatgen
data_Li4V3P8O29
_symmetry_space_group_name_H-M   'P 1'
_cell_length_a   9.77722861
_cell_length_b   9.76686783
_cell_length_c   14.31263771
_cell_angle_alpha   90.42067218
_cell_angle_beta   90.67653327
_cell_angle_gamma   60.32786127
_symmetry_Int_Tables_number   1
_chemical_formula_structural   Li4V3P8O29
_chemical_formula_sum   'Li8 V6 P16 O58'
_cell_volume   1187.45130713
_cell_formula_units_Z   2
loop_
 _symmetry_equiv_pos_site_id
 _symmetry_equiv_pos_as_xyz
  1  'x, y, z'
loop_
 _atom_site_type_symbol
 _atom_site_label
 _atom_site_symmetry_multiplicity
 _atom_site_fract_x
 _atom_site_fract_y
 _atom_site_fract_z
 _atom_site_occupancy
  Li  Li0  1  0.778564  0.908356  0.548440  1
  Li  Li1  1  0.916890  0.312877  0.561992  1
  Li  Li2  1  0.764141  0.336141  0.054544  1
  Li  Li3  1  0.330069  0.905305  0.062909  1
  Li  Li4  1  0.691786  0.223669  0.439618  1
  Li  Li5  1  0.311375  0.772204  0.558833  1
  Li  Li6  1  0.673319  0.094167  0.943183  1
  Li  Li7  1  0.028204  0.944901  0.006010  1
  V  V8  1  0.562877  0.439881  0.248519  1
  V  V9  1  0.427911  0.565641  0.751540  1
  V  V10  1  0.565417  0.997660  0.750573  1
  V  V11  1  0.431606  0.001013  0.248665  1
  V  V12  1  0.997322  0.567744  0.247714  1
  V  V13  1  0.002739  0.435062  0.754570  1
  P  P14  1  0.918071  0.779267  0.843527  1
  P  P15  1  0.771415  0.911762  0.334676  1
  P  P16  1  0.912327  0.318288  0.344395  1
  P  P17  1  0.666638  0.664362  0.130502  1
  P  P18  1  0.664035  0.664428  0.632956  1
  P  P19  1  0.770766  0.316861  0.837492  1
  P  P20  1  0.677854  0.229693  0.657803  1
  P  P21  1  0.313093  0.913050  0.844014  1
  P  P22  1  0.683201  0.090651  0.156403  1
  P  P23  1  0.319266  0.772138  0.343914  1
  P  P24  1  0.219112  0.694025  0.164582  1
  P  P25  1  0.333144  0.334690  0.364499  1
  P  P26  1  0.341373  0.327532  0.868334  1
  P  P27  1  0.081468  0.688136  0.660462  1
  P  P28  1  0.224982  0.087080  0.664129  1
  P  P29  1  0.079700  0.223171  0.162905  1
  O  O30  1  0.992667  0.771252  0.575362  1
  O  O31  1  0.917298  0.745101  0.330469  1
  O  O32  1  0.770055  0.018604  0.068002  1
  O  O33  1  0.742298  0.919562  0.832978  1
  O  O34  1  0.920573  0.622002  0.834143  1
  O  O35  1  0.810320  0.670921  0.176517  1
  O  O36  1  0.905240  0.477186  0.322492  1
  O  O37  1  0.985926  0.212155  0.082980  1
  O  O38  1  0.911282  0.345299  0.832741  1
  O  O39  1  0.662733  0.815182  0.679480  1
  O  O40  1  0.622191  0.900487  0.317975  1
  O  O41  1  0.813045  0.516419  0.670822  1
  O  O42  1  0.674916  0.642006  0.027155  1
  O  O43  1  0.656766  0.681114  0.529574  1
  O  O44  1  0.674908  0.510136  0.175049  1
  O  O45  1  0.470486  0.913336  0.828649  1
  O  O46  1  0.512013  0.811375  0.163359  1
  O  O47  1  0.743182  0.338247  0.335364  1
  O  O48  1  0.788681  0.207647  0.747700  1
  O  O49  1  0.755604  0.240745  0.570410  1
  O  O50  1  0.768247  0.235116  0.925317  1
  O  O51  1  0.615465  0.474725  0.822412  1
  O  O52  1  0.514414  0.663082  0.672096  1
  O  O53  1  0.653100  0.263766  0.163028  1
  O  O54  1  0.479682  0.620574  0.319198  1
  O  O55  1  0.341232  0.915837  0.331073  1
  O  O56  1  0.791617  0.005059  0.247683  1
  O  O57  1  0.763030  0.998269  0.423789  1
  O  O58  1  0.236737  0.989039  0.582376  1
  O  O59  1  0.660031  0.080304  0.657360  1
  O  O60  1  0.519447  0.379905  0.676369  1
  O  O61  1  0.342350  0.742815  0.827615  1
  O  O62  1  0.482216  0.339251  0.321324  1
  O  O63  1  0.380121  0.538471  0.171749  1
  O  O64  1  0.208100  0.797262  0.085138  1
  O  O65  1  0.258804  0.757217  0.434869  1
  O  O66  1  0.199412  0.786484  0.261192  1
  O  O67  1  0.253657  0.659914  0.661828  1
  O  O68  1  0.495463  0.182476  0.823895  1
  O  O69  1  0.529905  0.086905  0.168896  1
  O  O70  1  0.335823  0.479794  0.822680  1
  O  O71  1  0.366577  0.320217  0.970913  1
  O  O72  1  0.344038  0.336591  0.467866  1
  O  O73  1  0.183051  0.478659  0.319401  1
  O  O74  1  0.379465  0.094891  0.682138  1
  O  O75  1  0.335858  0.187549  0.321884  1
  O  O76  1  0.083954  0.655345  0.164461  1
  O  O77  1  0.003039  0.796630  0.751281  1
  O  O78  1  0.989138  0.808995  0.927167  1
  O  O79  1  0.089639  0.528054  0.679329  1
  O  O80  1  0.196722  0.323984  0.828460  1
  O  O81  1  0.077475  0.382891  0.172093  1
  O  O82  1  0.251500  0.085395  0.161088  1
  O  O83  1  0.239398  0.974295  0.936567  1
  O  O84  1  0.199375  0.013103  0.759931  1
  O  O85  1  0.082159  0.255032  0.662697  1
  O  O86  1  0.981997  0.250786  0.436823  1
  O  O87  1  0.010210  0.201268  0.260777  1
