# generated using pymatgen
data_Mg3Mn5(BO4)4
_symmetry_space_group_name_H-M   'P 1'
_cell_length_a   9.50006462
_cell_length_b   9.39438300
_cell_length_c   3.24151536
_cell_angle_alpha   89.82051668
_cell_angle_beta   85.83859750
_cell_angle_gamma   89.99286244
_symmetry_Int_Tables_number   1
_chemical_formula_structural   Mg3Mn5(BO4)4
_chemical_formula_sum   'Mg3 Mn5 B4 O16'
_cell_volume   288.53219561
_cell_formula_units_Z   1
loop_
 _symmetry_equiv_pos_site_id
 _symmetry_equiv_pos_as_xyz
  1  'x, y, z'
loop_
 _atom_site_type_symbol
 _atom_site_label
 _atom_site_symmetry_multiplicity
 _atom_site_fract_x
 _atom_site_fract_y
 _atom_site_fract_z
 _atom_site_occupancy
  Mg  Mg0  1  0.397373  0.182674  0.256444  1
  Mg  Mg1  1  0.602272  0.816884  0.744068  1
  Mg  Mg2  1  0.897933  0.316742  0.258293  1
  Mn  Mn3  1  0.102354  0.685542  0.744682  1
  Mn  Mn4  1  0.118686  0.065186  0.750572  1
  Mn  Mn5  1  0.383673  0.562518  0.245089  1
  Mn  Mn6  1  0.618859  0.435278  0.753325  1
  Mn  Mn7  1  0.877255  0.938893  0.245888  1
  B  B8  1  0.163802  0.367059  0.725525  1
  B  B9  1  0.340031  0.869695  0.271590  1
  B  B10  1  0.662099  0.132674  0.728236  1
  B  B11  1  0.832616  0.631473  0.273364  1
  O  O12  1  0.012362  0.887691  0.784400  1
  O  O13  1  0.021005  0.364454  0.735235  1
  O  O14  1  0.241648  0.240758  0.755562  1
  O  O15  1  0.237899  0.496731  0.690729  1
  O  O16  1  0.265563  0.998166  0.300140  1
  O  O17  1  0.265115  0.740688  0.241279  1
  O  O18  1  0.482686  0.866587  0.265974  1
  O  O19  1  0.487841  0.385979  0.223746  1
  O  O20  1  0.514275  0.612392  0.773573  1
  O  O21  1  0.519576  0.136338  0.734188  1
  O  O22  1  0.740380  0.259212  0.756787  1
  O  O23  1  0.734348  0.001960  0.699699  1
  O  O24  1  0.761891  0.500575  0.303677  1
  O  O25  1  0.757614  0.759374  0.244776  1
  O  O26  1  0.975321  0.631472  0.266327  1
  O  O27  1  0.985524  0.113005  0.226828  1
