# generated using pymatgen
data_MnAlP2(HO)15
_symmetry_space_group_name_H-M   'P 1'
_cell_length_a   9.71147444
_cell_length_b   10.19269009
_cell_length_c   7.01071938
_cell_angle_alpha   109.53788810
_cell_angle_beta   99.52596841
_cell_angle_gamma   99.03570405
_symmetry_Int_Tables_number   1
_chemical_formula_structural   MnAlP2(HO)15
_chemical_formula_sum   'Mn2 Al2 P4 H30 O30'
_cell_volume   627.91957951
_cell_formula_units_Z   2
loop_
 _symmetry_equiv_pos_site_id
 _symmetry_equiv_pos_as_xyz
  1  'x, y, z'
loop_
 _atom_site_type_symbol
 _atom_site_label
 _atom_site_symmetry_multiplicity
 _atom_site_fract_x
 _atom_site_fract_y
 _atom_site_fract_z
 _atom_site_occupancy
  Mn  Mn0  1  0.301648  0.949689  0.676967  1
  Mn  Mn1  1  0.698352  0.050311  0.323033  1
  Al  Al2  1  0.500000  0.500000  0.500000  1
  Al  Al3  1  0.500000  0.500000  0.000000  1
  P  P4  1  0.297509  0.646864  0.258152  1
  P  P5  1  0.298182  0.253604  0.096097  1
  P  P6  1  0.701818  0.746396  0.903903  1
  P  P7  1  0.702491  0.353136  0.741848  1
  H  H8  1  0.012597  0.945642  0.666820  1
  H  H9  1  0.003031  0.780661  0.537775  1
  H  H10  1  0.149182  0.995073  0.175038  1
  H  H11  1  0.069234  0.468411  0.685757  1
  H  H12  1  0.144837  0.857729  0.227118  1
  H  H13  1  0.130520  0.448812  0.482881  1
  H  H14  1  0.122977  0.460955  0.087385  1
  H  H15  1  0.057207  0.196082  0.020318  1
  H  H16  1  0.260454  0.690935  0.721361  1
  H  H17  1  0.307982  0.219056  0.710964  1
  H  H18  1  0.317296  0.442026  0.681182  1
  H  H19  1  0.420163  0.753719  0.791260  1
  H  H20  1  0.405653  0.918847  0.264981  1
  H  H21  1  0.372001  0.162130  0.514421  1
  H  H22  1  0.599098  0.971150  0.851898  1
  H  H23  1  0.400902  0.028850  0.148102  1
  H  H24  1  0.627999  0.837870  0.485579  1
  H  H25  1  0.594347  0.081153  0.735019  1
  H  H26  1  0.579837  0.246281  0.208740  1
  H  H27  1  0.682704  0.557974  0.318818  1
  H  H28  1  0.692018  0.780944  0.289036  1
  H  H29  1  0.739546  0.309065  0.278639  1
  H  H30  1  0.942793  0.803918  0.979682  1
  H  H31  1  0.877023  0.539045  0.912615  1
  H  H32  1  0.869480  0.551188  0.517119  1
  H  H33  1  0.855163  0.142271  0.772882  1
  H  H34  1  0.930766  0.531589  0.314243  1
  H  H35  1  0.850818  0.004927  0.824962  1
  H  H36  1  0.996969  0.219339  0.462225  1
  H  H37  1  0.987403  0.054358  0.333180  1
  O  O38  1  0.067467  0.877021  0.602048  1
  O  O39  1  0.082274  0.910030  0.167572  1
  O  O40  1  0.103256  0.402300  0.577184  1
  O  O41  1  0.132863  0.565369  0.135461  1
  O  O42  1  0.139969  0.272372  0.125928  1
  O  O43  1  0.328383  0.781844  0.802541  1
  O  O44  1  0.288282  0.804136  0.356895  1
  O  O45  1  0.289750  0.093206  0.985852  1
  O  O46  1  0.340739  0.342178  0.965317  1
  O  O47  1  0.298112  0.134198  0.582037  1
  O  O48  1  0.338383  0.576363  0.415488  1
  O  O49  1  0.420874  0.480130  0.720707  1
  O  O50  1  0.391284  0.633308  0.101618  1
  O  O51  1  0.460781  0.006695  0.257543  1
  O  O52  1  0.397484  0.309804  0.314013  1
  O  O53  1  0.602516  0.690196  0.685987  1
  O  O54  1  0.539219  0.993305  0.742457  1
  O  O55  1  0.608716  0.366692  0.898382  1
  O  O56  1  0.579126  0.519870  0.279293  1
  O  O57  1  0.661617  0.423637  0.584512  1
  O  O58  1  0.701888  0.865802  0.417963  1
  O  O59  1  0.659261  0.657822  0.034683  1
  O  O60  1  0.710250  0.906794  0.014148  1
  O  O61  1  0.711718  0.195864  0.643105  1
  O  O62  1  0.671617  0.218156  0.197459  1
  O  O63  1  0.860031  0.727628  0.874072  1
  O  O64  1  0.867137  0.434631  0.864539  1
  O  O65  1  0.896744  0.597700  0.422816  1
  O  O66  1  0.917726  0.089970  0.832428  1
  O  O67  1  0.932533  0.122979  0.397952  1
