# generated using pymatgen
data_Li3TiMn4O8
_symmetry_space_group_name_H-M   'P 1'
_cell_length_a   6.15935941
_cell_length_b   6.15935968
_cell_length_c   6.11280146
_cell_angle_alpha   90.13795025
_cell_angle_beta   59.83765110
_cell_angle_gamma   60.06900872
_symmetry_Int_Tables_number   1
_chemical_formula_structural   Li3TiMn4O8
_chemical_formula_sum   'Li3 Ti1 Mn4 O8'
_cell_volume   163.55047691
_cell_formula_units_Z   1
loop_
 _symmetry_equiv_pos_site_id
 _symmetry_equiv_pos_as_xyz
  1  'x, y, z'
loop_
 _atom_site_type_symbol
 _atom_site_label
 _atom_site_symmetry_multiplicity
 _atom_site_fract_x
 _atom_site_fract_y
 _atom_site_fract_z
 _atom_site_occupancy
  Li  Li0  1  0.000000  0.000000  0.500000  1
  Li  Li1  1  0.500000  0.000000  0.500000  1
  Li  Li2  1  0.500000  0.500000  0.500000  1
  Ti  Ti3  1  0.500000  0.500000  0.000000  1
  Mn  Mn4  1  0.000000  0.500000  0.500000  1
  Mn  Mn5  1  0.000000  0.000000  0.000000  1
  Mn  Mn6  1  0.500000  0.000000  0.000000  1
  Mn  Mn7  1  0.000000  0.500000  0.000000  1
  O  O8  1  0.497378  0.272246  0.774867  1
  O  O9  1  0.970580  0.261138  0.760334  1
  O  O10  1  0.500803  0.730914  0.760334  1
  O  O11  1  0.988492  0.750979  0.762486  1
  O  O12  1  0.011508  0.249021  0.237514  1
  O  O13  1  0.499197  0.269086  0.239666  1
  O  O14  1  0.029420  0.738862  0.239666  1
  O  O15  1  0.502622  0.727754  0.225132  1
