# generated using pymatgen
data_LiH20C8BrO4
_symmetry_space_group_name_H-M   'P 1'
_cell_length_a   7.83973877
_cell_length_b   7.83973877
_cell_length_c   12.38296036
_cell_angle_alpha   84.51036294
_cell_angle_beta   95.48963706
_cell_angle_gamma   117.56856751
_symmetry_Int_Tables_number   1
_chemical_formula_structural   LiH20C8BrO4
_chemical_formula_sum   'Li2 H40 C16 Br2 O8'
_cell_volume   670.42681275
_cell_formula_units_Z   2
loop_
 _symmetry_equiv_pos_site_id
 _symmetry_equiv_pos_as_xyz
  1  'x, y, z'
loop_
 _atom_site_type_symbol
 _atom_site_label
 _atom_site_symmetry_multiplicity
 _atom_site_fract_x
 _atom_site_fract_y
 _atom_site_fract_z
 _atom_site_occupancy
  Li  Li0  1  0.938648  0.938648  0.750000  1
  Li  Li1  1  0.061352  0.061352  0.250000  1
  H  H2  1  0.847563  0.702417  0.475099  1
  H  H3  1  0.702417  0.847563  0.024901  1
  H  H4  1  0.152437  0.297583  0.524901  1
  H  H5  1  0.297583  0.152437  0.975099  1
  H  H6  1  0.752238  0.550040  0.594844  1
  H  H7  1  0.550040  0.752238  0.905156  1
  H  H8  1  0.247762  0.449960  0.405156  1
  H  H9  1  0.449960  0.247762  0.094844  1
  H  H10  1  0.562241  0.884705  0.597364  1
  H  H11  1  0.884705  0.562241  0.902636  1
  H  H12  1  0.437759  0.115295  0.402636  1
  H  H13  1  0.115295  0.437759  0.097364  1
  H  H14  1  0.504112  0.634203  0.608063  1
  H  H15  1  0.634203  0.504112  0.891937  1
  H  H16  1  0.495888  0.365797  0.391937  1
  H  H17  1  0.365797  0.495888  0.108063  1
  H  H18  1  0.573797  0.771213  0.480078  1
  H  H19  1  0.771213  0.573797  0.019922  1
  H  H20  1  0.426203  0.228787  0.519922  1
  H  H21  1  0.228787  0.426203  0.980078  1
  H  H22  1  0.098819  0.642064  0.589464  1
  H  H23  1  0.642064  0.098819  0.910536  1
  H  H24  1  0.901181  0.357936  0.410536  1
  H  H25  1  0.357936  0.901181  0.089464  1
  H  H26  1  0.158831  0.893494  0.577728  1
  H  H27  1  0.893494  0.158831  0.922272  1
  H  H28  1  0.841169  0.106506  0.422272  1
  H  H29  1  0.106506  0.841169  0.077728  1
  H  H30  1  0.227662  0.780426  0.866793  1
  H  H31  1  0.780426  0.227662  0.633207  1
  H  H32  1  0.772338  0.219574  0.133207  1
  H  H33  1  0.219574  0.772338  0.366793  1
  H  H34  1  0.354949  0.917430  0.750963  1
  H  H35  1  0.917430  0.354949  0.749037  1
  H  H36  1  0.645051  0.082570  0.249037  1
  H  H37  1  0.082570  0.645051  0.250963  1
  H  H38  1  0.267185  0.658317  0.763271  1
  H  H39  1  0.658317  0.267185  0.736729  1
  H  H40  1  0.732815  0.341683  0.236729  1
  H  H41  1  0.341683  0.732815  0.263271  1
  C  C42  1  0.853427  0.697146  0.564943  1
  C  C43  1  0.697146  0.853427  0.935057  1
  C  C44  1  0.146573  0.302854  0.435057  1
  C  C45  1  0.302854  0.146573  0.064943  1
  C  C46  1  0.596928  0.776363  0.569148  1
  C  C47  1  0.776363  0.596928  0.930852  1
  C  C48  1  0.403072  0.223637  0.430852  1
  C  C49  1  0.223637  0.403072  0.069148  1
  C  C50  1  0.055543  0.749890  0.610884  1
  C  C51  1  0.749890  0.055543  0.889116  1
  C  C52  1  0.944457  0.250110  0.389116  1
  C  C53  1  0.250110  0.944457  0.110884  1
  C  C54  1  0.238354  0.778401  0.779062  1
  C  C55  1  0.778401  0.238354  0.720938  1
  C  C56  1  0.761646  0.221599  0.220938  1
  C  C57  1  0.221599  0.761646  0.279062  1
  Br  Br58  1  0.260775  0.260775  0.750000  1
  Br  Br59  1  0.739225  0.739225  0.250000  1
  O  O60  1  0.796259  0.831995  0.600392  1
  O  O61  1  0.831995  0.796259  0.899608  1
  O  O62  1  0.203741  0.168005  0.399608  1
  O  O63  1  0.168005  0.203741  0.100392  1
  O  O64  1  0.056735  0.751129  0.726841  1
  O  O65  1  0.751129  0.056735  0.773159  1
  O  O66  1  0.943265  0.248871  0.273159  1
  O  O67  1  0.248871  0.943265  0.226841  1
