# generated using pymatgen
data_Li10Ge(PO6)2
_symmetry_space_group_name_H-M   'P 1'
_cell_length_a   7.15829110
_cell_length_b   6.99241559
_cell_length_c   10.72442847
_cell_angle_alpha   90.58668644
_cell_angle_beta   89.74312887
_cell_angle_gamma   89.82022836
_symmetry_Int_Tables_number   1
_chemical_formula_structural   Li10Ge(PO6)2
_chemical_formula_sum   'Li20 Ge2 P4 O24'
_cell_volume   536.76156624
_cell_formula_units_Z   2
loop_
 _symmetry_equiv_pos_site_id
 _symmetry_equiv_pos_as_xyz
  1  'x, y, z'
loop_
 _atom_site_type_symbol
 _atom_site_label
 _atom_site_symmetry_multiplicity
 _atom_site_fract_x
 _atom_site_fract_y
 _atom_site_fract_z
 _atom_site_occupancy
  Li  Li0  1  0.979035  0.534000  0.929118  1
  Li  Li1  1  0.946317  0.528365  0.424303  1
  Li  Li2  1  0.533871  0.954936  0.558126  1
  Li  Li3  1  0.479635  0.995174  0.065213  1
  Li  Li4  1  0.269773  0.269463  0.157603  1
  Li  Li5  1  0.693623  0.721203  0.283724  1
  Li  Li6  1  0.192058  0.847518  0.745141  1
  Li  Li7  1  0.214781  0.761181  0.262117  1
  Li  Li8  1  0.756709  0.235195  0.353740  1
  Li  Li9  1  0.452199  0.508687  0.749747  1
  Li  Li10  1  0.233376  0.279087  0.388308  1
  Li  Li11  1  0.786250  0.253943  0.879456  1
  Li  Li12  1  0.231881  0.764127  0.994059  1
  Li  Li13  1  0.747782  0.204100  0.112382  1
  Li  Li14  1  0.765916  0.739596  0.677104  1
  Li  Li15  1  0.169407  0.234184  0.915271  1
  Li  Li16  1  0.762482  0.782188  0.007730  1
  Li  Li17  1  0.273359  0.704757  0.499286  1
  Li  Li18  1  0.745707  0.227101  0.622158  1
  Li  Li19  1  0.269616  0.207225  0.644688  1
  Ge  Ge20  1  0.989891  0.490874  0.171525  1
  Ge  Ge21  1  0.508050  0.994824  0.815766  1
  P  P22  1  0.001021  0.970736  0.496520  1
  P  P23  1  0.499230  0.506333  0.998570  1
  P  P24  1  0.017185  0.481785  0.683283  1
  P  P25  1  0.484107  0.007266  0.319164  1
  O  O26  1  0.996732  0.163132  0.426478  1
  O  O27  1  0.023657  0.793080  0.409168  1
  O  O28  1  0.322477  0.500057  0.912684  1
  O  O29  1  0.682820  0.511622  0.918133  1
  O  O30  1  0.489234  0.698417  0.074486  1
  O  O31  1  0.500574  0.323564  0.079020  1
  O  O32  1  0.177307  0.965178  0.583404  1
  O  O33  1  0.816761  0.959874  0.574261  1
  O  O34  1  0.997231  0.300091  0.058148  1
  O  O35  1  0.000191  0.703010  0.081266  1
  O  O36  1  0.204750  0.475401  0.607076  1
  O  O37  1  0.846438  0.483503  0.594044  1
  O  O38  1  0.473533  0.810339  0.387441  1
  O  O39  1  0.490525  0.170018  0.419055  1
  O  O40  1  0.288702  0.988449  0.896198  1
  O  O41  1  0.684904  0.013547  0.930617  1
  O  O42  1  0.003683  0.664952  0.766005  1
  O  O43  1  0.005813  0.302497  0.768778  1
  O  O44  1  0.795897  0.473108  0.273399  1
  O  O45  1  0.187057  0.476616  0.271635  1
  O  O46  1  0.518220  0.198015  0.714906  1
  O  O47  1  0.504168  0.791271  0.712217  1
  O  O48  1  0.668334  0.011451  0.239724  1
  O  O49  1  0.315128  0.026061  0.230957  1
