# generated using pymatgen
data_CrH20S2(NO7)2
_symmetry_space_group_name_H-M   'P 1'
_cell_length_a   9.54288723
_cell_length_b   12.89838705
_cell_length_c   6.13612198
_cell_angle_alpha   90.00000000
_cell_angle_beta   107.13146759
_cell_angle_gamma   90.00000000
_symmetry_Int_Tables_number   1
_chemical_formula_structural   CrH20S2(NO7)2
_chemical_formula_sum   'Cr2 H40 S4 N4 O28'
_cell_volume   721.77125626
_cell_formula_units_Z   2
loop_
 _symmetry_equiv_pos_site_id
 _symmetry_equiv_pos_as_xyz
  1  'x, y, z'
loop_
 _atom_site_type_symbol
 _atom_site_label
 _atom_site_symmetry_multiplicity
 _atom_site_fract_x
 _atom_site_fract_y
 _atom_site_fract_z
 _atom_site_occupancy
  Cr  Cr0  1  0.500000  0.500000  0.000000  1
  Cr  Cr1  1  0.000000  0.000000  0.000000  1
  H  H2  1  0.543324  0.153776  0.230528  1
  H  H3  1  0.956676  0.653776  0.769472  1
  H  H4  1  0.456676  0.846224  0.769472  1
  H  H5  1  0.043324  0.346224  0.230528  1
  H  H6  1  0.705194  0.193699  0.421323  1
  H  H7  1  0.794806  0.693699  0.578677  1
  H  H8  1  0.294806  0.806301  0.578677  1
  H  H9  1  0.205194  0.306301  0.421323  1
  H  H10  1  0.583621  0.123307  0.512763  1
  H  H11  1  0.916379  0.623307  0.487237  1
  H  H12  1  0.416379  0.876693  0.487237  1
  H  H13  1  0.083621  0.376693  0.512763  1
  H  H14  1  0.677090  0.066856  0.350868  1
  H  H15  1  0.822910  0.566856  0.649132  1
  H  H16  1  0.322910  0.933144  0.649132  1
  H  H17  1  0.177090  0.433144  0.350868  1
  H  H18  1  0.706948  0.406776  0.337300  1
  H  H19  1  0.793052  0.906776  0.662700  1
  H  H20  1  0.293052  0.593224  0.662700  1
  H  H21  1  0.206948  0.093224  0.337300  1
  H  H22  1  0.740424  0.374804  0.102827  1
  H  H23  1  0.759576  0.874804  0.897173  1
  H  H24  1  0.259576  0.625196  0.897173  1
  H  H25  1  0.240424  0.125196  0.102827  1
  H  H26  1  0.214359  0.393000  0.953479  1
  H  H27  1  0.285641  0.893000  0.046521  1
  H  H28  1  0.785641  0.607000  0.046521  1
  H  H29  1  0.714359  0.107000  0.953479  1
  H  H30  1  0.339326  0.309326  0.026752  1
  H  H31  1  0.160674  0.809326  0.973248  1
  H  H32  1  0.660674  0.690674  0.973248  1
  H  H33  1  0.839326  0.190674  0.026752  1
  H  H34  1  0.413123  0.568876  0.341805  1
  H  H35  1  0.086877  0.068876  0.658195  1
  H  H36  1  0.586877  0.431124  0.658195  1
  H  H37  1  0.913123  0.931124  0.341805  1
  H  H38  1  0.542395  0.644991  0.324649  1
  H  H39  1  0.957605  0.144991  0.675351  1
  H  H40  1  0.457605  0.355009  0.675351  1
  H  H41  1  0.042395  0.855009  0.324649  1
  S  S42  1  0.888929  0.356951  0.748407  1
  S  S43  1  0.611071  0.856951  0.251593  1
  S  S44  1  0.111071  0.643049  0.251593  1
  S  S45  1  0.388929  0.143049  0.748407  1
  N  N46  1  0.627049  0.135486  0.377462  1
  N  N47  1  0.872951  0.635486  0.622538  1
  N  N48  1  0.372951  0.864514  0.622538  1
  N  N49  1  0.127049  0.364514  0.377462  1
  O  O50  1  0.877975  0.262860  0.602539  1
  O  O51  1  0.622025  0.762860  0.397461  1
  O  O52  1  0.122025  0.737140  0.397461  1
  O  O53  1  0.377975  0.237140  0.602539  1
  O  O54  1  0.029647  0.411349  0.771420  1
  O  O55  1  0.470353  0.911349  0.228580  1
  O  O56  1  0.970353  0.588651  0.228580  1
  O  O57  1  0.529647  0.088651  0.771420  1
  O  O58  1  0.764462  0.428564  0.632748  1
  O  O59  1  0.735538  0.928564  0.367252  1
  O  O60  1  0.235538  0.571436  0.367252  1
  O  O61  1  0.264462  0.071436  0.632748  1
  O  O62  1  0.877017  0.327418  0.979074  1
  O  O63  1  0.622983  0.827418  0.020926  1
  O  O64  1  0.122983  0.672582  0.020926  1
  O  O65  1  0.377017  0.172582  0.979074  1
  O  O66  1  0.662298  0.394239  0.171659  1
  O  O67  1  0.837702  0.894239  0.828341  1
  O  O68  1  0.337702  0.605761  0.828341  1
  O  O69  1  0.162298  0.105761  0.171659  1
  O  O70  1  0.316117  0.382226  0.050511  1
  O  O71  1  0.183883  0.882226  0.949489  1
  O  O72  1  0.683883  0.617774  0.949489  1
  O  O73  1  0.816117  0.117774  0.050511  1
  O  O74  1  0.507681  0.571916  0.305181  1
  O  O75  1  0.992319  0.071916  0.694819  1
  O  O76  1  0.492319  0.428084  0.694819  1
  O  O77  1  0.007681  0.928084  0.305181  1
