# generated using pymatgen
data_InP2H9(NO4)2
_symmetry_space_group_name_H-M   'P 1'
_cell_length_a   6.77959945
_cell_length_b   10.00100386
_cell_length_c   6.77232454
_cell_angle_alpha   108.96346488
_cell_angle_beta   87.21624383
_cell_angle_gamma   71.43507609
_symmetry_Int_Tables_number   1
_chemical_formula_structural   InP2H9(NO4)2
_chemical_formula_sum   'In2 P4 H18 N4 O16'
_cell_volume   405.70127604
_cell_formula_units_Z   2
loop_
 _symmetry_equiv_pos_site_id
 _symmetry_equiv_pos_as_xyz
  1  'x, y, z'
loop_
 _atom_site_type_symbol
 _atom_site_label
 _atom_site_symmetry_multiplicity
 _atom_site_fract_x
 _atom_site_fract_y
 _atom_site_fract_z
 _atom_site_occupancy
  In  In0  1  0.852809  0.499662  0.852995  1
  In  In1  1  0.103702  0.001711  0.105728  1
  P  P2  1  0.636658  0.908113  0.117054  1
  P  P3  1  0.292599  0.594256  0.958854  1
  P  P4  1  0.960459  0.407827  0.295911  1
  P  P5  1  0.116238  0.094602  0.640272  1
  H  H6  1  0.008675  0.863261  0.626977  1
  H  H7  1  0.850491  0.788742  0.722116  1
  H  H8  1  0.451860  0.817193  0.569657  1
  H  H9  1  0.818884  0.823352  0.487572  1
  H  H10  1  0.390679  0.674787  0.409262  1
  H  H11  1  0.023884  0.681132  0.500882  1
  H  H12  1  0.388161  0.706859  0.678000  1
  H  H13  1  0.620694  0.635442  0.509434  1
  H  H14  1  0.223912  0.504892  0.223144  1
  H  H15  1  0.516376  0.364795  0.618466  1
  H  H16  1  0.681892  0.286235  0.381723  1
  H  H17  1  0.508293  0.318442  0.027363  1
  H  H18  1  0.411789  0.321383  0.391684  1
  H  H19  1  0.478654  0.181492  0.821915  1
  H  H20  1  0.569408  0.182093  0.459102  1
  H  H21  1  0.718583  0.211243  0.840306  1
  H  H22  1  0.630307  0.134536  0.000632  1
  H  H23  1  0.479418  0.996668  0.469827  1
  N  N24  1  0.924564  0.789413  0.584196  1
  N  N25  1  0.462941  0.707570  0.540461  1
  N  N26  1  0.544419  0.288820  0.461812  1
  N  N27  1  0.583776  0.210841  0.921306  1
  O  O28  1  0.420029  0.999771  0.082146  1
  O  O29  1  0.778671  0.001809  0.105946  1
  O  O30  1  0.614653  0.900078  0.346872  1
  O  O31  1  0.229833  0.753168  0.946595  1
  O  O32  1  0.734241  0.748468  0.948866  1
  O  O33  1  0.261329  0.605012  0.196847  1
  O  O34  1  0.167750  0.500858  0.832268  1
  O  O35  1  0.527825  0.501593  0.854750  1
  O  O36  1  0.833503  0.501079  0.171332  1
  O  O37  1  0.850836  0.501312  0.531326  1
  O  O38  1  0.195708  0.399614  0.269390  1
  O  O39  1  0.939973  0.251811  0.731670  1
  O  O40  1  0.946660  0.248765  0.232844  1
  O  O41  1  0.340634  0.106042  0.624152  1
  O  O42  1  0.088135  0.998442  0.420035  1
  O  O43  1  0.099654  0.001782  0.783292  1
