# generated using pymatgen
data_Li2Fe5Si5O16
_symmetry_space_group_name_H-M   'P 1'
_cell_length_a   6.95696569
_cell_length_b   10.41608809
_cell_length_c   5.09569029
_cell_angle_alpha   89.87733633
_cell_angle_beta   90.01176870
_cell_angle_gamma   90.63984312
_symmetry_Int_Tables_number   1
_chemical_formula_structural   Li2Fe5Si5O16
_chemical_formula_sum   'Li2 Fe5 Si5 O16'
_cell_volume   369.23209717
_cell_formula_units_Z   1
loop_
 _symmetry_equiv_pos_site_id
 _symmetry_equiv_pos_as_xyz
  1  'x, y, z'
loop_
 _atom_site_type_symbol
 _atom_site_label
 _atom_site_symmetry_multiplicity
 _atom_site_fract_x
 _atom_site_fract_y
 _atom_site_fract_z
 _atom_site_occupancy
  Li  Li0  1  0.002542  0.162822  0.155928  1
  Li  Li1  1  0.496837  0.355595  0.679200  1
  Fe  Fe2  1  0.020265  0.654497  0.297478  1
  Fe  Fe3  1  0.509962  0.645259  0.307232  1
  Fe  Fe4  1  0.501991  0.836618  0.816754  1
  Fe  Fe5  1  0.997667  0.347794  0.676296  1
  Fe  Fe6  1  0.995862  0.852009  0.804762  1
  Si  Si7  1  0.239179  0.396308  0.164112  1
  Si  Si8  1  0.268431  0.913137  0.321421  1
  Si  Si9  1  0.489684  0.164309  0.203875  1
  Si  Si10  1  0.755677  0.588738  0.807818  1
  Si  Si11  1  0.733563  0.095948  0.709771  1
  O  O12  1  0.044087  0.331959  0.280621  1
  O  O13  1  0.068288  0.854614  0.197624  1
  O  O14  1  0.297364  0.069659  0.241602  1
  O  O15  1  0.254755  0.380917  0.848139  1
  O  O16  1  0.255604  0.893701  0.640975  1
  O  O17  1  0.262332  0.546157  0.268526  1
  O  O18  1  0.430015  0.311274  0.287512  1
  O  O19  1  0.456091  0.836818  0.211077  1
  O  O20  1  0.555776  0.656488  0.702190  1
  O  O21  1  0.557234  0.158922  0.893779  1
  O  O22  1  0.763661  0.618621  0.128140  1
  O  O23  1  0.669905  0.124246  0.396983  1
  O  O24  1  0.746647  0.437999  0.725858  1
  O  O25  1  0.741547  0.941500  0.761482  1
  O  O26  1  0.947911  0.664680  0.687710  1
  O  O27  1  0.937123  0.159414  0.783135  1
