# generated using pymatgen
data_LiMnPO4
_symmetry_space_group_name_H-M   'P 1'
_cell_length_a   19.84523911
_cell_length_b   5.67375841
_cell_length_c   8.41879741
_cell_angle_alpha   90.00000000
_cell_angle_beta   90.00000000
_cell_angle_gamma   90.00000000
_symmetry_Int_Tables_number   1
_chemical_formula_structural   LiMnPO4
_chemical_formula_sum   'Li12 Mn12 P12 O48'
_cell_volume   947.93210902
_cell_formula_units_Z   12
loop_
 _symmetry_equiv_pos_site_id
 _symmetry_equiv_pos_as_xyz
  1  'x, y, z'
loop_
 _atom_site_type_symbol
 _atom_site_label
 _atom_site_symmetry_multiplicity
 _atom_site_fract_x
 _atom_site_fract_y
 _atom_site_fract_z
 _atom_site_occupancy
  Li  Li0  1  0.988957  0.191143  0.725377  1
  Li  Li1  1  0.174581  0.807781  0.242352  1
  Li  Li2  1  0.154115  0.230550  0.758577  1
  Li  Li3  1  0.345885  0.730550  0.258577  1
  Li  Li4  1  0.325419  0.307781  0.742352  1
  Li  Li5  1  0.511043  0.691143  0.225377  1
  Li  Li6  1  0.488957  0.191143  0.774623  1
  Li  Li7  1  0.674581  0.807781  0.257648  1
  Li  Li8  1  0.654115  0.230550  0.741423  1
  Li  Li9  1  0.845885  0.730550  0.241423  1
  Li  Li10  1  0.825419  0.307781  0.757648  1
  Li  Li11  1  0.011043  0.691143  0.274623  1
  Mn  Mn12  1  0.066209  0.254062  0.035564  1
  Mn  Mn13  1  0.101588  0.707868  0.568674  1
  Mn  Mn14  1  0.233013  0.245816  0.439398  1
  Mn  Mn15  1  0.266987  0.745816  0.939398  1
  Mn  Mn16  1  0.398412  0.207868  0.068674  1
  Mn  Mn17  1  0.433791  0.754062  0.535564  1
  Mn  Mn18  1  0.566209  0.254062  0.464436  1
  Mn  Mn19  1  0.601588  0.707868  0.931326  1
  Mn  Mn20  1  0.733013  0.245816  0.060602  1
  Mn  Mn21  1  0.766987  0.745816  0.560602  1
  Mn  Mn22  1  0.898412  0.207868  0.431326  1
  Mn  Mn23  1  0.933791  0.754062  0.964436  1
  P  P24  1  0.070490  0.207963  0.415226  1
  P  P25  1  0.095064  0.761237  0.915795  1
  P  P26  1  0.241752  0.233262  0.066663  1
  P  P27  1  0.258248  0.733262  0.566663  1
  P  P28  1  0.404936  0.261237  0.415795  1
  P  P29  1  0.429510  0.707962  0.915226  1
  P  P30  1  0.570490  0.207963  0.084774  1
  P  P31  1  0.595064  0.761237  0.584205  1
  P  P32  1  0.741752  0.233262  0.433337  1
  P  P33  1  0.758248  0.733262  0.933337  1
  P  P34  1  0.904936  0.261237  0.084205  1
  P  P35  1  0.929510  0.707962  0.584774  1
  O  O36  1  0.001173  0.176149  0.494357  1
  O  O37  1  0.036769  0.829440  0.035323  1
  O  O38  1  0.093555  0.949400  0.779510  1
  O  O39  1  0.080677  0.518885  0.835705  1
  O  O40  1  0.065146  0.374108  0.267627  1
  O  O41  1  0.100277  0.962730  0.367200  1
  O  O42  1  0.120471  0.324668  0.535854  1
  O  O43  1  0.161546  0.761274  0.009462  1
  O  O44  1  0.170173  0.254966  0.001353  1
  O  O45  1  0.213073  0.619051  0.434381  1
  O  O46  1  0.225242  0.973334  0.610142  1
  O  O47  1  0.255781  0.570153  0.717641  1
  O  O48  1  0.244219  0.070153  0.217641  1
  O  O49  1  0.274758  0.473334  0.110142  1
  O  O50  1  0.286927  0.119051  0.934381  1
  O  O51  1  0.329827  0.754966  0.501353  1
  O  O52  1  0.338454  0.261274  0.509462  1
  O  O53  1  0.379529  0.824668  0.035854  1
  O  O54  1  0.399723  0.462730  0.867200  1
  O  O55  1  0.434854  0.874108  0.767627  1
  O  O56  1  0.419323  0.018885  0.335705  1
  O  O57  1  0.406445  0.449400  0.279510  1
  O  O58  1  0.463231  0.329440  0.535323  1
  O  O59  1  0.498827  0.676149  0.994357  1
  O  O60  1  0.501173  0.176149  0.005643  1
  O  O61  1  0.536769  0.829440  0.464677  1
  O  O62  1  0.593555  0.949400  0.720490  1
  O  O63  1  0.580677  0.518885  0.664295  1
  O  O64  1  0.565146  0.374108  0.232373  1
  O  O65  1  0.600277  0.962730  0.132800  1
  O  O66  1  0.620471  0.324668  0.964146  1
  O  O67  1  0.661546  0.761274  0.490538  1
  O  O68  1  0.670173  0.254966  0.498647  1
  O  O69  1  0.713073  0.619051  0.065619  1
  O  O70  1  0.725242  0.973334  0.889858  1
  O  O71  1  0.755781  0.570153  0.782359  1
  O  O72  1  0.744219  0.070153  0.282359  1
  O  O73  1  0.774758  0.473334  0.389858  1
  O  O74  1  0.786927  0.119051  0.565619  1
  O  O75  1  0.829827  0.754966  0.998647  1
  O  O76  1  0.838454  0.261274  0.990538  1
  O  O77  1  0.879529  0.824668  0.464146  1
  O  O78  1  0.899723  0.462730  0.632800  1
  O  O79  1  0.934854  0.874108  0.732373  1
  O  O80  1  0.919323  0.018885  0.164295  1
  O  O81  1  0.906445  0.449400  0.220490  1
  O  O82  1  0.963231  0.329440  0.964677  1
  O  O83  1  0.998827  0.676149  0.505643  1
