# generated using pymatgen
data_W3O8
_symmetry_space_group_name_H-M   'P 1'
_cell_length_a   6.25990442
_cell_length_b   7.35891813
_cell_length_c   7.35891813
_cell_angle_alpha   63.44572386
_cell_angle_beta   113.06917462
_cell_angle_gamma   113.06917462
_symmetry_Int_Tables_number   1
_chemical_formula_structural   W3O8
_chemical_formula_sum   'W6 O16'
_cell_volume   269.14486950
_cell_formula_units_Z   2
loop_
 _symmetry_equiv_pos_site_id
 _symmetry_equiv_pos_as_xyz
  1  'x, y, z'
loop_
 _atom_site_type_symbol
 _atom_site_label
 _atom_site_symmetry_multiplicity
 _atom_site_fract_x
 _atom_site_fract_y
 _atom_site_fract_z
 _atom_site_occupancy
  W  W0  1  0.681089  0.159629  0.159629  1
  W  W1  1  0.681964  0.658701  0.658701  1
  W  W2  1  0.313210  0.342744  0.342744  1
  W  W3  1  0.315488  0.842932  0.842932  1
  W  W4  1  -0.000310  0.999626  0.999626  1
  W  W5  1  0.001201  0.500127  0.500127  1
  O  O6  1  0.965696  0.831789  0.831789  1
  O  O7  1  0.969154  0.333873  0.333873  1
  O  O8  1  0.036419  0.669308  0.669308  1
  O  O9  1  0.037222  0.169829  0.169829  1
  O  O10  1  0.660713  0.481311  0.481311  1
  O  O11  1  0.660872  0.981628  0.981628  1
  O  O12  1  0.331784  0.014453  0.014453  1
  O  O13  1  0.336971  0.518180  0.518180  1
  O  O14  1  0.504716  0.247603  0.247603  1
  O  O15  1  0.501274  0.749420  0.749420  1
  O  O16  1  0.999250  0.750529  0.250290  1
  O  O17  1  0.999250  0.250290  0.750529  1
  O  O18  1  0.311092  0.087791  0.600994  1
  O  O19  1  0.311092  0.600994  0.087791  1
  O  O20  1  0.690928  0.896749  0.412495  1
  O  O21  1  0.690928  0.412495  0.896749  1
