# generated using pymatgen
data_Li3Ti3(PO4)4
_symmetry_space_group_name_H-M   'P 1'
_cell_length_a   7.72580060
_cell_length_b   8.08045146
_cell_length_c   10.25670300
_cell_angle_alpha   90.00000000
_cell_angle_beta   94.83073251
_cell_angle_gamma   90.00000000
_symmetry_Int_Tables_number   1
_chemical_formula_structural   Li3Ti3(PO4)4
_chemical_formula_sum   'Li6 Ti6 P8 O32'
_cell_volume   638.03054099
_cell_formula_units_Z   2
loop_
 _symmetry_equiv_pos_site_id
 _symmetry_equiv_pos_as_xyz
  1  'x, y, z'
loop_
 _atom_site_type_symbol
 _atom_site_label
 _atom_site_symmetry_multiplicity
 _atom_site_fract_x
 _atom_site_fract_y
 _atom_site_fract_z
 _atom_site_occupancy
  Li  Li0  1  0.092434  0.369506  0.293584  1
  Li  Li1  1  0.407566  0.869506  0.956416  1
  Li  Li2  1  0.611412  0.142154  0.546351  1
  Li  Li3  1  0.600125  0.131577  0.047164  1
  Li  Li4  1  0.888588  0.642154  0.703649  1
  Li  Li5  1  0.899875  0.631577  0.202836  1
  Ti  Ti6  1  0.991433  0.995235  0.754628  1
  Ti  Ti7  1  0.987820  0.003099  0.248035  1
  Ti  Ti8  1  0.100911  0.350918  0.800006  1
  Ti  Ti9  1  0.399089  0.850918  0.449994  1
  Ti  Ti10  1  0.508567  0.495235  0.495372  1
  Ti  Ti11  1  0.512180  0.503099  0.001965  1
  P  P12  1  0.203415  0.197520  0.513665  1
  P  P13  1  0.203582  0.187483  0.027079  1
  P  P14  1  0.296585  0.697520  0.736335  1
  P  P15  1  0.296418  0.687483  0.222921  1
  P  P16  1  0.697784  0.303577  0.770124  1
  P  P17  1  0.702866  0.309683  0.267816  1
  P  P18  1  0.797134  0.809683  0.982184  1
  P  P19  1  0.802216  0.803577  0.479876  1
  O  O20  1  0.058623  0.142434  0.912943  1
  O  O21  1  0.058918  0.138902  0.411550  1
  O  O22  1  0.125833  0.196677  0.652260  1
  O  O23  1  0.143279  0.574369  0.725614  1
  O  O24  1  0.116431  0.192728  0.156095  1
  O  O25  1  0.143777  0.573462  0.220248  1
  O  O26  1  0.236186  0.871800  0.772587  1
  O  O27  1  0.252878  0.366764  0.973205  1
  O  O28  1  0.247122  0.866764  0.276795  1
  O  O29  1  0.263814  0.371800  0.477413  1
  O  O30  1  0.356721  0.074369  0.524386  1
  O  O31  1  0.374167  0.696677  0.597740  1
  O  O32  1  0.356223  0.073462  0.029752  1
  O  O33  1  0.441082  0.638902  0.838450  1
  O  O34  1  0.383569  0.692727  0.093905  1
  O  O35  1  0.441377  0.642434  0.337057  1
  O  O36  1  0.562616  0.361463  0.660355  1
  O  O37  1  0.618937  0.309163  0.902972  1
  O  O38  1  0.559681  0.363613  0.157425  1
  O  O39  1  0.646044  0.927442  0.972159  1
  O  O40  1  0.614730  0.307273  0.400467  1
  O  O41  1  0.641245  0.922952  0.473711  1
  O  O42  1  0.740034  0.629205  0.520611  1
  O  O43  1  0.759966  0.129205  0.729389  1
  O  O44  1  0.742790  0.630999  0.020992  1
  O  O45  1  0.757210  0.130999  0.229008  1
  O  O46  1  0.858755  0.422952  0.776289  1
  O  O47  1  0.885270  0.807273  0.849533  1
  O  O48  1  0.853956  0.427442  0.277841  1
  O  O49  1  0.881063  0.809163  0.347028  1
  O  O50  1  0.937384  0.861463  0.589645  1
  O  O51  1  0.940319  0.863613  0.092575  1
