# generated using pymatgen
data_Dy2Ge2O7
_symmetry_space_group_name_H-M   'P 1'
_cell_length_a   7.78841975
_cell_length_b   8.11062463
_cell_length_c   5.37250691
_cell_angle_alpha   90.00000000
_cell_angle_beta   111.81944603
_cell_angle_gamma   90.00000000
_symmetry_Int_Tables_number   1
_chemical_formula_structural   Dy2Ge2O7
_chemical_formula_sum   'Dy4 Ge4 O14'
_cell_volume   315.06265527
_cell_formula_units_Z   2
loop_
 _symmetry_equiv_pos_site_id
 _symmetry_equiv_pos_as_xyz
  1  'x, y, z'
loop_
 _atom_site_type_symbol
 _atom_site_label
 _atom_site_symmetry_multiplicity
 _atom_site_fract_x
 _atom_site_fract_y
 _atom_site_fract_z
 _atom_site_occupancy
  Dy  Dy0  1  0.000000  0.000000  0.000000  1
  Dy  Dy1  1  0.000000  0.500000  0.000000  1
  Dy  Dy2  1  0.500000  0.000000  0.000000  1
  Dy  Dy3  1  0.500000  0.500000  0.000000  1
  Ge  Ge4  1  0.113229  0.250000  0.576107  1
  Ge  Ge5  1  0.324092  0.750000  0.422359  1
  Ge  Ge6  1  0.675908  0.250000  0.577641  1
  Ge  Ge7  1  0.886771  0.750000  0.423893  1
  O  O8  1  0.074228  0.750000  0.306396  1
  O  O9  1  0.207755  0.064869  0.736129  1
  O  O10  1  0.207755  0.435131  0.736129  1
  O  O11  1  0.053039  0.250000  0.228652  1
  O  O12  1  0.329394  0.569908  0.243508  1
  O  O13  1  0.329394  0.930092  0.243508  1
  O  O14  1  0.444397  0.750000  0.770237  1
  O  O15  1  0.555603  0.250000  0.229763  1
  O  O16  1  0.670606  0.069908  0.756492  1
  O  O17  1  0.670606  0.430092  0.756492  1
  O  O18  1  0.946961  0.750000  0.771348  1
  O  O19  1  0.792245  0.564869  0.263871  1
  O  O20  1  0.792245  0.935131  0.263871  1
  O  O21  1  0.925772  0.250000  0.693604  1
