# generated using pymatgen
data_Mn3(OF2)2
_symmetry_space_group_name_H-M   'P 1'
_cell_length_a   4.79504912
_cell_length_b   4.67258037
_cell_length_c   9.71127037
_cell_angle_alpha   90.00000000
_cell_angle_beta   89.01966611
_cell_angle_gamma   90.00000000
_symmetry_Int_Tables_number   1
_chemical_formula_structural   Mn3(OF2)2
_chemical_formula_sum   'Mn6 O4 F8'
_cell_volume   217.55161536
_cell_formula_units_Z   2
loop_
 _symmetry_equiv_pos_site_id
 _symmetry_equiv_pos_as_xyz
  1  'x, y, z'
loop_
 _atom_site_type_symbol
 _atom_site_label
 _atom_site_symmetry_multiplicity
 _atom_site_fract_x
 _atom_site_fract_y
 _atom_site_fract_z
 _atom_site_occupancy
  Mn  Mn0  1  0.965180  0.978380  0.007903  1
  Mn  Mn1  1  0.000000  0.000000  0.333333  1
  Mn  Mn2  1  0.034820  0.021620  0.658763  1
  Mn  Mn3  1  0.500000  0.500000  0.833333  1
  Mn  Mn4  1  0.534820  0.478380  0.158763  1
  Mn  Mn5  1  0.465180  0.521620  0.507903  1
  O  O6  1  0.193016  0.828734  0.498926  1
  O  O7  1  0.306984  0.328734  0.667741  1
  O  O8  1  0.693016  0.671266  0.998926  1
  O  O9  1  0.806984  0.171266  0.167741  1
  F  F10  1  0.218421  0.772384  0.170442  1
  F  F11  1  0.186028  0.804748  0.846092  1
  F  F12  1  0.281579  0.272384  0.996224  1
  F  F13  1  0.313972  0.304748  0.320575  1
  F  F14  1  0.686028  0.695252  0.346092  1
  F  F15  1  0.718421  0.727616  0.670442  1
  F  F16  1  0.781579  0.227616  0.496224  1
  F  F17  1  0.813972  0.195252  0.820575  1
