# generated using pymatgen
data_LiFeP2O7
_symmetry_space_group_name_H-M   'P 1'
_cell_length_a   4.94889604
_cell_length_b   8.06464867
_cell_length_c   14.15012936
_cell_angle_alpha   90.00000000
_cell_angle_beta   80.56139342
_cell_angle_gamma   90.00000000
_symmetry_Int_Tables_number   1
_chemical_formula_structural   LiFeP2O7
_chemical_formula_sum   'Li4 Fe4 P8 O28'
_cell_volume   557.10172563
_cell_formula_units_Z   4
loop_
 _symmetry_equiv_pos_site_id
 _symmetry_equiv_pos_as_xyz
  1  'x, y, z'
loop_
 _atom_site_type_symbol
 _atom_site_label
 _atom_site_symmetry_multiplicity
 _atom_site_fract_x
 _atom_site_fract_y
 _atom_site_fract_z
 _atom_site_occupancy
  Li  Li0  1  0.167951  0.641648  0.879078  1
  Li  Li1  1  0.332049  0.141648  0.620922  1
  Li  Li2  1  0.667951  0.858352  0.379078  1
  Li  Li3  1  0.832049  0.358352  0.120922  1
  Fe  Fe4  1  0.140028  0.736048  0.189019  1
  Fe  Fe5  1  0.359972  0.236048  0.310981  1
  Fe  Fe6  1  0.640028  0.763952  0.689019  1
  Fe  Fe7  1  0.859972  0.263952  0.810981  1
  P  P8  1  0.193244  0.781590  0.544276  1
  P  P9  1  0.334405  0.028765  0.822494  1
  P  P10  1  0.165595  0.528765  0.677506  1
  P  P11  1  0.306756  0.281590  0.955724  1
  P  P12  1  0.693244  0.718410  0.044276  1
  P  P13  1  0.834405  0.471235  0.322494  1
  P  P14  1  0.665595  0.971235  0.177506  1
  P  P15  1  0.806756  0.218410  0.455724  1
  O  O16  1  0.949379  0.949293  0.207700  1
  O  O17  1  0.954606  0.645723  0.735875  1
  O  O18  1  0.117239  0.178566  0.430388  1
  O  O19  1  0.151610  0.367403  0.881516  1
  O  O20  1  0.069280  0.347290  0.686200  1
  O  O21  1  0.185594  0.304682  0.057806  1
  O  O22  1  0.204202  0.579558  0.566930  1
  O  O23  1  0.295798  0.079558  0.933070  1
  O  O24  1  0.314406  0.804682  0.442194  1
  O  O25  1  0.430720  0.847290  0.813800  1
  O  O26  1  0.348390  0.867403  0.618484  1
  O  O27  1  0.382761  0.678566  0.069612  1
  O  O28  1  0.545394  0.145723  0.764125  1
  O  O29  1  0.550621  0.449293  0.292300  1
  O  O30  1  0.449379  0.550707  0.707700  1
  O  O31  1  0.454606  0.854277  0.235875  1
  O  O32  1  0.617239  0.321434  0.930388  1
  O  O33  1  0.651610  0.132597  0.381516  1
  O  O34  1  0.569280  0.152710  0.186200  1
  O  O35  1  0.685594  0.195318  0.557806  1
  O  O36  1  0.704202  0.920442  0.066931  1
  O  O37  1  0.795798  0.420442  0.433070  1
  O  O38  1  0.814406  0.695318  0.942194  1
  O  O39  1  0.930720  0.652710  0.313800  1
  O  O40  1  0.848390  0.632597  0.118484  1
  O  O41  1  0.882761  0.821434  0.569612  1
  O  O42  1  0.045394  0.354277  0.264125  1
  O  O43  1  0.050621  0.050707  0.792300  1
