# generated using pymatgen
data_Ti2N2O
_symmetry_space_group_name_H-M   'P 1'
_cell_length_a   8.21508565
_cell_length_b   8.23101637
_cell_length_c   8.22688115
_cell_angle_alpha   109.51821342
_cell_angle_beta   109.44636581
_cell_angle_gamma   109.49101211
_symmetry_Int_Tables_number   1
_chemical_formula_structural   Ti2N2O
_chemical_formula_sum   'Ti16 N16 O8'
_cell_volume   428.00991265
_cell_formula_units_Z   8
loop_
 _symmetry_equiv_pos_site_id
 _symmetry_equiv_pos_as_xyz
  1  'x, y, z'
loop_
 _atom_site_type_symbol
 _atom_site_label
 _atom_site_symmetry_multiplicity
 _atom_site_fract_x
 _atom_site_fract_y
 _atom_site_fract_z
 _atom_site_occupancy
  Ti  Ti0  1  0.499035  0.997901  0.986757  1
  Ti  Ti1  1  0.751213  0.291053  0.550519  1
  Ti  Ti2  1  0.712074  0.459621  0.241438  1
  Ti  Ti3  1  0.210625  0.961782  0.253158  1
  Ti  Ti4  1  0.246170  0.208072  0.942293  1
  Ti  Ti5  1  0.001257  0.514688  0.998987  1
  Ti  Ti6  1  0.534169  0.742671  0.297856  1
  Ti  Ti7  1  0.956415  0.249108  0.207275  1
  Ti  Ti8  1  0.491749  0.496997  0.511596  1
  Ti  Ti9  1  0.997801  0.996232  0.496742  1
  Ti  Ti10  1  0.042408  0.751655  0.788849  1
  Ti  Ti11  1  0.466738  0.260466  0.712066  1
  Ti  Ti12  1  0.760684  0.797977  0.051014  1
  Ti  Ti13  1  0.787819  0.037022  0.753525  1
  Ti  Ti14  1  0.288677  0.541898  0.747516  1
  Ti  Ti15  1  0.247188  0.699673  0.455401  1
  N  N16  1  0.724572  0.994101  0.952585  1
  N  N17  1  0.511769  0.235947  0.965679  1
  N  N18  1  0.458789  0.225196  0.449681  1
  N  N19  1  0.726033  0.260509  0.773282  1
  N  N20  1  0.773123  0.726169  0.267725  1
  N  N21  1  0.012693  0.052943  0.278773  1
  N  N22  1  0.950321  0.726375  0.989913  1
  N  N23  1  0.958607  0.505276  0.233239  1
  N  N24  1  0.277561  0.736497  0.225386  1
  N  N25  1  0.225229  0.450307  0.462372  1
  N  N26  1  0.550766  0.540784  0.775328  1
  N  N27  1  0.543706  0.773237  0.547544  1
  N  N28  1  0.990256  0.949603  0.724446  1
  N  N29  1  0.225038  0.274765  0.737422  1
  N  N30  1  0.036886  0.489524  0.761503  1
  N  N31  1  0.268846  0.780533  0.727440  1
  O  O32  1  0.274571  0.004510  0.049379  1
  O  O33  1  0.765177  0.042514  0.487582  1
  O  O34  1  0.735298  0.223530  0.277681  1
  O  O35  1  0.492660  0.768676  0.042257  1
  O  O36  1  0.446725  0.459702  0.221595  1
  O  O37  1  0.228944  0.955993  0.505852  1
  O  O38  1  0.773778  0.544477  0.533753  1
  O  O39  1  0.054632  0.272015  0.014590  1
