# generated using pymatgen
data_AsRhO4
_symmetry_space_group_name_H-M   'P 1'
_cell_length_a   5.47604149
_cell_length_b   5.47604149
_cell_length_c   5.47604149
_cell_angle_alpha   72.19972405
_cell_angle_beta   107.80027595
_cell_angle_gamma   67.13257107
_symmetry_Int_Tables_number   1
_chemical_formula_structural   AsRhO4
_chemical_formula_sum   'As2 Rh2 O8'
_cell_volume   126.07386298
_cell_formula_units_Z   2
loop_
 _symmetry_equiv_pos_site_id
 _symmetry_equiv_pos_as_xyz
  1  'x, y, z'
loop_
 _atom_site_type_symbol
 _atom_site_label
 _atom_site_symmetry_multiplicity
 _atom_site_fract_x
 _atom_site_fract_y
 _atom_site_fract_z
 _atom_site_occupancy
  As  As0  1  0.754347  0.745653  0.500000  1
  As  As1  1  0.504347  0.495653  0.000000  1
  Rh  Rh2  1  0.244256  0.255744  0.500000  1
  Rh  Rh3  1  0.994256  0.005744  0.000000  1
  O  O4  1  0.074040  0.734468  0.808508  1
  O  O5  1  0.546366  0.264833  0.811200  1
  O  O6  1  0.515532  0.792976  0.691492  1
  O  O7  1  0.985167  0.326032  0.688800  1
  O  O8  1  0.985167  0.703634  0.311200  1
  O  O9  1  0.515532  0.175960  0.308508  1
  O  O10  1  0.923968  0.264833  0.188800  1
  O  O11  1  0.457024  0.734468  0.191492  1
