# generated using pymatgen
data_Ti3FeCu2(PO4)6
_symmetry_space_group_name_H-M   'P 1'
_cell_length_a   8.61701439
_cell_length_b   8.61701431
_cell_length_c   8.61701377
_cell_angle_alpha   60.08534524
_cell_angle_beta   60.08535143
_cell_angle_gamma   60.08534838
_symmetry_Int_Tables_number   1
_chemical_formula_structural   Ti3FeCu2(PO4)6
_chemical_formula_sum   'Ti3 Fe1 Cu2 P6 O24'
_cell_volume   453.30921032
_cell_formula_units_Z   1
loop_
 _symmetry_equiv_pos_site_id
 _symmetry_equiv_pos_as_xyz
  1  'x, y, z'
loop_
 _atom_site_type_symbol
 _atom_site_label
 _atom_site_symmetry_multiplicity
 _atom_site_fract_x
 _atom_site_fract_y
 _atom_site_fract_z
 _atom_site_occupancy
  Ti  Ti0  1  0.142817  0.142817  0.142817  1
  Ti  Ti1  1  0.356668  0.356668  0.356668  1
  Ti  Ti2  1  0.643545  0.643545  0.643545  1
  Fe  Fe3  1  0.856330  0.856330  0.856330  1
  Cu  Cu4  1  0.998125  0.998125  0.998125  1
  Cu  Cu5  1  0.499680  0.499680  0.499680  1
  P  P6  1  0.249167  0.543122  0.958205  1
  P  P7  1  0.543122  0.958205  0.249167  1
  P  P8  1  0.958205  0.249167  0.543122  1
  P  P9  1  0.042029  0.751215  0.458491  1
  P  P10  1  0.458491  0.042029  0.751215  1
  P  P11  1  0.751215  0.458491  0.042029  1
  O  O12  1  0.120823  0.312203  0.494994  1
  O  O13  1  0.312203  0.494994  0.120823  1
  O  O14  1  0.057340  0.915326  0.264280  1
  O  O15  1  0.494994  0.120823  0.312203  1
  O  O16  1  0.007253  0.807657  0.616712  1
  O  O17  1  0.234006  0.584465  0.437482  1
  O  O18  1  0.264280  0.057340  0.915326  1
  O  O19  1  0.437482  0.234006  0.584465  1
  O  O20  1  0.191326  0.378018  0.001749  1
  O  O21  1  0.584465  0.437482  0.234006  1
  O  O22  1  0.086672  0.734151  0.945833  1
  O  O23  1  0.378018  0.001749  0.191326  1
  O  O24  1  0.616712  0.007253  0.807657  1
  O  O25  1  0.915326  0.264280  0.057340  1
  O  O26  1  0.416500  0.555599  0.766652  1
  O  O27  1  0.807657  0.616712  0.007253  1
  O  O28  1  0.555599  0.766652  0.416500  1
  O  O29  1  0.734151  0.945833  0.086672  1
  O  O30  1  0.766652  0.416500  0.555599  1
  O  O31  1  0.001749  0.191326  0.378018  1
  O  O32  1  0.501809  0.877036  0.692717  1
  O  O33  1  0.945833  0.086672  0.734151  1
  O  O34  1  0.692717  0.501809  0.877036  1
  O  O35  1  0.877036  0.692717  0.501809  1
