# generated using pymatgen
data_Hf2N2O
_symmetry_space_group_name_H-M   'P 1'
_cell_length_a   8.74269105
_cell_length_b   8.73520384
_cell_length_c   8.71122958
_cell_angle_alpha   109.39066093
_cell_angle_beta   109.43408959
_cell_angle_gamma   109.65859159
_symmetry_Int_Tables_number   1
_chemical_formula_structural   Hf2N2O
_chemical_formula_sum   'Hf16 N16 O8'
_cell_volume   511.68143332
_cell_formula_units_Z   8
loop_
 _symmetry_equiv_pos_site_id
 _symmetry_equiv_pos_as_xyz
  1  'x, y, z'
loop_
 _atom_site_type_symbol
 _atom_site_label
 _atom_site_symmetry_multiplicity
 _atom_site_fract_x
 _atom_site_fract_y
 _atom_site_fract_z
 _atom_site_occupancy
  Hf  Hf0  1  0.498636  0.997673  0.987106  1
  Hf  Hf1  1  0.757390  0.293539  0.545520  1
  Hf  Hf2  1  0.720818  0.473897  0.250361  1
  Hf  Hf3  1  0.213645  0.955088  0.250036  1
  Hf  Hf4  1  0.248066  0.212729  0.955499  1
  Hf  Hf5  1  0.965078  0.258332  0.217535  1
  Hf  Hf6  1  0.503203  0.508394  0.512317  1
  Hf  Hf7  1  0.535220  0.749821  0.290152  1
  Hf  Hf8  1  0.008286  0.997607  0.507715  1
  Hf  Hf9  1  0.029253  0.743040  0.776164  1
  Hf  Hf10  1  0.996769  0.507252  0.996583  1
  Hf  Hf11  1  0.465169  0.249745  0.721465  1
  Hf  Hf12  1  0.750806  0.782128  0.032367  1
  Hf  Hf13  1  0.779966  0.030713  0.752706  1
  Hf  Hf14  1  0.282139  0.532000  0.742811  1
  Hf  Hf15  1  0.249782  0.713413  0.463181  1
  N  N16  1  0.729635  0.992620  0.959633  1
  N  N17  1  0.510374  0.238411  0.971507  1
  N  N18  1  0.767590  0.728315  0.259839  1
  N  N19  1  0.725858  0.256544  0.768350  1
  N  N20  1  0.767815  0.538847  0.527376  1
  N  N21  1  0.236096  0.966628  0.508054  1
  N  N22  1  0.962926  0.505600  0.235960  1
  N  N23  1  0.226552  0.448232  0.462903  1
  N  N24  1  0.538101  0.771265  0.542764  1
  N  N25  1  0.546644  0.534764  0.773445  1
  N  N26  1  0.224893  0.272869  0.740873  1
  N  N27  1  0.958508  0.732462  0.992061  1
  N  N28  1  0.275434  0.739279  0.222827  1
  N  N29  1  0.989538  0.958176  0.731023  1
  N  N30  1  0.032306  0.485140  0.758740  1
  N  N31  1  0.265091  0.777038  0.730706  1
  O  O32  1  0.758686  0.034446  0.480664  1
  O  O33  1  0.739814  0.219062  0.276455  1
  O  O34  1  0.280235  0.015536  0.053864  1
  O  O35  1  0.461550  0.225634  0.447998  1
  O  O36  1  0.444900  0.464897  0.223061  1
  O  O37  1  0.052545  0.275989  0.019194  1
  O  O38  1  0.488851  0.765239  0.036169  1
  O  O39  1  0.011831  0.047635  0.275018  1
