# generated using pymatgen
data_La2H22S6N6O23
_symmetry_space_group_name_H-M   'P 1'
_cell_length_a   9.41903067
_cell_length_b   11.37983778
_cell_length_c   14.33836716
_cell_angle_alpha   113.72889350
_cell_angle_beta   70.82494354
_cell_angle_gamma   114.44674747
_symmetry_Int_Tables_number   1
_chemical_formula_structural   La2H22S6N6O23
_chemical_formula_sum   'La4 H44 S12 N12 O46'
_cell_volume   1256.41194998
_cell_formula_units_Z   2
loop_
 _symmetry_equiv_pos_site_id
 _symmetry_equiv_pos_as_xyz
  1  'x, y, z'
loop_
 _atom_site_type_symbol
 _atom_site_label
 _atom_site_symmetry_multiplicity
 _atom_site_fract_x
 _atom_site_fract_y
 _atom_site_fract_z
 _atom_site_occupancy
  La  La0  1  0.195090  0.563796  0.108993  1
  La  La1  1  0.259714  0.063796  0.608993  1
  La  La2  1  0.740286  0.936204  0.391007  1
  La  La3  1  0.804910  0.436204  0.891007  1
  H  H4  1  0.475999  0.218027  0.095836  1
  H  H5  1  0.896564  0.104384  0.236105  1
  H  H6  1  0.521777  0.090099  0.262790  1
  H  H7  1  0.447459  0.369084  0.156137  1
  H  H8  1  0.162752  0.249791  0.193366  1
  H  H9  1  0.106326  0.250209  0.306634  1
  H  H10  1  0.234513  0.130916  0.343863  1
  H  H11  1  0.974736  0.842009  0.024840  1
  H  H12  1  0.694467  0.409901  0.237210  1
  H  H13  1  0.028286  0.395616  0.263895  1
  H  H14  1  0.152347  0.966737  0.021622  1
  H  H15  1  0.470955  0.622292  0.214981  1
  H  H16  1  0.353807  0.281973  0.404164  1
  H  H17  1  0.320947  0.571279  0.295100  1
  H  H18  1  0.963125  0.523813  0.323090  1
  H  H19  1  0.671345  0.547301  0.338843  1
  H  H20  1  0.462887  0.952699  0.161157  1
  H  H21  1  0.762402  0.976187  0.176910  1
  H  H22  1  0.044769  0.928721  0.204900  1
  H  H23  1  0.842433  0.342009  0.524840  1
  H  H24  1  0.063644  0.877708  0.285019  1
  H  H25  1  0.207233  0.533263  0.478378  1
  H  H26  1  0.792767  0.466737  0.521622  1
  H  H27  1  0.936356  0.122292  0.714981  1
  H  H28  1  0.157567  0.657991  0.475160  1
  H  H29  1  0.955231  0.071279  0.795100  1
  H  H30  1  0.237598  0.023813  0.823090  1
  H  H31  1  0.537113  0.047301  0.838843  1
  H  H32  1  0.328655  0.452699  0.661157  1
  H  H33  1  0.036875  0.476187  0.676910  1
  H  H34  1  0.679053  0.428721  0.704900  1
  H  H35  1  0.646193  0.718027  0.595836  1
  H  H36  1  0.529045  0.377708  0.785019  1
  H  H37  1  0.847653  0.033263  0.978378  1
  H  H38  1  0.971714  0.604384  0.736105  1
  H  H39  1  0.305533  0.590099  0.762790  1
  H  H40  1  0.025264  0.157991  0.975160  1
  H  H41  1  0.765487  0.869084  0.656137  1
  H  H42  1  0.893674  0.749791  0.693366  1
  H  H43  1  0.837248  0.750209  0.806634  1
  H  H44  1  0.552541  0.630916  0.843863  1
  H  H45  1  0.478223  0.909901  0.737210  1
  H  H46  1  0.103436  0.895616  0.763895  1
  H  H47  1  0.524001  0.781973  0.904164  1
  S  S48  1  0.360469  0.262225  0.006090  1
  S  S49  1  0.825575  0.238347  0.022745  1
  S  S50  1  0.773814  0.595769  0.189361  1
  S  S51  1  0.609974  0.261653  0.477255  1
  S  S52  1  0.104334  0.237775  0.493910  1
  S  S53  1  0.367405  0.904231  0.310639  1
  S  S54  1  0.632595  0.095769  0.689361  1
  S  S55  1  0.895666  0.762225  0.506090  1
  S  S56  1  0.390026  0.738347  0.522745  1
  S  S57  1  0.226186  0.404231  0.810639  1
  S  S58  1  0.174425  0.761653  0.977255  1
  S  S59  1  0.639531  0.737775  0.993910  1
  N  N60  1  0.430320  0.003784  0.237668  1
  N  N61  1  0.398282  0.269566  0.113911  1
  N  N62  1  0.085058  0.880609  0.043462  1
  N  N63  1  0.242626  0.230434  0.386089  1
  N  N64  1  0.664205  0.496216  0.262332  1
  N  N65  1  0.752088  0.380609  0.543462  1
  N  N66  1  0.247912  0.619391  0.456538  1
  N  N67  1  0.335795  0.503784  0.737668  1
  N  N68  1  0.757374  0.769566  0.613911  1
  N  N69  1  0.914942  0.119391  0.956538  1
  N  N70  1  0.601718  0.730434  0.886089  1
  N  N71  1  0.569680  0.996216  0.762332  1
  O  O72  1  0.236907  0.327498  0.044514  1
  O  O73  1  0.958388  0.367285  0.040349  1
  O  O74  1  0.719732  0.209383  0.116636  1
  O  O75  1  0.808248  0.018967  0.239920  1
  O  O76  1  0.730929  0.513646  0.087386  1
  O  O77  1  0.068487  0.250000  0.250000  1
  O  O78  1  0.497009  0.666523  0.056879  1
  O  O79  1  0.262446  0.769511  0.049487  1
  O  O80  1  0.699857  0.883997  0.047576  1
  O  O81  1  0.945041  0.636375  0.186422  1
  O  O82  1  0.363922  0.555453  0.219756  1
  O  O83  1  0.029201  0.481033  0.260080  1
  O  O84  1  0.626984  0.290617  0.383364  1
  O  O85  1  0.631451  0.132715  0.459651  1
  O  O86  1  0.953922  0.172502  0.455486  1
  O  O87  1  0.718499  0.714475  0.237366  1
  O  O88  1  0.695331  0.013646  0.587386  1
  O  O89  1  0.241390  0.785525  0.262634  1
  O  O90  1  0.112636  0.166523  0.556879  1
  O  O91  1  0.457578  0.269511  0.549487  1
  O  O92  1  0.028226  0.944547  0.280244  1
  O  O93  1  0.495088  0.863625  0.313578  1
  O  O94  1  0.136564  0.383997  0.547576  1
  O  O95  1  0.863436  0.616003  0.452424  1
  O  O96  1  0.504912  0.136375  0.686422  1
  O  O97  1  0.971774  0.055453  0.719756  1
  O  O98  1  0.542422  0.730489  0.450513  1
  O  O99  1  0.887364  0.833477  0.443121  1
  O  O100  1  0.758610  0.214475  0.737366  1
  O  O101  1  0.304669  0.986354  0.412614  1
  O  O102  1  0.281501  0.285525  0.762634  1
  O  O103  1  0.046078  0.827498  0.544514  1
  O  O104  1  0.368549  0.867285  0.540349  1
  O  O105  1  0.373016  0.709383  0.616636  1
  O  O106  1  0.970799  0.518967  0.739920  1
  O  O107  1  0.636078  0.444547  0.780244  1
  O  O108  1  0.054959  0.363625  0.813578  1
  O  O109  1  0.300143  0.116003  0.952424  1
  O  O110  1  0.737554  0.230489  0.950513  1
  O  O111  1  0.502991  0.333477  0.943121  1
  O  O112  1  0.931513  0.750000  0.750000  1
  O  O113  1  0.269071  0.486354  0.912614  1
  O  O114  1  0.191752  0.981033  0.760080  1
  O  O115  1  0.280268  0.790617  0.883364  1
  O  O116  1  0.041612  0.632715  0.959651  1
  O  O117  1  0.763093  0.672502  0.955486  1
