# generated using pymatgen
data_Li5Fe8(BO3)8
_symmetry_space_group_name_H-M   'P 1'
_cell_length_a   5.27166694
_cell_length_b   9.04378772
_cell_length_c   11.42009202
_cell_angle_alpha   113.07253879
_cell_angle_beta   77.73202762
_cell_angle_gamma   90.17671846
_symmetry_Int_Tables_number   1
_chemical_formula_structural   Li5Fe8(BO3)8
_chemical_formula_sum   'Li5 Fe8 B8 O24'
_cell_volume   487.52104298
_cell_formula_units_Z   1
loop_
 _symmetry_equiv_pos_site_id
 _symmetry_equiv_pos_as_xyz
  1  'x, y, z'
loop_
 _atom_site_type_symbol
 _atom_site_label
 _atom_site_symmetry_multiplicity
 _atom_site_fract_x
 _atom_site_fract_y
 _atom_site_fract_z
 _atom_site_occupancy
  Li  Li0  1  0.167855  0.151987  0.337420  1
  Li  Li1  1  0.354452  0.298129  0.600050  1
  Li  Li2  1  0.606954  0.054158  0.094806  1
  Li  Li3  1  0.920214  0.430752  0.840928  1
  Li  Li4  1  0.427241  0.926028  0.836538  1
  Fe  Fe5  1  0.404404  0.272642  0.870471  1
  Fe  Fe6  1  0.088084  0.231743  0.121917  1
  Fe  Fe7  1  0.842818  0.133163  0.611467  1
  Fe  Fe8  1  0.655632  0.364990  0.377097  1
  Fe  Fe9  1  0.353518  0.654327  0.618881  1
  Fe  Fe10  1  0.145781  0.830049  0.365701  1
  Fe  Fe11  1  0.909895  0.773800  0.866119  1
  Fe  Fe12  1  0.602840  0.726810  0.126853  1
  B  B13  1  0.648895  0.022909  0.363972  1
  B  B14  1  0.887163  0.110809  0.875967  1
  B  B15  1  0.143449  0.505962  0.371849  1
  B  B16  1  0.408106  0.604868  0.874467  1
  B  B17  1  0.858054  0.475086  0.625355  1
  B  B18  1  0.599540  0.393238  0.119884  1
  B  B19  1  0.340996  0.987166  0.626835  1
  B  B20  1  0.110560  0.892337  0.120037  1
  O  O21  1  0.132950  0.130753  0.904668  1
  O  O22  1  0.440247  0.144148  0.672923  1
  O  O23  1  0.228079  0.033643  0.132479  1
  O  O24  1  0.510238  0.165634  0.380413  1
  O  O25  1  0.886459  0.032974  0.397806  1
  O  O26  1  0.785967  0.219180  0.834814  1
  O  O27  1  0.284687  0.463924  0.856915  1
  O  O28  1  0.035971  0.352636  0.336551  1
  O  O29  1  0.687677  0.289541  0.172403  1
  O  O30  1  0.630551  0.453421  0.575685  1
  O  O31  1  0.977780  0.346281  0.635854  1
  O  O32  1  0.392042  0.345060  0.059863  1
  O  O33  1  0.641558  0.621862  0.917081  1
  O  O34  1  0.372103  0.515455  0.416319  1
  O  O35  1  0.307933  0.722336  0.843401  1
  O  O36  1  0.959932  0.621533  0.666739  1
  O  O37  1  0.719199  0.526202  0.122509  1
  O  O38  1  0.231010  0.775225  0.143484  1
  O  O39  1  0.144318  0.968402  0.563394  1
  O  O40  1  0.452350  0.872904  0.654516  1
  O  O41  1  0.021767  0.627324  0.361547  1
  O  O42  1  0.743630  0.991363  0.895781  1
  O  O43  1  0.540198  0.877778  0.316073  1
  O  O44  1  0.867449  0.871639  0.086209  1
