# generated using pymatgen
data_Li3V3P8O29
_symmetry_space_group_name_H-M   'P 1'
_cell_length_a   9.78635548
_cell_length_b   9.73544809
_cell_length_c   14.23634146
_cell_angle_alpha   90.13467372
_cell_angle_beta   90.64948283
_cell_angle_gamma   60.08134238
_symmetry_Int_Tables_number   1
_chemical_formula_structural   Li3V3P8O29
_chemical_formula_sum   'Li6 V6 P16 O58'
_cell_volume   1175.52073348
_cell_formula_units_Z   2
loop_
 _symmetry_equiv_pos_site_id
 _symmetry_equiv_pos_as_xyz
  1  'x, y, z'
loop_
 _atom_site_type_symbol
 _atom_site_label
 _atom_site_symmetry_multiplicity
 _atom_site_fract_x
 _atom_site_fract_y
 _atom_site_fract_z
 _atom_site_occupancy
  Li  Li0  1  0.776951  0.301073  0.054989  1
  Li  Li1  1  0.316073  0.906873  0.057505  1
  Li  Li2  1  0.671643  0.234346  0.446463  1
  Li  Li3  1  0.330524  0.766774  0.560707  1
  Li  Li4  1  0.088921  0.229754  0.937588  1
  Li  Li5  1  0.002319  0.005152  0.507423  1
  V  V6  1  0.563385  0.435249  0.248149  1
  V  V7  1  0.431046  0.565422  0.755074  1
  V  V8  1  0.571507  0.994662  0.750609  1
  V  V9  1  0.436940  0.006447  0.253552  1
  V  V10  1  0.999775  0.565867  0.254383  1
  V  V11  1  0.994988  0.443891  0.739662  1
  P  P12  1  0.919044  0.771259  0.843540  1
  P  P13  1  0.779638  0.918482  0.338464  1
  P  P14  1  0.916378  0.302577  0.341730  1
  P  P15  1  0.666273  0.665934  0.132836  1
  P  P16  1  0.657136  0.670240  0.631061  1
  P  P17  1  0.774445  0.320183  0.839142  1
  P  P18  1  0.684557  0.226536  0.660437  1
  P  P19  1  0.318786  0.913405  0.843386  1
  P  P20  1  0.685812  0.084535  0.152519  1
  P  P21  1  0.316426  0.774177  0.341769  1
  P  P22  1  0.221852  0.686894  0.162548  1
  P  P23  1  0.336346  0.335550  0.368555  1
  P  P24  1  0.331249  0.327837  0.867196  1
  P  P25  1  0.083178  0.701923  0.658167  1
  P  P26  1  0.223063  0.084482  0.661437  1
  P  P27  1  0.086441  0.230501  0.158692  1
  O  O28  1  0.010001  0.800229  0.573406  1
  O  O29  1  0.913258  0.743380  0.334574  1
  O  O30  1  0.756311  0.006978  0.063924  1
  O  O31  1  0.745692  0.910993  0.831167  1
  O  O32  1  0.912598  0.617358  0.816727  1
  O  O33  1  0.814995  0.657507  0.182263  1
  O  O34  1  0.924558  0.458090  0.332116  1
  O  O35  1  0.001806  0.242284  0.067781  1
  O  O36  1  0.919754  0.343192  0.833980  1
  O  O37  1  0.666583  0.811787  0.677101  1
  O  O38  1  0.618577  0.920149  0.328501  1
  O  O39  1  0.807791  0.517440  0.673450  1
  O  O40  1  0.670632  0.650916  0.029186  1
  O  O41  1  0.651816  0.672465  0.526937  1
  O  O42  1  0.664301  0.515261  0.176463  1
  O  O43  1  0.478589  0.902871  0.825106  1
  O  O44  1  0.518727  0.817265  0.170982  1
  O  O45  1  0.739684  0.343709  0.334747  1
  O  O46  1  0.794082  0.209064  0.750339  1
  O  O47  1  0.766844  0.215673  0.570904  1
  O  O48  1  0.764595  0.249806  0.929150  1
  O  O49  1  0.620652  0.481546  0.819278  1
  O  O50  1  0.505818  0.674821  0.671747  1
  O  O51  1  0.658374  0.257827  0.161824  1
  O  O52  1  0.472677  0.616583  0.324349  1
  O  O53  1  0.349520  0.912572  0.325729  1
  O  O54  1  0.797281  0.996093  0.243279  1
  O  O55  1  0.788946  0.007918  0.420589  1
  O  O56  1  0.200211  0.995527  0.583085  1
  O  O57  1  0.652770  0.086593  0.670264  1
  O  O58  1  0.528612  0.384638  0.674650  1
  O  O59  1  0.342280  0.743953  0.835568  1
  O  O60  1  0.490220  0.326562  0.326355  1
  O  O61  1  0.377907  0.524286  0.179457  1
  O  O62  1  0.234566  0.770551  0.079745  1
  O  O63  1  0.244709  0.783751  0.434408  1
  O  O64  1  0.200027  0.789488  0.257506  1
  O  O65  1  0.260490  0.657111  0.665980  1
  O  O66  1  0.473849  0.180571  0.820164  1
  O  O67  1  0.525844  0.092937  0.178130  1
  O  O68  1  0.339589  0.474869  0.823141  1
  O  O69  1  0.336754  0.324023  0.971099  1
  O  O70  1  0.349395  0.327135  0.472339  1
  O  O71  1  0.189360  0.484650  0.326186  1
  O  O72  1  0.384751  0.074137  0.668614  1
  O  O73  1  0.330933  0.188758  0.322801  1
  O  O74  1  0.082070  0.656116  0.167581  1
  O  O75  1  0.006216  0.795524  0.753452  1
  O  O76  1  0.999840  0.761076  0.932494  1
  O  O77  1  0.078307  0.542853  0.666434  1
  O  O78  1  0.179591  0.335379  0.824731  1
  O  O79  1  0.094241  0.382261  0.180109  1
  O  O80  1  0.255262  0.084758  0.161023  1
  O  O81  1  0.245571  0.996891  0.933365  1
  O  O82  1  0.200296  0.012560  0.759565  1
  O  O83  1  0.089678  0.260847  0.665017  1
  O  O84  1  0.993662  0.198763  0.423848  1
  O  O85  1  0.991901  0.208970  0.243593  1
