# generated using pymatgen
data_Sr7Bi23O40
_symmetry_space_group_name_H-M   'P 1'
_cell_length_a   6.92548462
_cell_length_b   14.09425408
_cell_length_c   14.09425388
_cell_angle_alpha   90.88669646
_cell_angle_beta   94.74612294
_cell_angle_gamma   94.74612269
_symmetry_Int_Tables_number   1
_chemical_formula_structural   Sr7Bi23O40
_chemical_formula_sum   'Sr7 Bi23 O40'
_cell_volume   1365.97018816
_cell_formula_units_Z   1
loop_
 _symmetry_equiv_pos_site_id
 _symmetry_equiv_pos_as_xyz
  1  'x, y, z'
loop_
 _atom_site_type_symbol
 _atom_site_label
 _atom_site_symmetry_multiplicity
 _atom_site_fract_x
 _atom_site_fract_y
 _atom_site_fract_z
 _atom_site_occupancy
  Sr  Sr0  1  0.000000  0.801721  0.198279  1
  Sr  Sr1  1  0.000000  0.398279  0.601721  1
  Sr  Sr2  1  0.500000  0.699505  0.300495  1
  Sr  Sr3  1  0.000000  0.001136  0.998864  1
  Sr  Sr4  1  0.000000  0.198864  0.801136  1
  Sr  Sr5  1  0.500000  0.500495  0.499505  1
  Sr  Sr6  1  0.500000  0.100000  0.900000  1
  Bi  Bi7  1  0.000000  0.600000  0.400000  1
  Bi  Bi8  1  0.380316  0.955023  0.365486  1
  Bi  Bi9  1  0.126552  0.940983  0.740983  1
  Bi  Bi10  1  0.500000  0.900136  0.099864  1
  Bi  Bi11  1  0.106237  0.540946  0.138395  1
  Bi  Bi12  1  0.118735  0.743141  0.934272  1
  Bi  Bi13  1  0.619684  0.634514  0.044977  1
  Bi  Bi14  1  0.379299  0.762724  0.562724  1
  Bi  Bi15  1  0.106237  0.338395  0.340946  1
  Bi  Bi16  1  0.380316  0.565486  0.755023  1
  Bi  Bi17  1  0.118735  0.134272  0.543141  1
  Bi  Bi18  1  0.398673  0.159928  0.164246  1
  Bi  Bi19  1  0.893763  0.861605  0.459054  1
  Bi  Bi20  1  0.601327  0.835754  0.840072  1
  Bi  Bi21  1  0.620701  0.437276  0.237276  1
  Bi  Bi22  1  0.893763  0.659054  0.661605  1
  Bi  Bi23  1  0.873448  0.259017  0.059017  1
  Bi  Bi24  1  0.500000  0.299864  0.700136  1
  Bi  Bi25  1  0.619684  0.244977  0.434514  1
  Bi  Bi26  1  0.398673  0.364246  0.959928  1
  Bi  Bi27  1  0.881265  0.456859  0.865728  1
  Bi  Bi28  1  0.601327  0.040072  0.635754  1
  Bi  Bi29  1  0.881265  0.065728  0.256859  1
  O  O30  1  0.040697  0.959633  0.342413  1
  O  O31  1  0.171259  0.849594  0.039623  1
  O  O32  1  0.133555  0.641346  0.250153  1
  O  O33  1  0.034947  0.762962  0.562962  1
  O  O34  1  0.356261  0.855301  0.253619  1
  O  O35  1  0.567542  0.848549  0.460314  1
  O  O36  1  0.432458  0.539686  0.151451  1
  O  O37  1  0.040697  0.542413  0.759633  1
  O  O38  1  0.489453  0.954271  0.754271  1
  O  O39  1  0.328531  0.656532  0.456532  1
  O  O40  1  0.133555  0.450153  0.441346  1
  O  O41  1  0.074132  0.162719  0.150425  1
  O  O42  1  0.828741  0.960377  0.150406  1
  O  O43  1  0.643739  0.746381  0.144699  1
  O  O44  1  0.356261  0.453619  0.655301  1
  O  O45  1  0.866445  0.749847  0.358655  1
  O  O46  1  0.074132  0.350425  0.962719  1
  O  O47  1  0.370912  0.044290  0.067386  1
  O  O48  1  0.671469  0.543468  0.343468  1
  O  O49  1  0.510547  0.245729  0.045729  1
  O  O50  1  0.171259  0.239623  0.649594  1
  O  O51  1  0.629088  0.932614  0.955710  1
  O  O52  1  0.432458  0.351451  0.339686  1
  O  O53  1  0.567542  0.660314  0.648549  1
  O  O54  1  0.959303  0.657587  0.040367  1
  O  O55  1  0.444913  0.718225  0.943882  1
  O  O56  1  0.370912  0.267386  0.844290  1
  O  O57  1  0.444913  0.143882  0.518225  1
  O  O58  1  0.555087  0.481775  0.856118  1
  O  O59  1  0.965053  0.437038  0.237038  1
  O  O60  1  0.643739  0.344699  0.546381  1
  O  O61  1  0.555087  0.056118  0.281775  1
  O  O62  1  0.866445  0.558655  0.549847  1
  O  O63  1  0.154038  0.046364  0.846364  1
  O  O64  1  0.925868  0.849575  0.837281  1
  O  O65  1  0.828741  0.350406  0.760377  1
  O  O66  1  0.629088  0.155710  0.732614  1
  O  O67  1  0.959303  0.240367  0.457587  1
  O  O68  1  0.925868  0.037281  0.649575  1
  O  O69  1  0.845962  0.153636  0.953636  1
