# generated using pymatgen
data_V2Bi4O11
_symmetry_space_group_name_H-M   'P 1'
_cell_length_a   11.10758430
_cell_length_b   8.11459002
_cell_length_c   5.68201273
_cell_angle_alpha   69.50590577
_cell_angle_beta   90.00000000
_cell_angle_gamma   90.08525323
_symmetry_Int_Tables_number   1
_chemical_formula_structural   V2Bi4O11
_chemical_formula_sum   'V4 Bi8 O22'
_cell_volume   479.72484891
_cell_formula_units_Z   2
loop_
 _symmetry_equiv_pos_site_id
 _symmetry_equiv_pos_as_xyz
  1  'x, y, z'
loop_
 _atom_site_type_symbol
 _atom_site_label
 _atom_site_symmetry_multiplicity
 _atom_site_fract_x
 _atom_site_fract_y
 _atom_site_fract_z
 _atom_site_occupancy
  V  V0  1  1.000000  1.000000  0.009348  1
  V  V1  1  0.246709  0.011833  0.553926  1
  V  V2  1  0.500000  1.000000  0.001673  1
  V  V3  1  0.753291  0.988167  0.565759  1
  Bi  Bi4  1  0.991176  0.329545  0.330871  1
  Bi  Bi5  1  0.251565  0.319969  0.903737  1
  Bi  Bi6  1  0.249747  0.640279  0.241933  1
  Bi  Bi7  1  0.492043  0.669943  0.666858  1
  Bi  Bi8  1  0.507957  0.330057  0.336801  1
  Bi  Bi9  1  0.750253  0.359721  0.882212  1
  Bi  Bi10  1  0.748435  0.680031  0.223706  1
  Bi  Bi11  1  0.008824  0.670455  0.660416  1
  O  O12  1  0.043934  0.792206  0.225083  1
  O  O13  1  0.128687  0.481959  0.061737  1
  O  O14  1  0.127069  0.049700  0.807894  1
  O  O15  1  0.129766  0.089728  0.340016  1
  O  O16  1  0.128475  0.471677  0.561114  1
  O  O17  1  0.251459  0.788895  0.620867  1
  O  O18  1  0.374593  0.485783  0.056858  1
  O  O19  1  0.359227  0.105987  0.335925  1
  O  O20  1  0.371977  0.051188  0.804583  1
  O  O21  1  0.372192  0.471628  0.560187  1
  O  O22  1  0.544449  0.200388  0.029114  1
  O  O23  1  0.455551  0.799612  0.229502  1
  O  O24  1  0.627808  0.528372  0.031815  1
  O  O25  1  0.628023  0.948812  0.855771  1
  O  O26  1  0.640773  0.894013  0.441911  1
  O  O27  1  0.625407  0.514217  0.542641  1
  O  O28  1  0.748541  0.211105  0.409762  1
  O  O29  1  0.871525  0.528323  0.032791  1
  O  O30  1  0.870234  0.910272  0.429744  1
  O  O31  1  0.872931  0.950300  0.857595  1
  O  O32  1  0.871313  0.518041  0.543696  1
  O  O33  1  0.956066  0.207794  0.017289  1
