# generated using pymatgen
data_Li3Nb2Fe3O10
_symmetry_space_group_name_H-M   'P 1'
_cell_length_a   5.35971509
_cell_length_b   5.26056741
_cell_length_c   8.23275907
_cell_angle_alpha   78.42719542
_cell_angle_beta   69.94170972
_cell_angle_gamma   101.73601864
_symmetry_Int_Tables_number   1
_chemical_formula_structural   Li3Nb2Fe3O10
_chemical_formula_sum   'Li3 Nb2 Fe3 O10'
_cell_volume   204.05238527
_cell_formula_units_Z   1
loop_
 _symmetry_equiv_pos_site_id
 _symmetry_equiv_pos_as_xyz
  1  'x, y, z'
loop_
 _atom_site_type_symbol
 _atom_site_label
 _atom_site_symmetry_multiplicity
 _atom_site_fract_x
 _atom_site_fract_y
 _atom_site_fract_z
 _atom_site_occupancy
  Li  Li0  1  0.098567  0.541116  0.583201  1
  Li  Li1  1  0.364334  0.432677  0.236817  1
  Li  Li2  1  0.603727  0.544964  0.783455  1
  Nb  Nb3  1  0.633760  0.952878  0.311761  1
  Nb  Nb4  1  0.396965  0.054578  0.688705  1
  Fe  Fe5  1  0.998362  0.499638  0.999615  1
  Fe  Fe6  1  0.218230  0.976843  0.118201  1
  Fe  Fe7  1  0.787837  0.996694  0.895589  1
  O  O8  1  0.279366  0.748895  0.324361  1
  O  O9  1  0.014260  0.745837  0.773463  1
  O  O10  1  0.427931  0.208628  0.450092  1
  O  O11  1  0.616788  0.234624  0.078291  1
  O  O12  1  0.196106  0.253214  0.841922  1
  O  O13  1  0.819292  0.758932  0.139118  1
  O  O14  1  0.384550  0.763147  0.926226  1
  O  O15  1  0.582472  0.786612  0.552615  1
  O  O16  1  0.006365  0.244154  0.212016  1
  O  O17  1  0.743346  0.245984  0.686310  1
