# generated using pymatgen
data_CsMnH24(SO10)2
_symmetry_space_group_name_H-M   'P 1'
_cell_length_a   12.42967679
_cell_length_b   12.53830659
_cell_length_c   12.37209162
_cell_angle_alpha   90.00000000
_cell_angle_beta   90.00000000
_cell_angle_gamma   90.00000000
_symmetry_Int_Tables_number   1
_chemical_formula_structural   CsMnH24(SO10)2
_chemical_formula_sum   'Cs4 Mn4 H96 S8 O80'
_cell_volume   1928.15458021
_cell_formula_units_Z   4
loop_
 _symmetry_equiv_pos_site_id
 _symmetry_equiv_pos_as_xyz
  1  'x, y, z'
loop_
 _atom_site_type_symbol
 _atom_site_label
 _atom_site_symmetry_multiplicity
 _atom_site_fract_x
 _atom_site_fract_y
 _atom_site_fract_z
 _atom_site_occupancy
  Cs  Cs0  1  0.000000  0.500000  0.000000  1
  Cs  Cs1  1  0.500000  0.000000  0.000000  1
  Cs  Cs2  1  0.000000  0.000000  0.500000  1
  Cs  Cs3  1  0.500000  0.500000  0.500000  1
  Mn  Mn4  1  0.500000  0.000000  0.500000  1
  Mn  Mn5  1  0.000000  0.500000  0.500000  1
  Mn  Mn6  1  0.500000  0.500000  0.000000  1
  Mn  Mn7  1  0.000000  0.000000  0.000000  1
  H  H8  1  0.514896  0.227381  0.229341  1
  H  H9  1  0.014896  0.272619  0.770659  1
  H  H10  1  0.485104  0.727381  0.270659  1
  H  H11  1  0.985104  0.772619  0.729341  1
  H  H12  1  0.485104  0.772619  0.770659  1
  H  H13  1  0.985104  0.727381  0.229341  1
  H  H14  1  0.514896  0.272619  0.729341  1
  H  H15  1  0.014896  0.227381  0.270659  1
  H  H16  1  0.633401  0.214687  0.191695  1
  H  H17  1  0.133401  0.285313  0.808305  1
  H  H18  1  0.366599  0.714687  0.308305  1
  H  H19  1  0.866599  0.785313  0.691695  1
  H  H20  1  0.366599  0.785313  0.808305  1
  H  H21  1  0.866599  0.714687  0.191695  1
  H  H22  1  0.633401  0.285313  0.691695  1
  H  H23  1  0.133401  0.214687  0.308305  1
  H  H24  1  0.785077  0.011762  0.269081  1
  H  H25  1  0.285077  0.488238  0.730919  1
  H  H26  1  0.214923  0.511762  0.230919  1
  H  H27  1  0.714923  0.988238  0.769081  1
  H  H28  1  0.214923  0.988238  0.730919  1
  H  H29  1  0.714923  0.511762  0.269081  1
  H  H30  1  0.785077  0.488238  0.769081  1
  H  H31  1  0.285077  0.011762  0.230919  1
  H  H32  1  0.825928  0.129468  0.279289  1
  H  H33  1  0.325928  0.370532  0.720711  1
  H  H34  1  0.174072  0.629468  0.220711  1
  H  H35  1  0.674072  0.870532  0.779289  1
  H  H36  1  0.174072  0.870532  0.720711  1
  H  H37  1  0.674072  0.629468  0.279289  1
  H  H38  1  0.825928  0.370532  0.779289  1
  H  H39  1  0.325928  0.129468  0.220711  1
  H  H40  1  0.732322  0.279785  0.499488  1
  H  H41  1  0.232322  0.220215  0.500512  1
  H  H42  1  0.267678  0.779785  0.000512  1
  H  H43  1  0.767678  0.720215  0.999488  1
  H  H44  1  0.267678  0.720215  0.500512  1
  H  H45  1  0.767678  0.779785  0.499488  1
  H  H46  1  0.732322  0.220215  0.999488  1
  H  H47  1  0.232322  0.279785  0.000512  1
  H  H48  1  0.729215  0.318930  0.379860  1
  H  H49  1  0.229215  0.181070  0.620140  1
  H  H50  1  0.270785  0.818930  0.120140  1
  H  H51  1  0.770785  0.681070  0.879860  1
  H  H52  1  0.270785  0.681070  0.620140  1
  H  H53  1  0.770785  0.818930  0.379860  1
  H  H54  1  0.729215  0.181070  0.879860  1
  H  H55  1  0.229215  0.318930  0.120140  1
  H  H56  1  0.704232  0.933262  0.483559  1
  H  H57  1  0.204232  0.566738  0.516441  1
  H  H58  1  0.295768  0.433262  0.016441  1
  H  H59  1  0.795768  0.066738  0.983559  1
  H  H60  1  0.295768  0.066738  0.516441  1
  H  H61  1  0.795768  0.433262  0.483559  1
  H  H62  1  0.704232  0.566738  0.983559  1
  H  H63  1  0.204232  0.933262  0.016441  1
  H  H64  1  0.699680  0.060269  0.530020  1
  H  H65  1  0.199680  0.439731  0.469980  1
  H  H66  1  0.300320  0.560269  0.969980  1
  H  H67  1  0.800320  0.939731  0.030020  1
  H  H68  1  0.300320  0.939731  0.469980  1
  H  H69  1  0.800320  0.560269  0.530020  1
  H  H70  1  0.699680  0.439731  0.030020  1
  H  H71  1  0.199680  0.060269  0.969980  1
  H  H72  1  0.524179  0.217668  0.567820  1
  H  H73  1  0.024179  0.282332  0.432180  1
  H  H74  1  0.475821  0.717668  0.932180  1
  H  H75  1  0.975821  0.782332  0.067820  1
  H  H76  1  0.475821  0.782332  0.432180  1
  H  H77  1  0.975821  0.717668  0.567820  1
  H  H78  1  0.524179  0.282332  0.067820  1
  H  H79  1  0.024179  0.217668  0.932180  1
  H  H80  1  0.478488  0.216047  0.444754  1
  H  H81  1  0.978488  0.283953  0.555246  1
  H  H82  1  0.521512  0.716047  0.055246  1
  H  H83  1  0.021512  0.783953  0.944754  1
  H  H84  1  0.521512  0.783953  0.555246  1
  H  H85  1  0.021512  0.716047  0.444754  1
  H  H86  1  0.478488  0.283953  0.944754  1
  H  H87  1  0.978488  0.216047  0.055246  1
  H  H88  1  0.439783  0.025873  0.293799  1
  H  H89  1  0.939783  0.474127  0.706201  1
  H  H90  1  0.560217  0.525873  0.206201  1
  H  H91  1  0.060217  0.974127  0.793799  1
  H  H92  1  0.560217  0.974127  0.706201  1
  H  H93  1  0.060217  0.525873  0.293799  1
  H  H94  1  0.439783  0.474127  0.793799  1
  H  H95  1  0.939783  0.025873  0.206201  1
  H  H96  1  0.567367  0.980736  0.300411  1
  H  H97  1  0.067367  0.519264  0.699589  1
  H  H98  1  0.432633  0.480736  0.199589  1
  H  H99  1  0.932633  0.019264  0.800411  1
  H  H100  1  0.432633  0.019264  0.699589  1
  H  H101  1  0.932633  0.480736  0.300411  1
  H  H102  1  0.567367  0.519264  0.800411  1
  H  H103  1  0.067367  0.980736  0.199589  1
  S  S104  1  0.827598  0.333324  0.177665  1
  S  S105  1  0.327598  0.166676  0.822335  1
  S  S106  1  0.172402  0.833324  0.322335  1
  S  S107  1  0.672402  0.666676  0.677665  1
  S  S108  1  0.172402  0.666676  0.822335  1
  S  S109  1  0.672402  0.833324  0.177665  1
  S  S110  1  0.827598  0.166676  0.677665  1
  S  S111  1  0.327598  0.333324  0.322335  1
  O  O112  1  0.765471  0.259301  0.249926  1
  O  O113  1  0.265471  0.240699  0.750074  1
  O  O114  1  0.234529  0.759301  0.250074  1
  O  O115  1  0.734529  0.740699  0.749926  1
  O  O116  1  0.234529  0.740699  0.750074  1
  O  O117  1  0.734529  0.759301  0.249926  1
  O  O118  1  0.765471  0.240699  0.749926  1
  O  O119  1  0.265471  0.259301  0.250074  1
  O  O120  1  0.773879  0.339526  0.069692  1
  O  O121  1  0.273879  0.160474  0.930308  1
  O  O122  1  0.226121  0.839526  0.430308  1
  O  O123  1  0.726121  0.660474  0.569692  1
  O  O124  1  0.226121  0.660474  0.930308  1
  O  O125  1  0.726121  0.839526  0.069692  1
  O  O126  1  0.773879  0.160474  0.569692  1
  O  O127  1  0.273879  0.339526  0.430308  1
  O  O128  1  0.939743  0.293660  0.163925  1
  O  O129  1  0.439743  0.206340  0.836075  1
  O  O130  1  0.060257  0.793660  0.336075  1
  O  O131  1  0.560257  0.706340  0.663925  1
  O  O132  1  0.060257  0.706340  0.836075  1
  O  O133  1  0.560257  0.793660  0.163925  1
  O  O134  1  0.939743  0.206340  0.663925  1
  O  O135  1  0.439743  0.293660  0.336075  1
  O  O136  1  0.830400  0.442243  0.226860  1
  O  O137  1  0.330400  0.057757  0.773140  1
  O  O138  1  0.169600  0.942243  0.273140  1
  O  O139  1  0.669600  0.557757  0.726860  1
  O  O140  1  0.169600  0.557757  0.773140  1
  O  O141  1  0.669600  0.942243  0.226860  1
  O  O142  1  0.830400  0.057757  0.726860  1
  O  O143  1  0.330400  0.442243  0.273140  1
  O  O144  1  0.558860  0.200308  0.168673  1
  O  O145  1  0.058860  0.299692  0.831327  1
  O  O146  1  0.441140  0.700308  0.331327  1
  O  O147  1  0.941140  0.799692  0.668673  1
  O  O148  1  0.441140  0.799692  0.831327  1
  O  O149  1  0.941140  0.700308  0.168673  1
  O  O150  1  0.558860  0.299692  0.668673  1
  O  O151  1  0.058860  0.200308  0.331327  1
  O  O152  1  0.849684  0.054712  0.287872  1
  O  O153  1  0.349684  0.445288  0.712128  1
  O  O154  1  0.150316  0.554712  0.212128  1
  O  O155  1  0.650316  0.945288  0.787872  1
  O  O156  1  0.150316  0.945288  0.712128  1
  O  O157  1  0.650316  0.554712  0.287872  1
  O  O158  1  0.849684  0.445288  0.787872  1
  O  O159  1  0.349684  0.054712  0.212128  1
  O  O160  1  0.716089  0.343441  0.454778  1
  O  O161  1  0.216089  0.156559  0.545222  1
  O  O162  1  0.283911  0.843441  0.045222  1
  O  O163  1  0.783911  0.656559  0.954778  1
  O  O164  1  0.283911  0.656559  0.545222  1
  O  O165  1  0.783911  0.843441  0.454778  1
  O  O166  1  0.716089  0.156559  0.954778  1
  O  O167  1  0.216089  0.343441  0.045222  1
  O  O168  1  0.656817  0.997327  0.504506  1
  O  O169  1  0.156817  0.502673  0.495494  1
  O  O170  1  0.343183  0.497327  0.995494  1
  O  O171  1  0.843183  0.002673  0.004506  1
  O  O172  1  0.343183  0.002673  0.495494  1
  O  O173  1  0.843183  0.497327  0.504506  1
  O  O174  1  0.656817  0.502673  0.004506  1
  O  O175  1  0.156817  0.997327  0.995494  1
  O  O176  1  0.498807  0.170951  0.506994  1
  O  O177  1  0.998807  0.329049  0.493006  1
  O  O178  1  0.501193  0.670951  0.993006  1
  O  O179  1  0.001193  0.829049  0.006994  1
  O  O180  1  0.501193  0.829049  0.493006  1
  O  O181  1  0.001193  0.670951  0.506994  1
  O  O182  1  0.498807  0.329049  0.006994  1
  O  O183  1  0.998807  0.170951  0.993006  1
  O  O184  1  0.502622  0.003785  0.342756  1
  O  O185  1  0.002622  0.496215  0.657244  1
  O  O186  1  0.497378  0.503785  0.157244  1
  O  O187  1  0.997378  0.996215  0.842756  1
  O  O188  1  0.497378  0.996215  0.657244  1
  O  O189  1  0.997378  0.503785  0.342756  1
  O  O190  1  0.502622  0.496215  0.842756  1
  O  O191  1  0.002622  0.003785  0.157244  1
