# generated using pymatgen
data_Li2Cr2Si2O7
_symmetry_space_group_name_H-M   'P 1'
_cell_length_a   8.07214770
_cell_length_b   13.64526688
_cell_length_c   5.62913457
_cell_angle_alpha   90.00000000
_cell_angle_beta   89.60686756
_cell_angle_gamma   90.00000000
_symmetry_Int_Tables_number   1
_chemical_formula_structural   Li2Cr2Si2O7
_chemical_formula_sum   'Li8 Cr8 Si8 O28'
_cell_volume   620.01549291
_cell_formula_units_Z   4
loop_
 _symmetry_equiv_pos_site_id
 _symmetry_equiv_pos_as_xyz
  1  'x, y, z'
loop_
 _atom_site_type_symbol
 _atom_site_label
 _atom_site_symmetry_multiplicity
 _atom_site_fract_x
 _atom_site_fract_y
 _atom_site_fract_z
 _atom_site_occupancy
  Li  Li0  1  0.115688  0.347655  0.151096  1
  Li  Li1  1  0.182406  0.748857  0.794558  1
  Li  Li2  1  0.317594  0.248857  0.705442  1
  Li  Li3  1  0.384312  0.847655  0.348904  1
  Li  Li4  1  0.615688  0.152345  0.651096  1
  Li  Li5  1  0.682406  0.751143  0.294558  1
  Li  Li6  1  0.817594  0.251143  0.205442  1
  Li  Li7  1  0.884312  0.652345  0.848904  1
  Cr  Cr8  1  0.099055  0.083180  0.349472  1
  Cr  Cr9  1  0.175133  0.491402  0.644467  1
  Cr  Cr10  1  0.324867  0.991402  0.855533  1
  Cr  Cr11  1  0.400945  0.583180  0.150528  1
  Cr  Cr12  1  0.599055  0.416820  0.849472  1
  Cr  Cr13  1  0.675133  0.008598  0.144467  1
  Cr  Cr14  1  0.824867  0.508598  0.355533  1
  Cr  Cr15  1  0.900945  0.916820  0.650528  1
  Si  Si16  1  0.044207  0.884711  0.170560  1
  Si  Si17  1  0.052678  0.678199  0.310592  1
  Si  Si18  1  0.447322  0.178199  0.189409  1
  Si  Si19  1  0.455793  0.384711  0.329440  1
  Si  Si20  1  0.544207  0.615289  0.670560  1
  Si  Si21  1  0.552678  0.821801  0.810592  1
  Si  Si22  1  0.947322  0.321801  0.689408  1
  Si  Si23  1  0.955793  0.115289  0.829440  1
  O  O24  1  0.045387  0.797563  0.378521  1
  O  O25  1  0.015080  0.165949  0.074084  1
  O  O26  1  0.081661  0.030489  0.712116  1
  O  O27  1  0.091023  0.629754  0.572831  1
  O  O28  1  0.130777  0.356053  0.790498  1
  O  O29  1  0.189505  0.661998  0.100662  1
  O  O30  1  0.229809  0.933516  0.172753  1
  O  O31  1  0.270191  0.433516  0.327247  1
  O  O32  1  0.310495  0.161998  0.399338  1
  O  O33  1  0.369223  0.856053  0.709502  1
  O  O34  1  0.408977  0.129754  0.927169  1
  O  O35  1  0.418339  0.530489  0.787884  1
  O  O36  1  0.484920  0.665949  0.425916  1
  O  O37  1  0.454613  0.297563  0.121479  1
  O  O38  1  0.545387  0.702437  0.878521  1
  O  O39  1  0.515080  0.334051  0.574084  1
  O  O40  1  0.581661  0.469511  0.212116  1
  O  O41  1  0.591024  0.870246  0.072831  1
  O  O42  1  0.630777  0.143947  0.290498  1
  O  O43  1  0.689505  0.838002  0.600662  1
  O  O44  1  0.729809  0.566484  0.672753  1
  O  O45  1  0.770191  0.066484  0.827247  1
  O  O46  1  0.810495  0.338002  0.899338  1
  O  O47  1  0.869223  0.643947  0.209502  1
  O  O48  1  0.908976  0.370246  0.427169  1
  O  O49  1  0.918339  0.969511  0.287884  1
  O  O50  1  0.984920  0.834051  0.925916  1
  O  O51  1  0.954613  0.202437  0.621479  1
