# generated using pymatgen
data_Li3MnPCO7
_symmetry_space_group_name_H-M   'P 1'
_cell_length_a   5.25738258
_cell_length_b   6.51200919
_cell_length_c   8.55064087
_cell_angle_alpha   96.57815816
_cell_angle_beta   94.01919351
_cell_angle_gamma   93.17723943
_symmetry_Int_Tables_number   1
_chemical_formula_structural   Li3MnPCO7
_chemical_formula_sum   'Li6 Mn2 P2 C2 O14'
_cell_volume   289.50298965
_cell_formula_units_Z   2
loop_
 _symmetry_equiv_pos_site_id
 _symmetry_equiv_pos_as_xyz
  1  'x, y, z'
loop_
 _atom_site_type_symbol
 _atom_site_label
 _atom_site_symmetry_multiplicity
 _atom_site_fract_x
 _atom_site_fract_y
 _atom_site_fract_z
 _atom_site_occupancy
  Li  Li0  1  0.246924  0.743426  0.108003  1
  Li  Li1  1  0.395628  0.417283  0.746331  1
  Li  Li2  1  0.498124  0.934050  0.752922  1
  Li  Li3  1  0.756468  0.962142  0.241588  1
  Li  Li4  1  0.858874  0.478748  0.248346  1
  Li  Li5  1  0.007099  0.151832  0.887031  1
  Mn  Mn6  1  0.307374  0.195640  0.355619  1
  Mn  Mn7  1  0.947358  0.700858  0.639020  1
  P  P8  1  0.424841  0.694075  0.409257  1
  P  P9  1  0.829995  0.202294  0.585309  1
  C  C10  1  0.405902  0.184495  0.039910  1
  C  C11  1  0.848497  0.711586  0.954704  1
  O  O12  1  0.067006  0.746245  0.895371  1
  O  O13  1  0.187479  0.150424  0.099476  1
  O  O14  1  0.252443  0.514014  0.314678  1
  O  O15  1  0.325498  0.756262  0.573633  1
  O  O16  1  0.415524  0.878176  0.306322  1
  O  O17  1  0.400220  0.190201  0.887184  1
  O  O18  1  0.548235  0.260979  0.566688  1
  O  O19  1  0.638309  0.688249  0.864620  1
  O  O20  1  0.616228  0.207702  0.129462  1
  O  O21  1  0.706577  0.635321  0.427890  1
  O  O22  1  0.853487  0.705400  0.107133  1
  O  O23  1  0.839218  0.018276  0.688396  1
  O  O24  1  0.929402  0.139727  0.421057  1
  O  O25  1  0.002347  0.382555  0.679669  1
