# generated using pymatgen
data_Na3NiBPO7
_symmetry_space_group_name_H-M   'P 1'
_cell_length_a   8.88775237
_cell_length_b   6.75227749
_cell_length_c   5.16161169
_cell_angle_alpha   90.00000000
_cell_angle_beta   88.34624717
_cell_angle_gamma   90.00000000
_symmetry_Int_Tables_number   1
_chemical_formula_structural   Na3NiBPO7
_chemical_formula_sum   'Na6 Ni2 B2 P2 O14'
_cell_volume   309.63256196
_cell_formula_units_Z   2
loop_
 _symmetry_equiv_pos_site_id
 _symmetry_equiv_pos_as_xyz
  1  'x, y, z'
loop_
 _atom_site_type_symbol
 _atom_site_label
 _atom_site_symmetry_multiplicity
 _atom_site_fract_x
 _atom_site_fract_y
 _atom_site_fract_z
 _atom_site_occupancy
  Na  Na0  1  0.084196  0.250000  0.764900  1
  Na  Na1  1  0.268053  0.006970  0.253129  1
  Na  Na2  1  0.268053  0.493030  0.253129  1
  Na  Na3  1  0.731947  0.506970  0.746871  1
  Na  Na4  1  0.731947  0.993030  0.746871  1
  Na  Na5  1  0.915804  0.750000  0.235099  1
  Ni  Ni6  1  0.342904  0.750000  0.781968  1
  Ni  Ni7  1  0.657096  0.250000  0.218032  1
  B  B8  1  0.069157  0.750000  0.732780  1
  B  B9  1  0.930843  0.250000  0.267220  1
  P  P10  1  0.418921  0.250000  0.717425  1
  P  P11  1  0.581079  0.750000  0.282575  1
  O  O12  1  0.080605  0.250000  0.293834  1
  O  O13  1  0.139815  0.750000  0.968726  1
  O  O14  1  0.174331  0.750000  0.527999  1
  O  O15  1  0.319851  0.065986  0.780762  1
  O  O16  1  0.319851  0.434014  0.780762  1
  O  O17  1  0.460729  0.250000  0.419424  1
  O  O18  1  0.433550  0.750000  0.131688  1
  O  O19  1  0.566450  0.250000  0.868312  1
  O  O20  1  0.539271  0.750000  0.580576  1
  O  O21  1  0.680149  0.565986  0.219238  1
  O  O22  1  0.680149  0.934014  0.219238  1
  O  O23  1  0.825669  0.250000  0.472001  1
  O  O24  1  0.860185  0.250000  0.031274  1
  O  O25  1  0.919395  0.750000  0.706166  1
