# generated using pymatgen
data_La3Ti2N3O4
_symmetry_space_group_name_H-M   'P 1'
_cell_length_a   3.95491238
_cell_length_b   10.75219625
_cell_length_c   3.95491238
_cell_angle_alpha   79.40230311
_cell_angle_beta   90.00000000
_cell_angle_gamma   100.59769689
_symmetry_Int_Tables_number   1
_chemical_formula_structural   La3Ti2N3O4
_chemical_formula_sum   'La3 Ti2 N3 O4'
_cell_volume   162.39066904
_cell_formula_units_Z   1
loop_
 _symmetry_equiv_pos_site_id
 _symmetry_equiv_pos_as_xyz
  1  'x, y, z'
loop_
 _atom_site_type_symbol
 _atom_site_label
 _atom_site_symmetry_multiplicity
 _atom_site_fract_x
 _atom_site_fract_y
 _atom_site_fract_z
 _atom_site_occupancy
  La  La0  1  0.500000  0.000000  0.500000  1
  La  La1  1  0.682071  0.364143  0.317929  1
  La  La2  1  0.317929  0.635857  0.682071  1
  Ti  Ti3  1  0.906803  0.813604  0.093197  1
  Ti  Ti4  1  0.093197  0.186396  0.906803  1
  N  N5  1  0.000000  0.000000  0.000000  1
  N  N6  1  0.099958  0.199917  0.400042  1
  N  N7  1  0.400042  0.800083  0.099958  1
  O  O8  1  0.794911  0.589821  0.205089  1
  O  O9  1  0.205089  0.410179  0.794911  1
  O  O10  1  0.604800  0.209600  0.895200  1
  O  O11  1  0.895200  0.790400  0.604800  1
