# generated using pymatgen
data_KCd2H8C10N15O4
_symmetry_space_group_name_H-M   'P 1'
_cell_length_a   11.61861676
_cell_length_b   11.61181491
_cell_length_c   11.52515428
_cell_angle_alpha   96.27763630
_cell_angle_beta   116.54418230
_cell_angle_gamma   115.73623919
_symmetry_Int_Tables_number   1
_chemical_formula_structural   KCd2H8C10N15O4
_chemical_formula_sum   'K2 Cd4 H16 C20 N30 O8'
_cell_volume   1160.81300933
_cell_formula_units_Z   2
loop_
 _symmetry_equiv_pos_site_id
 _symmetry_equiv_pos_as_xyz
  1  'x, y, z'
loop_
 _atom_site_type_symbol
 _atom_site_label
 _atom_site_symmetry_multiplicity
 _atom_site_fract_x
 _atom_site_fract_y
 _atom_site_fract_z
 _atom_site_occupancy
  K  K0  1  0.496609  0.998306  0.500007  1
  K  K1  1  0.498069  0.500037  0.996905  1
  Cd  Cd2  1  0.004325  0.240354  0.742101  1
  Cd  Cd3  1  0.007496  0.746760  0.243143  1
  Cd  Cd4  1  0.494249  0.757905  0.758456  1
  Cd  Cd5  1  0.487370  0.250480  0.253894  1
  H  H6  1  0.061115  0.809635  0.679471  1
  H  H7  1  0.999695  0.481510  0.708704  1
  H  H8  1  0.005622  0.725089  0.481647  1
  H  H9  1  0.176432  0.531216  0.619135  1
  H  H10  1  0.234538  0.520432  0.518947  1
  H  H11  1  0.244292  0.422691  0.340047  1
  H  H12  1  0.928040  0.580057  0.821583  1
  H  H13  1  0.916052  0.810795  0.576353  1
  H  H14  1  0.798032  0.425739  0.352907  1
  H  H15  1  0.907918  0.382363  0.552680  1
  H  H16  1  0.920820  0.575852  0.372985  1
  H  H17  1  0.780753  0.286931  0.307957  1
  H  H18  1  0.706625  0.056561  0.148110  1
  H  H19  1  0.706425  0.147988  0.058115  1
  H  H20  1  0.957848  0.235450  0.324219  1
  H  H21  1  0.954219  0.322577  0.232121  1
  C  C22  1  0.999902  0.837355  0.970681  1
  C  C23  1  0.394833  0.989262  0.772288  1
  C  C24  1  0.390082  0.769748  0.986812  1
  C  C25  1  0.217418  0.621075  0.229866  1
  C  C26  1  0.215671  0.230359  0.621088  1
  C  C27  1  0.401006  0.926943  0.140789  1
  C  C28  1  0.405406  0.143758  0.930391  1
  C  C29  1  0.212988  0.072806  0.475047  1
  C  C30  1  0.211779  0.474787  0.071574  1
  C  C31  1  0.127485  0.158723  0.158832  1
  C  C32  1  0.598294  0.524394  0.739165  1
  C  C33  1  0.599913  0.738963  0.524586  1
  C  C34  1  0.606692  0.377370  0.593319  1
  C  C35  1  0.611886  0.595815  0.379744  1
  C  C36  1  0.000260  0.971452  0.839511  1
  C  C37  1  0.788988  0.263812  0.861106  1
  C  C38  1  0.786696  0.860858  0.262021  1
  C  C39  1  0.784931  0.405179  0.016075  1
  C  C40  1  0.785821  0.016120  0.406049  1
  C  C41  1  0.865278  0.024045  0.024147  1
  N  N42  1  0.001855  0.866450  0.866021  1
  N  N43  1  0.194516  0.969579  0.417177  1
  N  N44  1  0.191569  0.420284  0.965328  1
  N  N45  1  0.998816  0.062665  0.805021  1
  N  N46  1  0.998214  0.803278  0.062466  1
  N  N47  1  0.427563  0.924972  0.720981  1
  N  N48  1  0.424897  0.719458  0.923994  1
  N  N49  1  0.202582  0.705726  0.275967  1
  N  N50  1  0.198925  0.278863  0.703627  1
  N  N51  1  0.742015  0.932131  0.932292  1
  N  N52  1  0.239046  0.526297  0.193015  1
  N  N53  1  0.241097  0.191635  0.531070  1
  N  N54  1  0.554672  0.582996  0.781053  1
  N  N55  1  0.550371  0.776418  0.579158  1
  N  N56  1  0.342471  0.051607  0.811978  1
  N  N57  1  0.336290  0.808386  0.048273  1
  N  N58  1  0.253366  0.194607  0.193292  1
  N  N59  1  0.661775  0.468348  0.709949  1
  N  N60  1  0.668255  0.712081  0.472456  1
  N  N61  1  0.764896  0.290076  0.957525  1
  N  N62  1  0.764566  0.958103  0.289438  1
  N  N63  1  0.572839  0.294527  0.494896  1
  N  N64  1  0.576605  0.496999  0.296711  1
  N  N65  1  0.448081  0.029436  0.227540  1
  N  N66  1  0.449579  0.230026  0.032356  1
  N  N67  1  0.807099  0.227686  0.774088  1
  N  N68  1  0.802514  0.773080  0.224454  1
  N  N69  1  0.799360  0.502898  0.079962  1
  N  N70  1  0.800743  0.079123  0.505127  1
  N  N71  1  0.994690  0.129982  0.130158  1
  O  O72  1  0.014065  0.666255  0.417919  1
  O  O73  1  0.001881  0.419662  0.646232  1
  O  O74  1  0.242000  0.586367  0.589831  1
  O  O75  1  0.281001  0.433631  0.438047  1
  O  O76  1  0.008658  0.817816  0.589998  1
  O  O77  1  0.752331  0.334793  0.357139  1
  O  O78  1  0.645127  0.087553  0.087960  1
  O  O79  1  0.946992  0.313255  0.312525  1
