# generated using pymatgen
data_Li2V2OF6
_symmetry_space_group_name_H-M   'P 1'
_cell_length_a   6.43781774
_cell_length_b   6.66016512
_cell_length_c   7.54799196
_cell_angle_alpha   112.27484959
_cell_angle_beta   96.79666571
_cell_angle_gamma   107.97851436
_symmetry_Int_Tables_number   1
_chemical_formula_structural   Li2V2OF6
_chemical_formula_sum   'Li4 V4 O2 F12'
_cell_volume   274.48948689
_cell_formula_units_Z   2
loop_
 _symmetry_equiv_pos_site_id
 _symmetry_equiv_pos_as_xyz
  1  'x, y, z'
loop_
 _atom_site_type_symbol
 _atom_site_label
 _atom_site_symmetry_multiplicity
 _atom_site_fract_x
 _atom_site_fract_y
 _atom_site_fract_z
 _atom_site_occupancy
  Li  Li0  1  0.334460  0.766783  0.117827  1
  Li  Li1  1  0.087450  0.165618  0.814622  1
  Li  Li2  1  0.912550  0.834382  0.185378  1
  Li  Li3  1  0.665540  0.233217  0.882173  1
  V  V4  1  0.203633  0.715979  0.568157  1
  V  V5  1  0.336188  0.336090  0.270044  1
  V  V6  1  0.663812  0.663910  0.729956  1
  V  V7  1  0.796367  0.284021  0.431843  1
  O  O8  1  0.099899  0.371857  0.388788  1
  O  O9  1  0.900101  0.628143  0.611212  1
  F  F10  1  0.116556  0.767819  0.337141  1
  F  F11  1  0.331261  0.054613  0.746055  1
  F  F12  1  0.363430  0.670264  0.794633  1
  F  F13  1  0.269178  0.429905  0.062839  1
  F  F14  1  0.191658  0.989390  0.112638  1
  F  F15  1  0.504875  0.700740  0.492045  1
  F  F16  1  0.495125  0.299260  0.507955  1
  F  F17  1  0.808342  0.010610  0.887362  1
  F  F18  1  0.730822  0.570095  0.937161  1
  F  F19  1  0.636570  0.329736  0.205367  1
  F  F20  1  0.668739  0.945387  0.253945  1
  F  F21  1  0.883444  0.232181  0.662859  1
