# generated using pymatgen
data_LiMnF3
_symmetry_space_group_name_H-M   'P 1'
_cell_length_a   7.28863634
_cell_length_b   7.28863634
_cell_length_c   6.17613110
_cell_angle_alpha   63.36382658
_cell_angle_beta   116.63617342
_cell_angle_gamma   115.01665323
_symmetry_Int_Tables_number   1
_chemical_formula_structural   LiMnF3
_chemical_formula_sum   'Li4 Mn4 F12'
_cell_volume   251.84409387
_cell_formula_units_Z   4
loop_
 _symmetry_equiv_pos_site_id
 _symmetry_equiv_pos_as_xyz
  1  'x, y, z'
loop_
 _atom_site_type_symbol
 _atom_site_label
 _atom_site_symmetry_multiplicity
 _atom_site_fract_x
 _atom_site_fract_y
 _atom_site_fract_z
 _atom_site_occupancy
  Li  Li0  1  0.805023  0.761527  0.835686  1
  Li  Li1  1  0.200673  0.241255  0.737179  1
  Li  Li2  1  0.238473  0.194977  0.335686  1
  Li  Li3  1  0.758745  0.799327  0.237179  1
  Mn  Mn4  1  0.196779  0.687546  0.871913  1
  Mn  Mn5  1  0.312454  0.803221  0.371913  1
  Mn  Mn6  1  0.680248  0.211103  0.646600  1
  Mn  Mn7  1  0.788897  0.319752  0.146600  1
  F  F8  1  0.109468  0.884331  0.969842  1
  F  F9  1  0.115669  0.890532  0.469842  1
  F  F10  1  0.570611  0.869260  0.700222  1
  F  F11  1  0.233856  0.525238  0.694223  1
  F  F12  1  0.130740  0.429389  0.200222  1
  F  F13  1  0.474762  0.766144  0.194223  1
  F  F14  1  0.415421  0.226996  0.666783  1
  F  F15  1  0.822782  0.534232  0.753736  1
  F  F16  1  0.773004  0.584579  0.166783  1
  F  F17  1  0.465768  0.177218  0.253736  1
  F  F18  1  0.903571  0.182944  0.548815  1
  F  F19  1  0.817056  0.096429  0.048815  1
