# generated using pymatgen
data_Sb2S19F12
_symmetry_space_group_name_H-M   'P 1'
_cell_length_a   15.91311699
_cell_length_b   13.66747729
_cell_length_c   14.83957500
_cell_angle_alpha   90.00000000
_cell_angle_beta   105.35804594
_cell_angle_gamma   90.00000000
_symmetry_Int_Tables_number   1
_chemical_formula_structural   Sb2S19F12
_chemical_formula_sum   'Sb8 S76 F48'
_cell_volume   3112.23627649
_cell_formula_units_Z   4
loop_
 _symmetry_equiv_pos_site_id
 _symmetry_equiv_pos_as_xyz
  1  'x, y, z'
loop_
 _atom_site_type_symbol
 _atom_site_label
 _atom_site_symmetry_multiplicity
 _atom_site_fract_x
 _atom_site_fract_y
 _atom_site_fract_z
 _atom_site_occupancy
  Sb  Sb0  1  0.595059  0.281346  0.972749  1
  Sb  Sb1  1  0.904941  0.781346  0.027251  1
  Sb  Sb2  1  0.404941  0.718654  0.027251  1
  Sb  Sb3  1  0.095059  0.218654  0.972749  1
  Sb  Sb4  1  0.526041  0.251639  0.522991  1
  Sb  Sb5  1  0.973959  0.751639  0.477009  1
  Sb  Sb6  1  0.473959  0.748361  0.477009  1
  Sb  Sb7  1  0.026041  0.248361  0.522991  1
  S  S8  1  0.778945  0.089841  0.406935  1
  S  S9  1  0.721055  0.589841  0.593065  1
  S  S10  1  0.221055  0.910159  0.593065  1
  S  S11  1  0.278945  0.410159  0.406935  1
  S  S12  1  0.701503  0.983994  0.424207  1
  S  S13  1  0.798497  0.483994  0.575793  1
  S  S14  1  0.298497  0.016006  0.575793  1
  S  S15  1  0.201503  0.516006  0.424207  1
  S  S16  1  0.580927  0.004946  0.321601  1
  S  S17  1  0.919073  0.504946  0.678399  1
  S  S18  1  0.419073  0.995054  0.678399  1
  S  S19  1  0.080927  0.495054  0.321601  1
  S  S20  1  0.582450  0.891684  0.233664  1
  S  S21  1  0.917550  0.391684  0.766336  1
  S  S22  1  0.417550  0.108316  0.766336  1
  S  S23  1  0.082450  0.608316  0.233664  1
  S  S24  1  0.670723  0.930403  0.157208  1
  S  S25  1  0.829277  0.430403  0.842792  1
  S  S26  1  0.329277  0.069597  0.842792  1
  S  S27  1  0.170723  0.569597  0.157208  1
  S  S28  1  0.789389  0.899571  0.244656  1
  S  S29  1  0.710611  0.399571  0.755344  1
  S  S30  1  0.210611  0.100429  0.755344  1
  S  S31  1  0.289389  0.600429  0.244656  1
  S  S32  1  0.846754  0.035131  0.296938  1
  S  S33  1  0.653246  0.535131  0.703062  1
  S  S34  1  0.153246  0.964869  0.703062  1
  S  S35  1  0.346754  0.464869  0.296938  1
  S  S36  1  0.795974  0.137388  0.190699  1
  S  S37  1  0.704026  0.637388  0.809301  1
  S  S38  1  0.204026  0.862612  0.809301  1
  S  S39  1  0.295974  0.362612  0.190699  1
  S  S40  1  0.899088  0.161817  0.135417  1
  S  S41  1  0.600912  0.661817  0.864583  1
  S  S42  1  0.100912  0.838183  0.864583  1
  S  S43  1  0.399088  0.338183  0.135417  1
  S  S44  1  0.959159  0.288299  0.199138  1
  S  S45  1  0.540841  0.788299  0.800862  1
  S  S46  1  0.040841  0.711701  0.800862  1
  S  S47  1  0.459159  0.211701  0.199138  1
  S  S48  1  0.578571  0.898643  0.897232  1
  S  S49  1  0.921429  0.398643  0.102768  1
  S  S50  1  0.421429  0.101357  0.102768  1
  S  S51  1  0.078571  0.601357  0.897232  1
  S  S52  1  0.803095  0.454604  0.110553  1
  S  S53  1  0.696905  0.954604  0.889447  1
  S  S54  1  0.196905  0.545396  0.889447  1
  S  S55  1  0.303095  0.045396  0.110553  1
  S  S56  1  0.840357  0.557966  0.216138  1
  S  S57  1  0.659643  0.057966  0.783862  1
  S  S58  1  0.159643  0.442034  0.783862  1
  S  S59  1  0.340357  0.942034  0.216138  1
  S  S60  1  0.714701  0.650092  0.169967  1
  S  S61  1  0.785299  0.150092  0.830033  1
  S  S62  1  0.285299  0.349908  0.830033  1
  S  S63  1  0.214701  0.849908  0.169967  1
  S  S64  1  0.655675  0.637635  0.270176  1
  S  S65  1  0.844325  0.137635  0.729824  1
  S  S66  1  0.344325  0.362365  0.729824  1
  S  S67  1  0.155675  0.862365  0.270176  1
  S  S68  1  0.577510  0.510107  0.236905  1
  S  S69  1  0.922490  0.010107  0.763095  1
  S  S70  1  0.422490  0.489893  0.763095  1
  S  S71  1  0.077510  0.989893  0.236905  1
  S  S72  1  0.638917  0.418149  0.340891  1
  S  S73  1  0.861083  0.918149  0.659109  1
  S  S74  1  0.361083  0.581851  0.659109  1
  S  S75  1  0.138917  0.081851  0.340891  1
  S  S76  1  0.754035  0.372230  0.308563  1
  S  S77  1  0.745965  0.872230  0.691437  1
  S  S78  1  0.245965  0.627770  0.691437  1
  S  S79  1  0.254035  0.127770  0.308563  1
  S  S80  1  0.661978  0.985252  0.656433  1
  S  S81  1  0.838022  0.485252  0.343567  1
  S  S82  1  0.338022  0.014748  0.343567  1
  S  S83  1  0.161978  0.514748  0.656433  1
  F  F84  1  0.575429  0.263317  0.840293  1
  F  F85  1  0.924571  0.763317  0.159707  1
  F  F86  1  0.424571  0.736683  0.159707  1
  F  F87  1  0.075429  0.236683  0.840293  1
  F  F88  1  0.590505  0.141457  0.988811  1
  F  F89  1  0.909495  0.641457  0.011189  1
  F  F90  1  0.409495  0.858543  0.011189  1
  F  F91  1  0.090505  0.358543  0.988811  1
  F  F92  1  0.719165  0.271754  0.988206  1
  F  F93  1  0.780835  0.771754  0.011794  1
  F  F94  1  0.280835  0.728246  0.011794  1
  F  F95  1  0.219165  0.228246  0.988206  1
  F  F96  1  0.470910  0.288523  0.957169  1
  F  F97  1  0.029090  0.788523  0.042831  1
  F  F98  1  0.529090  0.711477  0.042831  1
  F  F99  1  0.970910  0.211477  0.957169  1
  F  F100  1  0.600891  0.420422  0.955866  1
  F  F101  1  0.899109  0.920422  0.044134  1
  F  F102  1  0.399109  0.579578  0.044134  1
  F  F103  1  0.100891  0.079578  0.955866  1
  F  F104  1  0.615934  0.298964  0.105499  1
  F  F105  1  0.884066  0.798964  0.894501  1
  F  F106  1  0.384066  0.701036  0.894501  1
  F  F107  1  0.115934  0.201036  0.105499  1
  F  F108  1  0.593974  0.202472  0.642121  1
  F  F109  1  0.906026  0.702472  0.357879  1
  F  F110  1  0.406026  0.797528  0.357879  1
  F  F111  1  0.093974  0.297528  0.642121  1
  F  F112  1  0.459133  0.305241  0.405115  1
  F  F113  1  0.040867  0.805241  0.594885  1
  F  F114  1  0.540867  0.694759  0.594885  1
  F  F115  1  0.959133  0.194759  0.405115  1
  F  F116  1  0.568443  0.381102  0.562141  1
  F  F117  1  0.931557  0.881102  0.437859  1
  F  F118  1  0.431557  0.618898  0.437859  1
  F  F119  1  0.068443  0.118898  0.562141  1
  F  F120  1  0.623175  0.230692  0.470663  1
  F  F121  1  0.876825  0.730692  0.529337  1
  F  F122  1  0.376825  0.769308  0.529337  1
  F  F123  1  0.123175  0.269308  0.470663  1
  F  F124  1  0.427644  0.271047  0.572752  1
  F  F125  1  0.072356  0.771047  0.427248  1
  F  F126  1  0.572356  0.728953  0.427248  1
  F  F127  1  0.927644  0.228953  0.572752  1
  F  F128  1  0.485485  0.121535  0.485419  1
  F  F129  1  0.014515  0.621535  0.514581  1
  F  F130  1  0.514515  0.878465  0.514581  1
  F  F131  1  0.985485  0.378465  0.485419  1
