# generated using pymatgen
data_Mn12O7F17
_symmetry_space_group_name_H-M   'P 1'
_cell_length_a   4.80039844
_cell_length_b   5.82536713
_cell_length_c   15.79508332
_cell_angle_alpha   91.42578908
_cell_angle_beta   89.62108482
_cell_angle_gamma   91.14107729
_symmetry_Int_Tables_number   1
_chemical_formula_structural   Mn12O7F17
_chemical_formula_sum   'Mn12 O7 F17'
_cell_volume   441.46243831
_cell_formula_units_Z   1
loop_
 _symmetry_equiv_pos_site_id
 _symmetry_equiv_pos_as_xyz
  1  'x, y, z'
loop_
 _atom_site_type_symbol
 _atom_site_label
 _atom_site_symmetry_multiplicity
 _atom_site_fract_x
 _atom_site_fract_y
 _atom_site_fract_z
 _atom_site_occupancy
  Mn  Mn0  1  0.040138  0.174294  0.413587  1
  Mn  Mn1  1  0.991368  0.845256  0.247107  1
  Mn  Mn2  1  0.984727  0.167027  0.073562  1
  Mn  Mn3  1  0.004400  0.150825  0.751932  1
  Mn  Mn4  1  0.034505  0.816402  0.587861  1
  Mn  Mn5  1  0.029306  0.854426  0.911740  1
  Mn  Mn6  1  0.490494  0.354490  0.580079  1
  Mn  Mn7  1  0.491848  0.334679  0.926850  1
  Mn  Mn8  1  0.486613  0.341598  0.249606  1
  Mn  Mn9  1  0.524861  0.639913  0.089935  1
  Mn  Mn10  1  0.497016  0.653552  0.417519  1
  Mn  Mn11  1  0.473526  0.663654  0.750797  1
  O  O12  1  0.226160  0.122509  0.302943  1
  O  O13  1  0.209482  0.122870  0.969315  1
  O  O14  1  0.211154  0.883078  0.803561  1
  O  O15  1  0.293067  0.396238  0.471053  1
  O  O16  1  0.285291  0.592249  0.641904  1
  O  O17  1  0.700821  0.381129  0.030667  1
  O  O18  1  0.705182  0.600822  0.196733  1
  F  F19  1  0.242953  0.104659  0.641341  1
  F  F20  1  0.240707  0.874969  0.134104  1
  F  F21  1  0.247467  0.898204  0.474658  1
  F  F22  1  0.245280  0.373643  0.146742  1
  F  F23  1  0.252440  0.619044  0.309453  1
  F  F24  1  0.270666  0.384294  0.818910  1
  F  F25  1  0.279519  0.627784  0.984029  1
  F  F26  1  0.729923  0.385171  0.353700  1
  F  F27  1  0.750900  0.623588  0.521380  1
  F  F28  1  0.725123  0.619044  0.862456  1
  F  F29  1  0.726245  0.382110  0.695398  1
  F  F30  1  0.759938  0.101539  0.184260  1
  F  F31  1  0.787681  0.141635  0.524572  1
  F  F32  1  0.772680  0.892530  0.366806  1
  F  F33  1  0.780355  0.870546  0.017716  1
  F  F34  1  0.749273  0.118119  0.857722  1
  F  F35  1  0.758887  0.888110  0.690000  1
