# generated using pymatgen
data_Li2Mn3(BO3)3
_symmetry_space_group_name_H-M   'P 1'
_cell_length_a   6.14248244
_cell_length_b   11.95671621
_cell_length_c   5.22519071
_cell_angle_alpha   78.72784990
_cell_angle_beta   87.20831513
_cell_angle_gamma   83.70524460
_symmetry_Int_Tables_number   1
_chemical_formula_structural   Li2Mn3(BO3)3
_chemical_formula_sum   'Li4 Mn6 B6 O18'
_cell_volume   373.94021141
_cell_formula_units_Z   2
loop_
 _symmetry_equiv_pos_site_id
 _symmetry_equiv_pos_as_xyz
  1  'x, y, z'
loop_
 _atom_site_type_symbol
 _atom_site_label
 _atom_site_symmetry_multiplicity
 _atom_site_fract_x
 _atom_site_fract_y
 _atom_site_fract_z
 _atom_site_occupancy
  Li  Li0  1  0.905847  0.240380  0.304437  1
  Li  Li1  1  0.427486  0.092954  0.028896  1
  Li  Li2  1  0.251609  0.565909  0.626110  1
  Li  Li3  1  0.081724  0.767425  0.707224  1
  Mn  Mn4  1  0.242545  0.994141  0.608354  1
  Mn  Mn5  1  0.584720  0.337480  0.929816  1
  Mn  Mn6  1  0.907983  0.660872  0.265478  1
  Mn  Mn7  1  0.090788  0.339193  0.724979  1
  Mn  Mn8  1  0.425350  0.672461  0.067855  1
  Mn  Mn9  1  0.748614  0.995853  0.403517  1
  B  B10  1  0.866439  0.114038  0.848443  1
  B  B11  1  0.466894  0.219295  0.484890  1
  B  B12  1  0.828569  0.555468  0.820808  1
  B  B13  1  0.189104  0.444802  0.178165  1
  B  B14  1  0.504765  0.777866  0.512526  1
  B  B15  1  0.144229  0.888532  0.155168  1
  O  O16  1  0.950792  0.096082  0.597779  1
  O  O17  1  0.741273  0.038895  0.997529  1
  O  O18  1  0.435570  0.115626  0.411454  1
  O  O19  1  0.897763  0.217708  0.921879  1
  O  O20  1  0.592061  0.294439  0.335805  1
  O  O21  1  0.382542  0.237252  0.735555  1
  O  O22  1  0.726845  0.576387  0.048949  1
  O  O23  1  0.818751  0.447334  0.757660  1
  O  O24  1  0.944576  0.636420  0.666672  1
  O  O25  1  0.096665  0.355834  0.332715  1
  O  O26  1  0.211056  0.547201  0.259192  1
  O  O27  1  0.263320  0.435580  0.922161  1
  O  O28  1  0.606488  0.756946  0.284384  1
  O  O29  1  0.388758  0.696913  0.666661  1
  O  O30  1  0.122277  0.786133  0.074141  1
  O  O31  1  0.514582  0.885999  0.575673  1
  O  O32  1  0.236668  0.977499  0.000618  1
  O  O33  1  0.070014  0.897754  0.411172  1
