# generated using pymatgen
data_LiV4O5F7
_symmetry_space_group_name_H-M   'P 1'
_cell_length_a   5.37839245
_cell_length_b   9.05466967
_cell_length_c   9.14750042
_cell_angle_alpha   110.88822928
_cell_angle_beta   91.86391626
_cell_angle_gamma   87.46474074
_symmetry_Int_Tables_number   1
_chemical_formula_structural   LiV4O5F7
_chemical_formula_sum   'Li2 V8 O10 F14'
_cell_volume   415.72702821
_cell_formula_units_Z   2
loop_
 _symmetry_equiv_pos_site_id
 _symmetry_equiv_pos_as_xyz
  1  'x, y, z'
loop_
 _atom_site_type_symbol
 _atom_site_label
 _atom_site_symmetry_multiplicity
 _atom_site_fract_x
 _atom_site_fract_y
 _atom_site_fract_z
 _atom_site_occupancy
  Li  Li0  1  0.936851  0.864266  0.626197  1
  Li  Li1  1  0.545939  0.886809  0.105040  1
  V  V2  1  0.975200  0.019432  0.999354  1
  V  V3  1  0.993562  0.244626  0.767926  1
  V  V4  1  0.469323  0.017478  0.498058  1
  V  V5  1  0.498487  0.731742  0.726389  1
  V  V6  1  0.032613  0.503888  0.508287  1
  V  V7  1  0.493685  0.246346  0.268535  1
  V  V8  1  0.007494  0.731407  0.226698  1
  V  V9  1  0.532894  0.505188  0.008222  1
  O  O10  1  0.793083  0.374368  0.917067  1
  O  O11  1  0.004142  0.067321  0.813281  1
  O  O12  1  0.216861  0.124167  0.581590  1
  O  O13  1  0.702054  0.630224  0.588720  1
  O  O14  1  0.502450  0.070454  0.313213  1
  O  O15  1  0.180551  0.682196  0.625410  1
  O  O16  1  0.294069  0.375777  0.419433  1
  O  O17  1  0.715214  0.120340  0.080305  1
  O  O18  1  0.686447  0.679661  0.122667  1
  O  O19  1  0.201806  0.624818  0.086200  1
  F  F20  1  0.789207  0.826492  0.879439  1
  F  F21  1  0.293868  0.334616  0.886340  1
  F  F22  1  0.710619  0.175488  0.617875  1
  F  F23  1  0.483244  0.572298  0.824645  1
  F  F24  1  0.306698  0.876444  0.930480  1
  F  F25  1  0.519600  0.923911  0.670902  1
  F  F26  1  0.014068  0.414856  0.672640  1
  F  F27  1  0.794145  0.335757  0.386894  1
  F  F28  1  0.801387  0.873860  0.427389  1
  F  F29  1  0.291742  0.825400  0.377162  1
  F  F30  1  0.517338  0.414352  0.172252  1
  F  F31  1  0.207765  0.179982  0.119435  1
  F  F32  1  0.985741  0.572642  0.326107  1
  F  F33  1  0.997257  0.923397  0.171237  1
