# generated using pymatgen
data_Ba2LaCl7
_symmetry_space_group_name_H-M   'P 1'
_cell_length_a   8.16703222
_cell_length_b   9.21618191
_cell_length_c   9.75244339
_cell_angle_alpha   115.27222243
_cell_angle_beta   114.77500058
_cell_angle_gamma   63.70163897
_symmetry_Int_Tables_number   1
_chemical_formula_structural   Ba2LaCl7
_chemical_formula_sum   'Ba4 La2 Cl14'
_cell_volume   570.66220562
_cell_formula_units_Z   2
loop_
 _symmetry_equiv_pos_site_id
 _symmetry_equiv_pos_as_xyz
  1  'x, y, z'
loop_
 _atom_site_type_symbol
 _atom_site_label
 _atom_site_symmetry_multiplicity
 _atom_site_fract_x
 _atom_site_fract_y
 _atom_site_fract_z
 _atom_site_occupancy
  Ba  Ba0  1  0.692738  0.907653  0.286403  1
  Ba  Ba1  1  0.314074  0.592490  0.213851  1
  Ba  Ba2  1  0.685926  0.407520  0.786152  1
  Ba  Ba3  1  0.307265  0.092337  0.713588  1
  La  La4  1  0.011547  0.250079  0.249939  1
  La  La5  1  0.988447  0.749929  0.750068  1
  Cl  Cl6  1  0.313630  0.968095  0.358632  1
  Cl  Cl7  1  0.116900  0.794616  0.530472  1
  Cl  Cl8  1  0.381332  0.705323  0.969519  1
  Cl  Cl9  1  0.076960  0.468053  0.858761  1
  Cl  Cl10  1  0.932054  0.906823  0.081027  1
  Cl  Cl11  1  0.623621  0.749821  0.749582  1
  Cl  Cl12  1  0.241847  0.406794  0.581077  1
  Cl  Cl13  1  0.758134  0.593228  0.418924  1
  Cl  Cl14  1  0.376371  0.250185  0.250415  1
  Cl  Cl15  1  0.067949  0.093149  0.918978  1
  Cl  Cl16  1  0.923034  0.531960  0.141248  1
  Cl  Cl17  1  0.618691  0.294674  0.030484  1
  Cl  Cl18  1  0.883114  0.205356  0.469517  1
  Cl  Cl19  1  0.686367  0.031919  0.641364  1
