# generated using pymatgen
data_Li8Mn12Ni4O31
_symmetry_space_group_name_H-M   'P 1'
_cell_length_a   8.30962039
_cell_length_b   8.30185595
_cell_length_c   8.31159003
_cell_angle_alpha   89.69569385
_cell_angle_beta   89.42389492
_cell_angle_gamma   90.27382813
_symmetry_Int_Tables_number   1
_chemical_formula_structural   Li8Mn12Ni4O31
_chemical_formula_sum   'Li8 Mn12 Ni4 O31'
_cell_volume   573.33352807
_cell_formula_units_Z   1
loop_
 _symmetry_equiv_pos_site_id
 _symmetry_equiv_pos_as_xyz
  1  'x, y, z'
loop_
 _atom_site_type_symbol
 _atom_site_label
 _atom_site_symmetry_multiplicity
 _atom_site_fract_x
 _atom_site_fract_y
 _atom_site_fract_z
 _atom_site_occupancy
  Li  Li0  1  0.999797  0.002910  0.007337  1
  Li  Li1  1  0.273868  0.269286  0.220721  1
  Li  Li2  1  0.254213  0.751980  0.746425  1
  Li  Li3  1  0.494167  0.996582  0.504235  1
  Li  Li4  1  0.504205  0.500144  0.994849  1
  Li  Li5  1  0.749852  0.251980  0.749774  1
  Li  Li6  1  0.753069  0.748184  0.251620  1
  Li  Li7  1  0.994413  0.498272  0.500625  1
  Mn  Mn8  1  0.126912  0.625246  0.121768  1
  Mn  Mn9  1  0.125327  0.377653  0.875003  1
  Mn  Mn10  1  0.125526  0.123883  0.638964  1
  Mn  Mn11  1  0.377308  0.871422  0.124794  1
  Mn  Mn12  1  0.375474  0.620807  0.372303  1
  Mn  Mn13  1  0.371962  0.374362  0.623491  1
  Mn  Mn14  1  0.628960  0.876211  0.877282  1
  Mn  Mn15  1  0.621753  0.123157  0.127451  1
  Mn  Mn16  1  0.619606  0.371202  0.373686  1
  Mn  Mn17  1  0.879005  0.628577  0.874881  1
  Mn  Mn18  1  0.877495  0.876977  0.626569  1
  Mn  Mn19  1  0.860810  0.122169  0.377059  1
  Ni  Ni20  1  0.124820  0.858182  0.377906  1
  Ni  Ni21  1  0.375092  0.125895  0.876545  1
  Ni  Ni22  1  0.625629  0.625009  0.624522  1
  Ni  Ni23  1  0.872570  0.374904  0.124663  1
  O  O24  1  0.111420  0.894415  0.616678  1
  O  O25  1  0.114072  0.616061  0.886750  1
  O  O26  1  0.128685  0.153297  0.883532  1
  O  O27  1  0.123157  0.394841  0.104585  1
  O  O28  1  0.136734  0.361144  0.638142  1
  O  O29  1  0.141883  0.620432  0.352190  1
  O  O30  1  0.147067  0.858388  0.130944  1
  O  O31  1  0.354805  0.142445  0.627523  1
  O  O32  1  0.358230  0.376749  0.852021  1
  O  O33  1  0.363210  0.636121  0.136023  1
  O  O34  1  0.375946  0.606994  0.601099  1
  O  O35  1  0.370902  0.851238  0.358052  1
  O  O36  1  0.383475  0.386394  0.386568  1
  O  O37  1  0.389693  0.100169  0.122923  1
  O  O38  1  0.398920  0.874743  0.892997  1
  O  O39  1  0.601381  0.376214  0.606231  1
  O  O40  1  0.606534  0.602471  0.374733  1
  O  O41  1  0.612204  0.886433  0.113505  1
  O  O42  1  0.622651  0.353021  0.140916  1
  O  O43  1  0.624341  0.107293  0.896392  1
  O  O44  1  0.613117  0.139569  0.359471  1
  O  O45  1  0.645498  0.874920  0.646825  1
  O  O46  1  0.649564  0.643845  0.873912  1
  O  O47  1  0.849706  0.355956  0.373502  1
  O  O48  1  0.853002  0.125729  0.146755  1
  O  O49  1  0.865489  0.865099  0.861885  1
  O  O50  1  0.884721  0.890926  0.395271  1
  O  O51  1  0.875009  0.647828  0.642723  1
  O  O52  1  0.893374  0.112777  0.609021  1
  O  O53  1  0.893063  0.399125  0.876514  1
  O  O54  1  0.898081  0.624930  0.107212  1
