# generated using pymatgen
data_Li2AlNiO4
_symmetry_space_group_name_H-M   'P 1'
_cell_length_a   6.14838932
_cell_length_b   5.52313311
_cell_length_c   4.96963944
_cell_angle_alpha   90.00102234
_cell_angle_beta   90.00022272
_cell_angle_gamma   90.00010418
_symmetry_Int_Tables_number   1
_chemical_formula_structural   Li2AlNiO4
_chemical_formula_sum   'Li4 Al2 Ni2 O8'
_cell_volume   168.76086791
_cell_formula_units_Z   2
loop_
 _symmetry_equiv_pos_site_id
 _symmetry_equiv_pos_as_xyz
  1  'x, y, z'
loop_
 _atom_site_type_symbol
 _atom_site_label
 _atom_site_symmetry_multiplicity
 _atom_site_fract_x
 _atom_site_fract_y
 _atom_site_fract_z
 _atom_site_occupancy
  Li  Li0  1  0.250464  0.334995  0.993150  1
  Li  Li1  1  0.249536  0.665009  0.493131  1
  Li  Li2  1  0.749535  0.334997  0.993149  1
  Li  Li3  1  0.750463  0.665009  0.493130  1
  Al  Al4  1  -0.000000  0.161958  0.498130  1
  Al  Al5  1  0.500001  0.838051  0.998143  1
  Ni  Ni6  1  0.000003  0.833811  0.996370  1
  Ni  Ni7  1  0.500002  0.166177  0.496395  1
  O  O8  1  0.999999  0.147031  0.857511  1
  O  O9  1  0.999999  0.860073  0.371679  1
  O  O10  1  0.259672  0.680952  0.894989  1
  O  O11  1  0.240342  0.319043  0.395001  1
  O  O12  1  0.500000  0.139935  0.871706  1
  O  O13  1  0.499999  0.852962  0.357525  1
  O  O14  1  0.759659  0.319044  0.395000  1
  O  O15  1  0.740329  0.680953  0.894991  1
