# generated using pymatgen
data_LiMn2O3F
_symmetry_space_group_name_H-M   'P 1'
_cell_length_a   10.58719513
_cell_length_b   5.96438193
_cell_length_c   5.36059043
_cell_angle_alpha   90.00000000
_cell_angle_beta   91.24986238
_cell_angle_gamma   90.00000000
_symmetry_Int_Tables_number   1
_chemical_formula_structural   LiMn2O3F
_chemical_formula_sum   'Li4 Mn8 O12 F4'
_cell_volume   338.41971115
_cell_formula_units_Z   4
loop_
 _symmetry_equiv_pos_site_id
 _symmetry_equiv_pos_as_xyz
  1  'x, y, z'
loop_
 _atom_site_type_symbol
 _atom_site_label
 _atom_site_symmetry_multiplicity
 _atom_site_fract_x
 _atom_site_fract_y
 _atom_site_fract_z
 _atom_site_occupancy
  Li  Li0  1  0.982898  0.056805  0.572017  1
  Li  Li1  1  0.014147  0.550595  0.122377  1
  Li  Li2  1  0.485853  0.050595  0.877623  1
  Li  Li3  1  0.517102  0.556805  0.427983  1
  Mn  Mn4  1  0.242373  0.497614  0.514326  1
  Mn  Mn5  1  0.244183  0.247698  0.001518  1
  Mn  Mn6  1  0.255817  0.747698  0.998482  1
  Mn  Mn7  1  0.257627  0.997614  0.485674  1
  Mn  Mn8  1  0.731546  0.989173  0.494904  1
  Mn  Mn9  1  0.754825  0.235277  0.010809  1
  Mn  Mn10  1  0.745175  0.735277  0.989191  1
  Mn  Mn11  1  0.768454  0.489173  0.505096  1
  O  O12  1  0.166854  0.743423  0.317286  1
  O  O13  1  0.160427  0.251113  0.326769  1
  O  O14  1  0.152105  0.503366  0.882454  1
  O  O15  1  0.347895  0.003366  0.117546  1
  O  O16  1  0.333146  0.243423  0.682714  1
  O  O17  1  0.339573  0.751113  0.673231  1
  O  O18  1  0.652486  0.721601  0.613480  1
  O  O19  1  0.658210  0.983043  0.155180  1
  O  O20  1  0.672524  0.489314  0.187176  1
  O  O21  1  0.827476  0.989314  0.812824  1
  O  O22  1  0.841790  0.483043  0.844820  1
  O  O23  1  0.847514  0.221601  0.386520  1
  F  F24  1  0.117294  0.999859  0.800399  1
  F  F25  1  0.382706  0.499859  0.199601  1
  F  F26  1  0.609204  0.231120  0.680435  1
  F  F27  1  0.890796  0.731120  0.319565  1
