# generated using pymatgen
data_CaMgUH24C3O23
_symmetry_space_group_name_H-M   'P 1'
_cell_length_a   11.22040371
_cell_length_b   14.79046329
_cell_length_c   6.49048188
_cell_angle_alpha   90.00000000
_cell_angle_beta   99.68704797
_cell_angle_gamma   90.00000000
_symmetry_Int_Tables_number   1
_chemical_formula_structural   CaMgUH24C3O23
_chemical_formula_sum   'Ca2 Mg2 U2 H48 C6 O46'
_cell_volume   1061.76953000
_cell_formula_units_Z   2
loop_
 _symmetry_equiv_pos_site_id
 _symmetry_equiv_pos_as_xyz
  1  'x, y, z'
loop_
 _atom_site_type_symbol
 _atom_site_label
 _atom_site_symmetry_multiplicity
 _atom_site_fract_x
 _atom_site_fract_y
 _atom_site_fract_z
 _atom_site_occupancy
  Ca  Ca0  1  0.586439  0.250000  0.779584  1
  Ca  Ca1  1  0.413561  0.750000  0.220416  1
  Mg  Mg2  1  0.000000  0.500000  0.000000  1
  Mg  Mg3  1  0.000000  0.000000  0.000000  1
  U  U4  1  0.220303  0.250000  0.550887  1
  U  U5  1  0.779697  0.750000  0.449113  1
  H  H6  1  0.404826  0.250000  0.098532  1
  H  H7  1  0.595174  0.750000  0.901468  1
  H  H8  1  0.533318  0.250000  0.238630  1
  H  H9  1  0.466682  0.750000  0.761370  1
  H  H10  1  0.808247  0.250000  0.104731  1
  H  H11  1  0.191753  0.750000  0.895269  1
  H  H12  1  0.866959  0.250000  0.908907  1
  H  H13  1  0.133041  0.750000  0.091093  1
  H  H14  1  0.557255  0.449398  0.833425  1
  H  H15  1  0.442745  0.949398  0.166575  1
  H  H16  1  0.442745  0.550602  0.166575  1
  H  H17  1  0.557255  0.050602  0.833425  1
  H  H18  1  0.621084  0.441056  0.064082  1
  H  H19  1  0.378916  0.941056  0.935918  1
  H  H20  1  0.378916  0.558944  0.935918  1
  H  H21  1  0.621084  0.058944  0.064082  1
  H  H22  1  0.730916  0.330610  0.471685  1
  H  H23  1  0.269084  0.830610  0.528315  1
  H  H24  1  0.269084  0.669390  0.528315  1
  H  H25  1  0.730916  0.169390  0.471685  1
  H  H26  1  0.627856  0.405419  0.446700  1
  H  H27  1  0.372144  0.905419  0.553300  1
  H  H28  1  0.372144  0.594581  0.553300  1
  H  H29  1  0.627856  0.094581  0.446700  1
  H  H30  1  0.946620  0.416353  0.346372  1
  H  H31  1  0.053380  0.916353  0.653628  1
  H  H32  1  0.053380  0.583647  0.653628  1
  H  H33  1  0.946620  0.083647  0.346372  1
  H  H34  1  0.863105  0.506757  0.323474  1
  H  H35  1  0.136895  0.006757  0.676526  1
  H  H36  1  0.136895  0.493243  0.676526  1
  H  H37  1  0.863105  0.993243  0.323474  1
  H  H38  1  0.195559  0.478509  0.323933  1
  H  H39  1  0.804441  0.978509  0.676067  1
  H  H40  1  0.804441  0.521491  0.676067  1
  H  H41  1  0.195559  0.021491  0.323933  1
  H  H42  1  0.240348  0.534503  0.137509  1
  H  H43  1  0.759652  0.034503  0.862491  1
  H  H44  1  0.759652  0.465497  0.862491  1
  H  H45  1  0.240348  0.965497  0.137509  1
  H  H46  1  0.100025  0.334987  0.999555  1
  H  H47  1  0.899975  0.834987  0.000445  1
  H  H48  1  0.899975  0.665013  0.000445  1
  H  H49  1  0.100025  0.165013  0.999555  1
  H  H50  1  0.007566  0.350744  0.797443  1
  H  H51  1  0.992434  0.850744  0.202557  1
  H  H52  1  0.992434  0.649256  0.202557  1
  H  H53  1  0.007566  0.149256  0.797443  1
  C  C54  1  0.955085  0.250000  0.452857  1
  C  C55  1  0.044915  0.750000  0.547143  1
  C  C56  1  0.354488  0.418870  0.635784  1
  C  C57  1  0.645512  0.918870  0.364216  1
  C  C58  1  0.645512  0.581130  0.364216  1
  C  C59  1  0.354488  0.081130  0.635784  1
  O  O60  1  0.228457  0.250000  0.273056  1
  O  O61  1  0.771543  0.750000  0.726944  1
  O  O62  1  0.209664  0.250000  0.828887  1
  O  O63  1  0.790336  0.750000  0.171113  1
  O  O64  1  0.018335  0.324640  0.490080  1
  O  O65  1  0.981665  0.824640  0.509920  1
  O  O66  1  0.981665  0.675360  0.509920  1
  O  O67  1  0.018335  0.175360  0.490080  1
  O  O68  1  0.841869  0.250000  0.387621  1
  O  O69  1  0.158131  0.750000  0.612379  1
  O  O70  1  0.237067  0.418619  0.567031  1
  O  O71  1  0.762933  0.918619  0.432969  1
  O  O72  1  0.762933  0.581381  0.432969  1
  O  O73  1  0.237067  0.081381  0.567031  1
  O  O74  1  0.404074  0.338829  0.639207  1
  O  O75  1  0.595926  0.838829  0.360793  1
  O  O76  1  0.595926  0.661171  0.360793  1
  O  O77  1  0.404074  0.161171  0.639207  1
  O  O78  1  0.414182  0.489914  0.695054  1
  O  O79  1  0.585818  0.989914  0.304946  1
  O  O80  1  0.585818  0.510086  0.304946  1
  O  O81  1  0.414182  0.010086  0.695054  1
  O  O82  1  0.491330  0.250000  0.093645  1
  O  O83  1  0.508670  0.750000  0.906355  1
  O  O84  1  0.788151  0.250000  0.950475  1
  O  O85  1  0.211849  0.750000  0.049525  1
  O  O86  1  0.628027  0.420577  0.922935  1
  O  O87  1  0.371973  0.920577  0.077065  1
  O  O88  1  0.371973  0.579423  0.077065  1
  O  O89  1  0.628027  0.079423  0.922935  1
  O  O90  1  0.651519  0.345364  0.507445  1
  O  O91  1  0.348481  0.845364  0.492555  1
  O  O92  1  0.348481  0.654636  0.492555  1
  O  O93  1  0.651519  0.154636  0.507445  1
  O  O94  1  0.916214  0.467825  0.254153  1
  O  O95  1  0.083786  0.967825  0.745847  1
  O  O96  1  0.083786  0.532175  0.745847  1
  O  O97  1  0.916214  0.032175  0.254153  1
  O  O98  1  0.169512  0.504252  0.183024  1
  O  O99  1  0.830488  0.004253  0.816976  1
  O  O100  1  0.830488  0.495748  0.816976  1
  O  O101  1  0.169512  0.995748  0.183024  1
  O  O102  1  0.019284  0.359730  0.949498  1
  O  O103  1  0.980716  0.859730  0.050502  1
  O  O104  1  0.980716  0.640270  0.050502  1
  O  O105  1  0.019284  0.140270  0.949498  1
