# generated using pymatgen
data_NbPHO5
_symmetry_space_group_name_H-M   'P 1'
_cell_length_a   5.45087144
_cell_length_b   7.72692996
_cell_length_c   5.36730327
_cell_angle_alpha   109.57608086
_cell_angle_beta   97.42069341
_cell_angle_gamma   106.24708012
_symmetry_Int_Tables_number   1
_chemical_formula_structural   NbPHO5
_chemical_formula_sum   'Nb2 P2 H2 O10'
_cell_volume   198.18421191
_cell_formula_units_Z   2
loop_
 _symmetry_equiv_pos_site_id
 _symmetry_equiv_pos_as_xyz
  1  'x, y, z'
loop_
 _atom_site_type_symbol
 _atom_site_label
 _atom_site_symmetry_multiplicity
 _atom_site_fract_x
 _atom_site_fract_y
 _atom_site_fract_z
 _atom_site_occupancy
  Nb  Nb0  1  0.000000  0.500000  0.000000  1
  Nb  Nb1  1  0.000000  0.000000  0.000000  1
  P  P2  1  0.351778  0.228232  0.671937  1
  P  P3  1  0.648222  0.771768  0.328063  1
  H  H4  1  0.023047  0.333923  0.363026  1
  H  H5  1  0.976953  0.666077  0.636974  1
  O  O6  1  0.031137  0.718400  0.839284  1
  O  O7  1  0.199741  0.375731  0.721359  1
  O  O8  1  0.352317  0.658957  0.276788  1
  O  O9  1  0.247272  0.076945  0.376057  1
  O  O10  1  0.311080  0.121793  0.870886  1
  O  O11  1  0.688920  0.878207  0.129114  1
  O  O12  1  0.752728  0.923055  0.623943  1
  O  O13  1  0.647683  0.341043  0.723212  1
  O  O14  1  0.800259  0.624269  0.278641  1
  O  O15  1  0.968863  0.281600  0.160716  1
