# generated using pymatgen
data_Li4FeP2O9
_symmetry_space_group_name_H-M   'P 1'
_cell_length_a   12.74617931
_cell_length_b   7.18514222
_cell_length_c   19.44492029
_cell_angle_alpha   90.00000000
_cell_angle_beta   97.04875839
_cell_angle_gamma   90.00000000
_symmetry_Int_Tables_number   1
_chemical_formula_structural   Li4FeP2O9
_chemical_formula_sum   'Li40 Fe10 P20 O90'
_cell_volume   1767.36695618
_cell_formula_units_Z   10
loop_
 _symmetry_equiv_pos_site_id
 _symmetry_equiv_pos_as_xyz
  1  'x, y, z'
loop_
 _atom_site_type_symbol
 _atom_site_label
 _atom_site_symmetry_multiplicity
 _atom_site_fract_x
 _atom_site_fract_y
 _atom_site_fract_z
 _atom_site_occupancy
  Li  Li0  1  0.094947  0.520113  0.949489  1
  Li  Li1  1  0.091587  0.272726  0.830975  1
  Li  Li2  1  0.103668  0.013765  0.701601  1
  Li  Li3  1  0.102980  0.791128  0.561194  1
  Li  Li4  1  0.094947  0.479887  0.449489  1
  Li  Li5  1  0.091587  0.727274  0.330975  1
  Li  Li6  1  0.103668  0.986235  0.201601  1
  Li  Li7  1  0.102980  0.208872  0.061194  1
  Li  Li8  1  0.287631  0.794443  0.973639  1
  Li  Li9  1  0.300316  0.953687  0.836924  1
  Li  Li10  1  0.303363  0.542622  0.845164  1
  Li  Li11  1  0.300381  0.966589  0.642835  1
  Li  Li12  1  0.287631  0.205557  0.473639  1
  Li  Li13  1  0.300316  0.046313  0.336924  1
  Li  Li14  1  0.303363  0.457378  0.345164  1
  Li  Li15  1  0.300381  0.033411  0.142835  1
  Li  Li16  1  0.513052  0.258111  0.865071  1
  Li  Li17  1  0.500000  0.582793  0.750000  1
  Li  Li18  1  0.486948  0.258111  0.634929  1
  Li  Li19  1  0.500000  0.000000  0.500000  1
  Li  Li20  1  0.513052  0.741889  0.365071  1
  Li  Li21  1  0.500000  0.417207  0.250000  1
  Li  Li22  1  0.486948  0.741889  0.134929  1
  Li  Li23  1  0.500000  0.000000  0.000000  1
  Li  Li24  1  0.699619  0.966589  0.857165  1
  Li  Li25  1  0.696637  0.542622  0.654836  1
  Li  Li26  1  0.699684  0.953687  0.663076  1
  Li  Li27  1  0.712369  0.794443  0.526361  1
  Li  Li28  1  0.699619  0.033411  0.357165  1
  Li  Li29  1  0.696637  0.457378  0.154836  1
  Li  Li30  1  0.699684  0.046313  0.163076  1
  Li  Li31  1  0.712369  0.205557  0.026361  1
  Li  Li32  1  0.897020  0.791128  0.938806  1
  Li  Li33  1  0.896332  0.013765  0.798399  1
  Li  Li34  1  0.908413  0.272726  0.669025  1
  Li  Li35  1  0.905053  0.520113  0.550511  1
  Li  Li36  1  0.897020  0.208872  0.438806  1
  Li  Li37  1  0.896332  0.986235  0.298399  1
  Li  Li38  1  0.908413  0.727274  0.169025  1
  Li  Li39  1  0.905053  0.479887  0.050511  1
  Fe  Fe40  1  0.100685  0.536204  0.698715  1
  Fe  Fe41  1  0.100685  0.463796  0.198715  1
  Fe  Fe42  1  0.298631  0.520187  0.598613  1
  Fe  Fe43  1  0.298631  0.479813  0.098613  1
  Fe  Fe44  1  0.500000  0.500000  0.500000  1
  Fe  Fe45  1  0.500000  0.500000  0.000000  1
  Fe  Fe46  1  0.701369  0.520187  0.901387  1
  Fe  Fe47  1  0.701369  0.479813  0.401387  1
  Fe  Fe48  1  0.899315  0.536204  0.801285  1
  Fe  Fe49  1  0.899315  0.463796  0.301285  1
  P  P50  1  0.100460  0.803093  0.834441  1
  P  P51  1  0.098206  0.240585  0.568072  1
  P  P52  1  0.100460  0.196907  0.334441  1
  P  P53  1  0.098206  0.759415  0.068072  1
  P  P54  1  0.292644  0.256117  0.953463  1
  P  P55  1  0.305199  0.275509  0.741326  1
  P  P56  1  0.292644  0.743883  0.453463  1
  P  P57  1  0.305199  0.724491  0.241326  1
  P  P58  1  0.503724  0.798729  0.873601  1
  P  P59  1  0.496276  0.798729  0.626399  1
  P  P60  1  0.503724  0.201271  0.373601  1
  P  P61  1  0.496276  0.201271  0.126399  1
  P  P62  1  0.694801  0.275509  0.758674  1
  P  P63  1  0.707356  0.256117  0.546537  1
  P  P64  1  0.694801  0.724491  0.258674  1
  P  P65  1  0.707356  0.743883  0.046537  1
  P  P66  1  0.901794  0.240585  0.931928  1
  P  P67  1  0.899540  0.803093  0.665559  1
  P  P68  1  0.901794  0.759415  0.431928  1
  P  P69  1  0.899540  0.196907  0.165559  1
  O  O70  1  0.016826  0.676591  0.864205  1
  O  O71  1  0.000000  0.425554  0.750000  1
  O  O72  1  -0.000040  0.270584  0.515522  1
  O  O73  1  0.063464  0.006844  0.828014  1
  O  O74  1  0.016826  0.323409  0.364205  1
  O  O75  1  0.000000  0.574446  0.250000  1
  O  O76  1  0.071593  0.318071  0.640144  1
  O  O77  1  0.115009  0.755350  0.756776  1
  O  O78  1  -0.000040  0.729416  0.015522  1
  O  O79  1  0.063464  0.993156  0.328014  1
  O  O80  1  0.138716  0.042081  0.585778  1
  O  O81  1  0.206224  0.765719  0.879262  1
  O  O82  1  0.071593  0.681929  0.140144  1
  O  O83  1  0.194991  0.332274  0.908104  1
  O  O84  1  0.115009  0.244650  0.256776  1
  O  O85  1  0.213577  0.402985  0.761978  1
  O  O86  1  0.193090  0.639416  0.642080  1
  O  O87  1  0.187828  0.356850  0.538184  1
  O  O88  1  0.138716  0.957919  0.085778  1
  O  O89  1  0.206224  0.234281  0.379262  1
  O  O90  1  0.194991  0.667726  0.408104  1
  O  O91  1  0.268802  0.070141  0.741969  1
  O  O92  1  0.213577  0.597015  0.261978  1
  O  O93  1  0.193090  0.360584  0.142080  1
  O  O94  1  0.324204  0.053243  0.941716  1
  O  O95  1  0.187828  0.643150  0.038184  1
  O  O96  1  0.273962  0.727423  0.531712  1
  O  O97  1  0.327221  0.313538  0.664916  1
  O  O98  1  0.268802  0.929859  0.241970  1
  O  O99  1  0.385676  0.386233  0.935505  1
  O  O100  1  0.324204  0.946757  0.441716  1
  O  O101  1  0.402842  0.327246  0.791532  1
  O  O102  1  0.273962  0.272577  0.031712  1
  O  O103  1  0.403911  0.766619  0.822523  1
  O  O104  1  0.327221  0.686462  0.164916  1
  O  O105  1  0.409416  0.675358  0.654943  1
  O  O106  1  0.399647  0.398975  0.552651  1
  O  O107  1  0.385676  0.613767  0.435505  1
  O  O108  1  0.481237  0.740874  0.948646  1
  O  O109  1  0.402842  0.672754  0.291532  1
  O  O110  1  0.403911  0.233381  0.322523  1
  O  O111  1  0.454093  0.999374  0.617393  1
  O  O112  1  0.409416  0.324642  0.154943  1
  O  O113  1  0.399647  0.601025  0.052651  1
  O  O114  1  0.545907  0.999374  0.882607  1
  O  O115  1  0.481237  0.259126  0.448646  1
  O  O116  1  0.518763  0.740874  0.551354  1
  O  O117  1  0.454093  0.000626  0.117393  1
  O  O118  1  0.600353  0.398975  0.947349  1
  O  O119  1  0.590584  0.675358  0.845057  1
  O  O120  1  0.545907  0.000626  0.382607  1
  O  O121  1  0.596089  0.766619  0.677477  1
  O  O122  1  0.597158  0.327246  0.708468  1
  O  O123  1  0.518763  0.259126  0.051354  1
  O  O124  1  0.614324  0.386233  0.564495  1
  O  O125  1  0.600353  0.601025  0.447349  1
  O  O126  1  0.590584  0.324642  0.345057  1
  O  O127  1  0.672779  0.313538  0.835084  1
  O  O128  1  0.596089  0.233381  0.177477  1
  O  O129  1  0.726038  0.727423  0.968288  1
  O  O130  1  0.597158  0.672754  0.208468  1
  O  O131  1  0.675796  0.053243  0.558284  1
  O  O132  1  0.614324  0.613767  0.064495  1
  O  O133  1  0.731198  0.070141  0.758031  1
  O  O134  1  0.672779  0.686462  0.335084  1
  O  O135  1  0.726038  0.272577  0.468288  1
  O  O136  1  0.812172  0.356850  0.961816  1
  O  O137  1  0.675796  0.946757  0.058284  1
  O  O138  1  0.806910  0.639416  0.857920  1
  O  O139  1  0.786423  0.402985  0.738022  1
  O  O140  1  0.731198  0.929859  0.258030  1
  O  O141  1  0.805009  0.332274  0.591896  1
  O  O142  1  0.793776  0.765719  0.620738  1
  O  O143  1  0.861284  0.042081  0.914222  1
  O  O144  1  0.812172  0.643150  0.461816  1
  O  O145  1  0.806910  0.360584  0.357920  1
  O  O146  1  0.786423  0.597015  0.238022  1
  O  O147  1  0.884991  0.755350  0.743224  1
  O  O148  1  0.805009  0.667726  0.091896  1
  O  O149  1  0.928407  0.318071  0.859856  1
  O  O150  1  0.793776  0.234281  0.120738  1
  O  O151  1  0.861284  0.957919  0.414222  1
  O  O152  1  0.936536  0.006844  0.671986  1
  O  O153  1  0.000040  0.270584  0.984478  1
  O  O154  1  0.884991  0.244650  0.243224  1
  O  O155  1  0.928407  0.681929  0.359856  1
  O  O156  1  0.983174  0.676591  0.635795  1
  O  O157  1  0.936536  0.993156  0.171986  1
  O  O158  1  0.000040  0.729416  0.484478  1
  O  O159  1  0.983174  0.323409  0.135795  1
