# generated using pymatgen
data_Li6CrFeP2(CO7)2
_symmetry_space_group_name_H-M   'P 1'
_cell_length_a   8.61083629
_cell_length_b   5.01668137
_cell_length_c   6.47694320
_cell_angle_alpha   90.00000000
_cell_angle_beta   90.00000000
_cell_angle_gamma   85.36048041
_symmetry_Int_Tables_number   1
_chemical_formula_structural   Li6CrFeP2(CO7)2
_chemical_formula_sum   'Li6 Cr1 Fe1 P2 C2 O14'
_cell_volume   278.87305930
_cell_formula_units_Z   1
loop_
 _symmetry_equiv_pos_site_id
 _symmetry_equiv_pos_as_xyz
  1  'x, y, z'
loop_
 _atom_site_type_symbol
 _atom_site_label
 _atom_site_symmetry_multiplicity
 _atom_site_fract_x
 _atom_site_fract_y
 _atom_site_fract_z
 _atom_site_occupancy
  Li  Li0  1  0.097033  0.760549  0.250000  1
  Li  Li1  1  0.274093  0.248290  0.023613  1
  Li  Li2  1  0.274093  0.248290  0.476387  1
  Li  Li3  1  0.726025  0.750908  0.523355  1
  Li  Li4  1  0.726025  0.750908  0.976645  1
  Li  Li5  1  0.906434  0.238910  0.750000  1
  Cr  Cr6  1  0.664696  0.215512  0.250000  1
  Fe  Fe7  1  0.333839  0.786933  0.750000  1
  P  P8  1  0.410342  0.719227  0.250000  1
  P  P9  1  0.587093  0.282861  0.750000  1
  C  C10  1  0.034454  0.702177  0.750000  1
  C  C11  1  0.968099  0.293832  0.250000  1
  O  O12  1  0.070470  0.947554  0.750000  1
  O  O13  1  0.110700  0.362227  0.250000  1
  O  O14  1  0.146257  0.510051  0.750000  1
  O  O15  1  0.310792  0.829783  0.062944  1
  O  O16  1  0.310792  0.829783  0.437056  1
  O  O17  1  0.422070  0.182833  0.750000  1
  O  O18  1  0.420671  0.408428  0.250000  1
  O  O19  1  0.571644  0.595589  0.750000  1
  O  O20  1  0.577302  0.813685  0.250000  1
  O  O21  1  0.688468  0.175763  0.936213  1
  O  O22  1  0.688468  0.175763  0.563787  1
  O  O23  1  0.852966  0.481042  0.250000  1
  O  O24  1  0.889794  0.642724  0.750000  1
  O  O25  1  0.937382  0.046382  0.250000  1
