# generated using pymatgen
data_Li2MnF4
_symmetry_space_group_name_H-M   'P 1'
_cell_length_a   3.14699746
_cell_length_b   10.09876092
_cell_length_c   5.04970502
_cell_angle_alpha   90.00000000
_cell_angle_beta   89.36725099
_cell_angle_gamma   90.00000000
_symmetry_Int_Tables_number   1
_chemical_formula_structural   Li2MnF4
_chemical_formula_sum   'Li4 Mn2 F8'
_cell_volume   160.47375275
_cell_formula_units_Z   2
loop_
 _symmetry_equiv_pos_site_id
 _symmetry_equiv_pos_as_xyz
  1  'x, y, z'
loop_
 _atom_site_type_symbol
 _atom_site_label
 _atom_site_symmetry_multiplicity
 _atom_site_fract_x
 _atom_site_fract_y
 _atom_site_fract_z
 _atom_site_occupancy
  Li  Li0  1  0.505609  0.791197  0.529668  1
  Li  Li1  1  0.494391  0.291197  0.970332  1
  Li  Li2  1  0.505609  0.708803  0.029668  1
  Li  Li3  1  0.494391  0.208803  0.470332  1
  Mn  Mn4  1  0.000000  0.500000  0.500000  1
  Mn  Mn5  1  0.000000  0.000000  0.000000  1
  F  F6  1  0.002047  0.326914  0.743071  1
  F  F7  1  0.002047  0.173086  0.243071  1
  F  F8  1  0.495942  0.598164  0.718316  1
  F  F9  1  0.495942  0.901836  0.218316  1
  F  F10  1  0.504058  0.098164  0.781684  1
  F  F11  1  0.504058  0.401836  0.281684  1
  F  F12  1  0.997953  0.826914  0.756929  1
  F  F13  1  0.997953  0.673086  0.256929  1
