# generated using pymatgen
data_V4OF11
_symmetry_space_group_name_H-M   'P 1'
_cell_length_a   5.24802761
_cell_length_b   5.48508184
_cell_length_c   17.47820710
_cell_angle_alpha   91.36742022
_cell_angle_beta   99.09717191
_cell_angle_gamma   61.10425417
_symmetry_Int_Tables_number   1
_chemical_formula_structural   V4OF11
_chemical_formula_sum   'V8 O2 F22'
_cell_volume   434.14179822
_cell_formula_units_Z   2
loop_
 _symmetry_equiv_pos_site_id
 _symmetry_equiv_pos_as_xyz
  1  'x, y, z'
loop_
 _atom_site_type_symbol
 _atom_site_label
 _atom_site_symmetry_multiplicity
 _atom_site_fract_x
 _atom_site_fract_y
 _atom_site_fract_z
 _atom_site_occupancy
  V  V0  1  0.723821  0.637695  0.118097  1
  V  V1  1  0.776179  0.112305  0.631903  1
  V  V2  1  0.493031  0.253625  0.248972  1
  V  V3  1  0.489653  0.755317  0.748675  1
  V  V4  1  0.250000  0.875000  0.375000  1
  V  V5  1  0.250000  0.375000  0.875000  1
  V  V6  1  0.010347  0.994683  0.001325  1
  V  V7  1  0.006969  0.496375  0.501028  1
  O  O8  1  0.430516  0.785607  0.045276  1
  O  O9  1  0.069484  0.964393  0.704724  1
  F  F10  1  0.924258  0.836450  0.088463  1
  F  F11  1  0.976553  0.316911  0.062326  1
  F  F12  1  0.972512  0.817986  0.561224  1
  F  F13  1  0.527488  0.932014  0.188776  1
  F  F14  1  0.925063  0.038248  0.286682  1
  F  F15  1  0.921309  0.340103  0.588001  1
  F  F16  1  0.920930  0.539446  0.786845  1
  F  F17  1  0.578691  0.409897  0.161999  1
  F  F18  1  0.575742  0.913550  0.661537  1
  F  F19  1  0.574937  0.711752  0.463318  1
  F  F20  1  0.475589  0.562445  0.311967  1
  F  F21  1  0.523447  0.433089  0.687674  1
  F  F22  1  0.424492  0.090760  0.337283  1
  F  F23  1  0.438251  0.280227  0.542079  1
  F  F24  1  0.424238  0.590885  0.837812  1
  F  F25  1  0.579070  0.210554  0.963155  1
  F  F26  1  0.075508  0.659240  0.412717  1
  F  F27  1  0.061749  0.469773  0.207921  1
  F  F28  1  0.476076  0.063352  0.812530  1
  F  F29  1  0.023924  0.686648  0.937470  1
  F  F30  1  0.024411  0.187555  0.438033  1
  F  F31  1  0.075762  0.159115  0.912188  1
