# generated using pymatgen
data_LiFe2(BO3)2
_symmetry_space_group_name_H-M   'P 1'
_cell_length_a   5.25601185
_cell_length_b   9.13807397
_cell_length_c   10.11748506
_cell_angle_alpha   91.26208858
_cell_angle_beta   91.02395846
_cell_angle_gamma   89.39302811
_symmetry_Int_Tables_number   1
_chemical_formula_structural   LiFe2(BO3)2
_chemical_formula_sum   'Li4 Fe8 B8 O24'
_cell_volume   485.72027975
_cell_formula_units_Z   4
loop_
 _symmetry_equiv_pos_site_id
 _symmetry_equiv_pos_as_xyz
  1  'x, y, z'
loop_
 _atom_site_type_symbol
 _atom_site_label
 _atom_site_symmetry_multiplicity
 _atom_site_fract_x
 _atom_site_fract_y
 _atom_site_fract_z
 _atom_site_occupancy
  Li  Li0  1  0.819289  0.831181  0.155564  1
  Li  Li1  1  0.668676  0.670044  0.875908  1
  Li  Li2  1  0.342490  0.327298  0.652354  1
  Li  Li3  1  0.165421  0.168389  0.384710  1
  Fe  Fe4  1  0.838603  0.161929  0.633429  1
  Fe  Fe5  1  0.829740  0.493854  0.132771  1
  Fe  Fe6  1  0.685452  0.007582  0.878312  1
  Fe  Fe7  1  0.655519  0.345562  0.377552  1
  Fe  Fe8  1  0.323681  0.665954  0.629459  1
  Fe  Fe9  1  0.329728  0.002226  0.125765  1
  Fe  Fe10  1  0.169143  0.836534  0.381571  1
  Fe  Fe11  1  0.176691  0.493138  0.884850  1
  B  B12  1  0.827070  0.494449  0.637280  1
  B  B13  1  0.830040  0.165382  0.134967  1
  B  B14  1  0.672631  0.008215  0.370785  1
  B  B15  1  0.675781  0.336703  0.870236  1
  B  B16  1  0.342633  0.003427  0.624822  1
  B  B17  1  0.330828  0.670211  0.125865  1
  B  B18  1  0.159711  0.498200  0.384857  1
  B  B19  1  0.167895  0.830098  0.884058  1
  O  O20  1  0.914899  0.504680  0.327554  1
  O  O21  1  0.909277  0.829790  0.892628  1
  O  O22  1  0.824975  0.215349  0.830220  1
  O  O23  1  0.782848  0.134372  0.429101  1
  O  O24  1  0.810696  0.886178  0.344616  1
  O  O25  1  0.798251  0.458586  0.930440  1
  O  O26  1  0.671836  0.612422  0.659757  1
  O  O27  1  0.688566  0.043191  0.091994  1
  O  O28  1  0.720265  0.362066  0.592385  1
  O  O29  1  0.705854  0.296707  0.163842  1
  O  O30  1  0.592553  0.661097  0.117609  1
  O  O31  1  0.592773  0.012687  0.669257  1
  O  O32  1  0.413281  0.015900  0.333121  1
  O  O33  1  0.423378  0.338694  0.845295  1
  O  O34  1  0.298885  0.706563  0.832027  1
  O  O35  1  0.270905  0.626750  0.433874  1
  O  O36  1  0.283730  0.366360  0.396613  1
  O  O37  1  0.315368  0.947121  0.930842  1
  O  O38  1  0.178175  0.553198  0.089639  1
  O  O39  1  0.199280  0.130705  0.611391  1
  O  O40  1  0.239961  0.869311  0.589871  1
  O  O41  1  0.211929  0.801540  0.165462  1
  O  O42  1  0.086048  0.151492  0.152504  1
  O  O43  1  0.088817  0.498434  0.663328  1
