# generated using pymatgen
data_LiVCr(P2O7)2
_symmetry_space_group_name_H-M   'P 1'
_cell_length_a   4.86725372
_cell_length_b   8.05686610
_cell_length_c   7.00036455
_cell_angle_alpha   90.17758771
_cell_angle_beta   108.37670516
_cell_angle_gamma   89.87107230
_symmetry_Int_Tables_number   1
_chemical_formula_structural   LiVCr(P2O7)2
_chemical_formula_sum   'Li1 V1 Cr1 P4 O14'
_cell_volume   260.51724488
_cell_formula_units_Z   1
loop_
 _symmetry_equiv_pos_site_id
 _symmetry_equiv_pos_as_xyz
  1  'x, y, z'
loop_
 _atom_site_type_symbol
 _atom_site_label
 _atom_site_symmetry_multiplicity
 _atom_site_fract_x
 _atom_site_fract_y
 _atom_site_fract_z
 _atom_site_occupancy
  Li  Li0  1  0.175320  0.864304  0.675389  1
  V  V1  1  0.206741  0.494481  0.722724  1
  Cr  Cr2  1  0.784016  0.005315  0.272002  1
  P  P3  1  0.403146  0.180038  0.520551  1
  P  P4  1  0.216741  0.782660  0.088295  1
  P  P5  1  0.780146  0.281638  0.916492  1
  P  P6  1  0.601673  0.678608  0.477407  1
  O  O7  1  0.046199  0.333101  0.853944  1
  O  O8  1  0.139882  0.688979  0.885015  1
  O  O9  1  0.177873  0.041477  0.484792  1
  O  O10  1  0.263087  0.352352  0.519658  1
  O  O11  1  0.394606  0.676511  0.606011  1
  O  O12  1  0.587503  0.435938  0.905788  1
  O  O13  1  0.601238  0.147075  0.752708  1
  O  O14  1  0.409357  0.647688  0.248248  1
  O  O15  1  0.400666  0.934429  0.080481  1
  O  O16  1  0.594523  0.179281  0.388947  1
  O  O17  1  0.747727  0.848441  0.490772  1
  O  O18  1  0.822052  0.537661  0.531080  1
  O  O19  1  0.875314  0.189958  0.112262  1
  O  O20  1  0.948094  0.822744  0.144229  1
