# generated using pymatgen
data_Mn2AlO4
_symmetry_space_group_name_H-M   'P 1'
_cell_length_a   10.42931653
_cell_length_b   6.28723202
_cell_length_c   4.96629573
_cell_angle_alpha   90.00000000
_cell_angle_beta   90.00000000
_cell_angle_gamma   90.00000000
_symmetry_Int_Tables_number   1
_chemical_formula_structural   Mn2AlO4
_chemical_formula_sum   'Mn8 Al4 O16'
_cell_volume   325.64762352
_cell_formula_units_Z   4
loop_
 _symmetry_equiv_pos_site_id
 _symmetry_equiv_pos_as_xyz
  1  'x, y, z'
loop_
 _atom_site_type_symbol
 _atom_site_label
 _atom_site_symmetry_multiplicity
 _atom_site_fract_x
 _atom_site_fract_y
 _atom_site_fract_z
 _atom_site_occupancy
  Mn  Mn0  1  0.000000  0.000000  0.000000  1
  Mn  Mn1  1  0.000000  0.500000  0.000000  1
  Mn  Mn2  1  0.221692  0.750000  0.472594  1
  Mn  Mn3  1  0.278308  0.250000  0.972594  1
  Mn  Mn4  1  0.500000  0.000000  0.500000  1
  Mn  Mn5  1  0.500000  0.500000  0.500000  1
  Mn  Mn6  1  0.721692  0.750000  0.027406  1
  Mn  Mn7  1  0.778308  0.250000  0.527406  1
  Al  Al8  1  0.090021  0.250000  0.423746  1
  Al  Al9  1  0.409979  0.750000  0.923746  1
  Al  Al10  1  0.590021  0.250000  0.076254  1
  Al  Al11  1  0.909979  0.750000  0.576254  1
  O  O12  1  0.063544  0.750000  0.751576  1
  O  O13  1  0.094791  0.250000  0.771465  1
  O  O14  1  0.149881  0.020717  0.249378  1
  O  O15  1  0.149881  0.479283  0.249378  1
  O  O16  1  0.350119  0.520717  0.749378  1
  O  O17  1  0.350119  0.979283  0.749378  1
  O  O18  1  0.405209  0.750000  0.271465  1
  O  O19  1  0.436456  0.250000  0.251576  1
  O  O20  1  0.563544  0.750000  0.748424  1
  O  O21  1  0.594791  0.250000  0.728535  1
  O  O22  1  0.649881  0.020717  0.250622  1
  O  O23  1  0.649881  0.479283  0.250622  1
  O  O24  1  0.850119  0.520717  0.750622  1
  O  O25  1  0.850119  0.979283  0.750622  1
  O  O26  1  0.905209  0.750000  0.228535  1
  O  O27  1  0.936456  0.250000  0.248424  1
