# generated using pymatgen
data_LiMnCo3O8
_symmetry_space_group_name_H-M   'P 1'
_cell_length_a   5.65097412
_cell_length_b   5.65097410
_cell_length_c   5.94205837
_cell_angle_alpha   118.39233283
_cell_angle_beta   90.00000000
_cell_angle_gamma   59.99999988
_symmetry_Int_Tables_number   1
_chemical_formula_structural   LiMnCo3O8
_chemical_formula_sum   'Li1 Mn1 Co3 O8'
_cell_volume   137.34254299
_cell_formula_units_Z   1
loop_
 _symmetry_equiv_pos_site_id
 _symmetry_equiv_pos_as_xyz
  1  'x, y, z'
loop_
 _atom_site_type_symbol
 _atom_site_label
 _atom_site_symmetry_multiplicity
 _atom_site_fract_x
 _atom_site_fract_y
 _atom_site_fract_z
 _atom_site_occupancy
  Li  Li0  1  0.500000  0.000000  0.500000  1
  Mn  Mn1  1  0.000000  0.000000  0.000000  1
  Co  Co2  1  0.000000  0.500000  0.000000  1
  Co  Co3  1  0.500000  0.000000  0.000000  1
  Co  Co4  1  0.500000  0.500000  0.000000  1
  O  O5  1  0.235983  0.037110  0.801128  1
  O  O6  1  0.235983  0.528035  0.801128  1
  O  O7  1  0.272280  0.455441  0.183162  1
  O  O8  1  0.726907  0.037110  0.801128  1
  O  O9  1  0.273093  0.962890  0.198872  1
  O  O10  1  0.727720  0.544559  0.816838  1
  O  O11  1  0.764017  0.471965  0.198872  1
  O  O12  1  0.764017  0.962890  0.198872  1
