# generated using pymatgen
data_LiV2O3F
_symmetry_space_group_name_H-M   'P 1'
_cell_length_a   6.04654256
_cell_length_b   5.99711190
_cell_length_c   6.01712240
_cell_angle_alpha   119.92590115
_cell_angle_beta   119.15314697
_cell_angle_gamma   90.80002589
_symmetry_Int_Tables_number   1
_chemical_formula_structural   LiV2O3F
_chemical_formula_sum   'Li2 V4 O6 F2'
_cell_volume   155.33447695
_cell_formula_units_Z   2
loop_
 _symmetry_equiv_pos_site_id
 _symmetry_equiv_pos_as_xyz
  1  'x, y, z'
loop_
 _atom_site_type_symbol
 _atom_site_label
 _atom_site_symmetry_multiplicity
 _atom_site_fract_x
 _atom_site_fract_y
 _atom_site_fract_z
 _atom_site_occupancy
  Li  Li0  1  0.984305  0.495051  0.988735  1
  Li  Li1  1  0.396754  0.622513  0.759586  1
  V  V2  1  0.611726  0.370375  0.239938  1
  V  V3  1  0.990792  0.007955  0.010767  1
  V  V4  1  0.509778  0.019826  0.509374  1
  V  V5  1  0.994892  0.003499  0.491498  1
  O  O6  1  0.749611  0.237121  0.502627  1
  O  O7  1  0.791789  0.775301  0.036506  1
  O  O8  1  0.252042  0.219093  0.488769  1
  O  O9  1  0.752653  0.233384  0.985876  1
  O  O10  1  0.745209  0.774381  0.510467  1
  O  O11  1  0.221374  0.216577  0.969091  1
  F  F12  1  0.247095  0.763384  0.017231  1
  F  F13  1  0.251978  0.761540  0.489532  1
