# generated using pymatgen
data_V6O5F19
_symmetry_space_group_name_H-M   'P 1'
_cell_length_a   5.49728862
_cell_length_b   5.35724535
_cell_length_c   14.92364567
_cell_angle_alpha   89.65687274
_cell_angle_beta   100.56613654
_cell_angle_gamma   92.05213432
_symmetry_Int_Tables_number   1
_chemical_formula_structural   V6O5F19
_chemical_formula_sum   'V6 O5 F19'
_cell_volume   431.77671804
_cell_formula_units_Z   1
loop_
 _symmetry_equiv_pos_site_id
 _symmetry_equiv_pos_as_xyz
  1  'x, y, z'
loop_
 _atom_site_type_symbol
 _atom_site_label
 _atom_site_symmetry_multiplicity
 _atom_site_fract_x
 _atom_site_fract_y
 _atom_site_fract_z
 _atom_site_occupancy
  V  V0  1  0.048864  0.967726  0.004301  1
  V  V1  1  0.198046  0.459981  0.329726  1
  V  V2  1  0.346149  0.050412  0.661817  1
  V  V3  1  0.513686  0.484860  0.998294  1
  V  V4  1  0.708262  0.966917  0.336408  1
  V  V5  1  0.807472  0.557096  0.672517  1
  O  O6  1  0.369625  0.230446  0.313959  1
  O  O7  1  0.546427  0.280524  0.648314  1
  O  O8  1  0.299558  0.802575  0.025287  1
  O  O9  1  0.623326  0.781650  0.690203  1
  O  O10  1  0.945689  0.791319  0.351782  1
  F  F11  1  0.056088  0.206554  0.640274  1
  F  F12  1  0.194683  0.285295  0.975626  1
  F  F13  1  0.115746  0.711993  0.687805  1
  F  F14  1  0.020695  0.095301  0.110873  1
  F  F15  1  0.187672  0.436254  0.447384  1
  F  F16  1  0.366278  0.055879  0.781388  1
  F  F17  1  0.123217  0.594419  0.219598  1
  F  F18  1  0.286818  0.906155  0.552908  1
  F  F19  1  0.451213  0.599033  0.885518  1
  F  F20  1  0.677832  0.207101  0.973098  1
  F  F21  1  0.461213  0.716831  0.361613  1
  F  F22  1  0.535680  0.427687  0.116137  1
  F  F23  1  0.714763  0.090940  0.446776  1
  F  F24  1  0.892631  0.407607  0.779551  1
  F  F25  1  0.584158  0.929671  0.218838  1
  F  F26  1  0.784549  0.559948  0.552837  1
  F  F27  1  0.940943  0.922684  0.886698  1
  F  F28  1  0.878162  0.275189  0.305405  1
  F  F29  1  0.820559  0.697955  0.025060  1
