# generated using pymatgen
data_LiNiPHO5
_symmetry_space_group_name_H-M   'P 1'
_cell_length_a   5.42759680
_cell_length_b   7.08908546
_cell_length_c   5.14982691
_cell_angle_alpha   107.95945255
_cell_angle_beta   100.19598200
_cell_angle_gamma   106.60495099
_symmetry_Int_Tables_number   1
_chemical_formula_structural   LiNiPHO5
_chemical_formula_sum   'Li2 Ni2 P2 H2 O10'
_cell_volume   172.82449063
_cell_formula_units_Z   2
loop_
 _symmetry_equiv_pos_site_id
 _symmetry_equiv_pos_as_xyz
  1  'x, y, z'
loop_
 _atom_site_type_symbol
 _atom_site_label
 _atom_site_symmetry_multiplicity
 _atom_site_fract_x
 _atom_site_fract_y
 _atom_site_fract_z
 _atom_site_occupancy
  Li  Li0  1  0.391094  0.820772  0.746080  1
  Li  Li1  1  0.608906  0.179228  0.253920  1
  Ni  Ni2  1  0.000000  0.500000  0.000000  1
  Ni  Ni3  1  0.000000  0.000000  0.000000  1
  P  P4  1  0.361997  0.237673  0.676026  1
  P  P5  1  0.638003  0.762327  0.323974  1
  H  H6  1  0.075120  0.344840  0.349384  1
  H  H7  1  0.924880  0.655160  0.650616  1
  O  O8  1  0.045809  0.728069  0.851832  1
  O  O9  1  0.211763  0.394354  0.711946  1
  O  O10  1  0.336918  0.656344  0.310141  1
  O  O11  1  0.252594  0.066859  0.363229  1
  O  O12  1  0.343144  0.121470  0.886257  1
  O  O13  1  0.656856  0.878530  0.113743  1
  O  O14  1  0.747406  0.933141  0.636771  1
  O  O15  1  0.663082  0.343656  0.689859  1
  O  O16  1  0.788237  0.605646  0.288054  1
  O  O17  1  0.954191  0.271931  0.148168  1
