# generated using pymatgen
data_Li4Ti3Mn3Nb2O16
_symmetry_space_group_name_H-M   'P 1'
_cell_length_a   6.14074429
_cell_length_b   6.05280301
_cell_length_c   9.92688078
_cell_angle_alpha   90.00011614
_cell_angle_beta   90.94612160
_cell_angle_gamma   119.52757560
_symmetry_Int_Tables_number   1
_chemical_formula_structural   Li4Ti3Mn3Nb2O16
_chemical_formula_sum   'Li4 Ti3 Mn3 Nb2 O16'
_cell_volume   320.98932362
_cell_formula_units_Z   1
loop_
 _symmetry_equiv_pos_site_id
 _symmetry_equiv_pos_as_xyz
  1  'x, y, z'
loop_
 _atom_site_type_symbol
 _atom_site_label
 _atom_site_symmetry_multiplicity
 _atom_site_fract_x
 _atom_site_fract_y
 _atom_site_fract_z
 _atom_site_occupancy
  Li  Li0  1  0.322931  0.661475  0.906054  1
  Li  Li1  1  0.005093  0.002563  0.986430  1
  Li  Li2  1  0.014866  0.007436  0.492674  1
  Li  Li3  1  0.654532  0.327276  0.407581  1
  Ti  Ti4  1  0.356039  0.178031  0.735748  1
  Ti  Ti5  1  0.188022  0.843017  0.219690  1
  Ti  Ti6  1  0.187916  0.345093  0.219742  1
  Mn  Mn7  1  0.666137  0.833051  0.210271  1
  Mn  Mn8  1  0.830817  0.662488  0.705623  1
  Mn  Mn9  1  0.830833  0.168365  0.705625  1
  Nb  Nb10  1  0.331350  0.665682  0.497475  1
  Nb  Nb11  1  0.700286  0.350151  0.988901  1
  O  O12  1  0.182466  0.835956  0.588247  1
  O  O13  1  0.040466  0.520223  0.333456  1
  O  O14  1  0.299995  0.650002  0.109001  1
  O  O15  1  0.020860  0.010436  0.305125  1
  O  O16  1  0.023471  0.011745  0.799495  1
  O  O17  1  0.182478  0.346523  0.588248  1
  O  O18  1  0.458242  0.960208  0.338389  1
  O  O19  1  0.458230  0.498043  0.338395  1
  O  O20  1  0.326213  0.163093  0.105894  1
  O  O21  1  0.663310  0.831669  0.571612  1
  O  O22  1  0.496270  0.463949  0.851897  1
  O  O23  1  0.496264  0.032340  0.851898  1
  O  O24  1  0.624560  0.312288  0.608962  1
  O  O25  1  0.842019  0.665691  0.091886  1
  O  O26  1  0.954317  0.477164  0.857632  1
  O  O27  1  0.842016  0.176343  0.091891  1
