# generated using pymatgen
data_Mn6O5F7
_symmetry_space_group_name_H-M   'P 1'
_cell_length_a   4.72781150
_cell_length_b   7.92406480
_cell_length_c   5.72318087
_cell_angle_alpha   94.08739890
_cell_angle_beta   88.10527871
_cell_angle_gamma   90.60794591
_symmetry_Int_Tables_number   1
_chemical_formula_structural   Mn6O5F7
_chemical_formula_sum   'Mn6 O5 F7'
_cell_volume   213.74068988
_cell_formula_units_Z   1
loop_
 _symmetry_equiv_pos_site_id
 _symmetry_equiv_pos_as_xyz
  1  'x, y, z'
loop_
 _atom_site_type_symbol
 _atom_site_label
 _atom_site_symmetry_multiplicity
 _atom_site_fract_x
 _atom_site_fract_y
 _atom_site_fract_z
 _atom_site_occupancy
  Mn  Mn0  1  0.472251  0.014721  0.491455  1
  Mn  Mn1  1  0.539642  0.652804  0.159366  1
  Mn  Mn2  1  0.499849  0.331330  0.833241  1
  Mn  Mn3  1  0.011964  0.691541  0.671887  1
  Mn  Mn4  1  0.973236  0.318695  0.339288  1
  Mn  Mn5  1  0.987422  0.987650  0.004605  1
  O  O6  1  0.813788  0.766405  0.957831  1
  O  O7  1  0.797476  0.087702  0.293824  1
  O  O8  1  0.691309  0.424510  0.119925  1
  O  O9  1  0.314422  0.240900  0.545665  1
  O  O10  1  0.195395  0.908319  0.711011  1
  F  F11  1  0.806507  0.465611  0.634368  1
  F  F12  1  0.709875  0.117779  0.798487  1
  F  F13  1  0.679390  0.782118  0.471472  1
  F  F14  1  0.299187  0.551993  0.864775  1
  F  F15  1  0.312515  0.874804  0.193732  1
  F  F16  1  0.195172  0.575025  0.371795  1
  F  F17  1  0.200600  0.208095  0.037272  1
