# generated using pymatgen
data_Li3CuF4
_symmetry_space_group_name_H-M   'P 1'
_cell_length_a   2.88003789
_cell_length_b   2.88010430
_cell_length_c   20.45220019
_cell_angle_alpha   90.02135794
_cell_angle_beta   90.04881023
_cell_angle_gamma   60.00514512
_symmetry_Int_Tables_number   1
_chemical_formula_structural   Li3CuF4
_chemical_formula_sum   'Li6 Cu2 F8'
_cell_volume   146.92626541
_cell_formula_units_Z   2
loop_
 _symmetry_equiv_pos_site_id
 _symmetry_equiv_pos_as_xyz
  1  'x, y, z'
loop_
 _atom_site_type_symbol
 _atom_site_label
 _atom_site_symmetry_multiplicity
 _atom_site_fract_x
 _atom_site_fract_y
 _atom_site_fract_z
 _atom_site_occupancy
  Li  Li0  1  0.000008  0.999961  0.999960  1
  Li  Li1  1  0.000075  0.000037  0.500047  1
  Li  Li2  1  0.333228  0.333641  0.384126  1
  Li  Li3  1  0.333632  0.333474  0.115923  1
  Li  Li4  1  0.666180  0.666384  0.884017  1
  Li  Li5  1  0.666990  0.666604  0.615941  1
  Cu  Cu6  1  0.332592  0.331491  0.749995  1
  Cu  Cu7  1  0.667296  0.668382  0.250001  1
  F  F8  1  0.000926  0.000188  0.671692  1
  F  F9  1  0.333085  0.333169  0.941922  1
  F  F10  1  0.333552  0.333332  0.558060  1
  F  F11  1  0.000608  0.999816  0.171711  1
  F  F12  1  0.998918  0.999882  0.828250  1
  F  F13  1  0.666638  0.666865  0.442013  1
  F  F14  1  0.999379  0.000315  0.328336  1
  F  F15  1  0.666893  0.666761  0.058007  1
