# generated using pymatgen
data_Li3Mn4(PO4)6
_symmetry_space_group_name_H-M   'P 1'
_cell_length_a   8.32201882
_cell_length_b   11.78881312
_cell_length_c   8.65005033
_cell_angle_alpha   89.79797666
_cell_angle_beta   90.61697880
_cell_angle_gamma   90.57546248
_symmetry_Int_Tables_number   1
_chemical_formula_structural   Li3Mn4(PO4)6
_chemical_formula_sum   'Li6 Mn8 P12 O48'
_cell_volume   848.53114764
_cell_formula_units_Z   2
loop_
 _symmetry_equiv_pos_site_id
 _symmetry_equiv_pos_as_xyz
  1  'x, y, z'
loop_
 _atom_site_type_symbol
 _atom_site_label
 _atom_site_symmetry_multiplicity
 _atom_site_fract_x
 _atom_site_fract_y
 _atom_site_fract_z
 _atom_site_occupancy
  Li  Li0  1  0.186916  0.178565  0.787478  1
  Li  Li1  1  0.322104  0.322223  0.284937  1
  Li  Li2  1  0.428848  0.803864  0.598703  1
  Li  Li3  1  0.819034  0.823439  0.209476  1
  Li  Li4  1  0.922773  0.660017  0.499302  1
  Li  Li5  1  0.919261  0.307927  0.908804  1
  Mn  Mn6  1  0.253475  0.886852  0.028514  1
  Mn  Mn7  1  0.253362  0.605457  0.527922  1
  Mn  Mn8  1  0.256531  0.388414  0.967982  1
  Mn  Mn9  1  0.249724  0.113221  0.465271  1
  Mn  Mn10  1  0.752264  0.888113  0.533248  1
  Mn  Mn11  1  0.748302  0.614252  0.029407  1
  Mn  Mn12  1  0.752755  0.387597  0.471022  1
  Mn  Mn13  1  0.744446  0.106920  0.972717  1
  P  P14  1  0.032750  0.492591  0.252578  1
  P  P15  1  0.118732  0.851040  0.377686  1
  P  P16  1  0.112646  0.140395  0.111401  1
  P  P17  1  0.392343  0.649154  0.885567  1
  P  P18  1  0.389323  0.352541  0.610529  1
  P  P19  1  0.460577  0.009508  0.752745  1
  P  P20  1  0.534730  0.993227  0.248971  1
  P  P21  1  0.611885  0.642726  0.385426  1
  P  P22  1  0.613862  0.353024  0.119584  1
  P  P23  1  0.887620  0.855244  0.884191  1
  P  P24  1  0.890365  0.150011  0.615630  1
  P  P25  1  0.959222  0.508792  0.752796  1
  O  O26  1  0.064061  0.894894  0.889357  1
  O  O27  1  0.054608  0.440600  0.873257  1
  O  O28  1  0.057820  0.603421  0.669067  1
  O  O29  1  0.069621  0.181144  0.579996  1
  O  O30  1  0.088597  0.587353  0.367993  1
  O  O31  1  0.139230  0.975877  0.426029  1
  O  O32  1  0.123428  0.840487  0.199198  1
  O  O33  1  0.130239  0.243425  0.996808  1
  O  O34  1  0.169950  0.182778  0.273149  1
  O  O35  1  0.180633  0.435923  0.186745  1
  O  O36  1  0.238455  0.776391  0.471918  1
  O  O37  1  0.274475  0.724651  0.974549  1
  O  O38  1  0.270326  0.447056  0.553650  1
  O  O39  1  0.228302  0.049348  0.052026  1
  O  O40  1  0.313437  0.069954  0.676079  1
  O  O41  1  0.334840  0.309812  0.767426  1
  O  O42  1  0.379441  0.664508  0.704861  1
  O  O43  1  0.361861  0.523938  0.919728  1
  O  O44  1  0.394006  0.916184  0.860594  1
  O  O45  1  0.365935  0.256371  0.487815  1
  O  O46  1  0.437091  0.896139  0.170797  1
  O  O47  1  0.437420  0.598822  0.384138  1
  O  O48  1  0.437458  0.319170  0.083410  1
  O  O49  1  0.441723  0.057372  0.373949  1
  O  O50  1  0.545583  0.941960  0.629890  1
  O  O51  1  0.566671  0.682585  0.930550  1
  O  O52  1  0.564293  0.394426  0.608187  1
  O  O53  1  0.562976  0.104172  0.830474  1
  O  O54  1  0.627322  0.745773  0.495048  1
  O  O55  1  0.596328  0.086415  0.137409  1
  O  O56  1  0.640774  0.477549  0.074031  1
  O  O57  1  0.620283  0.341092  0.298612  1
  O  O58  1  0.670242  0.683456  0.223745  1
  O  O59  1  0.684446  0.936457  0.323757  1
  O  O60  1  0.769892  0.947546  0.944984  1
  O  O61  1  0.735309  0.553596  0.445655  1
  O  O62  1  0.731093  0.277300  0.027737  1
  O  O63  1  0.774673  0.226025  0.522690  1
  O  O64  1  0.812992  0.565355  0.827882  1
  O  O65  1  0.838774  0.817201  0.720915  1
  O  O66  1  0.865189  0.756606  0.003333  1
  O  O67  1  0.881347  0.165926  0.796834  1
  O  O68  1  0.858892  0.026478  0.578398  1
  O  O69  1  0.894130  0.415088  0.643926  1
  O  O70  1  0.945007  0.811347  0.412532  1
  O  O71  1  0.933957  0.396237  0.331826  1
  O  O72  1  0.939920  0.557910  0.126493  1
  O  O73  1  0.935229  0.103403  0.112225  1
