# generated using pymatgen
data_In2Bi2O7
_symmetry_space_group_name_H-M   'P 1'
_cell_length_a   8.11132449
_cell_length_b   14.01653869
_cell_length_c   5.56102534
_cell_angle_alpha   90.00000000
_cell_angle_beta   90.00000000
_cell_angle_gamma   99.06068597
_symmetry_Int_Tables_number   1
_chemical_formula_structural   In2Bi2O7
_chemical_formula_sum   'In8 Bi8 O28'
_cell_volume   624.35882037
_cell_formula_units_Z   4
loop_
 _symmetry_equiv_pos_site_id
 _symmetry_equiv_pos_as_xyz
  1  'x, y, z'
loop_
 _atom_site_type_symbol
 _atom_site_label
 _atom_site_symmetry_multiplicity
 _atom_site_fract_x
 _atom_site_fract_y
 _atom_site_fract_z
 _atom_site_occupancy
  In  In0  1  0.068052  0.313983  0.273727  1
  In  In1  1  0.021175  0.113337  0.760809  1
  In  In2  1  0.393082  0.672460  0.763994  1
  In  In3  1  0.459576  0.876822  0.248123  1
  In  In4  1  0.540424  0.123178  0.748123  1
  In  In5  1  0.606918  0.327540  0.263994  1
  In  In6  1  0.978825  0.886663  0.260809  1
  In  In7  1  0.931948  0.686017  0.773727  1
  Bi  Bi8  1  0.166394  0.548258  0.327273  1
  Bi  Bi9  1  0.233595  0.921273  0.762309  1
  Bi  Bi10  1  0.300622  0.143990  0.224726  1
  Bi  Bi11  1  0.379543  0.376642  0.780250  1
  Bi  Bi12  1  0.620457  0.623358  0.280250  1
  Bi  Bi13  1  0.699378  0.856010  0.724726  1
  Bi  Bi14  1  0.766405  0.078727  0.262309  1
  Bi  Bi15  1  0.833606  0.451742  0.827273  1
  O  O16  1  0.039057  0.426344  0.562851  1
  O  O17  1  0.967941  0.183993  0.437662  1
  O  O18  1  0.153714  0.658654  0.585048  1
  O  O19  1  0.218669  0.869083  0.395350  1
  O  O20  1  0.199047  0.436014  0.091377  1
  O  O21  1  0.082557  0.033622  0.096663  1
  O  O22  1  0.152673  0.226619  0.983329  1
  O  O23  1  0.362439  0.631286  0.124445  1
  O  O24  1  0.416213  0.823789  0.892243  1
  O  O25  1  0.271985  0.089267  0.590852  1
  O  O26  1  0.327165  0.292353  0.408253  1
  O  O27  1  0.399893  0.538753  0.549808  1
  O  O28  1  0.560951  0.964673  0.565735  1
  O  O29  1  0.523160  0.758413  0.467663  1
  O  O30  1  0.476840  0.241587  0.967663  1
  O  O31  1  0.439049  0.035327  0.065735  1
  O  O32  1  0.600107  0.461247  0.049808  1
  O  O33  1  0.672835  0.707647  0.908253  1
  O  O34  1  0.728015  0.910733  0.090852  1
  O  O35  1  0.583787  0.176211  0.392243  1
  O  O36  1  0.637561  0.368714  0.624445  1
  O  O37  1  0.847327  0.773381  0.483329  1
  O  O38  1  0.917443  0.966378  0.596662  1
  O  O39  1  0.800953  0.563986  0.591377  1
  O  O40  1  0.781331  0.130917  0.895350  1
  O  O41  1  0.846286  0.341346  0.085048  1
  O  O42  1  0.032059  0.816007  0.937662  1
  O  O43  1  0.960943  0.573656  0.062851  1
