# generated using pymatgen
data_Zr2N2O
_symmetry_space_group_name_H-M   'P 1'
_cell_length_a   3.32938350
_cell_length_b   7.10033866
_cell_length_c   16.64631452
_cell_angle_alpha   80.02158847
_cell_angle_beta   90.00013914
_cell_angle_gamma   76.44069728
_symmetry_Int_Tables_number   1
_chemical_formula_structural   Zr2N2O
_chemical_formula_sum   'Zr12 N12 O6'
_cell_volume   376.42048781
_cell_formula_units_Z   6
loop_
 _symmetry_equiv_pos_site_id
 _symmetry_equiv_pos_as_xyz
  1  'x, y, z'
loop_
 _atom_site_type_symbol
 _atom_site_label
 _atom_site_symmetry_multiplicity
 _atom_site_fract_x
 _atom_site_fract_y
 _atom_site_fract_z
 _atom_site_occupancy
  Zr  Zr0  1  0.029067  0.941855  0.900725  1
  Zr  Zr1  1  0.030642  0.938731  0.404152  1
  Zr  Zr2  1  0.634970  0.730096  0.737908  1
  Zr  Zr3  1  0.697290  0.605426  0.568147  1
  Zr  Zr4  1  0.629749  0.740510  0.236398  1
  Zr  Zr5  1  0.307693  0.384634  0.936319  1
  Zr  Zr6  1  0.694179  0.611618  0.064454  1
  Zr  Zr7  1  0.364157  0.271674  0.760488  1
  Zr  Zr8  1  0.301817  0.396338  0.431718  1
  Zr  Zr9  1  0.370952  0.258085  0.262262  1
  Zr  Zr10  1  0.962441  0.075082  0.594732  1
  Zr  Zr11  1  0.970447  0.059117  0.095783  1
  N  N12  1  0.532887  0.934237  0.823520  1
  N  N13  1  0.171110  0.657786  0.981117  1
  N  N14  1  0.534771  0.930476  0.329624  1
  N  N15  1  0.121766  0.756488  0.645329  1
  N  N16  1  0.171455  0.657092  0.484631  1
  N  N17  1  0.127855  0.744300  0.143814  1
  N  N18  1  0.800305  0.399393  0.686288  1
  N  N19  1  0.872697  0.254594  0.862757  1
  N  N20  1  0.827979  0.344031  0.513790  1
  N  N21  1  0.873414  0.253169  0.356381  1
  N  N22  1  0.827844  0.344300  0.020971  1
  N  N23  1  0.467144  0.065708  0.172325  1
  O  O24  1  0.213640  0.572718  0.808702  1
  O  O25  1  0.208311  0.583350  0.310068  1
  O  O26  1  0.789825  0.420359  0.192062  1
  O  O27  1  0.468411  0.063198  0.670036  1
  O  O28  1  0.497141  0.005706  0.505621  1
  O  O29  1  0.500038  0.999930  0.999874  1
