# generated using pymatgen
data_Na2MnPCO7
_symmetry_space_group_name_H-M   'P 1'
_cell_length_a   8.89358014
_cell_length_b   8.46916832
_cell_length_c   8.55478413
_cell_angle_alpha   105.15370273
_cell_angle_beta   89.48837420
_cell_angle_gamma   88.65461774
_symmetry_Int_Tables_number   1
_chemical_formula_structural   Na2MnPCO7
_chemical_formula_sum   'Na8 Mn4 P4 C4 O28'
_cell_volume   621.70403143
_cell_formula_units_Z   4
loop_
 _symmetry_equiv_pos_site_id
 _symmetry_equiv_pos_as_xyz
  1  'x, y, z'
loop_
 _atom_site_type_symbol
 _atom_site_label
 _atom_site_symmetry_multiplicity
 _atom_site_fract_x
 _atom_site_fract_y
 _atom_site_fract_z
 _atom_site_occupancy
  Na  Na0  1  0.759158  0.382110  0.376063  1
  Na  Na1  1  0.761412  0.123119  0.630789  1
  Na  Na2  1  0.743264  0.616456  0.133958  1
  Na  Na3  1  0.742774  0.885062  0.867761  1
  Na  Na4  1  0.244581  0.129421  0.128664  1
  Na  Na5  1  0.252179  0.602683  0.622376  1
  Na  Na6  1  0.248890  0.890520  0.384420  1
  Na  Na7  1  0.085194  0.745409  0.007416  1
  Mn  Mn8  1  0.646740  0.484155  0.736306  1
  Mn  Mn9  1  0.647418  0.985937  0.234359  1
  Mn  Mn10  1  0.349789  0.517030  0.261243  1
  Mn  Mn11  1  0.346743  0.028385  0.767883  1
  P  P12  1  0.579397  0.267966  0.020107  1
  P  P13  1  0.577366  0.772528  0.521159  1
  P  P14  1  0.420759  0.227675  0.475331  1
  P  P15  1  0.419332  0.729894  0.978000  1
  C  C16  1  0.930176  0.006780  0.257762  1
  C  C17  1  0.926970  0.515650  0.763502  1
  C  C18  1  0.071948  0.491346  0.241247  1
  C  C19  1  0.072375  0.988320  0.743417  1
  O  O20  1  0.931077  0.491779  0.238877  1
  O  O21  1  0.932371  0.976171  0.736927  1
  O  O22  1  0.853407  0.403665  0.655929  1
  O  O23  1  0.851815  0.896829  0.150972  1
  O  O24  1  0.848546  0.111876  0.362344  1
  O  O25  1  0.836285  0.615369  0.869153  1
  O  O26  1  0.676168  0.142207  0.081214  1
  O  O27  1  0.670971  0.642011  0.577441  1
  O  O28  1  0.669553  0.324534  0.890676  1
  O  O29  1  0.668242  0.831283  0.392312  1
  O  O30  1  0.546649  0.421529  0.169335  1
  O  O31  1  0.575779  0.291371  0.545142  1
  O  O32  1  0.572826  0.798390  0.044692  1
  O  O33  1  0.544705  0.922992  0.672867  1
  O  O34  1  0.454565  0.079906  0.317778  1
  O  O35  1  0.427031  0.195381  0.956737  1
  O  O36  1  0.424197  0.704126  0.452075  1
  O  O37  1  0.455401  0.581900  0.826087  1
  O  O38  1  0.327539  0.156668  0.589809  1
  O  O39  1  0.330703  0.359639  0.419873  1
  O  O40  1  0.326306  0.676131  0.107701  1
  O  O41  1  0.318985  0.855568  0.922614  1
  O  O42  1  0.161239  0.387480  0.143855  1
  O  O43  1  0.167964  0.891001  0.642912  1
  O  O44  1  0.140010  0.100005  0.854503  1
  O  O45  1  0.146502  0.606335  0.346576  1
  O  O46  1  0.071866  0.998775  0.247565  1
  O  O47  1  0.066114  0.527007  0.764748  1
