# generated using pymatgen
data_Na3Ni2P2(CO7)2
_symmetry_space_group_name_H-M   'P 1'
_cell_length_a   8.91187844
_cell_length_b   10.26454812
_cell_length_c   6.48675964
_cell_angle_alpha   90.00000000
_cell_angle_beta   90.00000000
_cell_angle_gamma   88.39276558
_symmetry_Int_Tables_number   1
_chemical_formula_structural   Na3Ni2P2(CO7)2
_chemical_formula_sum   'Na6 Ni4 P4 C4 O28'
_cell_volume   593.15200367
_cell_formula_units_Z   2
loop_
 _symmetry_equiv_pos_site_id
 _symmetry_equiv_pos_as_xyz
  1  'x, y, z'
loop_
 _atom_site_type_symbol
 _atom_site_label
 _atom_site_symmetry_multiplicity
 _atom_site_fract_x
 _atom_site_fract_y
 _atom_site_fract_z
 _atom_site_occupancy
  Na  Na0  1  0.253493  0.122967  0.033943  1
  Na  Na1  1  0.253493  0.622968  0.466057  1
  Na  Na2  1  0.749507  0.379904  0.513622  1
  Na  Na3  1  0.751341  0.377952  0.985985  1
  Na  Na4  1  0.751341  0.877952  0.514015  1
  Na  Na5  1  0.749507  0.879904  0.986378  1
  Ni  Ni6  1  0.343994  0.392304  0.750482  1
  Ni  Ni7  1  0.343994  0.892304  0.749518  1
  Ni  Ni8  1  0.651275  0.109024  0.251904  1
  Ni  Ni9  1  0.651275  0.609024  0.248096  1
  P  P10  1  0.423527  0.358170  0.248647  1
  P  P11  1  0.423527  0.858170  0.251353  1
  P  P12  1  0.571816  0.141018  0.751368  1
  P  P13  1  0.571816  0.641018  0.748632  1
  C  C14  1  0.074351  0.355644  0.746555  1
  C  C15  1  0.074351  0.855644  0.753445  1
  C  C16  1  0.922369  0.141634  0.252280  1
  C  C17  1  0.922369  0.641634  0.247720  1
  O  O18  1  0.060010  0.160475  0.250969  1
  O  O19  1  0.060010  0.660475  0.249031  1
  O  O20  1  0.131984  0.470267  0.739876  1
  O  O21  1  0.131984  0.970267  0.760124  1
  O  O22  1  0.176043  0.262092  0.752956  1
  O  O23  1  0.176043  0.762092  0.747044  1
  O  O24  1  0.322532  0.389003  0.060914  1
  O  O25  1  0.327178  0.398863  0.436243  1
  O  O26  1  0.327178  0.898863  0.063757  1
  O  O27  1  0.322532  0.889003  0.439086  1
  O  O28  1  0.422978  0.069765  0.758561  1
  O  O29  1  0.422978  0.569765  0.741439  1
  O  O30  1  0.463496  0.209374  0.246761  1
  O  O31  1  0.463496  0.709374  0.253239  1
  O  O32  1  0.539730  0.291974  0.750713  1
  O  O33  1  0.539730  0.791974  0.749287  1
  O  O34  1  0.574720  0.429699  0.245958  1
  O  O35  1  0.574720  0.929699  0.254042  1
  O  O36  1  0.671067  0.103041  0.563542  1
  O  O37  1  0.674312  0.105242  0.938130  1
  O  O38  1  0.674312  0.605242  0.561870  1
  O  O39  1  0.671067  0.603041  0.936458  1
  O  O40  1  0.821275  0.237251  0.253184  1
  O  O41  1  0.821275  0.737251  0.246816  1
  O  O42  1  0.863217  0.026852  0.252065  1
  O  O43  1  0.863217  0.526852  0.247935  1
  O  O44  1  0.935071  0.336977  0.748062  1
  O  O45  1  0.935071  0.836977  0.751938  1
