# generated using pymatgen
data_K2LiVS4
_symmetry_space_group_name_H-M   'P 1'
_cell_length_a   6.83928023
_cell_length_b   6.83928023
_cell_length_c   18.22339569
_cell_angle_alpha   86.21885491
_cell_angle_beta   93.78114509
_cell_angle_gamma   102.93551855
_symmetry_Int_Tables_number   1
_chemical_formula_structural   K2LiVS4
_chemical_formula_sum   'K8 Li4 V4 S16'
_cell_volume   827.82371654
_cell_formula_units_Z   4
loop_
 _symmetry_equiv_pos_site_id
 _symmetry_equiv_pos_as_xyz
  1  'x, y, z'
loop_
 _atom_site_type_symbol
 _atom_site_label
 _atom_site_symmetry_multiplicity
 _atom_site_fract_x
 _atom_site_fract_y
 _atom_site_fract_z
 _atom_site_occupancy
  K  K0  1  0.157396  0.893921  0.927510  1
  K  K1  1  0.106079  0.842604  0.427510  1
  K  K2  1  0.681120  0.681199  0.750050  1
  K  K3  1  0.500843  0.468903  0.502196  1
  K  K4  1  0.318801  0.318880  0.250050  1
  K  K5  1  0.531097  0.499157  0.002196  1
  K  K6  1  0.896143  0.153212  0.572971  1
  K  K7  1  0.846788  0.103857  0.072971  1
  Li  Li8  1  0.113072  0.403836  0.784170  1
  Li  Li9  1  0.596164  0.886928  0.284170  1
  Li  Li10  1  0.403652  0.112472  0.716074  1
  Li  Li11  1  0.887528  0.596348  0.216074  1
  V  V12  1  0.190188  0.699800  0.644955  1
  V  V13  1  0.300200  0.809812  0.144955  1
  V  V14  1  0.699436  0.190573  0.854889  1
  V  V15  1  0.809427  0.300564  0.354888  1
  S  S16  1  0.174632  0.784147  0.756549  1
  S  S17  1  0.402776  0.931480  0.590060  1
  S  S18  1  0.215853  0.825368  0.256549  1
  S  S19  1  0.068520  0.597224  0.090060  1
  S  S20  1  0.664285  0.901528  0.913066  1
  S  S21  1  0.098472  0.335715  0.413066  1
  S  S22  1  0.287587  0.416369  0.653957  1
  S  S23  1  0.583631  0.712413  0.153957  1
  S  S24  1  0.417050  0.289615  0.847429  1
  S  S25  1  0.710385  0.582950  0.347429  1
  S  S26  1  0.901072  0.664384  0.586924  1
  S  S27  1  0.335616  0.098928  0.086924  1
  S  S28  1  0.930810  0.402759  0.909924  1
  S  S29  1  0.783249  0.175212  0.743117  1
  S  S30  1  0.597241  0.069190  0.409924  1
  S  S31  1  0.824788  0.216751  0.243117  1
