# generated using pymatgen
data_Li3NiPCO7
_symmetry_space_group_name_H-M   'P 1'
_cell_length_a   8.35604307
_cell_length_b   9.89314155
_cell_length_c   6.39644262
_cell_angle_alpha   89.73212898
_cell_angle_beta   90.25857504
_cell_angle_gamma   85.00294036
_symmetry_Int_Tables_number   1
_chemical_formula_structural   Li3NiPCO7
_chemical_formula_sum   'Li12 Ni4 P4 C4 O28'
_cell_volume   526.75605068
_cell_formula_units_Z   4
loop_
 _symmetry_equiv_pos_site_id
 _symmetry_equiv_pos_as_xyz
  1  'x, y, z'
loop_
 _atom_site_type_symbol
 _atom_site_label
 _atom_site_symmetry_multiplicity
 _atom_site_fract_x
 _atom_site_fract_y
 _atom_site_fract_z
 _atom_site_occupancy
  Li  Li0  1  0.102581  0.389012  0.252986  1
  Li  Li1  1  0.096252  0.878909  0.253984  1
  Li  Li2  1  0.275398  0.131852  0.490214  1
  Li  Li3  1  0.275577  0.611727  0.006204  1
  Li  Li4  1  0.276039  0.611260  0.491429  1
  Li  Li5  1  0.344427  0.399206  0.747966  1
  Li  Li6  1  0.718613  0.379478  0.527786  1
  Li  Li7  1  0.718125  0.379048  0.972674  1
  Li  Li8  1  0.722418  0.873822  0.522231  1
  Li  Li9  1  0.723494  0.873744  0.978813  1
  Li  Li10  1  0.905471  0.118564  0.750577  1
  Li  Li11  1  0.898793  0.613936  0.749192  1
  Ni  Ni12  1  0.272739  0.137689  0.005087  1
  Ni  Ni13  1  0.334190  0.893883  0.749035  1
  Ni  Ni14  1  0.666809  0.103488  0.249553  1
  Ni  Ni15  1  0.667368  0.603060  0.249014  1
  P  P16  1  0.410893  0.361665  0.247014  1
  P  P17  1  0.415291  0.863502  0.250866  1
  P  P18  1  0.590059  0.141398  0.752397  1
  P  P19  1  0.583272  0.641468  0.749510  1
  C  C20  1  0.037574  0.349716  0.757952  1
  C  C21  1  0.040660  0.851267  0.751669  1
  C  C22  1  0.960935  0.147805  0.246064  1
  C  C23  1  0.960250  0.648779  0.249827  1
  O  O24  1  0.072427  0.472281  0.750232  1
  O  O25  1  0.110031  0.180700  0.240202  1
  O  O26  1  0.077493  0.976137  0.751527  1
  O  O27  1  0.151403  0.249176  0.768725  1
  O  O28  1  0.108368  0.677729  0.249994  1
  O  O29  1  0.158349  0.756548  0.752650  1
  O  O30  1  0.307442  0.410834  0.057749  1
  O  O31  1  0.309593  0.403675  0.439958  1
  O  O32  1  0.309551  0.923219  0.062447  1
  O  O33  1  0.309055  0.914606  0.437466  1
  O  O34  1  0.419102  0.087052  0.756815  1
  O  O35  1  0.434083  0.199674  0.235521  1
  O  O36  1  0.418128  0.587843  0.748365  1
  O  O37  1  0.436408  0.706538  0.242421  1
  O  O38  1  0.568573  0.296633  0.751626  1
  O  O39  1  0.580542  0.412078  0.250048  1
  O  O40  1  0.563822  0.800560  0.750161  1
  O  O41  1  0.582778  0.916401  0.250991  1
  O  O42  1  0.695438  0.084751  0.938612  1
  O  O43  1  0.686560  0.083630  0.561990  1
  O  O44  1  0.690240  0.590854  0.562043  1
  O  O45  1  0.691385  0.589465  0.937010  1
  O  O46  1  0.845496  0.242710  0.252469  1
  O  O47  1  0.889398  0.318341  0.750285  1
  O  O48  1  0.843720  0.745162  0.249277  1
  O  O49  1  0.927646  0.023425  0.248968  1
  O  O50  1  0.893601  0.820865  0.749934  1
  O  O51  1  0.922139  0.524836  0.250469  1
