# generated using pymatgen
data_Na2(NiO2)5
_symmetry_space_group_name_H-M   'P 1'
_cell_length_a   7.09681682
_cell_length_b   4.90126187
_cell_length_c   6.52849969
_cell_angle_alpha   76.15594277
_cell_angle_beta   113.14486952
_cell_angle_gamma   83.47616316
_symmetry_Int_Tables_number   1
_chemical_formula_structural   Na2(NiO2)5
_chemical_formula_sum   'Na2 Ni5 O10'
_cell_volume   197.17967450
_cell_formula_units_Z   1
loop_
 _symmetry_equiv_pos_site_id
 _symmetry_equiv_pos_as_xyz
  1  'x, y, z'
loop_
 _atom_site_type_symbol
 _atom_site_label
 _atom_site_symmetry_multiplicity
 _atom_site_fract_x
 _atom_site_fract_y
 _atom_site_fract_z
 _atom_site_occupancy
  Na  Na0  1  0.971830  0.018597  0.472747  1
  Na  Na1  1  0.428170  0.781403  0.927253  1
  Ni  Ni2  1  0.002758  0.001161  0.999474  1
  Ni  Ni3  1  0.200000  0.400000  0.200000  1
  Ni  Ni4  1  0.397242  0.798839  0.400526  1
  Ni  Ni5  1  0.596268  0.199137  0.601293  1
  Ni  Ni6  1  0.803732  0.600863  0.798707  1
  O  O7  1  0.273968  0.072910  0.099794  1
  O  O8  1  0.126032  0.727090  0.300206  1
  O  O9  1  0.328680  0.086060  0.517741  1
  O  O10  1  0.462691  0.492924  0.292765  1
  O  O11  1  0.071320  0.713940  0.882259  1
  O  O12  1  0.937309  0.307076  0.107235  1
  O  O13  1  0.523827  0.511889  0.698851  1
  O  O14  1  0.662257  0.895885  0.491230  1
  O  O15  1  0.876173  0.288111  0.701149  1
  O  O16  1  0.737743  0.904115  0.908770  1
