# generated using pymatgen
data_Li4V3P8O29
_symmetry_space_group_name_H-M   'P 1'
_cell_length_a   9.80241061
_cell_length_b   9.76314739
_cell_length_c   14.10619902
_cell_angle_alpha   90.01206947
_cell_angle_beta   89.97120064
_cell_angle_gamma   60.12235900
_symmetry_Int_Tables_number   1
_chemical_formula_structural   Li4V3P8O29
_chemical_formula_sum   'Li8 V6 P16 O58'
_cell_volume   1170.57005868
_cell_formula_units_Z   2
loop_
 _symmetry_equiv_pos_site_id
 _symmetry_equiv_pos_as_xyz
  1  'x, y, z'
loop_
 _atom_site_type_symbol
 _atom_site_label
 _atom_site_symmetry_multiplicity
 _atom_site_fract_x
 _atom_site_fract_y
 _atom_site_fract_z
 _atom_site_occupancy
  Li  Li0  1  0.912507  0.775950  0.056879  1
  Li  Li1  1  0.772613  0.912916  0.561156  1
  Li  Li2  1  0.912026  0.311874  0.556916  1
  Li  Li3  1  0.772078  0.314634  0.061318  1
  Li  Li4  1  0.324245  0.903648  0.057853  1
  Li  Li5  1  0.323942  0.772445  0.557804  1
  Li  Li6  1  0.091028  0.683977  0.440233  1
  Li  Li7  1  0.090967  0.225196  0.940371  1
  V  V8  1  0.565685  0.431280  0.251830  1
  V  V9  1  0.434058  0.566067  0.752607  1
  V  V10  1  0.565741  0.002798  0.751670  1
  V  V11  1  0.433896  0.000149  0.252869  1
  V  V12  1  0.999414  0.568724  0.249083  1
  V  V13  1  0.999543  0.431788  0.749454  1
  P  P14  1  0.911159  0.769373  0.840135  1
  P  P15  1  0.767936  0.914077  0.344849  1
  P  P16  1  0.911148  0.319609  0.340429  1
  P  P17  1  0.665009  0.667621  0.128832  1
  P  P18  1  0.665116  0.667094  0.628576  1
  P  P19  1  0.767789  0.317901  0.844857  1
  P  P20  1  0.684495  0.230253  0.660688  1
  P  P21  1  0.318535  0.912352  0.841245  1
  P  P22  1  0.684282  0.085186  0.160765  1
  P  P23  1  0.318367  0.769251  0.341178  1
  P  P24  1  0.231283  0.683317  0.158228  1
  P  P25  1  0.332593  0.334778  0.370760  1
  P  P26  1  0.332632  0.332908  0.870537  1
  P  P27  1  0.090854  0.679477  0.659631  1
  P  P28  1  0.231053  0.085503  0.658357  1
  P  P29  1  0.090671  0.229781  0.159758  1
  O  O30  1  0.003354  0.759972  0.570546  1
  O  O31  1  0.917025  0.748761  0.338456  1
  O  O32  1  0.771602  0.991517  0.076499  1
  O  O33  1  0.742784  0.914246  0.829375  1
  O  O34  1  0.903089  0.616696  0.820491  1
  O  O35  1  0.812270  0.672914  0.167178  1
  O  O36  1  0.903038  0.480394  0.320836  1
  O  O37  1  0.002955  0.236988  0.070700  1
  O  O38  1  0.916993  0.334008  0.838692  1
  O  O39  1  0.668540  0.816752  0.670201  1
  O  O40  1  0.618166  0.901167  0.321305  1
  O  O41  1  0.812263  0.514737  0.666673  1
  O  O42  1  0.656631  0.669451  0.023378  1
  O  O43  1  0.655516  0.674352  0.523152  1
  O  O44  1  0.668575  0.514478  0.170241  1
  O  O45  1  0.479336  0.903304  0.822312  1
  O  O46  1  0.512564  0.816495  0.171903  1
  O  O47  1  0.742718  0.343053  0.329239  1
  O  O48  1  0.784253  0.205615  0.757133  1
  O  O49  1  0.771699  0.236500  0.576606  1
  O  O50  1  0.752916  0.253072  0.936594  1
  O  O51  1  0.618255  0.480608  0.821195  1
  O  O52  1  0.512638  0.670758  0.671872  1
  O  O53  1  0.660237  0.255332  0.160429  1
  O  O54  1  0.479239  0.617421  0.322398  1
  O  O55  1  0.340907  0.914042  0.334858  1
  O  O56  1  0.784307  0.009840  0.257038  1
  O  O57  1  0.753528  0.993571  0.436499  1
  O  O58  1  0.239734  0.990357  0.574837  1
  O  O59  1  0.660421  0.084051  0.660393  1
  O  O60  1  0.523858  0.382931  0.677528  1
  O  O61  1  0.341133  0.745016  0.834932  1
  O  O62  1  0.481170  0.334894  0.323654  1
  O  O63  1  0.382382  0.522695  0.176969  1
  O  O64  1  0.240490  0.769645  0.074739  1
  O  O65  1  0.245876  0.756656  0.432118  1
  O  O66  1  0.205467  0.785858  0.254909  1
  O  O67  1  0.256881  0.663698  0.661378  1
  O  O68  1  0.481036  0.183927  0.823402  1
  O  O69  1  0.523786  0.093179  0.177668  1
  O  O70  1  0.334690  0.480209  0.824412  1
  O  O71  1  0.341345  0.328506  0.975308  1
  O  O72  1  0.340942  0.330780  0.475465  1
  O  O73  1  0.184286  0.487845  0.333013  1
  O  O74  1  0.382354  0.094774  0.676839  1
  O  O75  1  0.334718  0.185251  0.324675  1
  O  O76  1  0.084981  0.661085  0.158954  1
  O  O77  1  0.002976  0.789241  0.750704  1
  O  O78  1  0.987307  0.764772  0.931364  1
  O  O79  1  0.104440  0.518630  0.677110  1
  O  O80  1  0.184260  0.327953  0.833287  1
  O  O81  1  0.104027  0.377293  0.176937  1
  O  O82  1  0.256878  0.079794  0.161309  1
  O  O83  1  0.246219  0.997555  0.932215  1
  O  O84  1  0.205543  0.008677  0.755023  1
  O  O85  1  0.084850  0.254264  0.659436  1
  O  O86  1  0.986585  0.247564  0.431402  1
  O  O87  1  0.003361  0.207804  0.250935  1
