# generated using pymatgen
data_Na6Bi2B4SO16
_symmetry_space_group_name_H-M   'P 1'
_cell_length_a   10.25883882
_cell_length_b   10.25883884
_cell_length_c   10.25883882
_cell_angle_alpha   59.99999667
_cell_angle_beta   119.99999575
_cell_angle_gamma   89.99999925
_symmetry_Int_Tables_number   1
_chemical_formula_structural   Na6Bi2B4SO16
_chemical_formula_sum   'Na12 Bi4 B8 S2 O32'
_cell_volume   763.44828828
_cell_formula_units_Z   2
loop_
 _symmetry_equiv_pos_site_id
 _symmetry_equiv_pos_as_xyz
  1  'x, y, z'
loop_
 _atom_site_type_symbol
 _atom_site_label
 _atom_site_symmetry_multiplicity
 _atom_site_fract_x
 _atom_site_fract_y
 _atom_site_fract_z
 _atom_site_occupancy
  Na  Na0  1  0.083695  0.666305  0.167391  1
  Na  Na1  1  0.083695  0.083695  0.750000  1
  Na  Na2  1  0.333695  0.333695  0.250000  1
  Na  Na3  1  0.666305  0.083695  0.332609  1
  Na  Na4  1  0.916305  0.333695  0.250000  1
  Na  Na5  1  0.333695  0.916305  0.250000  1
  Na  Na6  1  0.666305  0.083695  0.750000  1
  Na  Na7  1  0.083695  0.666305  0.750000  1
  Na  Na8  1  0.333695  0.916305  0.667391  1
  Na  Na9  1  0.916305  0.333695  0.832609  1
  Na  Na10  1  0.916305  0.916305  0.250000  1
  Na  Na11  1  0.666305  0.666305  0.750000  1
  Bi  Bi12  1  0.500000  0.000000  0.000000  1
  Bi  Bi13  1  0.000000  0.500000  0.500000  1
  Bi  Bi14  1  0.500000  0.500000  0.000000  1
  Bi  Bi15  1  0.500000  0.500000  0.500000  1
  B  B16  1  0.333264  0.722245  0.055509  1
  B  B17  1  0.277755  0.277755  0.555509  1
  B  B18  1  0.722245  0.333264  0.444491  1
  B  B19  1  0.722245  0.722245  0.055509  1
  B  B20  1  0.277755  0.277755  0.944491  1
  B  B21  1  0.277755  0.666736  0.555509  1
  B  B22  1  0.666736  0.277755  0.944491  1
  B  B23  1  0.722245  0.722245  0.444491  1
  S  S24  1  0.125000  0.125000  0.250000  1
  S  S25  1  0.875000  0.875000  0.750000  1
  O  O26  1  0.065351  0.065351  0.130701  1
  O  O27  1  0.065351  0.065351  0.369299  1
  O  O28  1  0.065351  0.303949  0.130701  1
  O  O29  1  0.405488  0.135612  0.074891  1
  O  O30  1  0.303949  0.065351  0.369299  1
  O  O31  1  0.135612  0.405488  0.425109  1
  O  O32  1  0.669403  0.289497  0.074891  1
  O  O33  1  0.289497  0.135612  0.694985  1
  O  O34  1  0.330597  0.594512  0.194985  1
  O  O35  1  0.594512  0.330597  0.305015  1
  O  O36  1  0.135612  0.289497  0.805015  1
  O  O37  1  0.405488  0.289497  0.541101  1
  O  O38  1  0.330597  0.864388  0.041101  1
  O  O39  1  0.710503  0.594512  0.041101  1
  O  O40  1  0.135612  0.669403  0.541101  1
  O  O41  1  0.289497  0.669403  0.425109  1
  O  O42  1  0.710503  0.330597  0.574891  1
  O  O43  1  0.289497  0.405488  0.958899  1
  O  O44  1  0.864388  0.330597  0.458899  1
  O  O45  1  0.669403  0.135612  0.958899  1
  O  O46  1  0.594512  0.710503  0.458899  1
  O  O47  1  0.864388  0.710503  0.194985  1
  O  O48  1  0.405488  0.669403  0.694985  1
  O  O49  1  0.669403  0.405488  0.805015  1
  O  O50  1  0.710503  0.864388  0.305015  1
  O  O51  1  0.330597  0.710503  0.925109  1
  O  O52  1  0.864388  0.594512  0.574891  1
  O  O53  1  0.696051  0.934650  0.630701  1
  O  O54  1  0.594512  0.864388  0.925109  1
  O  O55  1  0.934650  0.696051  0.869299  1
  O  O56  1  0.934650  0.934650  0.630701  1
  O  O57  1  0.934650  0.934650  0.869299  1
