# generated using pymatgen
data_VH16C4(NO4)3
_symmetry_space_group_name_H-M   'P 1'
_cell_length_a   11.34325982
_cell_length_b   15.91856395
_cell_length_c   8.04391991
_cell_angle_alpha   90.00000000
_cell_angle_beta   90.00000000
_cell_angle_gamma   90.00000000
_symmetry_Int_Tables_number   1
_chemical_formula_structural   VH16C4(NO4)3
_chemical_formula_sum   'V4 H64 C16 N12 O48'
_cell_volume   1452.47780295
_cell_formula_units_Z   4
loop_
 _symmetry_equiv_pos_site_id
 _symmetry_equiv_pos_as_xyz
  1  'x, y, z'
loop_
 _atom_site_type_symbol
 _atom_site_label
 _atom_site_symmetry_multiplicity
 _atom_site_fract_x
 _atom_site_fract_y
 _atom_site_fract_z
 _atom_site_occupancy
  V  V0  1  0.040310  0.242914  0.535550  1
  V  V1  1  0.459690  0.757086  0.035550  1
  V  V2  1  0.540310  0.257086  0.464450  1
  V  V3  1  0.959690  0.742914  0.964450  1
  H  H4  1  0.078351  0.012105  0.489318  1
  H  H5  1  0.421649  0.987895  0.989318  1
  H  H6  1  0.578351  0.487895  0.510682  1
  H  H7  1  0.921649  0.512105  0.010682  1
  H  H8  1  0.108180  0.925018  0.403977  1
  H  H9  1  0.391820  0.074982  0.903977  1
  H  H10  1  0.608180  0.574982  0.596023  1
  H  H11  1  0.891820  0.425018  0.096023  1
  H  H12  1  0.959277  0.165514  0.159312  1
  H  H13  1  0.540723  0.834486  0.659312  1
  H  H14  1  0.459277  0.334486  0.840688  1
  H  H15  1  0.040723  0.665514  0.340688  1
  H  H16  1  0.966714  0.170205  0.962035  1
  H  H17  1  0.533286  0.829795  0.462035  1
  H  H18  1  0.466714  0.329795  0.037965  1
  H  H19  1  0.033286  0.670205  0.537965  1
  H  H20  1  0.095378  0.421561  0.962282  1
  H  H21  1  0.404622  0.578439  0.462282  1
  H  H22  1  0.595378  0.078439  0.037718  1
  H  H23  1  0.904622  0.921561  0.537718  1
  H  H24  1  0.236430  0.404715  0.025681  1
  H  H25  1  0.263570  0.595285  0.525681  1
  H  H26  1  0.736430  0.095285  0.974319  1
  H  H27  1  0.763570  0.904715  0.474319  1
  H  H28  1  0.208339  0.445031  0.833358  1
  H  H29  1  0.291661  0.554969  0.333358  1
  H  H30  1  0.708339  0.054969  0.166642  1
  H  H31  1  0.791661  0.945031  0.666642  1
  H  H32  1  0.176711  0.344844  0.867885  1
  H  H33  1  0.323289  0.655156  0.367885  1
  H  H34  1  0.676711  0.155156  0.132115  1
  H  H35  1  0.823289  0.844844  0.632115  1
  H  H36  1  0.284438  0.160297  0.099064  1
  H  H37  1  0.215562  0.839703  0.599064  1
  H  H38  1  0.784438  0.339703  0.900936  1
  H  H39  1  0.715562  0.660297  0.400936  1
  H  H40  1  0.204276  0.170153  0.274101  1
  H  H41  1  0.295724  0.829847  0.774101  1
  H  H42  1  0.704276  0.329847  0.725899  1
  H  H43  1  0.795724  0.670153  0.225899  1
  H  H44  1  0.346065  0.139490  0.287221  1
  H  H45  1  0.153935  0.860510  0.787221  1
  H  H46  1  0.846065  0.360510  0.712779  1
  H  H47  1  0.653935  0.639490  0.212779  1
  H  H48  1  0.246367  0.071709  0.204183  1
  H  H49  1  0.253633  0.928291  0.704183  1
  H  H50  1  0.746367  0.428291  0.795817  1
  H  H51  1  0.753633  0.571709  0.295817  1
  H  H52  1  0.022098  0.469572  0.256194  1
  H  H53  1  0.477902  0.530428  0.756194  1
  H  H54  1  0.522098  0.030428  0.743806  1
  H  H55  1  0.977902  0.969572  0.243806  1
  H  H56  1  0.051724  0.525011  0.429047  1
  H  H57  1  0.448275  0.474989  0.929047  1
  H  H58  1  0.551724  0.974989  0.570953  1
  H  H59  1  0.948276  0.025011  0.070953  1
  H  H60  1  0.022443  0.418890  0.443674  1
  H  H61  1  0.477557  0.581110  0.943674  1
  H  H62  1  0.522443  0.081110  0.556326  1
  H  H63  1  0.977557  0.918890  0.056326  1
  H  H64  1  0.150463  0.451315  0.356298  1
  H  H65  1  0.349537  0.548685  0.856298  1
  H  H66  1  0.650463  0.048685  0.643702  1
  H  H67  1  0.849537  0.951315  0.143702  1
  C  C68  1  0.223963  0.189495  0.768912  1
  C  C69  1  0.276037  0.810505  0.268912  1
  C  C70  1  0.723963  0.310505  0.231088  1
  C  C71  1  0.776037  0.689495  0.731088  1
  C  C72  1  0.203873  0.106484  0.672344  1
  C  C73  1  0.296127  0.893516  0.172344  1
  C  C74  1  0.703873  0.393516  0.327656  1
  C  C75  1  0.796127  0.606484  0.827656  1
  C  C76  1  0.851558  0.124407  0.483634  1
  C  C77  1  0.648442  0.875593  0.983634  1
  C  C78  1  0.351558  0.375593  0.516366  1
  C  C79  1  0.148442  0.624407  0.016366  1
  C  C80  1  0.858658  0.129899  0.676007  1
  C  C81  1  0.641342  0.870101  0.176007  1
  C  C82  1  0.358658  0.370101  0.323993  1
  C  C83  1  0.141342  0.629899  0.823993  1
  N  N84  1  0.179620  0.403701  0.923317  1
  N  N85  1  0.320380  0.596299  0.423317  1
  N  N86  1  0.679620  0.096299  0.076683  1
  N  N87  1  0.820380  0.903701  0.576683  1
  N  N88  1  0.269727  0.134704  0.215871  1
  N  N89  1  0.230273  0.865296  0.715871  1
  N  N90  1  0.769727  0.365296  0.784129  1
  N  N91  1  0.730273  0.634704  0.284129  1
  N  N92  1  0.062182  0.466437  0.372586  1
  N  N93  1  0.437818  0.533563  0.872586  1
  N  N94  1  0.562182  0.033563  0.627414  1
  N  N95  1  0.937818  0.966437  0.127414  1
  O  O96  1  0.974657  0.336477  0.568694  1
  O  O97  1  0.525343  0.663523  0.068694  1
  O  O98  1  0.474657  0.163523  0.431306  1
  O  O99  1  0.025343  0.836477  0.931306  1
  O  O100  1  0.157970  0.252163  0.722207  1
  O  O101  1  0.342030  0.747837  0.222207  1
  O  O102  1  0.657970  0.247837  0.277793  1
  O  O103  1  0.842030  0.752163  0.777793  1
  O  O104  1  0.122161  0.111149  0.561948  1
  O  O105  1  0.377839  0.888851  0.061948  1
  O  O106  1  0.622161  0.388851  0.438052  1
  O  O107  1  0.877839  0.611149  0.938052  1
  O  O108  1  0.297227  0.193563  0.882906  1
  O  O109  1  0.202773  0.806437  0.382906  1
  O  O110  1  0.797227  0.306437  0.117094  1
  O  O111  1  0.702773  0.693563  0.617094  1
  O  O112  1  0.265296  0.044233  0.708789  1
  O  O113  1  0.234704  0.955767  0.208789  1
  O  O114  1  0.765296  0.455767  0.291211  1
  O  O115  1  0.734704  0.544233  0.791211  1
  O  O116  1  0.126231  0.258729  0.371291  1
  O  O117  1  0.373769  0.741271  0.871291  1
  O  O118  1  0.626231  0.241271  0.628709  1
  O  O119  1  0.873769  0.758729  0.128709  1
  O  O120  1  0.922645  0.176044  0.406170  1
  O  O121  1  0.577355  0.823956  0.906170  1
  O  O122  1  0.422645  0.323956  0.593830  1
  O  O123  1  0.077355  0.676044  0.093830  1
  O  O124  1  0.931959  0.184574  0.729884  1
  O  O125  1  0.568041  0.815426  0.229884  1
  O  O126  1  0.431959  0.315426  0.270116  1
  O  O127  1  0.068041  0.684574  0.770116  1
  O  O128  1  0.783893  0.074710  0.415689  1
  O  O129  1  0.716107  0.925290  0.915689  1
  O  O130  1  0.283893  0.425290  0.584311  1
  O  O131  1  0.216107  0.574710  0.084311  1
  O  O132  1  0.795049  0.082271  0.761673  1
  O  O133  1  0.704951  0.917729  0.261673  1
  O  O134  1  0.295049  0.417729  0.238327  1
  O  O135  1  0.204951  0.582271  0.738327  1
  O  O136  1  0.042957  0.957814  0.452434  1
  O  O137  1  0.457043  0.042186  0.952434  1
  O  O138  1  0.542957  0.542186  0.547566  1
  O  O139  1  0.957043  0.457814  0.047566  1
  O  O140  1  0.990435  0.137319  0.060163  1
  O  O141  1  0.509565  0.862681  0.560163  1
  O  O142  1  0.490435  0.362681  0.939837  1
  O  O143  1  0.009565  0.637319  0.439837  1
