# generated using pymatgen
data_V5O12
_symmetry_space_group_name_H-M   'P 1'
_cell_length_a   4.97915263
_cell_length_b   4.97915272
_cell_length_c   9.06172637
_cell_angle_alpha   87.08953903
_cell_angle_beta   92.91045661
_cell_angle_gamma   66.79446697
_symmetry_Int_Tables_number   1
_chemical_formula_structural   V5O12
_chemical_formula_sum   'V5 O12'
_cell_volume   205.60216540
_cell_formula_units_Z   1
loop_
 _symmetry_equiv_pos_site_id
 _symmetry_equiv_pos_as_xyz
  1  'x, y, z'
loop_
 _atom_site_type_symbol
 _atom_site_label
 _atom_site_symmetry_multiplicity
 _atom_site_fract_x
 _atom_site_fract_y
 _atom_site_fract_z
 _atom_site_occupancy
  V  V0  1  0.052580  0.052580  0.250000  1
  V  V1  1  0.038495  0.484276  0.970038  1
  V  V2  1  0.484276  0.038495  0.529962  1
  V  V3  1  0.431478  0.431478  0.250000  1
  V  V4  1  0.600414  0.600414  0.750000  1
  O  O5  1  0.916223  0.277715  0.851760  1
  O  O6  1  0.277715  0.916223  0.648240  1
  O  O7  1  0.198995  0.285956  0.382291  1
  O  O8  1  0.285956  0.198995  0.117709  1
  O  O9  1  0.291970  0.539857  0.871310  1
  O  O10  1  0.539857  0.291970  0.628690  1
  O  O11  1  0.388614  0.758105  0.354508  1
  O  O12  1  0.758105  0.388614  0.145492  1
  O  O13  1  0.686539  0.793142  0.892659  1
  O  O14  1  0.793142  0.686539  0.607341  1
  O  O15  1  0.752320  0.081901  0.362918  1
  O  O16  1  0.081901  0.752320  0.137082  1
