# generated using pymatgen
data_LiFe(Si2O5)2
_symmetry_space_group_name_H-M   'P 1'
_cell_length_a   7.40529036
_cell_length_b   7.40529036
_cell_length_c   14.77679071
_cell_angle_alpha   90.00000000
_cell_angle_beta   90.00000000
_cell_angle_gamma   90.00000000
_symmetry_Int_Tables_number   1
_chemical_formula_structural   LiFe(Si2O5)2
_chemical_formula_sum   'Li4 Fe4 Si16 O40'
_cell_volume   810.33445608
_cell_formula_units_Z   4
loop_
 _symmetry_equiv_pos_site_id
 _symmetry_equiv_pos_as_xyz
  1  'x, y, z'
loop_
 _atom_site_type_symbol
 _atom_site_label
 _atom_site_symmetry_multiplicity
 _atom_site_fract_x
 _atom_site_fract_y
 _atom_site_fract_z
 _atom_site_occupancy
  Li  Li0  1  0.250000  0.250000  0.058750  1
  Li  Li1  1  0.250000  0.250000  0.558750  1
  Li  Li2  1  0.750000  0.750000  0.441250  1
  Li  Li3  1  0.750000  0.750000  0.941250  1
  Fe  Fe4  1  0.250000  0.750000  0.000000  1
  Fe  Fe5  1  0.250000  0.750000  0.500000  1
  Fe  Fe6  1  0.750000  0.250000  0.500000  1
  Fe  Fe7  1  0.750000  0.250000  0.000000  1
  Si  Si8  1  0.985161  0.103250  0.355104  1
  Si  Si9  1  0.985161  0.396750  0.855104  1
  Si  Si10  1  0.103250  0.985161  0.855104  1
  Si  Si11  1  0.103250  0.514839  0.355104  1
  Si  Si12  1  0.396750  0.514839  0.855104  1
  Si  Si13  1  0.396750  0.985161  0.355104  1
  Si  Si14  1  0.514839  0.103250  0.855104  1
  Si  Si15  1  0.514839  0.396750  0.355104  1
  Si  Si16  1  0.485161  0.896750  0.144896  1
  Si  Si17  1  0.485161  0.603250  0.644896  1
  Si  Si18  1  0.603250  0.485161  0.144896  1
  Si  Si19  1  0.603250  0.014839  0.644896  1
  Si  Si20  1  0.896750  0.014839  0.144896  1
  Si  Si21  1  0.896750  0.485161  0.644896  1
  Si  Si22  1  0.014839  0.896750  0.644896  1
  Si  Si23  1  0.014839  0.603250  0.144896  1
  O  O24  1  0.991876  0.819756  0.127195  1
  O  O25  1  0.991876  0.680244  0.627195  1
  O  O26  1  0.958754  0.166881  0.072217  1
  O  O27  1  0.958754  0.333118  0.572217  1
  O  O28  1  0.069450  0.569450  0.250000  1
  O  O29  1  0.069450  0.930550  0.750000  1
  O  O30  1  0.166881  0.958754  0.572217  1
  O  O31  1  0.166881  0.541246  0.072217  1
  O  O32  1  0.180244  0.008124  0.372805  1
  O  O33  1  0.180244  0.491876  0.872805  1
  O  O34  1  0.319756  0.491876  0.372805  1
  O  O35  1  0.319756  0.008124  0.872805  1
  O  O36  1  0.333118  0.541246  0.572217  1
  O  O37  1  0.333118  0.958754  0.072217  1
  O  O38  1  0.430550  0.930550  0.250000  1
  O  O39  1  0.430550  0.569450  0.750000  1
  O  O40  1  0.541246  0.333118  0.072217  1
  O  O41  1  0.541246  0.166881  0.572217  1
  O  O42  1  0.508124  0.680244  0.127195  1
  O  O43  1  0.508124  0.819756  0.627195  1
  O  O44  1  0.491876  0.319756  0.872805  1
  O  O45  1  0.491876  0.180244  0.372805  1
  O  O46  1  0.458754  0.833118  0.427783  1
  O  O47  1  0.458754  0.666882  0.927783  1
  O  O48  1  0.569450  0.069450  0.750000  1
  O  O49  1  0.569450  0.430550  0.250000  1
  O  O50  1  0.666882  0.041246  0.927783  1
  O  O51  1  0.666882  0.458754  0.427783  1
  O  O52  1  0.680244  0.991876  0.127195  1
  O  O53  1  0.680244  0.508124  0.627195  1
  O  O54  1  0.819756  0.508124  0.127195  1
  O  O55  1  0.819756  0.991876  0.627195  1
  O  O56  1  0.833118  0.041246  0.427783  1
  O  O57  1  0.833118  0.458754  0.927783  1
  O  O58  1  0.930550  0.069450  0.250000  1
  O  O59  1  0.930550  0.430550  0.750000  1
  O  O60  1  0.041246  0.666882  0.427783  1
  O  O61  1  0.041246  0.833118  0.927783  1
  O  O62  1  0.008124  0.319756  0.372805  1
  O  O63  1  0.008124  0.180244  0.872805  1
