# generated using pymatgen
data_Bi2TeO2
_symmetry_space_group_name_H-M   'P 1'
_cell_length_a   4.03157006
_cell_length_b   7.04584888
_cell_length_c   4.01631091
_cell_angle_alpha   73.16677934
_cell_angle_beta   90.01466611
_cell_angle_gamma   106.20259365
_symmetry_Int_Tables_number   1
_chemical_formula_structural   Bi2TeO2
_chemical_formula_sum   'Bi2 Te1 O2'
_cell_volume   104.45756543
_cell_formula_units_Z   1
loop_
 _symmetry_equiv_pos_site_id
 _symmetry_equiv_pos_as_xyz
  1  'x, y, z'
loop_
 _atom_site_type_symbol
 _atom_site_label
 _atom_site_symmetry_multiplicity
 _atom_site_fract_x
 _atom_site_fract_y
 _atom_site_fract_z
 _atom_site_occupancy
  Bi  Bi0  1  0.655906  0.309376  0.348859  1
  Bi  Bi1  1  0.340526  0.695228  0.655863  1
  Te  Te2  1  0.008288  0.001122  0.995325  1
  O  O3  1  0.251374  0.502303  0.248656  1
  O  O4  1  0.751296  0.501020  0.750084  1
