# generated using pymatgen
data_Li2VOF4
_symmetry_space_group_name_H-M   'P 1'
_cell_length_a   5.25235958
_cell_length_b   9.39020917
_cell_length_c   8.57861808
_cell_angle_alpha   90.65545280
_cell_angle_beta   92.16472871
_cell_angle_gamma   93.32647132
_symmetry_Int_Tables_number   1
_chemical_formula_structural   Li2VOF4
_chemical_formula_sum   'Li8 V4 O4 F16'
_cell_volume   422.05019868
_cell_formula_units_Z   4
loop_
 _symmetry_equiv_pos_site_id
 _symmetry_equiv_pos_as_xyz
  1  'x, y, z'
loop_
 _atom_site_type_symbol
 _atom_site_label
 _atom_site_symmetry_multiplicity
 _atom_site_fract_x
 _atom_site_fract_y
 _atom_site_fract_z
 _atom_site_occupancy
  Li  Li0  1  0.217790  0.679137  0.390608  1
  Li  Li1  1  0.326898  0.016637  0.390382  1
  Li  Li2  1  0.177369  0.991335  0.876571  1
  Li  Li3  1  0.255852  0.335663  0.896019  1
  Li  Li4  1  0.804202  0.817999  0.563139  1
  Li  Li5  1  0.818055  0.490271  0.619301  1
  Li  Li6  1  0.660713  0.507463  0.128326  1
  Li  Li7  1  0.680718  0.193220  0.089762  1
  V  V8  1  0.324368  0.646283  0.782008  1
  V  V9  1  0.187451  0.370093  0.287596  1
  V  V10  1  0.766405  0.870888  0.199276  1
  V  V11  1  0.714910  0.129284  0.719204  1
  O  O12  1  0.236443  0.225905  0.389699  1
  O  O13  1  0.409484  0.502631  0.322632  1
  O  O14  1  0.324135  0.790097  0.895097  1
  O  O15  1  0.670965  0.287570  0.644502  1
  F  F16  1  0.004817  0.186402  0.861474  1
  F  F17  1  0.914764  0.358823  0.128168  1
  F  F18  1  0.996894  0.969854  0.067986  1
  F  F19  1  0.078173  0.488548  0.802148  1
  F  F20  1  0.473427  0.004265  0.600116  1
  F  F21  1  0.584381  0.656008  0.630112  1
  F  F22  1  0.486590  0.804378  0.326558  1
  F  F23  1  0.385114  0.314950  0.104495  1
  F  F24  1  0.510260  0.108435  0.899086  1
  F  F25  1  0.538447  0.522293  0.901216  1
  F  F26  1  0.614706  0.053877  0.238637  1
  F  F27  1  0.933381  0.971232  0.692243  1
  F  F28  1  0.866091  0.681366  0.160619  1
  F  F29  1  0.943239  0.458216  0.406184  1
  F  F30  1  0.001714  0.882238  0.383093  1
  F  F31  1  0.092245  0.684639  0.603744  1
