# generated using pymatgen
data_Li8Cr3SbO12
_symmetry_space_group_name_H-M   'P 1'
_cell_length_a   5.01695881
_cell_length_b   5.04783199
_cell_length_c   8.54451811
_cell_angle_alpha   89.79586406
_cell_angle_beta   90.24777337
_cell_angle_gamma   89.43660981
_symmetry_Int_Tables_number   1
_chemical_formula_structural   Li8Cr3SbO12
_chemical_formula_sum   'Li8 Cr3 Sb1 O12'
_cell_volume   216.37402402
_cell_formula_units_Z   1
loop_
 _symmetry_equiv_pos_site_id
 _symmetry_equiv_pos_as_xyz
  1  'x, y, z'
loop_
 _atom_site_type_symbol
 _atom_site_label
 _atom_site_symmetry_multiplicity
 _atom_site_fract_x
 _atom_site_fract_y
 _atom_site_fract_z
 _atom_site_occupancy
  Li  Li0  1  0.499251  0.000008  0.923374  1
  Li  Li1  1  0.498920  0.496590  0.753333  1
  Li  Li2  1  0.500513  0.500481  0.067940  1
  Li  Li3  1  0.997906  0.500619  0.722332  1
  Li  Li4  1  0.004203  0.502823  0.420974  1
  Li  Li5  1  0.499849  0.996431  0.231340  1
  Li  Li6  1  0.999648  0.996051  0.258871  1
  Li  Li7  1  0.996025  0.006432  0.559230  1
  Cr  Cr8  1  0.506704  0.496692  0.398419  1
  Cr  Cr9  1  0.497154  0.993677  0.571227  1
  Cr  Cr10  1  0.001235  0.500567  0.092473  1
  Sb  Sb11  1  0.999650  0.001777  0.902693  1
  O  O12  1  0.745592  0.855077  0.741180  1
  O  O13  1  0.776254  0.831556  0.072501  1
  O  O14  1  0.721337  0.825245  0.418992  1
  O  O15  1  0.289154  0.675473  0.564537  1
  O  O16  1  0.221836  0.671111  0.916997  1
  O  O17  1  0.258851  0.648834  0.249921  1
  O  O18  1  0.743261  0.351557  0.247952  1
  O  O19  1  0.776495  0.331268  0.917561  1
  O  O20  1  0.711938  0.325532  0.565755  1
  O  O21  1  0.282601  0.172197  0.422164  1
  O  O22  1  0.224878  0.169408  0.073216  1
  O  O23  1  0.246704  0.150434  0.740932  1
