# generated using pymatgen
data_NaH8SeNO6
_symmetry_space_group_name_H-M   'P 1'
_cell_length_a   8.42173941
_cell_length_b   13.21445122
_cell_length_c   6.46595497
_cell_angle_alpha   90.00000000
_cell_angle_beta   90.00000000
_cell_angle_gamma   90.00000000
_symmetry_Int_Tables_number   1
_chemical_formula_structural   NaH8SeNO6
_chemical_formula_sum   'Na4 H32 Se4 N4 O24'
_cell_volume   719.58749411
_cell_formula_units_Z   4
loop_
 _symmetry_equiv_pos_site_id
 _symmetry_equiv_pos_as_xyz
  1  'x, y, z'
loop_
 _atom_site_type_symbol
 _atom_site_label
 _atom_site_symmetry_multiplicity
 _atom_site_fract_x
 _atom_site_fract_y
 _atom_site_fract_z
 _atom_site_occupancy
  Na  Na0  1  0.737587  0.989575  0.594974  1
  Na  Na1  1  0.762413  0.010425  0.094974  1
  Na  Na2  1  0.237587  0.510425  0.405026  1
  Na  Na3  1  0.262413  0.489575  0.905026  1
  H  H4  1  0.602887  0.704895  0.624016  1
  H  H5  1  0.897113  0.295105  0.124016  1
  H  H6  1  0.102887  0.795105  0.375984  1
  H  H7  1  0.397113  0.204895  0.875984  1
  H  H8  1  0.624525  0.577375  0.616772  1
  H  H9  1  0.875475  0.422625  0.116772  1
  H  H10  1  0.124525  0.922625  0.383228  1
  H  H11  1  0.375475  0.077375  0.883228  1
  H  H12  1  0.749077  0.651482  0.479004  1
  H  H13  1  0.750923  0.348518  0.979004  1
  H  H14  1  0.249077  0.848518  0.520996  1
  H  H15  1  0.250923  0.151482  0.020996  1
  H  H16  1  0.765380  0.650132  0.736218  1
  H  H17  1  0.734620  0.349868  0.236218  1
  H  H18  1  0.265380  0.849868  0.263782  1
  H  H19  1  0.234620  0.150132  0.763782  1
  H  H20  1  0.974324  0.418406  0.644603  1
  H  H21  1  0.525676  0.581594  0.144603  1
  H  H22  1  0.474324  0.081594  0.355397  1
  H  H23  1  0.025676  0.918406  0.855397  1
  H  H24  1  0.906028  0.830434  0.863955  1
  H  H25  1  0.593972  0.169566  0.363955  1
  H  H26  1  0.406028  0.669566  0.136045  1
  H  H27  1  0.093972  0.330434  0.636045  1
  H  H28  1  0.718684  0.188029  0.814812  1
  H  H29  1  0.781316  0.811971  0.314812  1
  H  H30  1  0.218684  0.311971  0.185188  1
  H  H31  1  0.281316  0.688029  0.685188  1
  H  H32  1  0.892919  0.154280  0.754351  1
  H  H33  1  0.607081  0.845720  0.254351  1
  H  H34  1  0.392919  0.345720  0.245649  1
  H  H35  1  0.107081  0.654280  0.745649  1
  Se  Se36  1  0.906074  0.627937  0.117095  1
  Se  Se37  1  0.593926  0.372063  0.617095  1
  Se  Se38  1  0.406074  0.872063  0.882905  1
  Se  Se39  1  0.093926  0.127937  0.382905  1
  N  N40  1  0.816640  0.354350  0.114286  1
  N  N41  1  0.683360  0.645650  0.614286  1
  N  N42  1  0.316640  0.145650  0.885714  1
  N  N43  1  0.183360  0.854350  0.385714  1
  O  O44  1  0.920952  0.709580  0.316758  1
  O  O45  1  0.579048  0.290420  0.816758  1
  O  O46  1  0.420952  0.790420  0.683242  1
  O  O47  1  0.079048  0.209580  0.183242  1
  O  O48  1  0.929189  0.691311  0.891547  1
  O  O49  1  0.570811  0.308689  0.391547  1
  O  O50  1  0.429189  0.808689  0.108453  1
  O  O51  1  0.070811  0.191311  0.608453  1
  O  O52  1  0.728495  0.573021  0.121967  1
  O  O53  1  0.771505  0.426979  0.621967  1
  O  O54  1  0.228495  0.926979  0.878033  1
  O  O55  1  0.271505  0.073021  0.378033  1
  O  O56  1  0.956600  0.037210  0.365042  1
  O  O57  1  0.543400  0.962790  0.865042  1
  O  O58  1  0.456600  0.462790  0.634958  1
  O  O59  1  0.043400  0.537210  0.134958  1
  O  O60  1  0.795078  0.131192  0.824781  1
  O  O61  1  0.704922  0.868808  0.324781  1
  O  O62  1  0.295078  0.368808  0.175219  1
  O  O63  1  0.204922  0.631192  0.675219  1
  O  O64  1  0.910359  0.904565  0.845234  1
  O  O65  1  0.589641  0.095435  0.345234  1
  O  O66  1  0.410359  0.595435  0.154766  1
  O  O67  1  0.089641  0.404565  0.654766  1
