# generated using pymatgen
data_Li3Ti2(PO4)3
_symmetry_space_group_name_H-M   'P 1'
_cell_length_a   9.84293424
_cell_length_b   9.84293424
_cell_length_c   9.82348186
_cell_angle_alpha   85.73049929
_cell_angle_beta   94.26950071
_cell_angle_gamma   94.76083563
_symmetry_Int_Tables_number   1
_chemical_formula_structural   Li3Ti2(PO4)3
_chemical_formula_sum   'Li12 Ti8 P12 O48'
_cell_volume   943.58184113
_cell_formula_units_Z   4
loop_
 _symmetry_equiv_pos_site_id
 _symmetry_equiv_pos_as_xyz
  1  'x, y, z'
loop_
 _atom_site_type_symbol
 _atom_site_label
 _atom_site_symmetry_multiplicity
 _atom_site_fract_x
 _atom_site_fract_y
 _atom_site_fract_z
 _atom_site_occupancy
  Li  Li0  1  0.010939  0.505031  0.228803  1
  Li  Li1  1  0.374914  0.749219  0.797500  1
  Li  Li2  1  0.212756  0.555551  0.467500  1
  Li  Li3  1  0.236792  0.736277  0.182468  1
  Li  Li4  1  0.707139  0.934788  0.975547  1
  Li  Li5  1  0.999434  0.258653  0.395401  1
  Li  Li6  1  0.258653  0.999434  0.604599  1
  Li  Li7  1  0.934788  0.707139  0.024453  1
  Li  Li8  1  0.736277  0.236792  0.817532  1
  Li  Li9  1  0.555551  0.212756  0.532500  1
  Li  Li10  1  0.749219  0.374914  0.202500  1
  Li  Li11  1  0.505031  0.010939  0.771197  1
  Ti  Ti12  1  0.035288  0.251010  0.787654  1
  Ti  Ti13  1  0.748477  0.959545  0.288762  1
  Ti  Ti14  1  0.535652  0.535652  0.500000  1
  Ti  Ti15  1  0.748392  0.748392  0.500000  1
  Ti  Ti16  1  0.248468  0.248468  0.000000  1
  Ti  Ti17  1  0.462140  0.462140  0.000000  1
  Ti  Ti18  1  0.959545  0.748477  0.711237  1
  Ti  Ti19  1  0.251010  0.035288  0.212346  1
  P  P20  1  0.172563  0.942619  0.901324  1
  P  P21  1  0.054584  0.820593  0.402843  1
  P  P22  1  0.155082  0.555358  0.927176  1
  P  P23  1  0.440059  0.838771  0.427812  1
  P  P24  1  0.651117  0.681374  0.806211  1
  P  P25  1  0.341899  0.318243  0.695037  1
  P  P26  1  0.318243  0.341899  0.304963  1
  P  P27  1  0.681374  0.651117  0.193789  1
  P  P28  1  0.838771  0.440059  0.572188  1
  P  P29  1  0.555358  0.155082  0.072824  1
  P  P30  1  0.820593  0.054584  0.597157  1
  P  P31  1  0.942619  0.172563  0.098676  1
  O  O32  1  0.031683  0.869536  0.863770  1
  O  O33  1  0.117829  0.959575  0.345496  1
  O  O34  1  0.083188  0.815631  0.561804  1
  O  O35  1  0.203446  0.908380  0.057874  1
  O  O36  1  0.286338  0.909603  0.813178  1
  O  O37  1  0.107194  0.697086  0.341233  1
  O  O38  1  0.090546  0.617641  0.792441  1
  O  O39  1  0.399385  0.905032  0.552052  1
  O  O40  1  0.370274  0.886430  0.288300  1
  O  O41  1  0.101224  0.605768  0.056747  1
  O  O42  1  0.122773  0.396228  0.925736  1
  O  O43  1  0.313470  0.588599  0.926143  1
  O  O44  1  0.582223  0.806764  0.844966  1
  O  O45  1  0.407485  0.679455  0.441695  1
  O  O46  1  0.599529  0.870964  0.417502  1
  O  O47  1  0.191271  0.400312  0.353183  1
  O  O48  1  0.183447  0.311035  0.669380  1
  O  O49  1  0.697065  0.808428  0.156814  1
  O  O50  1  0.395352  0.456202  0.626624  1
  O  O51  1  0.621971  0.670454  0.646266  1
  O  O52  1  0.823297  0.895299  0.630182  1
  O  O53  1  0.161083  0.101759  0.875019  1
  O  O54  1  0.543996  0.591523  0.131151  1
  O  O55  1  0.379809  0.324492  0.854213  1
  O  O56  1  0.324492  0.379809  0.145787  1
  O  O57  1  0.591523  0.543996  0.868849  1
  O  O58  1  0.101759  0.161083  0.124981  1
  O  O59  1  0.895299  0.823297  0.369818  1
  O  O60  1  0.670454  0.621971  0.353734  1
  O  O61  1  0.456202  0.395352  0.373376  1
  O  O62  1  0.808428  0.697065  0.843186  1
  O  O63  1  0.311035  0.183447  0.330620  1
  O  O64  1  0.400312  0.191271  0.646817  1
  O  O65  1  0.870964  0.599529  0.582498  1
  O  O66  1  0.679455  0.407485  0.558305  1
  O  O67  1  0.806764  0.582223  0.155034  1
  O  O68  1  0.588599  0.313470  0.073857  1
  O  O69  1  0.396228  0.122773  0.074264  1
  O  O70  1  0.605768  0.101224  0.943253  1
  O  O71  1  0.886430  0.370274  0.711700  1
  O  O72  1  0.905032  0.399385  0.447949  1
  O  O73  1  0.617641  0.090546  0.207559  1
  O  O74  1  0.697086  0.107194  0.658767  1
  O  O75  1  0.909603  0.286338  0.186822  1
  O  O76  1  0.908380  0.203446  0.942126  1
  O  O77  1  0.815631  0.083188  0.438196  1
  O  O78  1  0.959575  0.117829  0.654504  1
  O  O79  1  0.869536  0.031683  0.136230  1
