# generated using pymatgen
data_Li2V4P4O15
_symmetry_space_group_name_H-M   'P 1'
_cell_length_a   8.88048186
_cell_length_b   8.88048186
_cell_length_c   18.31732335
_cell_angle_alpha   83.37944352
_cell_angle_beta   96.62055648
_cell_angle_gamma   74.64602386
_symmetry_Int_Tables_number   1
_chemical_formula_structural   Li2V4P4O15
_chemical_formula_sum   'Li8 V16 P16 O60'
_cell_volume   1367.58267727
_cell_formula_units_Z   4
loop_
 _symmetry_equiv_pos_site_id
 _symmetry_equiv_pos_as_xyz
  1  'x, y, z'
loop_
 _atom_site_type_symbol
 _atom_site_label
 _atom_site_symmetry_multiplicity
 _atom_site_fract_x
 _atom_site_fract_y
 _atom_site_fract_z
 _atom_site_occupancy
  Li  Li0  1  0.537223  0.019490  0.742111  1
  Li  Li1  1  0.657387  0.443821  0.928171  1
  Li  Li2  1  0.443821  0.657387  0.571829  1
  Li  Li3  1  0.980510  0.462777  0.242111  1
  Li  Li4  1  0.019490  0.537223  0.757889  1
  Li  Li5  1  0.556179  0.342613  0.428171  1
  Li  Li6  1  0.342613  0.556179  0.071829  1
  Li  Li7  1  0.462777  0.980510  0.257889  1
  V  V8  1  0.045075  0.857589  0.570300  1
  V  V9  1  0.093370  0.274676  0.935839  1
  V  V10  1  0.000000  0.500000  0.500000  1
  V  V11  1  0.142411  0.954925  0.070300  1
  V  V12  1  0.187340  0.187340  0.750000  1
  V  V13  1  0.456204  0.456204  0.750000  1
  V  V14  1  0.955190  0.955190  0.750000  1
  V  V15  1  0.725324  0.906630  0.435839  1
  V  V16  1  0.274676  0.093370  0.564161  1
  V  V17  1  0.044810  0.044810  0.250000  1
  V  V18  1  0.543796  0.543796  0.250000  1
  V  V19  1  0.812660  0.812660  0.250000  1
  V  V20  1  0.857589  0.045075  0.929700  1
  V  V21  1  0.906630  0.725324  0.064161  1
  V  V22  1  0.954925  0.142411  0.429700  1
  V  V23  1  0.500000  0.000000  0.000000  1
  P  P24  1  0.224414  0.904950  0.899145  1
  P  P25  1  0.021168  0.686973  0.897839  1
  P  P26  1  0.297895  0.843133  0.681165  1
  P  P27  1  0.095050  0.775586  0.399145  1
  P  P28  1  0.313027  0.978832  0.397839  1
  P  P29  1  0.232800  0.463560  0.620495  1
  P  P30  1  0.156867  0.702105  0.181165  1
  P  P31  1  0.463560  0.232800  0.879505  1
  P  P32  1  0.536440  0.767200  0.120495  1
  P  P33  1  0.843133  0.297895  0.818835  1
  P  P34  1  0.767200  0.536440  0.379505  1
  P  P35  1  0.686973  0.021168  0.602161  1
  P  P36  1  0.904950  0.224414  0.600855  1
  P  P37  1  0.702105  0.156867  0.318835  1
  P  P38  1  0.978832  0.313027  0.102161  1
  P  P39  1  0.775586  0.095050  0.100855  1
  O  O40  1  0.167336  0.974421  0.816752  1
  O  O41  1  0.126207  0.834876  0.687241  1
  O  O42  1  0.188109  0.736546  0.914259  1
  O  O43  1  0.398784  0.874825  0.923767  1
  O  O44  1  0.068135  0.515386  0.929404  1
  O  O45  1  0.025579  0.832664  0.316752  1
  O  O46  1  0.301928  0.840339  0.593965  1
  O  O47  1  0.101966  0.613368  0.581333  1
  O  O48  1  0.010099  0.323770  0.810008  1
  O  O49  1  0.165124  0.873793  0.187241  1
  O  O50  1  0.424603  0.709639  0.730458  1
  O  O51  1  0.263454  0.811891  0.414259  1
  O  O52  1  0.125175  0.601216  0.423767  1
  O  O53  1  0.484613  0.931865  0.429404  1
  O  O54  1  0.201363  0.424065  0.702283  1
  O  O55  1  0.724331  0.969125  0.686958  1
  O  O56  1  0.116616  0.012895  0.947548  1
  O  O57  1  0.902876  0.789773  0.941135  1
  O  O58  1  0.339336  0.214373  0.930021  1
  O  O59  1  0.159661  0.698072  0.093965  1
  O  O60  1  0.482938  0.401985  0.871957  1
  O  O61  1  0.386632  0.898034  0.081333  1
  O  O62  1  0.401985  0.482938  0.628043  1
  O  O63  1  0.214373  0.339336  0.569979  1
  O  O64  1  0.789773  0.902876  0.558865  1
  O  O65  1  0.012895  0.116616  0.552452  1
  O  O66  1  0.676230  0.989901  0.310008  1
  O  O67  1  0.290361  0.575397  0.230458  1
  O  O68  1  0.969125  0.724331  0.813042  1
  O  O69  1  0.424065  0.201363  0.797717  1
  O  O70  1  0.575935  0.798637  0.202283  1
  O  O71  1  0.030875  0.275669  0.186958  1
  O  O72  1  0.709639  0.424603  0.769542  1
  O  O73  1  0.323770  0.010099  0.689992  1
  O  O74  1  0.987105  0.883384  0.447548  1
  O  O75  1  0.210227  0.097124  0.441135  1
  O  O76  1  0.785627  0.660664  0.430021  1
  O  O77  1  0.598015  0.517062  0.371957  1
  O  O78  1  0.613368  0.101966  0.918667  1
  O  O79  1  0.517062  0.598015  0.128043  1
  O  O80  1  0.840339  0.301928  0.906035  1
  O  O81  1  0.660664  0.785627  0.069979  1
  O  O82  1  0.097124  0.210227  0.058865  1
  O  O83  1  0.883384  0.987105  0.052452  1
  O  O84  1  0.275669  0.030875  0.313042  1
  O  O85  1  0.798637  0.575935  0.297717  1
  O  O86  1  0.515386  0.068135  0.570596  1
  O  O87  1  0.874825  0.398784  0.576233  1
  O  O88  1  0.736546  0.188109  0.585741  1
  O  O89  1  0.575397  0.290361  0.269542  1
  O  O90  1  0.834876  0.126207  0.812759  1
  O  O91  1  0.989901  0.676230  0.189992  1
  O  O92  1  0.898034  0.386632  0.418667  1
  O  O93  1  0.698072  0.159661  0.406035  1
  O  O94  1  0.974421  0.167336  0.683248  1
  O  O95  1  0.931865  0.484613  0.070596  1
  O  O96  1  0.601216  0.125175  0.076233  1
  O  O97  1  0.811891  0.263454  0.085741  1
  O  O98  1  0.873793  0.165124  0.312759  1
  O  O99  1  0.832664  0.025579  0.183248  1
