# generated using pymatgen
data_SbTe6H12C4N(OF5)6
_symmetry_space_group_name_H-M   'P 1'
_cell_length_a   10.40249300
_cell_length_b   10.40249300
_cell_length_c   20.30942978
_cell_angle_alpha   72.23153348
_cell_angle_beta   107.76846652
_cell_angle_gamma   118.70656979
_symmetry_Int_Tables_number   1
_chemical_formula_structural   SbTe6H12C4N(OF5)6
_chemical_formula_sum   'Sb2 Te12 H24 C8 N2 O12 F60'
_cell_volume   1802.25797985
_cell_formula_units_Z   2
loop_
 _symmetry_equiv_pos_site_id
 _symmetry_equiv_pos_as_xyz
  1  'x, y, z'
loop_
 _atom_site_type_symbol
 _atom_site_label
 _atom_site_symmetry_multiplicity
 _atom_site_fract_x
 _atom_site_fract_y
 _atom_site_fract_z
 _atom_site_occupancy
  Sb  Sb0  1  0.000000  0.500000  0.000000  1
  Sb  Sb1  1  0.500000  0.000000  0.500000  1
  Te  Te2  1  0.134935  0.223414  0.103255  1
  Te  Te3  1  0.223414  0.134935  0.396745  1
  Te  Te4  1  0.865065  0.776586  0.896745  1
  Te  Te5  1  0.776586  0.865065  0.603255  1
  Te  Te6  1  0.124867  0.682485  0.150222  1
  Te  Te7  1  0.682485  0.124867  0.349778  1
  Te  Te8  1  0.875133  0.317515  0.849778  1
  Te  Te9  1  0.317515  0.875133  0.650222  1
  Te  Te10  1  0.647559  0.255927  0.060934  1
  Te  Te11  1  0.255927  0.647559  0.439066  1
  Te  Te12  1  0.352441  0.744073  0.939066  1
  Te  Te13  1  0.744073  0.352441  0.560934  1
  H  H14  1  0.100167  0.213580  0.675023  1
  H  H15  1  0.213580  0.100167  0.824977  1
  H  H16  1  0.899833  0.786420  0.324977  1
  H  H17  1  0.786420  0.899833  0.175023  1
  H  H18  1  0.154574  0.399307  0.686161  1
  H  H19  1  0.399307  0.154574  0.813839  1
  H  H20  1  0.845426  0.600693  0.313839  1
  H  H21  1  0.600693  0.845426  0.186161  1
  H  H22  1  0.074374  0.241761  0.752194  1
  H  H23  1  0.241761  0.074374  0.747806  1
  H  H24  1  0.925626  0.758239  0.247806  1
  H  H25  1  0.758239  0.925626  0.252194  1
  H  H26  1  0.474196  0.405940  0.829559  1
  H  H27  1  0.405940  0.474196  0.670441  1
  H  H28  1  0.525804  0.594060  0.170441  1
  H  H29  1  0.594060  0.525804  0.329559  1
  H  H30  1  0.289094  0.352155  0.841083  1
  H  H31  1  0.352155  0.289094  0.658917  1
  H  H32  1  0.710906  0.647845  0.158917  1
  H  H33  1  0.647845  0.710906  0.341083  1
  H  H34  1  0.370029  0.509753  0.775420  1
  H  H35  1  0.509753  0.370029  0.724580  1
  H  H36  1  0.629971  0.490247  0.224580  1
  H  H37  1  0.490247  0.629971  0.275420  1
  C  C38  1  0.145901  0.287631  0.713039  1
  C  C39  1  0.287631  0.145901  0.786961  1
  C  C40  1  0.854099  0.712369  0.286961  1
  C  C41  1  0.712369  0.854099  0.213039  1
  C  C42  1  0.362769  0.398687  0.802976  1
  C  C43  1  0.398687  0.362769  0.697024  1
  C  C44  1  0.637231  0.601313  0.197024  1
  C  C45  1  0.601313  0.637231  0.302976  1
  N  N46  1  0.298852  0.298852  0.750000  1
  N  N47  1  0.701148  0.701148  0.250000  1
  O  O48  1  0.002932  0.301074  0.038870  1
  O  O49  1  0.301074  0.002932  0.461130  1
  O  O50  1  0.997068  0.698926  0.961130  1
  O  O51  1  0.698926  0.997068  0.538870  1
  O  O52  1  0.073979  0.538108  0.098270  1
  O  O53  1  0.538108  0.073979  0.401730  1
  O  O54  1  0.926021  0.461892  0.901730  1
  O  O55  1  0.461892  0.926021  0.598270  1
  O  O56  1  0.789585  0.416799  0.010724  1
  O  O57  1  0.416799  0.789585  0.489276  1
  O  O58  1  0.210415  0.583201  0.989276  1
  O  O59  1  0.583201  0.210415  0.510724  1
  F  F60  1  0.226916  0.246457  0.031615  1
  F  F61  1  0.246457  0.226916  0.468385  1
  F  F62  1  0.773084  0.753543  0.968385  1
  F  F63  1  0.753543  0.773084  0.531615  1
  F  F64  1  0.289973  0.405841  0.125376  1
  F  F65  1  0.405841  0.289973  0.374624  1
  F  F66  1  0.710027  0.594159  0.874624  1
  F  F67  1  0.594159  0.710027  0.625376  1
  F  F68  1  0.056694  0.200533  0.180280  1
  F  F69  1  0.200533  0.056694  0.319720  1
  F  F70  1  0.943306  0.799467  0.819720  1
  F  F71  1  0.799467  0.943306  0.680280  1
  F  F72  1  0.987369  0.033780  0.087040  1
  F  F73  1  0.033780  0.987369  0.412960  1
  F  F74  1  0.012631  0.966220  0.912960  1
  F  F75  1  0.966220  0.012631  0.587040  1
  F  F76  1  0.251168  0.127384  0.165183  1
  F  F77  1  0.127384  0.251168  0.334817  1
  F  F78  1  0.748832  0.872616  0.834817  1
  F  F79  1  0.872616  0.748832  0.665183  1
  F  F80  1  0.202714  0.848264  0.080331  1
  F  F81  1  0.848264  0.202714  0.419669  1
  F  F82  1  0.797286  0.151736  0.919669  1
  F  F83  1  0.151736  0.797286  0.580331  1
  F  F84  1  0.938164  0.690144  0.119531  1
  F  F85  1  0.690144  0.938164  0.380469  1
  F  F86  1  0.061836  0.309856  0.880469  1
  F  F87  1  0.309856  0.061836  0.619531  1
  F  F88  1  0.054290  0.526676  0.225104  1
  F  F89  1  0.526676  0.054290  0.274896  1
  F  F90  1  0.945710  0.473324  0.774896  1
  F  F91  1  0.473324  0.945710  0.725104  1
  F  F92  1  0.317394  0.687274  0.184963  1
  F  F93  1  0.687274  0.317394  0.315037  1
  F  F94  1  0.682606  0.312726  0.815037  1
  F  F95  1  0.312726  0.682606  0.684963  1
  F  F96  1  0.176804  0.814064  0.209487  1
  F  F97  1  0.814064  0.176804  0.290513  1
  F  F98  1  0.823196  0.185936  0.790513  1
  F  F99  1  0.185936  0.823196  0.709487  1
  F  F100  1  0.501687  0.269640  0.980999  1
  F  F101  1  0.269640  0.501687  0.519001  1
  F  F102  1  0.498313  0.730360  0.019001  1
  F  F103  1  0.730360  0.498313  0.480999  1
  F  F104  1  0.785398  0.231160  0.142945  1
  F  F105  1  0.231160  0.785398  0.357055  1
  F  F106  1  0.214602  0.768840  0.857055  1
  F  F107  1  0.768840  0.214602  0.642945  1
  F  F108  1  0.629373  0.392962  0.096035  1
  F  F109  1  0.392962  0.629373  0.403965  1
  F  F110  1  0.370627  0.607038  0.903965  1
  F  F111  1  0.607038  0.370627  0.596035  1
  F  F112  1  0.659325  0.108842  0.030889  1
  F  F113  1  0.108842  0.659325  0.469111  1
  F  F114  1  0.340675  0.891158  0.969111  1
  F  F115  1  0.891158  0.340675  0.530889  1
  F  F116  1  0.495482  0.102961  0.107897  1
  F  F117  1  0.102961  0.495482  0.392103  1
  F  F118  1  0.504518  0.897039  0.892103  1
  F  F119  1  0.897039  0.504518  0.607897  1
