# generated using pymatgen
data_Na3GePCO7
_symmetry_space_group_name_H-M   'P 1'
_cell_length_a   9.25902658
_cell_length_b   5.48709517
_cell_length_c   6.88353591
_cell_angle_alpha   90.00000000
_cell_angle_beta   90.00000000
_cell_angle_gamma   95.44407129
_symmetry_Int_Tables_number   1
_chemical_formula_structural   Na3GePCO7
_chemical_formula_sum   'Na6 Ge2 P2 C2 O14'
_cell_volume   348.14165953
_cell_formula_units_Z   2
loop_
 _symmetry_equiv_pos_site_id
 _symmetry_equiv_pos_as_xyz
  1  'x, y, z'
loop_
 _atom_site_type_symbol
 _atom_site_label
 _atom_site_symmetry_multiplicity
 _atom_site_fract_x
 _atom_site_fract_y
 _atom_site_fract_z
 _atom_site_occupancy
  Na  Na0  1  0.015127  0.000562  0.471446  1
  Na  Na1  1  0.157887  0.485117  0.183910  1
  Na  Na2  1  0.500364  0.515073  0.467820  1
  Na  Na3  1  0.499636  0.484927  0.967820  1
  Na  Na4  1  0.842113  0.514883  0.683910  1
  Na  Na5  1  0.984873  0.999438  0.971446  1
  Ge  Ge6  1  0.327143  0.919376  0.746210  1
  Ge  Ge7  1  0.672857  0.080624  0.246210  1
  P  P8  1  0.329905  0.986111  0.249682  1
  P  P9  1  0.670095  0.013889  0.749682  1
  C  C10  1  0.136657  0.514183  0.732234  1
  C  C11  1  0.863343  0.485817  0.232234  1
  O  O12  1  0.066570  0.303719  0.721714  1
  O  O13  1  0.071635  0.711543  0.756094  1
  O  O14  1  0.200040  0.081208  0.147010  1
  O  O15  1  0.284642  0.954244  0.470515  1
  O  O16  1  0.281524  0.544423  0.719946  1
  O  O17  1  0.374018  0.737619  0.176690  1
  O  O18  1  0.463399  0.188071  0.231330  1
  O  O19  1  0.536601  0.811929  0.731330  1
  O  O20  1  0.625982  0.262381  0.676690  1
  O  O21  1  0.718476  0.455577  0.219946  1
  O  O22  1  0.715358  0.045756  0.970515  1
  O  O23  1  0.799960  0.918792  0.647010  1
  O  O24  1  0.928365  0.288457  0.256094  1
  O  O25  1  0.933430  0.696281  0.221714  1
