# generated using pymatgen
data_Na2NiPCO7
_symmetry_space_group_name_H-M   'P 1'
_cell_length_a   9.01195354
_cell_length_b   10.36609645
_cell_length_c   6.51687168
_cell_angle_alpha   90.00000000
_cell_angle_beta   90.00000000
_cell_angle_gamma   88.54703554
_symmetry_Int_Tables_number   1
_chemical_formula_structural   Na2NiPCO7
_chemical_formula_sum   'Na8 Ni4 P4 C4 O28'
_cell_volume   608.60245647
_cell_formula_units_Z   4
loop_
 _symmetry_equiv_pos_site_id
 _symmetry_equiv_pos_as_xyz
  1  'x, y, z'
loop_
 _atom_site_type_symbol
 _atom_site_label
 _atom_site_symmetry_multiplicity
 _atom_site_fract_x
 _atom_site_fract_y
 _atom_site_fract_z
 _atom_site_occupancy
  Na  Na0  1  0.261803  0.123834  0.016053  1
  Na  Na1  1  0.261339  0.125841  0.481323  1
  Na  Na2  1  0.261339  0.625841  0.018677  1
  Na  Na3  1  0.261803  0.623834  0.483947  1
  Na  Na4  1  0.732765  0.372156  0.519758  1
  Na  Na5  1  0.732765  0.872156  0.980242  1
  Na  Na6  1  0.909967  0.105279  0.745684  1
  Na  Na7  1  0.909967  0.605279  0.754316  1
  Ni  Ni8  1  0.348385  0.389078  0.752644  1
  Ni  Ni9  1  0.348385  0.889078  0.747356  1
  Ni  Ni10  1  0.657626  0.110326  0.248221  1
  Ni  Ni11  1  0.657626  0.610326  0.251779  1
  P  P12  1  0.426463  0.359037  0.249310  1
  P  P13  1  0.426463  0.859037  0.250690  1
  P  P14  1  0.577103  0.143844  0.748356  1
  P  P15  1  0.577103  0.643844  0.751644  1
  C  C16  1  0.073418  0.355960  0.743732  1
  C  C17  1  0.073418  0.855960  0.756268  1
  C  C18  1  0.928773  0.142103  0.246220  1
  C  C19  1  0.928773  0.642103  0.253780  1
  O  O20  1  0.067206  0.160048  0.248206  1
  O  O21  1  0.067206  0.660048  0.251794  1
  O  O22  1  0.134259  0.469565  0.748995  1
  O  O23  1  0.134259  0.969565  0.751005  1
  O  O24  1  0.167011  0.257565  0.750269  1
  O  O25  1  0.167011  0.757565  0.749731  1
  O  O26  1  0.328202  0.396497  0.062102  1
  O  O27  1  0.328417  0.394436  0.438860  1
  O  O28  1  0.328417  0.894436  0.061140  1
  O  O29  1  0.328202  0.896497  0.437898  1
  O  O30  1  0.429834  0.071252  0.744376  1
  O  O31  1  0.429834  0.571252  0.755624  1
  O  O32  1  0.459153  0.209746  0.247122  1
  O  O33  1  0.459153  0.709746  0.252878  1
  O  O34  1  0.538523  0.291906  0.751367  1
  O  O35  1  0.538523  0.791906  0.748633  1
  O  O36  1  0.572683  0.432575  0.253805  1
  O  O37  1  0.572683  0.932575  0.246195  1
  O  O38  1  0.678338  0.119056  0.558886  1
  O  O39  1  0.674830  0.103042  0.935158  1
  O  O40  1  0.674830  0.603042  0.564842  1
  O  O41  1  0.678338  0.619056  0.941114  1
  O  O42  1  0.829488  0.236155  0.254121  1
  O  O43  1  0.829488  0.736155  0.245879  1
  O  O44  1  0.869656  0.029227  0.237594  1
  O  O45  1  0.869656  0.529227  0.262406  1
  O  O46  1  0.934434  0.343506  0.732907  1
  O  O47  1  0.934434  0.843506  0.767093  1
