# generated using pymatgen
data_WOF4
_symmetry_space_group_name_H-M   'P 1'
_cell_length_a   5.79615117
_cell_length_b   10.26231459
_cell_length_c   14.76457154
_cell_angle_alpha   107.45015557
_cell_angle_beta   101.31984562
_cell_angle_gamma   73.59651542
_symmetry_Int_Tables_number   1
_chemical_formula_structural   WOF4
_chemical_formula_sum   'W8 O8 F32'
_cell_volume   797.70768974
_cell_formula_units_Z   8
loop_
 _symmetry_equiv_pos_site_id
 _symmetry_equiv_pos_as_xyz
  1  'x, y, z'
loop_
 _atom_site_type_symbol
 _atom_site_label
 _atom_site_symmetry_multiplicity
 _atom_site_fract_x
 _atom_site_fract_y
 _atom_site_fract_z
 _atom_site_occupancy
  W  W0  1  0.520727  0.960333  0.181741  1
  W  W1  1  0.961718  0.879223  0.612276  1
  W  W2  1  0.299318  0.539667  0.318259  1
  W  W3  1  0.771335  0.379223  0.112276  1
  W  W4  1  0.228665  0.620777  0.887724  1
  W  W5  1  0.700682  0.460333  0.681741  1
  W  W6  1  0.038282  0.120777  0.387724  1
  W  W7  1  0.479273  0.039667  0.818259  1
  O  O8  1  0.751206  0.856459  0.117106  1
  O  O9  1  0.721448  0.870845  0.524365  1
  O  O10  1  0.490560  0.643541  0.382894  1
  O  O11  1  0.932072  0.370845  0.024365  1
  O  O12  1  0.067928  0.629155  0.975635  1
  O  O13  1  0.509440  0.356459  0.617106  1
  O  O14  1  0.278552  0.129155  0.475635  1
  O  O15  1  0.248794  0.143541  0.882894  1
  F  F16  1  0.272940  0.866871  0.123048  1
  F  F17  1  0.078636  0.924500  0.335596  1
  F  F18  1  0.576623  0.881635  0.286661  1
  F  F19  1  0.198420  0.876222  0.540431  1
  F  F20  1  0.304275  0.899176  0.732867  1
  F  F21  1  0.794677  0.890327  0.720283  1
  F  F22  1  0.623014  0.901775  0.886087  1
  F  F23  1  0.171598  0.618365  0.213339  1
  F  F24  1  0.667540  0.575500  0.164404  1
  F  F25  1  0.016763  0.633129  0.376952  1
  F  F26  1  0.174997  0.810773  0.888226  1
  F  F27  1  0.097546  0.689227  0.611774  1
  F  F28  1  0.638703  0.598225  0.613913  1
  F  F29  1  0.465789  0.376222  0.040431  1
  F  F30  1  0.964721  0.609673  0.779717  1
  F  F31  1  0.470584  0.600824  0.767133  1
  F  F32  1  0.529416  0.399176  0.232867  1
  F  F33  1  0.035279  0.390327  0.220283  1
  F  F34  1  0.534211  0.623778  0.959569  1
  F  F35  1  0.361297  0.401775  0.386087  1
  F  F36  1  0.902454  0.310773  0.388226  1
  F  F37  1  0.825003  0.189227  0.111774  1
  F  F38  1  0.983237  0.366871  0.623048  1
  F  F39  1  0.332460  0.424500  0.835596  1
  F  F40  1  0.828402  0.381635  0.786661  1
  F  F41  1  0.376986  0.098225  0.113913  1
  F  F42  1  0.205323  0.109673  0.279717  1
  F  F43  1  0.695725  0.100824  0.267133  1
  F  F44  1  0.801580  0.123778  0.459569  1
  F  F45  1  0.423377  0.118365  0.713339  1
  F  F46  1  0.921364  0.075500  0.664404  1
  F  F47  1  0.727060  0.133129  0.876952  1
