# generated using pymatgen
data_V2CrFe3(PO4)6
_symmetry_space_group_name_H-M   'P 1'
_cell_length_a   8.43583712
_cell_length_b   8.64743181
_cell_length_c   8.64743191
_cell_angle_alpha   59.99999970
_cell_angle_beta   59.16673595
_cell_angle_gamma   59.16673563
_symmetry_Int_Tables_number   1
_chemical_formula_structural   V2CrFe3(PO4)6
_chemical_formula_sum   'V2 Cr1 Fe3 P6 O24'
_cell_volume   440.35328758
_cell_formula_units_Z   1
loop_
 _symmetry_equiv_pos_site_id
 _symmetry_equiv_pos_as_xyz
  1  'x, y, z'
loop_
 _atom_site_type_symbol
 _atom_site_label
 _atom_site_symmetry_multiplicity
 _atom_site_fract_x
 _atom_site_fract_y
 _atom_site_fract_z
 _atom_site_occupancy
  V  V0  1  0.003961  0.998680  0.998680  1
  V  V1  1  0.498777  0.500407  0.500407  1
  Cr  Cr2  1  0.573272  0.142243  0.142243  1
  Fe  Fe3  1  0.059171  0.646943  0.646943  1
  Fe  Fe4  1  0.437823  0.854059  0.854059  1
  Fe  Fe5  1  0.940673  0.353109  0.353109  1
  P  P6  1  0.252221  0.250462  0.544126  1
  P  P7  1  0.252221  0.953190  0.250462  1
  P  P8  1  0.252221  0.544126  0.953190  1
  P  P9  1  0.747529  0.453175  0.049087  1
  P  P10  1  0.747529  0.049087  0.750210  1
  P  P11  1  0.747529  0.750210  0.453175  1
  O  O12  1  0.064429  0.106544  0.323797  1
  O  O13  1  0.064429  0.505231  0.106544  1
  O  O14  1  0.064429  0.323797  0.505231  1
  O  O15  1  0.218217  0.095716  0.747842  1
  O  O16  1  0.436355  0.179800  0.390202  1
  O  O17  1  0.283413  0.405592  0.560442  1
  O  O18  1  0.218217  0.938226  0.095716  1
  O  O19  1  0.283413  0.750554  0.405592  1
  O  O20  1  0.563011  0.607931  0.006669  1
  O  O21  1  0.283413  0.560442  0.750554  1
  O  O22  1  0.780444  0.250276  0.063245  1
  O  O23  1  0.563011  0.006669  0.822390  1
  O  O24  1  0.436355  0.993643  0.179800  1
  O  O25  1  0.218217  0.747842  0.938226  1
  O  O26  1  0.715602  0.438302  0.250551  1
  O  O27  1  0.436355  0.390202  0.993643  1
  O  O28  1  0.715602  0.250551  0.595545  1
  O  O29  1  0.780444  0.063245  0.906035  1
  O  O30  1  0.715602  0.595545  0.438302  1
  O  O31  1  0.563011  0.822390  0.607931  1
  O  O32  1  0.780444  0.906035  0.250276  1
  O  O33  1  0.934220  0.679640  0.492596  1
  O  O34  1  0.934220  0.492596  0.893544  1
  O  O35  1  0.934220  0.893544  0.679640  1
