# generated using pymatgen
data_Na3Li3Fe2P2(CO7)2
_symmetry_space_group_name_H-M   'P 1'
_cell_length_a   8.77040597
_cell_length_b   6.58203735
_cell_length_c   5.10149687
_cell_angle_alpha   90.01332009
_cell_angle_beta   88.20971852
_cell_angle_gamma   88.53012494
_symmetry_Int_Tables_number   1
_chemical_formula_structural   Na3Li3Fe2P2(CO7)2
_chemical_formula_sum   'Na3 Li3 Fe2 P2 C2 O14'
_cell_volume   294.25405824
_cell_formula_units_Z   1
loop_
 _symmetry_equiv_pos_site_id
 _symmetry_equiv_pos_as_xyz
  1  'x, y, z'
loop_
 _atom_site_type_symbol
 _atom_site_label
 _atom_site_symmetry_multiplicity
 _atom_site_fract_x
 _atom_site_fract_y
 _atom_site_fract_z
 _atom_site_occupancy
  Na  Na0  1  0.082395  0.243437  0.758900  1
  Na  Na1  1  0.258685  0.500150  0.248129  1
  Na  Na2  1  0.741354  0.500928  0.752385  1
  Li  Li3  1  0.268515  0.008573  0.243106  1
  Li  Li4  1  0.732653  0.991850  0.756633  1
  Li  Li5  1  0.915993  0.761592  0.243682  1
  Fe  Fe6  1  0.352275  0.752164  0.785591  1
  Fe  Fe7  1  0.648383  0.247193  0.214458  1
  P  P8  1  0.414029  0.241171  0.700645  1
  P  P9  1  0.590822  0.757725  0.300412  1
  C  C10  1  0.048473  0.760176  0.728386  1
  C  C11  1  0.945237  0.239585  0.270377  1
  O  O12  1  0.093416  0.230858  0.283274  1
  O  O13  1  0.100333  0.751671  0.965341  1
  O  O14  1  0.143508  0.758973  0.527203  1
  O  O15  1  0.314398  0.063386  0.804055  1
  O  O16  1  0.323355  0.439622  0.783978  1
  O  O17  1  0.426664  0.232043  0.394927  1
  O  O18  1  0.429964  0.767014  0.183699  1
  O  O19  1  0.574851  0.232630  0.814708  1
  O  O20  1  0.574142  0.767459  0.605494  1
  O  O21  1  0.682700  0.560416  0.218154  1
  O  O22  1  0.694124  0.933095  0.199502  1
  O  O23  1  0.859291  0.240936  0.482041  1
  O  O24  1  0.881578  0.248099  0.044050  1
  O  O25  1  0.902861  0.769254  0.690871  1
