# generated using pymatgen
data_Li4Co3P4(H3O4)6
_symmetry_space_group_name_H-M   'P 1'
_cell_length_a   7.20206213
_cell_length_b   9.14521892
_cell_length_c   14.78565614
_cell_angle_alpha   90.00000000
_cell_angle_beta   93.84427098
_cell_angle_gamma   90.00000000
_symmetry_Int_Tables_number   1
_chemical_formula_structural   Li4Co3P4(H3O4)6
_chemical_formula_sum   'Li8 Co6 P8 H36 O48'
_cell_volume   971.65768941
_cell_formula_units_Z   2
loop_
 _symmetry_equiv_pos_site_id
 _symmetry_equiv_pos_as_xyz
  1  'x, y, z'
loop_
 _atom_site_type_symbol
 _atom_site_label
 _atom_site_symmetry_multiplicity
 _atom_site_fract_x
 _atom_site_fract_y
 _atom_site_fract_z
 _atom_site_occupancy
  Li  Li0  1  0.282604  0.003352  0.855910  1
  Li  Li1  1  0.282604  0.496648  0.355910  1
  Li  Li2  1  0.447503  0.601861  0.784855  1
  Li  Li3  1  0.447503  0.898139  0.284855  1
  Li  Li4  1  0.552497  0.101861  0.715145  1
  Li  Li5  1  0.552497  0.398139  0.215145  1
  Li  Li6  1  0.717396  0.503352  0.644090  1
  Li  Li7  1  0.717396  0.996648  0.144090  1
  Co  Co8  1  0.026781  0.243869  0.501447  1
  Co  Co9  1  0.026781  0.256131  0.001447  1
  Co  Co10  1  0.500000  0.000000  0.500000  1
  Co  Co11  1  0.500000  0.500000  0.000000  1
  Co  Co12  1  0.973219  0.743869  0.998553  1
  Co  Co13  1  0.973219  0.756131  0.498553  1
  P  P14  1  0.104625  0.477459  0.880366  1
  P  P15  1  0.104625  0.022541  0.380366  1
  P  P16  1  0.255169  0.522372  0.571999  1
  P  P17  1  0.255169  0.977628  0.071999  1
  P  P18  1  0.744831  0.022372  0.928001  1
  P  P19  1  0.744831  0.477628  0.428001  1
  P  P20  1  0.895375  0.977459  0.619634  1
  P  P21  1  0.895375  0.522541  0.119634  1
  H  H22  1  0.146305  0.750130  0.821399  1
  H  H23  1  0.123487  0.504597  0.700563  1
  H  H24  1  0.156210  0.821552  0.725461  1
  H  H25  1  0.172163  0.150513  0.704831  1
  H  H26  1  0.146305  0.749870  0.321399  1
  H  H27  1  0.254212  0.270335  0.771211  1
  H  H28  1  0.123487  0.995403  0.200563  1
  H  H29  1  0.156210  0.678448  0.225461  1
  H  H30  1  0.172163  0.349487  0.204831  1
  H  H31  1  0.254212  0.229665  0.271211  1
  H  H32  1  0.274859  0.902132  0.617225  1
  H  H33  1  0.364267  0.755588  0.950161  1
  H  H34  1  0.274859  0.597868  0.117225  1
  H  H35  1  0.364267  0.744412  0.450161  1
  H  H36  1  0.456503  0.808984  0.631430  1
  H  H37  1  0.579552  0.759600  0.940949  1
  H  H38  1  0.420448  0.259600  0.559051  1
  H  H39  1  0.543497  0.308984  0.868570  1
  H  H40  1  0.456503  0.691016  0.131430  1
  H  H41  1  0.579552  0.740400  0.440949  1
  H  H42  1  0.420448  0.240400  0.059051  1
  H  H43  1  0.543497  0.191016  0.368570  1
  H  H44  1  0.635733  0.255588  0.549839  1
  H  H45  1  0.725141  0.402132  0.882775  1
  H  H46  1  0.635733  0.244412  0.049839  1
  H  H47  1  0.725141  0.097868  0.382775  1
  H  H48  1  0.745788  0.770335  0.728789  1
  H  H49  1  0.827837  0.650513  0.795169  1
  H  H50  1  0.843790  0.321552  0.774539  1
  H  H51  1  0.876513  0.004597  0.799437  1
  H  H52  1  0.745788  0.729665  0.228789  1
  H  H53  1  0.853695  0.250130  0.678601  1
  H  H54  1  0.827837  0.849487  0.295169  1
  H  H55  1  0.843790  0.178448  0.274539  1
  H  H56  1  0.876513  0.495403  0.299437  1
  H  H57  1  0.853695  0.249870  0.178601  1
  O  O58  1  0.015149  0.633217  0.881677  1
  O  O59  1  0.052391  0.858628  0.618625  1
  O  O60  1  0.015149  0.866783  0.381677  1
  O  O61  1  0.081912  0.530293  0.634466  1
  O  O62  1  0.206663  0.867643  0.993372  1
  O  O63  1  0.052391  0.641372  0.118625  1
  O  O64  1  0.213212  0.463591  0.794246  1
  O  O65  1  0.227312  0.444640  0.967743  1
  O  O66  1  0.081912  0.969707  0.134466  1
  O  O67  1  0.225882  0.813812  0.785409  1
  O  O68  1  0.206663  0.632357  0.493372  1
  O  O69  1  0.270421  0.165768  0.754318  1
  O  O70  1  0.213212  0.036409  0.294246  1
  O  O71  1  0.254582  0.366531  0.528588  1
  O  O72  1  0.227312  0.055360  0.467743  1
  O  O73  1  0.225882  0.686188  0.285409  1
  O  O74  1  0.270421  0.334232  0.254318  1
  O  O75  1  0.254582  0.133469  0.028588  1
  O  O76  1  0.466520  0.695944  0.926133  1
  O  O77  1  0.414159  0.910637  0.623824  1
  O  O78  1  0.434851  0.557177  0.627799  1
  O  O79  1  0.466520  0.804056  0.426133  1
  O  O80  1  0.414159  0.589363  0.123824  1
  O  O81  1  0.434851  0.942823  0.127799  1
  O  O82  1  0.565149  0.057177  0.872201  1
  O  O83  1  0.585841  0.410637  0.876176  1
  O  O84  1  0.533480  0.195944  0.573867  1
  O  O85  1  0.565149  0.442823  0.372201  1
  O  O86  1  0.585841  0.089363  0.376176  1
  O  O87  1  0.533480  0.304056  0.073867  1
  O  O88  1  0.745418  0.866531  0.971412  1
  O  O89  1  0.729579  0.665768  0.745682  1
  O  O90  1  0.774118  0.313812  0.714591  1
  O  O91  1  0.772688  0.944640  0.532257  1
  O  O92  1  0.745418  0.633469  0.471412  1
  O  O93  1  0.786788  0.963591  0.705754  1
  O  O94  1  0.729579  0.834232  0.245682  1
  O  O95  1  0.793337  0.367643  0.506628  1
  O  O96  1  0.774118  0.186188  0.214591  1
  O  O97  1  0.918088  0.030293  0.865534  1
  O  O98  1  0.772688  0.555360  0.032257  1
  O  O99  1  0.786788  0.536409  0.205754  1
  O  O100  1  0.947609  0.358628  0.881375  1
  O  O101  1  0.793337  0.132357  0.006628  1
  O  O102  1  0.918088  0.469707  0.365534  1
  O  O103  1  0.984851  0.133217  0.618323  1
  O  O104  1  0.947609  0.141372  0.381375  1
  O  O105  1  0.984851  0.366783  0.118323  1
