# generated using pymatgen
data_Mn6O7F5
_symmetry_space_group_name_H-M   'P 1'
_cell_length_a   4.60828730
_cell_length_b   5.63867781
_cell_length_c   15.30231984
_cell_angle_alpha   89.75537567
_cell_angle_beta   89.56758902
_cell_angle_gamma   88.87044581
_symmetry_Int_Tables_number   1
_chemical_formula_structural   Mn6O7F5
_chemical_formula_sum   'Mn12 O14 F10'
_cell_volume   397.53341845
_cell_formula_units_Z   2
loop_
 _symmetry_equiv_pos_site_id
 _symmetry_equiv_pos_as_xyz
  1  'x, y, z'
loop_
 _atom_site_type_symbol
 _atom_site_label
 _atom_site_symmetry_multiplicity
 _atom_site_fract_x
 _atom_site_fract_y
 _atom_site_fract_z
 _atom_site_occupancy
  Mn  Mn0  1  0.026959  0.167272  0.412820  1
  Mn  Mn1  1  0.996925  0.845161  0.241539  1
  Mn  Mn2  1  0.006283  0.155884  0.074562  1
  Mn  Mn3  1  0.016248  0.165510  0.748665  1
  Mn  Mn4  1  0.039347  0.851357  0.582647  1
  Mn  Mn5  1  0.048473  0.844499  0.911713  1
  Mn  Mn6  1  0.485251  0.348143  0.589782  1
  Mn  Mn7  1  0.485386  0.355184  0.924231  1
  Mn  Mn8  1  0.507814  0.346228  0.257787  1
  Mn  Mn9  1  0.500433  0.651624  0.086538  1
  Mn  Mn10  1  0.494185  0.644141  0.422083  1
  Mn  Mn11  1  0.485720  0.630302  0.750515  1
  O  O12  1  0.218628  0.109682  0.301762  1
  O  O13  1  0.221288  0.114130  0.638183  1
  O  O14  1  0.234522  0.117206  0.967880  1
  O  O15  1  0.217353  0.886995  0.132280  1
  O  O16  1  0.231510  0.892567  0.471176  1
  O  O17  1  0.238398  0.881864  0.802756  1
  O  O18  1  0.283233  0.398728  0.482307  1
  O  O19  1  0.277052  0.609025  0.644742  1
  O  O20  1  0.279095  0.395569  0.813294  1
  O  O21  1  0.276417  0.611191  0.976946  1
  O  O22  1  0.720046  0.381601  0.026963  1
  O  O23  1  0.714134  0.616233  0.196076  1
  O  O24  1  0.726876  0.385945  0.364084  1
  O  O25  1  0.718660  0.379669  0.694865  1
  F  F26  1  0.255367  0.380055  0.151692  1
  F  F27  1  0.236840  0.610415  0.312088  1
  F  F28  1  0.760347  0.620456  0.534669  1
  F  F29  1  0.740304  0.620119  0.857586  1
  F  F30  1  0.751003  0.115700  0.179897  1
  F  F31  1  0.760235  0.122824  0.526524  1
  F  F32  1  0.749144  0.877177  0.357331  1
  F  F33  1  0.774001  0.873145  0.011687  1
  F  F34  1  0.764500  0.123379  0.860009  1
  F  F35  1  0.758026  0.871022  0.692321  1
