# generated using pymatgen
data_LiCu3(CO3)3
_symmetry_space_group_name_H-M   'P 1'
_cell_length_a   14.14184408
_cell_length_b   14.00302443
_cell_length_c   3.25271073
_cell_angle_alpha   88.84247537
_cell_angle_beta   91.33786250
_cell_angle_gamma   119.48643093
_symmetry_Int_Tables_number   1
_chemical_formula_structural   LiCu3(CO3)3
_chemical_formula_sum   'Li3 Cu9 C9 O27'
_cell_volume   560.51614843
_cell_formula_units_Z   3
loop_
 _symmetry_equiv_pos_site_id
 _symmetry_equiv_pos_as_xyz
  1  'x, y, z'
loop_
 _atom_site_type_symbol
 _atom_site_label
 _atom_site_symmetry_multiplicity
 _atom_site_fract_x
 _atom_site_fract_y
 _atom_site_fract_z
 _atom_site_occupancy
  Li  Li0  1  0.449611  0.889804  0.551988  1
  Li  Li1  1  0.121497  0.219441  0.509794  1
  Li  Li2  1  0.797495  0.548735  0.487560  1
  Cu  Cu3  1  0.226016  0.771981  0.071754  1
  Cu  Cu4  1  0.216709  0.458891  0.014364  1
  Cu  Cu5  1  0.217089  0.091159  0.007282  1
  Cu  Cu6  1  0.553565  0.751447  0.935228  1
  Cu  Cu7  1  0.558015  0.463361  0.970495  1
  Cu  Cu8  1  0.541579  0.121344  0.064338  1
  Cu  Cu9  1  0.887023  0.791631  0.954831  1
  Cu  Cu10  1  0.891199  0.419352  0.978308  1
  Cu  Cu11  1  0.883680  0.117438  0.976972  1
  C  C12  1  0.998991  0.661789  0.002133  1
  C  C13  1  0.335577  0.671273  0.003369  1
  C  C14  1  0.653514  0.989199  0.014080  1
  C  C15  1  0.322474  0.331415  0.991815  1
  C  C16  1  0.335015  0.005709  0.522802  1
  C  C17  1  0.681334  0.666219  0.473882  1
  C  C18  1  0.670385  0.340298  0.991502  1
  C  C19  1  0.002914  0.006703  0.009554  1
  C  C20  1  -0.000043  0.324225  0.507459  1
  O  O21  1  0.024903  0.928111  0.017696  1
  O  O22  1  0.085278  0.754259  0.059341  1
  O  O23  1  0.003027  0.572632  0.975619  1
  O  O24  1  0.317126  0.905923  0.541468  1
  O  O25  1  0.097754  0.403708  0.502731  1
  O  O26  1  0.232799  0.604630  0.031195  1
  O  O27  1  0.367858  0.775721  0.049963  1
  O  O28  1  0.085506  0.107683  0.018169  1
  O  O29  1  0.558148  0.985591  0.036465  1
  O  O30  1  0.226424  0.325672  0.026762  1
  O  O31  1  0.401407  0.636536  0.929086  1
  O  O32  1  0.407635  0.425503  0.982602  1
  O  O33  1  0.657714  0.903320  0.915873  1
  O  O34  1  0.327783  0.243273  0.962991  1
  O  O35  1  0.255484  0.026756  0.523859  1
  O  O36  1  0.599728  0.682400  0.451779  1
  O  O37  1  0.435123  0.086092  0.507237  1
  O  O38  1  0.664399  0.564310  0.478837  1
  O  O39  1  0.780599  0.746291  0.486264  1
  O  O40  1  0.905244  0.988575  0.991646  1
  O  O41  1  0.577470  0.334510  0.003668  1
  O  O42  1  0.760191  0.436664  0.992609  1
  O  O43  1  0.679841  0.253994  0.979414  1
  O  O44  1  0.904413  0.658497  0.971167  1
  O  O45  1  0.739004  0.079618  0.088813  1
  O  O46  1  0.917254  0.341077  0.500801  1
  O  O47  1  0.981407  0.221968  0.515794  1
