# generated using pymatgen
data_Ca2MnAl2Si3HO13
_symmetry_space_group_name_H-M   'P 1'
_cell_length_a   8.93297725
_cell_length_b   5.76611325
_cell_length_c   10.24898268
_cell_angle_alpha   90.00000000
_cell_angle_beta   115.63800488
_cell_angle_gamma   90.00000000
_symmetry_Int_Tables_number   1
_chemical_formula_structural   Ca2MnAl2Si3HO13
_chemical_formula_sum   'Ca4 Mn2 Al4 Si6 H2 O26'
_cell_volume   475.93529337
_cell_formula_units_Z   2
loop_
 _symmetry_equiv_pos_site_id
 _symmetry_equiv_pos_as_xyz
  1  'x, y, z'
loop_
 _atom_site_type_symbol
 _atom_site_label
 _atom_site_symmetry_multiplicity
 _atom_site_fract_x
 _atom_site_fract_y
 _atom_site_fract_z
 _atom_site_occupancy
  Ca  Ca0  1  0.755548  0.750000  0.152748  1
  Ca  Ca1  1  0.244452  0.250000  0.847252  1
  Ca  Ca2  1  0.596543  0.750000  0.425473  1
  Ca  Ca3  1  0.403457  0.250000  0.574527  1
  Mn  Mn4  1  0.295454  0.250000  0.222487  1
  Mn  Mn5  1  0.704546  0.750000  0.777513  1
  Al  Al6  1  0.000000  0.500000  0.000000  1
  Al  Al7  1  0.000000  0.000000  0.000000  1
  Al  Al8  1  0.000000  0.500000  0.500000  1
  Al  Al9  1  0.000000  0.000000  0.500000  1
  Si  Si10  1  0.338674  0.750000  0.045426  1
  Si  Si11  1  0.661326  0.250000  0.954574  1
  Si  Si12  1  0.684164  0.250000  0.272892  1
  Si  Si13  1  0.315836  0.750000  0.727108  1
  Si  Si14  1  0.186596  0.750000  0.319380  1
  Si  Si15  1  0.813404  0.250000  0.680620  1
  H  H16  1  0.054996  0.250000  0.328239  1
  H  H17  1  0.945004  0.750000  0.671761  1
  O  O18  1  0.228864  0.510405  0.031874  1
  O  O19  1  0.771136  0.010405  0.968126  1
  O  O20  1  0.771136  0.489595  0.968126  1
  O  O21  1  0.228864  0.989595  0.031874  1
  O  O22  1  0.308766  0.523268  0.357957  1
  O  O23  1  0.691234  0.023268  0.642043  1
  O  O24  1  0.691234  0.476732  0.642043  1
  O  O25  1  0.308766  0.976732  0.357957  1
  O  O26  1  0.797701  0.482503  0.335095  1
  O  O27  1  0.202299  0.982503  0.664905  1
  O  O28  1  0.202299  0.517497  0.664905  1
  O  O29  1  0.797701  0.017497  0.335095  1
  O  O30  1  0.058520  0.250000  0.131681  1
  O  O31  1  0.941480  0.750000  0.868319  1
  O  O32  1  0.044152  0.750000  0.144595  1
  O  O33  1  0.955848  0.250000  0.855405  1
  O  O34  1  0.068129  0.750000  0.407662  1
  O  O35  1  0.931871  0.250000  0.592338  1
  O  O36  1  0.513076  0.750000  0.184250  1
  O  O37  1  0.486924  0.250000  0.815750  1
  O  O38  1  0.529984  0.250000  0.314859  1
  O  O39  1  0.470016  0.750000  0.685141  1
  O  O40  1  0.614383  0.250000  0.094645  1
  O  O41  1  0.385617  0.750000  0.905355  1
  O  O42  1  0.087649  0.250000  0.433427  1
  O  O43  1  0.912351  0.750000  0.566573  1
