# generated using pymatgen
data_Ga2NiO4
_symmetry_space_group_name_H-M   'P 1'
_cell_length_a   5.94203459
_cell_length_b   5.94203459
_cell_length_c   5.94203459
_cell_angle_alpha   119.81909602
_cell_angle_beta   119.81909602
_cell_angle_gamma   90.31362153
_symmetry_Int_Tables_number   1
_chemical_formula_structural   Ga2NiO4
_chemical_formula_sum   'Ga4 Ni2 O8'
_cell_volume   148.75424958
_cell_formula_units_Z   2
loop_
 _symmetry_equiv_pos_site_id
 _symmetry_equiv_pos_as_xyz
  1  'x, y, z'
loop_
 _atom_site_type_symbol
 _atom_site_label
 _atom_site_symmetry_multiplicity
 _atom_site_fract_x
 _atom_site_fract_y
 _atom_site_fract_z
 _atom_site_occupancy
  Ga  Ga0  1  0.875000  0.625000  0.250000  1
  Ga  Ga1  1  0.375000  0.125000  0.750000  1
  Ga  Ga2  1  0.375000  0.625000  0.250000  1
  Ga  Ga3  1  0.375000  0.625000  0.750000  1
  Ni  Ni4  1  0.000000  0.000000  0.000000  1
  Ni  Ni5  1  0.750000  0.250000  0.500000  1
  O  O6  1  0.612672  0.385564  0.227108  1
  O  O7  1  0.614436  0.841545  0.227108  1
  O  O8  1  0.135564  0.408455  0.272892  1
  O  O9  1  0.614436  0.387328  0.772891  1
  O  O10  1  0.137328  0.864436  0.272892  1
  O  O11  1  0.158455  0.385564  0.772891  1
  O  O12  1  0.591545  0.864436  0.727109  1
  O  O13  1  0.135564  0.862672  0.727109  1
