# generated using pymatgen
data_Rb9Na2Al11Si13O48
_symmetry_space_group_name_H-M   'P 1'
_cell_length_a   12.57806684
_cell_length_b   12.19473669
_cell_length_c   12.25967736
_cell_angle_alpha   90.94578056
_cell_angle_beta   89.85010230
_cell_angle_gamma   88.70418324
_symmetry_Int_Tables_number   1
_chemical_formula_structural   Rb9Na2Al11Si13O48
_chemical_formula_sum   'Rb9 Na2 Al11 Si13 O48'
_cell_volume   1879.72005040
_cell_formula_units_Z   1
loop_
 _symmetry_equiv_pos_site_id
 _symmetry_equiv_pos_as_xyz
  1  'x, y, z'
loop_
 _atom_site_type_symbol
 _atom_site_label
 _atom_site_symmetry_multiplicity
 _atom_site_fract_x
 _atom_site_fract_y
 _atom_site_fract_z
 _atom_site_occupancy
  Rb  Rb0  1  0.022651  0.547653  0.497563  1
  Rb  Rb1  1  0.251459  0.735641  0.238475  1
  Rb  Rb2  1  0.527704  0.469707  0.000412  1
  Rb  Rb3  1  0.574882  0.004916  0.502302  1
  Rb  Rb4  1  0.734578  0.242646  0.256552  1
  Rb  Rb5  1  0.727823  0.252181  0.750901  1
  Rb  Rb6  1  0.675350  0.662383  0.201904  1
  Rb  Rb7  1  0.540644  0.709671  0.776614  1
  Rb  Rb8  1  0.072126  0.057523  0.864607  1
  Na  Na9  1  0.829914  0.864520  0.152135  1
  Na  Na10  1  0.807647  0.818500  0.833166  1
  Al  Al11  1  0.996578  0.626065  0.185129  1
  Al  Al12  1  0.372379  0.803723  0.992118  1
  Al  Al13  1  0.615927  0.996583  0.194874  1
  Al  Al14  1  0.604871  0.192734  0.007897  1
  Al  Al15  1  0.610953  0.012144  0.802817  1
  Al  Al16  1  0.621964  0.817588  0.991296  1
  Al  Al17  1  0.829381  0.993088  0.369734  1
  Al  Al18  1  0.824498  0.999638  0.638641  1
  Al  Al19  1  0.813805  0.366291  0.006635  1
  Al  Al20  1  0.832561  0.637680  0.996315  1
  Al  Al21  1  0.004063  0.819040  0.636529  1
  Si  Si22  1  0.992808  0.368249  0.188697  1
  Si  Si23  1  0.002578  0.190283  0.622134  1
  Si  Si24  1  0.008383  0.815221  0.371556  1
  Si  Si25  1  0.187071  0.001256  0.378162  1
  Si  Si26  1  0.187492  0.003351  0.621871  1
  Si  Si27  1  0.173735  0.361772  0.005169  1
  Si  Si28  1  0.186630  0.609214  0.992829  1
  Si  Si29  1  0.372108  0.992429  0.190257  1
  Si  Si30  1  0.363201  0.177596  0.009599  1
  Si  Si31  1  0.368667  0.996552  0.810049  1
  Si  Si32  1  0.004595  0.185996  0.374572  1
  Si  Si33  1  0.995074  0.367118  0.820034  1
  Si  Si34  1  0.014545  0.623260  0.810274  1
  O  O35  1  0.012108  0.291281  0.295864  1
  O  O36  1  0.997161  0.242265  0.499287  1
  O  O37  1  0.013249  0.294822  0.706982  1
  O  O38  1  0.036757  0.702117  0.302319  1
  O  O39  1  0.990352  0.781162  0.497047  1
  O  O40  1  0.990903  0.493686  0.777162  1
  O  O41  1  0.021757  0.688293  0.697108  1
  O  O42  1  0.115495  0.112898  0.364406  1
  O  O43  1  0.102215  0.360464  0.115508  1
  O  O44  1  0.111885  0.115837  0.630152  1
  O  O45  1  0.106061  0.628533  0.094889  1
  O  O46  1  0.099692  0.342867  0.896469  1
  O  O47  1  0.116864  0.890661  0.363108  1
  O  O48  1  0.129337  0.624489  0.874007  1
  O  O49  1  0.119159  0.897714  0.647313  1
  O  O50  1  0.243887  0.999603  0.499745  1
  O  O51  1  0.235079  0.479761  0.997043  1
  O  O52  1  0.278326  0.993209  0.285704  1
  O  O53  1  0.257215  0.260061  0.009628  1
  O  O54  1  0.274572  0.019070  0.718440  1
  O  O55  1  0.284922  0.691613  0.003430  1
  O  O56  1  0.353562  0.104383  0.120092  1
  O  O57  1  0.351213  0.097735  0.900796  1
  O  O58  1  0.351119  0.885371  0.112198  1
  O  O59  1  0.350312  0.880557  0.871591  1
  O  O60  1  0.485241  0.986177  0.253599  1
  O  O61  1  0.469292  0.249882  0.010768  1
  O  O62  1  0.480547  -0.000020  0.744532  1
  O  O63  1  0.500871  0.744075  0.991114  1
  O  O64  1  0.622290  0.117090  0.124049  1
  O  O65  1  0.620262  0.127834  0.883493  1
  O  O66  1  0.649867  0.877002  0.118411  1
  O  O67  1  0.635860  0.889671  0.870284  1
  O  O68  1  0.710388  0.004084  0.299411  1
  O  O69  1  0.698796  0.027637  0.693850  1
  O  O70  1  0.688730  0.307398  0.012166  1
  O  O71  1  0.719584  0.715312  0.967767  1
  O  O72  1  0.801841  0.972305  0.503414  1
  O  O73  1  0.789851  0.505946  0.011650  1
  O  O74  1  0.901875  0.115230  0.346633  1
  O  O75  1  0.893442  0.321921  0.119203  1
  O  O76  1  0.888771  0.331341  0.883433  1
  O  O77  1  0.910388  0.882176  0.315377  1
  O  O78  1  0.900506  0.122915  0.657188  1
  O  O79  1  0.883684  0.684121  0.124202  1
  O  O80  1  0.919647  0.671907  0.888140  1
  O  O81  1  0.899525  0.892986  0.699969  1
  O  O82  1  0.976896  0.493145  0.237039  1
