# generated using pymatgen
data_LiNiPO4
_symmetry_space_group_name_H-M   'P 1'
_cell_length_a   8.53777244
_cell_length_b   7.41899714
_cell_length_c   15.17542927
_cell_angle_alpha   90.00000000
_cell_angle_beta   91.61009451
_cell_angle_gamma   90.00000000
_symmetry_Int_Tables_number   1
_chemical_formula_structural   LiNiPO4
_chemical_formula_sum   'Li12 Ni12 P12 O48'
_cell_volume   960.85811409
_cell_formula_units_Z   12
loop_
 _symmetry_equiv_pos_site_id
 _symmetry_equiv_pos_as_xyz
  1  'x, y, z'
loop_
 _atom_site_type_symbol
 _atom_site_label
 _atom_site_symmetry_multiplicity
 _atom_site_fract_x
 _atom_site_fract_y
 _atom_site_fract_z
 _atom_site_occupancy
  Li  Li0  1  0.228393  0.978796  0.932861  1
  Li  Li1  1  0.227750  0.028185  0.585625  1
  Li  Li2  1  0.244440  0.063303  0.243141  1
  Li  Li3  1  0.255561  0.563303  0.256859  1
  Li  Li4  1  0.272250  0.528185  0.914375  1
  Li  Li5  1  0.271607  0.478796  0.567139  1
  Li  Li6  1  0.728393  0.521204  0.432861  1
  Li  Li7  1  0.727750  0.471815  0.085625  1
  Li  Li8  1  0.744440  0.436697  0.743141  1
  Li  Li9  1  0.755560  0.936697  0.756859  1
  Li  Li10  1  0.772250  0.971815  0.414375  1
  Li  Li11  1  0.771607  0.021204  0.067139  1
  Ni  Ni12  1  0.052063  0.688944  0.405249  1
  Ni  Ni13  1  0.089766  0.814126  0.762063  1
  Ni  Ni14  1  0.080870  0.680221  0.079100  1
  Ni  Ni15  1  0.419130  0.180221  0.420900  1
  Ni  Ni16  1  0.410234  0.314126  0.737937  1
  Ni  Ni17  1  0.447937  0.188944  0.094751  1
  Ni  Ni18  1  0.552063  0.811056  0.905249  1
  Ni  Ni19  1  0.589766  0.685874  0.262063  1
  Ni  Ni20  1  0.580870  0.819779  0.579100  1
  Ni  Ni21  1  0.919130  0.319779  0.920900  1
  Ni  Ni22  1  0.910234  0.185874  0.237937  1
  Ni  Ni23  1  0.947937  0.311056  0.594751  1
  P  P24  1  0.063076  0.264905  0.405907  1
  P  P25  1  0.075419  0.227085  0.767097  1
  P  P26  1  0.107527  0.260389  0.077812  1
  P  P27  1  0.392473  0.760389  0.422188  1
  P  P28  1  0.424581  0.727085  0.732903  1
  P  P29  1  0.436924  0.764905  0.094093  1
  P  P30  1  0.563076  0.235095  0.905907  1
  P  P31  1  0.575419  0.272915  0.267097  1
  P  P32  1  0.607527  0.239611  0.577812  1
  P  P33  1  0.892473  0.739611  0.922188  1
  P  P34  1  0.924581  0.772915  0.232903  1
  P  P35  1  0.936924  0.735095  0.594093  1
  O  O36  1  0.969489  0.442715  0.389905  1
  O  O37  1  0.039793  0.886620  0.637866  1
  O  O38  1  0.090123  0.383938  0.834925  1
  O  O39  1  0.090025  0.226957  0.505914  1
  O  O40  1  0.059615  0.787220  0.959944  1
  O  O41  1  0.087002  0.760709  0.282008  1
  O  O42  1  0.103251  0.260991  0.180268  1
  O  O43  1  0.089614  0.050832  0.822182  1
  O  O44  1  0.159435  0.446323  0.040702  1
  O  O45  1  0.201720  0.232002  0.694564  1
  O  O46  1  0.233189  0.125417  0.045920  1
  O  O47  1  0.224660  0.269876  0.361314  1
  O  O48  1  0.275340  0.769876  0.138686  1
  O  O49  1  0.266811  0.625417  0.454080  1
  O  O50  1  0.298280  0.732002  0.805436  1
  O  O51  1  0.340565  0.946323  0.459298  1
  O  O52  1  0.410386  0.550832  0.677818  1
  O  O53  1  0.396749  0.760991  0.319732  1
  O  O54  1  0.412998  0.260709  0.217992  1
  O  O55  1  0.440385  0.287220  0.540056  1
  O  O56  1  0.409975  0.726957  0.994086  1
  O  O57  1  0.409877  0.883938  0.665075  1
  O  O58  1  0.460207  0.386620  0.862134  1
  O  O59  1  0.530511  0.942715  0.110095  1
  O  O60  1  0.469489  0.057285  0.889905  1
  O  O61  1  0.539793  0.613380  0.137866  1
  O  O62  1  0.590123  0.116062  0.334925  1
  O  O63  1  0.590025  0.273043  0.005914  1
  O  O64  1  0.559615  0.712780  0.459944  1
  O  O65  1  0.587002  0.739291  0.782008  1
  O  O66  1  0.603251  0.239009  0.680268  1
  O  O67  1  0.589614  0.449168  0.322182  1
  O  O68  1  0.659435  0.053677  0.540702  1
  O  O69  1  0.701720  0.267998  0.194564  1
  O  O70  1  0.733189  0.374583  0.545920  1
  O  O71  1  0.724660  0.230124  0.861314  1
  O  O72  1  0.775340  0.730124  0.638686  1
  O  O73  1  0.798280  0.767998  0.305436  1
  O  O74  1  0.766811  0.874583  0.954080  1
  O  O75  1  0.840565  0.553677  0.959298  1
  O  O76  1  0.910386  0.949168  0.177818  1
  O  O77  1  0.896749  0.739009  0.819732  1
  O  O78  1  0.912998  0.239291  0.717992  1
  O  O79  1  0.940385  0.212780  0.040056  1
  O  O80  1  0.909975  0.773043  0.494086  1
  O  O81  1  0.909877  0.616062  0.165075  1
  O  O82  1  0.960207  0.113380  0.362134  1
  O  O83  1  0.030511  0.557285  0.610095  1
