# generated using pymatgen
data_LiV2OF5
_symmetry_space_group_name_H-M   'P 1'
_cell_length_a   5.24771739
_cell_length_b   5.54383156
_cell_length_c   17.28994399
_cell_angle_alpha   88.25809563
_cell_angle_beta   97.62305704
_cell_angle_gamma   118.55103641
_symmetry_Int_Tables_number   1
_chemical_formula_structural   LiV2OF5
_chemical_formula_sum   'Li4 V8 O4 F20'
_cell_volume   437.61758332
_cell_formula_units_Z   4
loop_
 _symmetry_equiv_pos_site_id
 _symmetry_equiv_pos_as_xyz
  1  'x, y, z'
loop_
 _atom_site_type_symbol
 _atom_site_label
 _atom_site_symmetry_multiplicity
 _atom_site_fract_x
 _atom_site_fract_y
 _atom_site_fract_z
 _atom_site_occupancy
  Li  Li0  1  0.832529  0.337864  0.315539  1
  Li  Li1  1  0.587541  0.214423  0.923653  1
  Li  Li2  1  0.317901  0.602144  0.060906  1
  Li  Li3  1  0.078665  0.432341  0.669678  1
  V  V4  1  0.739772  0.398495  0.128764  1
  V  V5  1  0.502369  0.263588  0.745733  1
  V  V6  1  0.508223  0.744844  0.245368  1
  V  V7  1  0.735009  0.840038  0.627596  1
  V  V8  1  0.245767  0.132427  0.380014  1
  V  V9  1  0.008323  0.480879  0.494267  1
  V  V10  1  0.001076  0.025919  0.997504  1
  V  V11  1  0.234024  0.608051  0.876379  1
  O  O12  1  0.559087  0.593486  0.155939  1
  O  O13  1  0.508613  0.552079  0.688804  1
  O  O14  1  0.072937  0.333609  0.408880  1
  O  O15  1  0.010534  0.316060  0.937795  1
  F  F16  1  0.963008  0.207593  0.089753  1
  F  F17  1  0.986897  0.187252  0.572718  1
  F  F18  1  0.010573  0.707296  0.062634  1
  F  F19  1  0.507111  0.057295  0.179042  1
  F  F20  1  0.959849  0.468225  0.776342  1
  F  F21  1  0.946734  0.640003  0.594406  1
  F  F22  1  0.925083  0.993532  0.282311  1
  F  F23  1  0.449854  0.244570  0.023717  1
  F  F24  1  0.568816  0.076147  0.663801  1
  F  F25  1  0.574703  0.269708  0.467182  1
  F  F26  1  0.521974  0.444024  0.312961  1
  F  F27  1  0.458357  0.417020  0.848690  1
  F  F28  1  0.436728  0.710764  0.534860  1
  F  F29  1  0.443111  0.939846  0.331038  1
  F  F30  1  0.547428  0.799481  0.974397  1
  F  F31  1  0.062098  0.047098  0.715864  1
  F  F32  1  0.056969  0.529199  0.225768  1
  F  F33  1  0.486392  0.960539  0.825268  1
  F  F34  1  0.008897  0.795141  0.432192  1
  F  F35  1  0.060849  0.837690  0.910450  1
