# generated using pymatgen
data_LiSnPO4
_symmetry_space_group_name_H-M   'P 1'
_cell_length_a   10.07074845
_cell_length_b   5.57367147
_cell_length_c   7.10741217
_cell_angle_alpha   102.02258273
_cell_angle_beta   106.59321442
_cell_angle_gamma   79.44420387
_symmetry_Int_Tables_number   1
_chemical_formula_structural   LiSnPO4
_chemical_formula_sum   'Li4 Sn4 P4 O16'
_cell_volume   370.67555437
_cell_formula_units_Z   4
loop_
 _symmetry_equiv_pos_site_id
 _symmetry_equiv_pos_as_xyz
  1  'x, y, z'
loop_
 _atom_site_type_symbol
 _atom_site_label
 _atom_site_symmetry_multiplicity
 _atom_site_fract_x
 _atom_site_fract_y
 _atom_site_fract_z
 _atom_site_occupancy
  Li  Li0  1  0.103878  0.317650  0.316629  1
  Li  Li1  1  0.255887  0.883386  0.504736  1
  Li  Li2  1  0.744113  0.116614  0.495264  1
  Li  Li3  1  0.896122  0.682350  0.683371  1
  Sn  Sn4  1  0.213647  0.697630  0.937838  1
  Sn  Sn5  1  0.412182  0.255337  0.209430  1
  Sn  Sn6  1  0.587818  0.744663  0.790570  1
  Sn  Sn7  1  0.786353  0.302370  0.062162  1
  P  P8  1  0.050969  0.203616  0.804878  1
  P  P9  1  0.419654  0.287808  0.644039  1
  P  P10  1  0.580346  0.712192  0.355961  1
  P  P11  1  0.949031  0.796384  0.195122  1
  O  O12  1  0.086354  0.426265  0.726614  1
  O  O13  1  0.138383  0.955552  0.723903  1
  O  O14  1  0.105279  0.813019  0.277659  1
  O  O15  1  0.098270  0.239514  0.035085  1
  O  O16  1  0.440776  0.097612  0.784959  1
  O  O17  1  0.383172  0.555961  0.754723  1
  O  O18  1  0.298383  0.226594  0.454566  1
  O  O19  1  0.447475  0.716527  0.426847  1
  O  O20  1  0.552525  0.283473  0.573153  1
  O  O21  1  0.701617  0.773406  0.545434  1
  O  O22  1  0.616828  0.444039  0.245277  1
  O  O23  1  0.559224  0.902388  0.215041  1
  O  O24  1  0.901730  0.760486  0.964915  1
  O  O25  1  0.894721  0.186981  0.722341  1
  O  O26  1  0.861617  0.044448  0.276097  1
  O  O27  1  0.913646  0.573735  0.273386  1
