# generated using pymatgen
data_Li2V3FeO8
_symmetry_space_group_name_H-M   'P 1'
_cell_length_a   8.40319873
_cell_length_b   8.41882257
_cell_length_c   8.45123214
_cell_angle_alpha   90.24168145
_cell_angle_beta   90.00099898
_cell_angle_gamma   90.00174758
_symmetry_Int_Tables_number   1
_chemical_formula_structural   Li2V3FeO8
_chemical_formula_sum   'Li8 V12 Fe4 O32'
_cell_volume   597.87742936
_cell_formula_units_Z   4
loop_
 _symmetry_equiv_pos_site_id
 _symmetry_equiv_pos_as_xyz
  1  'x, y, z'
loop_
 _atom_site_type_symbol
 _atom_site_label
 _atom_site_symmetry_multiplicity
 _atom_site_fract_x
 _atom_site_fract_y
 _atom_site_fract_z
 _atom_site_occupancy
  Li  Li0  1  0.124120  0.875432  0.373803  1
  Li  Li1  1  0.252199  0.749142  0.749849  1
  Li  Li2  1  0.249350  0.250278  0.249371  1
  Li  Li3  1  0.374598  0.127949  0.874386  1
  Li  Li4  1  0.625048  0.624509  0.625807  1
  Li  Li5  1  0.752257  0.750983  0.249589  1
  Li  Li6  1  0.749238  0.249659  0.750772  1
  Li  Li7  1  0.874869  0.371861  0.125961  1
  V  V8  1  0.114006  0.620817  0.123693  1
  V  V9  1  0.113625  0.374519  0.881774  1
  V  V10  1  0.124512  0.114400  0.619691  1
  V  V11  1  0.376159  0.875881  0.127878  1
  V  V12  1  0.372006  0.621975  0.375013  1
  V  V13  1  0.380792  0.384807  0.625438  1
  V  V14  1  0.613789  0.878883  0.876383  1
  V  V15  1  0.613419  0.125447  0.118194  1
  V  V16  1  0.624410  0.385849  0.380302  1
  V  V17  1  0.876792  0.624104  0.871976  1
  V  V18  1  0.872000  0.878206  0.625011  1
  V  V19  1  0.880476  0.115311  0.374841  1
  Fe  Fe20  1  0.999532  0.496505  0.499573  1
  Fe  Fe21  1  0.500611  0.497922  0.997404  1
  Fe  Fe22  1  0.499302  0.003424  0.500283  1
  Fe  Fe23  1  0.000334  0.002310  0.002434  1
  O  O24  1  0.104823  0.134824  0.393702  1
  O  O25  1  0.116830  0.902124  0.630436  1
  O  O26  1  0.118525  0.612897  0.888377  1
  O  O27  1  0.133736  0.393030  0.104057  1
  O  O28  1  0.122358  0.139900  0.866505  1
  O  O29  1  0.132951  0.362865  0.634575  1
  O  O30  1  0.129463  0.621098  0.360634  1
  O  O31  1  0.138639  0.865776  0.121339  1
  O  O32  1  0.359682  0.140290  0.620088  1
  O  O33  1  0.362547  0.378267  0.857828  1
  O  O34  1  0.363080  0.629288  0.130116  1
  O  O35  1  0.378940  0.860408  0.366528  1
  O  O36  1  0.369799  0.599825  0.611958  1
  O  O37  1  0.387554  0.383198  0.386759  1
  O  O38  1  0.398823  0.114629  0.128964  1
  O  O39  1  0.400450  0.871263  0.887067  1
  O  O40  1  0.605112  0.365375  0.606366  1
  O  O41  1  0.617124  0.598079  0.369720  1
  O  O42  1  0.617682  0.886753  0.111752  1
  O  O43  1  0.633688  0.106762  0.896075  1
  O  O44  1  0.622095  0.360048  0.133459  1
  O  O45  1  0.632709  0.137234  0.365477  1
  O  O46  1  0.629755  0.879084  0.639306  1
  O  O47  1  0.638792  0.634125  0.878094  1
  O  O48  1  0.859579  0.359785  0.380071  1
  O  O49  1  0.862166  0.121567  0.142302  1
  O  O50  1  0.862865  0.870561  0.870203  1
  O  O51  1  0.879823  0.639807  0.633644  1
  O  O52  1  0.869691  0.900273  0.387963  1
  O  O53  1  0.887546  0.116953  0.613451  1
  O  O54  1  0.899046  0.385288  0.871142  1
  O  O55  1  0.900683  0.628530  0.112697  1
