# generated using pymatgen
data_MnOF
_symmetry_space_group_name_H-M   'P 1'
_cell_length_a   4.63671666
_cell_length_b   5.65178106
_cell_length_c   10.31061623
_cell_angle_alpha   89.96376458
_cell_angle_beta   91.03329362
_cell_angle_gamma   88.15238715
_symmetry_Int_Tables_number   1
_chemical_formula_structural   MnOF
_chemical_formula_sum   'Mn8 O8 F8'
_cell_volume   270.01240543
_cell_formula_units_Z   8
loop_
 _symmetry_equiv_pos_site_id
 _symmetry_equiv_pos_as_xyz
  1  'x, y, z'
loop_
 _atom_site_type_symbol
 _atom_site_label
 _atom_site_symmetry_multiplicity
 _atom_site_fract_x
 _atom_site_fract_y
 _atom_site_fract_z
 _atom_site_occupancy
  Mn  Mn0  1  0.975301  0.151011  0.625448  1
  Mn  Mn1  1  0.045830  0.860501  0.372666  1
  Mn  Mn2  1  0.022449  0.176375  0.124077  1
  Mn  Mn3  1  0.973639  0.843108  0.865215  1
  Mn  Mn4  1  0.470656  0.343340  0.883307  1
  Mn  Mn5  1  0.539897  0.357082  0.378672  1
  Mn  Mn6  1  0.520556  0.619816  0.125213  1
  Mn  Mn7  1  0.485121  0.651143  0.627390  1
  O  O8  1  0.198240  0.117313  0.956559  1
  O  O9  1  0.185767  0.884087  0.706549  1
  O  O10  1  0.318752  0.389848  0.217837  1
  O  O11  1  0.294094  0.622535  0.456948  1
  O  O12  1  0.717740  0.371193  0.037614  1
  O  O13  1  0.733012  0.391485  0.546573  1
  O  O14  1  0.681480  0.613797  0.795645  1
  O  O15  1  0.825554  0.123224  0.289839  1
  F  F16  1  0.254525  0.110059  0.466362  1
  F  F17  1  0.278530  0.883843  0.198538  1
  F  F18  1  0.226254  0.377422  0.719512  1
  F  F19  1  0.226817  0.610422  0.969141  1
  F  F20  1  0.795239  0.631277  0.288412  1
  F  F21  1  0.757797  0.860708  0.035517  1
  F  F22  1  0.712636  0.109220  0.780852  1
  F  F23  1  0.760118  0.901191  0.532114  1
