# generated using pymatgen
data_V2O3
_symmetry_space_group_name_H-M   'P 1'
_cell_length_a   5.62310430
_cell_length_b   12.04214684
_cell_length_c   3.76900094
_cell_angle_alpha   90.00000000
_cell_angle_beta   111.75617737
_cell_angle_gamma   90.00000000
_symmetry_Int_Tables_number   1
_chemical_formula_structural   V2O3
_chemical_formula_sum   'V8 O12'
_cell_volume   237.03599083
_cell_formula_units_Z   4
loop_
 _symmetry_equiv_pos_site_id
 _symmetry_equiv_pos_as_xyz
  1  'x, y, z'
loop_
 _atom_site_type_symbol
 _atom_site_label
 _atom_site_symmetry_multiplicity
 _atom_site_fract_x
 _atom_site_fract_y
 _atom_site_fract_z
 _atom_site_occupancy
  V  V0  1  0.171779  0.841396  0.559406  1
  V  V1  1  0.210767  0.550697  0.369943  1
  V  V2  1  0.289233  0.050697  0.130057  1
  V  V3  1  0.328221  0.341396  0.940594  1
  V  V4  1  0.671779  0.658604  0.059406  1
  V  V5  1  0.710767  0.949303  0.869943  1
  V  V6  1  0.789233  0.449303  0.630057  1
  V  V7  1  0.828221  0.158604  0.440594  1
  O  O8  1  0.086962  0.892582  0.015776  1
  O  O9  1  0.040229  0.694301  0.361429  1
  O  O10  1  0.321598  0.005201  0.646354  1
  O  O11  1  0.178402  0.505201  0.853646  1
  O  O12  1  0.413038  0.392582  0.484224  1
  O  O13  1  0.459771  0.194301  0.138571  1
  O  O14  1  0.540229  0.805699  0.861429  1
  O  O15  1  0.586962  0.607418  0.515776  1
  O  O16  1  0.821598  0.494799  0.146354  1
  O  O17  1  0.678402  0.994799  0.353646  1
  O  O18  1  0.959771  0.305699  0.638571  1
  O  O19  1  0.913038  0.107418  0.984224  1
