# generated using pymatgen
data_Ce5Sm2O13
_symmetry_space_group_name_H-M   'P 1'
_cell_length_a   3.85371982
_cell_length_b   3.85371982
_cell_length_c   22.50018419
_cell_angle_alpha   94.91268561
_cell_angle_beta   94.91268561
_cell_angle_gamma   60.00000000
_symmetry_Int_Tables_number   1
_chemical_formula_structural   Ce5Sm2O13
_chemical_formula_sum   'Ce5 Sm2 O13'
_cell_volume   287.96730453
_cell_formula_units_Z   1
loop_
 _symmetry_equiv_pos_site_id
 _symmetry_equiv_pos_as_xyz
  1  'x, y, z'
loop_
 _atom_site_type_symbol
 _atom_site_label
 _atom_site_symmetry_multiplicity
 _atom_site_fract_x
 _atom_site_fract_y
 _atom_site_fract_z
 _atom_site_occupancy
  Ce  Ce0  1  0.428408  0.428408  0.285222  1
  Ce  Ce1  1  0.856491  0.856491  0.569475  1
  Ce  Ce2  1  0.142284  0.142284  0.426852  1
  Ce  Ce3  1  0.570698  0.570698  0.712095  1
  Ce  Ce4  1  0.284353  0.284353  0.853060  1
  Sm  Sm5  1  0.716536  0.716536  0.149606  1
  Sm  Sm6  1  0.998597  0.998597  0.995792  1
  O  O7  1  0.751112  0.751112  0.253335  1
  O  O8  1  0.393886  0.393886  0.181659  1
  O  O9  1  0.031159  0.031159  0.093479  1
  O  O10  1  0.821787  0.821787  0.465362  1
  O  O11  1  0.107763  0.107763  0.323288  1
  O  O12  1  0.464694  0.464694  0.394081  1
  O  O13  1  0.536032  0.536032  0.608096  1
  O  O14  1  0.893148  0.893148  0.679446  1
  O  O15  1  0.178893  0.178893  0.536679  1
  O  O16  1  0.606940  0.606940  0.820822  1
  O  O17  1  0.250212  0.250212  0.750636  1
  O  O18  1  0.963104  0.963104  0.889312  1
  O  O19  1  0.325329  0.325329  0.975987  1
