# generated using pymatgen
data_V6O5F19
_symmetry_space_group_name_H-M   'P 1'
_cell_length_a   5.57349608
_cell_length_b   5.39741194
_cell_length_c   14.80588665
_cell_angle_alpha   89.69131274
_cell_angle_beta   100.86416040
_cell_angle_gamma   91.63309475
_symmetry_Int_Tables_number   1
_chemical_formula_structural   V6O5F19
_chemical_formula_sum   'V6 O5 F19'
_cell_volume   437.23679407
_cell_formula_units_Z   1
loop_
 _symmetry_equiv_pos_site_id
 _symmetry_equiv_pos_as_xyz
  1  'x, y, z'
loop_
 _atom_site_type_symbol
 _atom_site_label
 _atom_site_symmetry_multiplicity
 _atom_site_fract_x
 _atom_site_fract_y
 _atom_site_fract_z
 _atom_site_occupancy
  V  V0  1  0.018276  0.058214  0.994234  1
  V  V1  1  0.141347  0.562874  0.339103  1
  V  V2  1  0.278458  0.033829  0.663529  1
  V  V3  1  0.474678  0.563429  0.006363  1
  V  V4  1  0.685209  0.057740  0.327020  1
  V  V5  1  0.816313  0.506208  0.667362  1
  O  O6  1  0.040543  0.209796  0.644462  1
  O  O7  1  0.201849  0.291831  0.977482  1
  O  O8  1  0.300993  0.790892  0.024272  1
  O  O9  1  0.868668  0.290419  0.309133  1
  O  O10  1  0.965868  0.789820  0.356154  1
  F  F11  1  0.122840  0.729331  0.689713  1
  F  F12  1  0.052662  0.050771  0.115305  1
  F  F13  1  0.202834  0.396700  0.444389  1
  F  F14  1  0.400461  0.067533  0.781767  1
  F  F15  1  0.118813  0.553233  0.218450  1
  F  F16  1  0.301635  0.915914  0.554479  1
  F  F17  1  0.448898  0.554934  0.885530  1
  F  F18  1  0.392976  0.200508  0.307873  1
  F  F19  1  0.518240  0.293905  0.643517  1
  F  F20  1  0.725542  0.199915  0.973948  1
  F  F21  1  0.444596  0.707431  0.359178  1
  F  F22  1  0.648127  0.777225  0.690507  1
  F  F23  1  0.538598  0.396318  0.111513  1
  F  F24  1  0.722673  0.052288  0.448166  1
  F  F25  1  0.893113  0.400601  0.782307  1
  F  F26  1  0.628660  0.891394  0.221840  1
  F  F27  1  0.801687  0.557083  0.548354  1
  F  F28  1  0.966930  0.892972  0.888956  1
  F  F29  1  0.778513  0.706891  0.025090  1
