# generated using pymatgen
data_Li3V(SiO3)3
_symmetry_space_group_name_H-M   'P 1'
_cell_length_a   12.73911283
_cell_length_b   11.79932645
_cell_length_c   5.37557192
_cell_angle_alpha   90.00000000
_cell_angle_beta   90.00000000
_cell_angle_gamma   90.00000000
_symmetry_Int_Tables_number   1
_chemical_formula_structural   Li3V(SiO3)3
_chemical_formula_sum   'Li12 V4 Si12 O36'
_cell_volume   808.01807842
_cell_formula_units_Z   4
loop_
 _symmetry_equiv_pos_site_id
 _symmetry_equiv_pos_as_xyz
  1  'x, y, z'
loop_
 _atom_site_type_symbol
 _atom_site_label
 _atom_site_symmetry_multiplicity
 _atom_site_fract_x
 _atom_site_fract_y
 _atom_site_fract_z
 _atom_site_occupancy
  Li  Li0  1  0.000000  0.062333  0.170782  1
  Li  Li1  1  0.000000  0.397400  0.819713  1
  Li  Li2  1  0.000000  0.858194  0.158841  1
  Li  Li3  1  0.000000  0.599370  0.673737  1
  Li  Li4  1  0.246397  0.166487  0.673441  1
  Li  Li5  1  0.253603  0.666487  0.326559  1
  Li  Li6  1  0.500000  0.562333  0.829218  1
  Li  Li7  1  0.500000  0.099370  0.326263  1
  Li  Li8  1  0.500000  0.358194  0.841159  1
  Li  Li9  1  0.500000  0.897400  0.180287  1
  Li  Li10  1  0.746397  0.666487  0.326559  1
  Li  Li11  1  0.753603  0.166487  0.673441  1
  V  V12  1  0.226434  0.955679  0.126596  1
  V  V13  1  0.273566  0.455679  0.873404  1
  V  V14  1  0.726434  0.455679  0.873404  1
  V  V15  1  0.773566  0.955679  0.126596  1
  Si  Si16  1  0.113289  0.835836  0.649384  1
  Si  Si17  1  0.116966  0.462537  0.360369  1
  Si  Si18  1  0.188853  0.237061  0.163117  1
  Si  Si19  1  0.311147  0.737061  0.836883  1
  Si  Si20  1  0.383034  0.962537  0.639631  1
  Si  Si21  1  0.386711  0.335836  0.350616  1
  Si  Si22  1  0.613289  0.335836  0.350616  1
  Si  Si23  1  0.616966  0.962537  0.639631  1
  Si  Si24  1  0.688853  0.737061  0.836883  1
  Si  Si25  1  0.811147  0.237061  0.163117  1
  Si  Si26  1  0.883034  0.462537  0.360369  1
  Si  Si27  1  0.886711  0.835836  0.649384  1
  O  O28  1  0.000000  0.515184  0.275276  1
  O  O29  1  0.000000  0.761099  0.635790  1
  O  O30  1  0.109317  0.903862  0.910082  1
  O  O31  1  0.121870  0.906144  0.395282  1
  O  O32  1  0.108334  0.325107  0.307712  1
  O  O33  1  0.126080  0.486444  0.659849  1
  O  O34  1  0.203976  0.523272  0.186976  1
  O  O35  1  0.203753  0.734163  0.655485  1
  O  O36  1  0.144086  0.109944  0.162902  1
  O  O37  1  0.213161  0.291035  0.891345  1
  O  O38  1  0.286839  0.791035  0.108655  1
  O  O39  1  0.355914  0.609944  0.837098  1
  O  O40  1  0.296247  0.234163  0.344515  1
  O  O41  1  0.296024  0.023272  0.813024  1
  O  O42  1  0.373920  0.986444  0.340151  1
  O  O43  1  0.391666  0.825107  0.692288  1
  O  O44  1  0.378130  0.406144  0.604718  1
  O  O45  1  0.390683  0.403862  0.089918  1
  O  O46  1  0.500000  0.261099  0.364210  1
  O  O47  1  0.500000  0.015184  0.724724  1
  O  O48  1  0.609317  0.403862  0.089918  1
  O  O49  1  0.621870  0.406144  0.604718  1
  O  O50  1  0.608334  0.825107  0.692288  1
  O  O51  1  0.626080  0.986444  0.340151  1
  O  O52  1  0.703976  0.023272  0.813024  1
  O  O53  1  0.703753  0.234163  0.344515  1
  O  O54  1  0.644086  0.609944  0.837098  1
  O  O55  1  0.713161  0.791035  0.108655  1
  O  O56  1  0.786839  0.291035  0.891345  1
  O  O57  1  0.855914  0.109944  0.162902  1
  O  O58  1  0.796247  0.734163  0.655485  1
  O  O59  1  0.796024  0.523272  0.186976  1
  O  O60  1  0.873920  0.486444  0.659849  1
  O  O61  1  0.891666  0.325107  0.307712  1
  O  O62  1  0.878130  0.906144  0.395282  1
  O  O63  1  0.890683  0.903862  0.910082  1
