# generated using pymatgen
data_Na4Sn2C4SO16
_symmetry_space_group_name_H-M   'P 1'
_cell_length_a   10.16548080
_cell_length_b   10.06055686
_cell_length_c   9.91268813
_cell_angle_alpha   117.59821127
_cell_angle_beta   60.67981260
_cell_angle_gamma   117.16953974
_symmetry_Int_Tables_number   1
_chemical_formula_structural   Na4Sn2C4SO16
_chemical_formula_sum   'Na8 Sn4 C8 S2 O32'
_cell_volume   747.90036260
_cell_formula_units_Z   2
loop_
 _symmetry_equiv_pos_site_id
 _symmetry_equiv_pos_as_xyz
  1  'x, y, z'
loop_
 _atom_site_type_symbol
 _atom_site_label
 _atom_site_symmetry_multiplicity
 _atom_site_fract_x
 _atom_site_fract_y
 _atom_site_fract_z
 _atom_site_occupancy
  Na  Na0  1  0.920206  0.163932  0.321163  1
  Na  Na1  1  0.920370  0.160014  0.917617  1
  Na  Na2  1  0.918642  0.577916  0.329143  1
  Na  Na3  1  0.669534  0.437973  0.081733  1
  Na  Na4  1  0.327281  0.168468  0.919168  1
  Na  Na5  1  0.339356  0.581054  0.924951  1
  Na  Na6  1  0.079474  0.425700  0.665425  1
  Na  Na7  1  0.077511  0.814060  0.664124  1
  Sn  Sn8  1  0.500173  0.998593  0.001981  1
  Sn  Sn9  1  0.501922  0.998152  0.497216  1
  Sn  Sn10  1  0.500203  0.504942  0.503114  1
  Sn  Sn11  1  0.002156  0.991020  0.483768  1
  C  C12  1  0.707271  0.156723  0.724141  1
  C  C13  1  0.660959  0.210503  0.270450  1
  C  C14  1  0.273154  0.206849  0.669158  1
  C  C15  1  0.297027  0.225446  0.265589  1
  C  C16  1  0.709411  0.783860  0.733445  1
  C  C17  1  0.721716  0.792158  0.340731  1
  C  C18  1  0.340674  0.794449  0.732869  1
  C  C19  1  0.289869  0.841138  0.279324  1
  S  S20  1  0.875758  0.623133  0.870542  1
  S  S21  1  0.120668  0.369791  0.122482  1
  O  O22  1  0.844937  0.186554  0.718322  1
  O  O23  1  0.647543  0.090032  0.301159  1
  O  O24  1  0.686507  0.136329  0.594453  1
  O  O25  1  0.651523  0.182481  0.129962  1
  O  O26  1  0.582379  0.148215  0.859751  1
  O  O27  1  0.941835  0.565014  0.686613  1
  O  O28  1  0.931658  0.552522  0.931123  1
  O  O29  1  0.691644  0.349929  0.361644  1
  O  O30  1  0.409407  0.188495  0.638253  1
  O  O31  1  0.309646  0.091458  0.139501  1
  O  O32  1  0.938278  0.798035  0.923113  1
  O  O33  1  0.700229  0.569095  0.931914  1
  O  O34  1  0.724218  0.656626  0.317824  1
  O  O35  1  0.844965  0.785597  0.616602  1
  O  O36  1  0.418236  0.345586  0.267449  1
  O  O37  1  0.144587  0.093631  0.688538  1
  O  O38  1  0.844343  0.913547  0.338366  1
  O  O39  1  0.589581  0.663589  0.738374  1
  O  O40  1  0.279378  0.342649  0.682236  1
  O  O41  1  0.159609  0.221583  0.376512  1
  O  O42  1  0.296661  0.420572  0.057218  1
  O  O43  1  0.064427  0.191855  0.064547  1
  O  O44  1  0.583427  0.803962  0.372979  1
  O  O45  1  0.699891  0.922406  0.851467  1
  O  O46  1  0.305636  0.657372  0.638672  1
  O  O47  1  0.054895  0.425354  0.302953  1
  O  O48  1  0.060909  0.429568  0.056278  1
  O  O49  1  0.412958  0.855357  0.145667  1
  O  O50  1  0.361107  0.816975  0.863814  1
  O  O51  1  0.312596  0.868241  0.410722  1
  O  O52  1  0.354402  0.919011  0.706355  1
  O  O53  1  0.149250  0.798934  0.285941  1
