# generated using pymatgen
data_La9ErO15
_symmetry_space_group_name_H-M   'P 1'
_cell_length_a   9.97186256
_cell_length_b   6.79007307
_cell_length_c   7.30229162
_cell_angle_alpha   62.29580508
_cell_angle_beta   108.05814672
_cell_angle_gamma   90.00109937
_symmetry_Int_Tables_number   1
_chemical_formula_structural   La9ErO15
_chemical_formula_sum   'La9 Er1 O15'
_cell_volume   410.04746743
_cell_formula_units_Z   1
loop_
 _symmetry_equiv_pos_site_id
 _symmetry_equiv_pos_as_xyz
  1  'x, y, z'
loop_
 _atom_site_type_symbol
 _atom_site_label
 _atom_site_symmetry_multiplicity
 _atom_site_fract_x
 _atom_site_fract_y
 _atom_site_fract_z
 _atom_site_occupancy
  La  La0  1  0.451270  0.230651  0.204860  1
  La  La1  1  0.847220  0.033194  0.599361  1
  La  La2  1  0.252385  0.830791  0.005121  1
  La  La3  1  0.046983  0.433128  0.800376  1
  La  La4  1  0.353464  0.370357  0.595344  1
  La  La5  1  0.949385  0.569582  0.196951  1
  La  La6  1  0.749343  0.170059  0.992288  1
  La  La7  1  0.150870  0.968559  0.397208  1
  La  La8  1  0.552418  0.765986  0.795860  1
  Er  Er9  1  0.653045  0.640294  0.386461  1
  O  O10  1  0.998842  -0.000036  0.999048  1
  O  O11  1  0.669644  0.991463  0.321258  1
  O  O12  1  0.200253  0.399967  0.199849  1
  O  O13  1  0.128279  0.591089  0.482818  1
  O  O14  1  0.479132  0.608176  0.130509  1
  O  O15  1  0.270506  0.208290  0.917802  1
  O  O16  1  0.928178  0.192407  0.283713  1
  O  O17  1  0.600996  0.206004  0.600216  1
  O  O18  1  0.727471  0.788623  0.089662  1
  O  O19  1  0.528815  0.390035  0.888729  1
  O  O20  1  0.070530  0.808807  0.716868  1
  O  O21  1  0.860539  0.417720  0.511477  1
  O  O22  1  0.404257  0.794378  0.403979  1
  O  O23  1  0.330033  0.989945  0.684075  1
  O  O24  1  0.795939  0.600131  0.795966  1
