# generated using pymatgen
data_NaBiAsCO7
_symmetry_space_group_name_H-M   'P 1'
_cell_length_a   9.72474091
_cell_length_b   7.21278357
_cell_length_c   5.63077454
_cell_angle_alpha   90.00000000
_cell_angle_beta   89.38069723
_cell_angle_gamma   90.00000000
_symmetry_Int_Tables_number   1
_chemical_formula_structural   NaBiAsCO7
_chemical_formula_sum   'Na2 Bi2 As2 C2 O14'
_cell_volume   394.93325844
_cell_formula_units_Z   2
loop_
 _symmetry_equiv_pos_site_id
 _symmetry_equiv_pos_as_xyz
  1  'x, y, z'
loop_
 _atom_site_type_symbol
 _atom_site_label
 _atom_site_symmetry_multiplicity
 _atom_site_fract_x
 _atom_site_fract_y
 _atom_site_fract_z
 _atom_site_occupancy
  Na  Na0  1  0.210825  0.490624  0.232101  1
  Na  Na1  1  0.789175  0.990624  0.767899  1
  Bi  Bi2  1  0.355494  0.764960  0.789139  1
  Bi  Bi3  1  0.644506  0.264960  0.210861  1
  As  As4  1  0.420122  0.258017  0.719325  1
  As  As5  1  0.579878  0.758017  0.280675  1
  C  C6  1  0.071672  0.735271  0.722385  1
  C  C7  1  0.928328  0.235271  0.277615  1
  O  O8  1  0.055671  0.259187  0.306023  1
  O  O9  1  0.126405  0.735334  0.934565  1
  O  O10  1  0.154993  0.713233  0.540012  1
  O  O11  1  0.319310  0.073616  0.805423  1
  O  O12  1  0.337206  0.445365  0.843870  1
  O  O13  1  0.411922  0.737011  0.178842  1
  O  O14  1  0.432526  0.285232  0.415657  1
  O  O15  1  0.567474  0.785232  0.584343  1
  O  O16  1  0.588078  0.237011  0.821158  1
  O  O17  1  0.662794  0.945365  0.156130  1
  O  O18  1  0.680690  0.573616  0.194577  1
  O  O19  1  0.845007  0.213233  0.459988  1
  O  O20  1  0.873595  0.235334  0.065435  1
  O  O21  1  0.944329  0.759187  0.693977  1
