# generated using pymatgen
data_Cu6OF11
_symmetry_space_group_name_H-M   'P 1'
_cell_length_a   3.29600599
_cell_length_b   10.17695853
_cell_length_c   6.63451604
_cell_angle_alpha   108.05264911
_cell_angle_beta   84.48174800
_cell_angle_gamma   87.58906187
_symmetry_Int_Tables_number   1
_chemical_formula_structural   Cu6OF11
_chemical_formula_sum   'Cu6 O1 F11'
_cell_volume   209.99960188
_cell_formula_units_Z   1
loop_
 _symmetry_equiv_pos_site_id
 _symmetry_equiv_pos_as_xyz
  1  'x, y, z'
loop_
 _atom_site_type_symbol
 _atom_site_label
 _atom_site_symmetry_multiplicity
 _atom_site_fract_x
 _atom_site_fract_y
 _atom_site_fract_z
 _atom_site_occupancy
  Cu  Cu0  1  0.501927  0.663511  0.831583  1
  Cu  Cu1  1  0.495494  0.011283  0.505718  1
  Cu  Cu2  1  0.501211  0.333771  0.166677  1
  Cu  Cu3  1  0.998921  0.670329  0.335134  1
  Cu  Cu4  1  0.984216  0.312516  0.656702  1
  Cu  Cu5  1  -0.000716  0.999655  0.000049  1
  O  O6  1  0.474954  0.200081  0.599196  1
  F  F7  1  0.961707  0.667052  0.627337  1
  F  F8  1  0.956970  0.331659  0.961844  1
  F  F9  1  0.949474  0.000974  0.295342  1
  F  F10  1  0.466446  0.863761  0.931826  1
  F  F11  1  0.542988  0.465899  0.733594  1
  F  F12  1  0.536224  0.810206  0.405751  1
  F  F13  1  0.461366  0.532910  0.265946  1
  F  F14  1  0.534929  0.134618  0.067454  1
  F  F15  1  0.039824  0.667345  0.039744  1
  F  F16  1  0.047576  0.001666  0.706207  1
  F  F17  1  0.046491  0.332765  0.369897  1
