# generated using pymatgen
data_Li3Fe4(BO3)4
_symmetry_space_group_name_H-M   'P 1'
_cell_length_a   5.21902486
_cell_length_b   9.07260467
_cell_length_c   11.34770079
_cell_angle_alpha   67.70787474
_cell_angle_beta   77.32275240
_cell_angle_gamma   90.07511699
_symmetry_Int_Tables_number   1
_chemical_formula_structural   Li3Fe4(BO3)4
_chemical_formula_sum   'Li6 Fe8 B8 O24'
_cell_volume   482.90491225
_cell_formula_units_Z   2
loop_
 _symmetry_equiv_pos_site_id
 _symmetry_equiv_pos_as_xyz
  1  'x, y, z'
loop_
 _atom_site_type_symbol
 _atom_site_label
 _atom_site_symmetry_multiplicity
 _atom_site_fract_x
 _atom_site_fract_y
 _atom_site_fract_z
 _atom_site_occupancy
  Li  Li0  1  0.973383  0.963045  0.404211  1
  Li  Li1  1  0.700144  0.718883  0.918568  1
  Li  Li2  1  0.511879  0.493628  0.664557  1
  Li  Li3  1  0.473053  0.462389  0.409334  1
  Li  Li4  1  0.014948  0.995817  0.662174  1
  Li  Li5  1  0.239002  0.252821  0.159174  1
  Fe  Fe6  1  0.965368  0.646382  0.375861  1
  Fe  Fe7  1  0.730314  0.076619  0.880863  1
  Fe  Fe8  1  0.523297  0.840820  0.629462  1
  Fe  Fe9  1  0.756619  0.443797  0.134209  1
  Fe  Fe10  1  0.228608  0.549637  0.884699  1
  Fe  Fe11  1  0.476210  0.148292  0.382198  1
  Fe  Fe12  1  0.030934  0.349784  0.631684  1
  Fe  Fe13  1  0.262881  0.923460  0.130969  1
  B  B14  1  0.981647  0.314289  0.377488  1
  B  B15  1  0.730508  0.401448  0.874561  1
  B  B16  1  0.519584  0.183283  0.630867  1
  B  B17  1  0.763703  0.104452  0.129979  1
  B  B18  1  0.480781  0.812104  0.375668  1
  B  B19  1  0.233372  0.894269  0.879128  1
  B  B20  1  0.023305  0.685486  0.624116  1
  B  B21  1  0.274978  0.603066  0.126150  1
  O  O22  1  0.976839  0.916742  0.862444  1
  O  O23  1  0.886710  0.286280  0.845847  1
  O  O24  1  0.832132  0.509750  0.916083  1
  O  O25  1  0.915702  0.829586  0.611214  1
  O  O26  1  0.898514  0.574512  0.592632  1
  O  O27  1  0.749397  0.150436  0.680147  1
  O  O28  1  0.734376  0.338714  0.350289  1
  O  O29  1  0.481406  0.402668  0.856967  1
  O  O30  1  0.376452  0.783351  0.845296  1
  O  O31  1  0.592289  0.920899  0.413495  1
  O  O32  1  0.586994  0.673231  0.382927  1
  O  O33  1  0.352755  0.988191  0.929705  1
  O  O34  1  0.640979  0.011928  0.078508  1
  O  O35  1  0.416614  0.327112  0.613684  1
  O  O36  1  0.402371  0.071243  0.598338  1
  O  O37  1  0.618071  0.212524  0.167264  1
  O  O38  1  0.540492  0.623172  0.110491  1
  O  O39  1  0.258117  0.655299  0.663060  1
  O  O40  1  0.245599  0.847133  0.329724  1
  O  O41  1  0.099466  0.419465  0.416800  1
  O  O42  1  0.105258  0.183340  0.366105  1
  O  O43  1  0.160297  0.481298  0.102116  1
  O  O44  1  0.117583  0.711633  0.162892  1
  O  O45  1  0.020807  0.083897  0.141094  1
