# generated using pymatgen
data_Li3Bi(BO3)2
_symmetry_space_group_name_H-M   'P 1'
_cell_length_a   5.32127991
_cell_length_b   9.18829435
_cell_length_c   10.88415490
_cell_angle_alpha   90.00000000
_cell_angle_beta   91.31614408
_cell_angle_gamma   90.00000000
_symmetry_Int_Tables_number   1
_chemical_formula_structural   Li3Bi(BO3)2
_chemical_formula_sum   'Li12 Bi4 B8 O24'
_cell_volume   532.02387933
_cell_formula_units_Z   4
loop_
 _symmetry_equiv_pos_site_id
 _symmetry_equiv_pos_as_xyz
  1  'x, y, z'
loop_
 _atom_site_type_symbol
 _atom_site_label
 _atom_site_symmetry_multiplicity
 _atom_site_fract_x
 _atom_site_fract_y
 _atom_site_fract_z
 _atom_site_occupancy
  Li  Li0  1  0.157401  0.973362  0.675867  1
  Li  Li1  1  0.169073  0.651865  0.613286  1
  Li  Li2  1  0.170133  0.985081  0.095440  1
  Li  Li3  1  0.330927  0.151865  0.886714  1
  Li  Li4  1  0.329867  0.485081  0.404560  1
  Li  Li5  1  0.342599  0.473362  0.824133  1
  Li  Li6  1  0.657401  0.526638  0.175867  1
  Li  Li7  1  0.670133  0.514919  0.595440  1
  Li  Li8  1  0.669073  0.848135  0.113286  1
  Li  Li9  1  0.829867  0.014919  0.904560  1
  Li  Li10  1  0.830927  0.348135  0.386714  1
  Li  Li11  1  0.842599  0.026638  0.324133  1
  Bi  Bi12  1  0.150658  0.326518  0.123864  1
  Bi  Bi13  1  0.349342  0.826518  0.376136  1
  Bi  Bi14  1  0.650658  0.173482  0.623864  1
  Bi  Bi15  1  0.849342  0.673482  0.876136  1
  B  B16  1  0.158425  0.330987  0.619679  1
  B  B17  1  0.167842  0.675866  0.131620  1
  B  B18  1  0.341575  0.830987  0.880321  1
  B  B19  1  0.332158  0.175866  0.368380  1
  B  B20  1  0.667842  0.824134  0.631620  1
  B  B21  1  0.658425  0.169013  0.119679  1
  B  B22  1  0.832158  0.324134  0.868380  1
  B  B23  1  0.841575  0.669013  0.380321  1
  O  O24  1  0.087685  0.330598  0.901166  1
  O  O25  1  0.086026  0.634949  0.419876  1
  O  O26  1  0.161053  0.939660  0.875918  1
  O  O27  1  0.187021  0.051616  0.360732  1
  O  O28  1  0.210186  0.306979  0.339840  1
  O  O29  1  0.288440  0.686640  0.846590  1
  O  O30  1  0.211560  0.186640  0.653410  1
  O  O31  1  0.289814  0.806979  0.160160  1
  O  O32  1  0.312979  0.551616  0.139268  1
  O  O33  1  0.338947  0.439660  0.624082  1
  O  O34  1  0.412315  0.830598  0.598834  1
  O  O35  1  0.413974  0.134948  0.080124  1
  O  O36  1  0.586026  0.865051  0.919876  1
  O  O37  1  0.587685  0.169402  0.401166  1
  O  O38  1  0.661053  0.560340  0.375918  1
  O  O39  1  0.687021  0.448384  0.860732  1
  O  O40  1  0.710186  0.193021  0.839840  1
  O  O41  1  0.788440  0.813360  0.346590  1
  O  O42  1  0.711560  0.313360  0.153410  1
  O  O43  1  0.789814  0.693021  0.660160  1
  O  O44  1  0.812979  0.948384  0.639268  1
  O  O45  1  0.838947  0.060340  0.124082  1
  O  O46  1  0.913974  0.365051  0.580124  1
  O  O47  1  0.912315  0.669402  0.098834  1
