# generated using pymatgen
data_Li8Co(O2F)2
_symmetry_space_group_name_H-M   'P 1'
_cell_length_a   5.61544208
_cell_length_b   5.67257312
_cell_length_c   10.84689189
_cell_angle_alpha   89.99877254
_cell_angle_beta   90.00084791
_cell_angle_gamma   120.33732010
_symmetry_Int_Tables_number   1
_chemical_formula_structural   Li8Co(O2F)2
_chemical_formula_sum   'Li16 Co2 O8 F4'
_cell_volume   298.20419320
_cell_formula_units_Z   2
loop_
 _symmetry_equiv_pos_site_id
 _symmetry_equiv_pos_as_xyz
  1  'x, y, z'
loop_
 _atom_site_type_symbol
 _atom_site_label
 _atom_site_symmetry_multiplicity
 _atom_site_fract_x
 _atom_site_fract_y
 _atom_site_fract_z
 _atom_site_occupancy
  Li  Li0  1  0.999991  0.688418  0.773239  1
  Li  Li1  1  0.999996  0.597688  0.128093  1
  Li  Li2  1  0.999988  0.402291  0.628095  1
  Li  Li3  1  0.999996  0.311568  0.273241  1
  Li  Li4  1  0.324843  0.654706  0.403483  1
  Li  Li5  1  0.324816  0.670132  0.903485  1
  Li  Li6  1  0.304350  0.306861  0.763893  1
  Li  Li7  1  0.372711  0.378348  0.137506  1
  Li  Li8  1  0.627279  0.621667  0.637501  1
  Li  Li9  1  0.304349  0.997501  0.263897  1
  Li  Li10  1  0.695649  0.693153  0.263896  1
  Li  Li11  1  0.372706  0.994369  0.637498  1
  Li  Li12  1  0.675157  0.345306  0.903482  1
  Li  Li13  1  0.675161  0.329867  0.403485  1
  Li  Li14  1  0.627277  0.005636  0.137504  1
  Li  Li15  1  0.695623  0.002501  0.763897  1
  Co  Co16  1  0.000004  0.028318  0.503863  1
  Co  Co17  1  0.999986  0.971665  0.003868  1
  O  O18  1  0.999988  0.662831  0.951486  1
  O  O19  1  0.000004  0.337162  0.451488  1
  O  O20  1  0.338103  0.671672  0.219130  1
  O  O21  1  0.999999  0.013607  0.181276  1
  O  O22  1  0.999984  0.986402  0.681272  1
  O  O23  1  0.338092  0.666438  0.719133  1
  O  O24  1  0.661884  0.328335  0.719126  1
  O  O25  1  0.661895  0.333566  0.219133  1
  F  F26  1  0.335735  0.343626  0.949867  1
  F  F27  1  0.335759  0.992117  0.449868  1
  F  F28  1  0.664237  0.656365  0.449867  1
  F  F29  1  0.664238  0.007883  0.949868  1
