# generated using pymatgen
data_ZnH6(SeO4)2
_symmetry_space_group_name_H-M   'P 1'
_cell_length_a   7.23639187
_cell_length_b   8.10560871
_cell_length_c   6.99396760
_cell_angle_alpha   90.00000000
_cell_angle_beta   90.00000000
_cell_angle_gamma   67.42197113
_symmetry_Int_Tables_number   1
_chemical_formula_structural   ZnH6(SeO4)2
_chemical_formula_sum   'Zn2 H12 Se4 O16'
_cell_volume   378.79236419
_cell_formula_units_Z   2
loop_
 _symmetry_equiv_pos_site_id
 _symmetry_equiv_pos_as_xyz
  1  'x, y, z'
loop_
 _atom_site_type_symbol
 _atom_site_label
 _atom_site_symmetry_multiplicity
 _atom_site_fract_x
 _atom_site_fract_y
 _atom_site_fract_z
 _atom_site_occupancy
  Zn  Zn0  1  0.500000  0.500000  0.500000  1
  Zn  Zn1  1  0.000000  0.000000  0.000000  1
  H  H2  1  0.878017  0.916713  0.338237  1
  H  H3  1  0.762205  0.737289  0.522394  1
  H  H4  1  0.737795  0.762711  0.022394  1
  H  H5  1  0.735279  0.376208  0.787777  1
  H  H6  1  0.621983  0.583287  0.838237  1
  H  H7  1  0.764721  0.123792  0.287777  1
  H  H8  1  0.235279  0.876208  0.712223  1
  H  H9  1  0.378017  0.416713  0.161763  1
  H  H10  1  0.264721  0.623792  0.212223  1
  H  H11  1  0.262205  0.237289  0.977606  1
  H  H12  1  0.237795  0.262711  0.477606  1
  H  H13  1  0.121983  0.083287  0.661763  1
  Se  Se14  1  0.949270  0.375345  0.270966  1
  Se  Se15  1  0.449270  0.875345  0.229034  1
  Se  Se16  1  0.550730  0.124655  0.770966  1
  Se  Se17  1  0.050730  0.624655  0.729034  1
  O  O18  1  0.959644  0.759585  0.923138  1
  O  O19  1  0.808388  -0.000137  0.233831  1
  O  O20  1  0.887773  0.761085  0.539277  1
  O  O21  1  0.612227  0.738915  0.039277  1
  O  O22  1  0.691612  0.500137  0.733831  1
  O  O23  1  0.744083  0.333915  0.333476  1
  O  O24  1  0.540356  0.740415  0.423138  1
  O  O25  1  0.755917  0.166085  0.833476  1
  O  O26  1  0.244083  0.833915  0.166524  1
  O  O27  1  0.459644  0.259585  0.576862  1
  O  O28  1  0.255917  0.666085  0.666524  1
  O  O29  1  0.308388  0.499863  0.266169  1
  O  O30  1  0.387773  0.261085  0.960723  1
  O  O31  1  0.112227  0.238915  0.460723  1
  O  O32  1  0.191612  0.000137  0.766169  1
  O  O33  1  0.040356  0.240415  0.076862  1
