# generated using pymatgen
data_NaYH8(CO3)4
_symmetry_space_group_name_H-M   'P 1'
_cell_length_a   8.78209659
_cell_length_b   8.65965000
_cell_length_c   14.95715484
_cell_angle_alpha   90.00000000
_cell_angle_beta   103.30112318
_cell_angle_gamma   90.00000000
_symmetry_Int_Tables_number   1
_chemical_formula_structural   NaYH8(CO3)4
_chemical_formula_sum   'Na4 Y4 H32 C16 O48'
_cell_volume   1106.97598082
_cell_formula_units_Z   4
loop_
 _symmetry_equiv_pos_site_id
 _symmetry_equiv_pos_as_xyz
  1  'x, y, z'
loop_
 _atom_site_type_symbol
 _atom_site_label
 _atom_site_symmetry_multiplicity
 _atom_site_fract_x
 _atom_site_fract_y
 _atom_site_fract_z
 _atom_site_occupancy
  Na  Na0  1  0.314912  0.619342  0.517299  1
  Na  Na1  1  0.314912  0.380658  0.017299  1
  Na  Na2  1  0.993447  0.321429  0.521749  1
  Na  Na3  1  0.993447  0.678571  0.021749  1
  Y  Y4  1  0.194494  0.094972  0.804664  1
  Y  Y5  1  0.194494  0.905028  0.304663  1
  Y  Y6  1  0.662318  0.594093  0.734101  1
  Y  Y7  1  0.662318  0.405907  0.234101  1
  H  H8  1  0.031814  0.621061  0.598701  1
  H  H9  1  0.236985  0.713256  0.941137  1
  H  H10  1  0.355626  0.039649  0.009763  1
  H  H11  1  0.172371  0.945823  0.502233  1
  H  H12  1  0.031814  0.378939  0.098701  1
  H  H13  1  0.236985  0.286744  0.441137  1
  H  H14  1  0.346261  0.289533  0.540002  1
  H  H15  1  0.355626  0.960351  0.509763  1
  H  H16  1  0.172371  0.054177  0.002233  1
  H  H17  1  0.618217  0.095160  0.926754  1
  H  H18  1  0.513852  0.098097  0.632181  1
  H  H19  1  0.673267  0.728379  0.947350  1
  H  H20  1  0.346261  0.710467  0.040002  1
  H  H21  1  0.723854  0.233484  0.907806  1
  H  H22  1  0.624066  0.971199  0.606212  1
  H  H23  1  0.640947  0.678574  0.531037  1
  H  H24  1  0.634332  0.494359  0.536809  1
  H  H25  1  0.663270  0.225622  0.545685  1
  H  H26  1  0.618217  0.904840  0.426754  1
  H  H27  1  0.513852  0.901903  0.132181  1
  H  H28  1  0.673267  0.271621  0.447350  1
  H  H29  1  0.895330  0.025938  0.991201  1
  H  H30  1  0.723854  0.766516  0.407806  1
  H  H31  1  0.624066  0.028801  0.106212  1
  H  H32  1  0.640947  0.321426  0.031037  1
  H  H33  1  0.634332  0.505641  0.036809  1
  H  H34  1  0.663270  0.774378  0.045685  1
  H  H35  1  0.895330  0.974062  0.491201  1
  H  H36  1  0.969862  0.022650  0.591580  1
  H  H37  1  0.990340  0.681891  0.497658  1
  H  H38  1  0.969862  0.977350  0.091580  1
  H  H39  1  0.990340  0.318109  0.997658  1
  C  C40  1  0.367265  0.820476  0.722538  1
  C  C41  1  0.418653  0.391665  0.815324  1
  C  C42  1  0.433231  0.307786  0.726343  1
  C  C43  1  0.484437  0.869442  0.812253  1
  C  C44  1  0.367265  0.179524  0.222538  1
  C  C45  1  0.418653  0.608335  0.315324  1
  C  C46  1  0.433231  0.692214  0.226343  1
  C  C47  1  0.484437  0.130558  0.312253  1
  C  C48  1  0.908917  0.319567  0.812903  1
  C  C49  1  0.885379  0.885751  0.727552  1
  C  C50  1  0.971669  0.800569  0.815884  1
  C  C51  1  0.955956  0.374091  0.724502  1
  C  C52  1  0.908917  0.680433  0.312903  1
  C  C53  1  0.885379  0.114249  0.227552  1
  C  C54  1  0.971669  0.199431  0.315884  1
  C  C55  1  0.955956  0.625909  0.224502  1
  O  O56  1  0.102339  0.856916  0.857287  1
  O  O57  1  0.065257  0.301439  0.700637  1
  O  O58  1  0.052619  0.604835  0.538054  1
  O  O59  1  0.260804  0.097310  0.978980  1
  O  O60  1  0.102339  0.143084  0.357287  1
  O  O61  1  0.236760  0.887337  0.704343  1
  O  O62  1  0.065257  0.698561  0.200637  1
  O  O63  1  0.333025  0.327369  0.862405  1
  O  O64  1  0.052619  0.395165  0.038054  1
  O  O65  1  0.260804  0.902690  0.478980  1
  O  O66  1  0.263598  0.346831  0.498467  1
  O  O67  1  0.365858  0.178470  0.708598  1
  O  O68  1  0.442554  0.974988  0.860398  1
  O  O69  1  0.414314  0.716810  0.674859  1
  O  O70  1  0.236760  0.112663  0.204343  1
  O  O71  1  0.495144  0.514996  0.834205  1
  O  O72  1  0.333025  0.672631  0.362405  1
  O  O73  1  0.514350  0.371898  0.676770  1
  O  O74  1  0.263598  0.653169  0.998467  1
  O  O75  1  0.365858  0.821530  0.208598  1
  O  O76  1  0.615459  0.801561  0.831432  1
  O  O77  1  0.442554  0.025012  0.360398  1
  O  O78  1  0.552689  0.056743  0.580361  1
  O  O79  1  0.705660  0.163176  0.956507  1
  O  O80  1  0.414314  0.283190  0.174859  1
  O  O81  1  0.495144  0.485004  0.334205  1
  O  O82  1  0.597845  0.591963  0.560856  1
  O  O83  1  0.514350  0.628102  0.176770  1
  O  O84  1  0.783733  0.375029  0.828774  1
  O  O85  1  0.615459  0.198439  0.331432  1
  O  O86  1  0.760886  0.825343  0.680380  1
  O  O87  1  0.552689  0.943257  0.080361  1
  O  O88  1  0.708162  0.305692  0.511968  1
  O  O89  1  0.705660  0.836824  0.456507  1
  O  O90  1  0.597845  0.408037  0.060856  1
  O  O91  1  0.906979  0.682325  0.840259  1
  O  O92  1  0.880807  0.487641  0.682381  1
  O  O93  1  0.783733  0.624971  0.328774  1
  O  O94  1  0.997226  0.223671  0.863904  1
  O  O95  1  0.945862  0.010325  0.708384  1
  O  O96  1  0.760886  0.174657  0.180380  1
  O  O97  1  0.708162  0.694308  0.011968  1
  O  O98  1  0.906979  0.317675  0.340259  1
  O  O99  1  0.984716  0.031973  0.528153  1
  O  O100  1  0.880807  0.512359  0.182381  1
  O  O101  1  0.997226  0.776329  0.363904  1
  O  O102  1  0.945862  0.989675  0.208384  1
  O  O103  1  0.984716  0.968027  0.028153  1
