# generated using pymatgen
data_LiMnPO5
_symmetry_space_group_name_H-M   'P 1'
_cell_length_a   12.35290039
_cell_length_b   6.10792207
_cell_length_c   10.43138020
_cell_angle_alpha   90.00000000
_cell_angle_beta   90.00000000
_cell_angle_gamma   90.00000000
_symmetry_Int_Tables_number   1
_chemical_formula_structural   LiMnPO5
_chemical_formula_sum   'Li8 Mn8 P8 O40'
_cell_volume   787.05340381
_cell_formula_units_Z   8
loop_
 _symmetry_equiv_pos_site_id
 _symmetry_equiv_pos_as_xyz
  1  'x, y, z'
loop_
 _atom_site_type_symbol
 _atom_site_label
 _atom_site_symmetry_multiplicity
 _atom_site_fract_x
 _atom_site_fract_y
 _atom_site_fract_z
 _atom_site_occupancy
  Li  Li0  1  0.109750  0.798697  0.103132  1
  Li  Li1  1  0.172834  0.274642  0.826829  1
  Li  Li2  1  0.327166  0.774642  0.326829  1
  Li  Li3  1  0.390250  0.298697  0.603132  1
  Li  Li4  1  0.609750  0.701303  0.103132  1
  Li  Li5  1  0.672834  0.225358  0.826829  1
  Li  Li6  1  0.827166  0.725358  0.326829  1
  Li  Li7  1  0.890250  0.201303  0.603132  1
  Mn  Mn8  1  0.126963  0.006702  0.509400  1
  Mn  Mn9  1  0.247549  0.257043  0.256029  1
  Mn  Mn10  1  0.252451  0.757043  0.756029  1
  Mn  Mn11  1  0.373037  0.506702  0.009400  1
  Mn  Mn12  1  0.626963  0.493298  0.509400  1
  Mn  Mn13  1  0.747549  0.242957  0.256029  1
  Mn  Mn14  1  0.752451  0.742957  0.756029  1
  Mn  Mn15  1  0.873037  0.993298  0.009400  1
  P  P16  1  0.001217  0.838702  0.761062  1
  P  P17  1  0.187178  0.506644  0.508341  1
  P  P18  1  0.312822  0.006644  0.008341  1
  P  P19  1  0.498783  0.338702  0.261062  1
  P  P20  1  0.501217  0.661298  0.761062  1
  P  P21  1  0.687178  0.993356  0.508341  1
  P  P22  1  0.812822  0.493356  0.008341  1
  P  P23  1  0.998783  0.161298  0.261062  1
  O  O24  1  0.004559  0.023986  0.384971  1
  O  O25  1  0.008687  0.001600  0.646830  1
  O  O26  1  0.096055  0.319594  0.245071  1
  O  O27  1  0.100632  0.682947  0.764925  1
  O  O28  1  0.112528  0.702016  0.488325  1
  O  O29  1  0.110468  0.314264  0.531168  1
  O  O30  1  0.230957  0.991657  0.638799  1
  O  O31  1  0.230964  0.026520  0.380415  1
  O  O32  1  0.232416  0.030226  0.123539  1
  O  O33  1  0.235139  0.977178  0.891324  1
  O  O34  1  0.264861  0.477178  0.391324  1
  O  O35  1  0.267584  0.530226  0.623539  1
  O  O36  1  0.269036  0.526520  0.880415  1
  O  O37  1  0.269043  0.491657  0.138799  1
  O  O38  1  0.389532  0.814264  0.031168  1
  O  O39  1  0.387472  0.202016  0.988325  1
  O  O40  1  0.399368  0.182947  0.264925  1
  O  O41  1  0.403945  0.819594  0.745071  1
  O  O42  1  0.491313  0.501600  0.146830  1
  O  O43  1  0.495441  0.523986  0.884971  1
  O  O44  1  0.504559  0.476014  0.384971  1
  O  O45  1  0.508687  0.498400  0.646830  1
  O  O46  1  0.596055  0.180406  0.245071  1
  O  O47  1  0.600632  0.817053  0.764925  1
  O  O48  1  0.612528  0.797984  0.488325  1
  O  O49  1  0.610468  0.185736  0.531168  1
  O  O50  1  0.730957  0.508343  0.638799  1
  O  O51  1  0.730964  0.473480  0.380415  1
  O  O52  1  0.732416  0.469774  0.123539  1
  O  O53  1  0.735139  0.522822  0.891324  1
  O  O54  1  0.764861  0.022822  0.391324  1
  O  O55  1  0.767584  0.969774  0.623539  1
  O  O56  1  0.769036  0.973480  0.880415  1
  O  O57  1  0.769043  0.008343  0.138799  1
  O  O58  1  0.889532  0.685736  0.031168  1
  O  O59  1  0.887472  0.297984  0.988325  1
  O  O60  1  0.899368  0.317053  0.264925  1
  O  O61  1  0.903945  0.680406  0.745071  1
  O  O62  1  0.991313  0.998400  0.146830  1
  O  O63  1  0.995441  0.976014  0.884971  1
