# generated using pymatgen
data_V2O3F
_symmetry_space_group_name_H-M   'P 1'
_cell_length_a   6.16769998
_cell_length_b   6.37948808
_cell_length_c   7.29885203
_cell_angle_alpha   90.00000000
_cell_angle_beta   114.99325567
_cell_angle_gamma   90.00000000
_symmetry_Int_Tables_number   1
_chemical_formula_structural   V2O3F
_chemical_formula_sum   'V8 O12 F4'
_cell_volume   260.29341142
_cell_formula_units_Z   4
loop_
 _symmetry_equiv_pos_site_id
 _symmetry_equiv_pos_as_xyz
  1  'x, y, z'
loop_
 _atom_site_type_symbol
 _atom_site_label
 _atom_site_symmetry_multiplicity
 _atom_site_fract_x
 _atom_site_fract_y
 _atom_site_fract_z
 _atom_site_occupancy
  V  V0  1  0.002461  0.000000  0.997601  1
  V  V1  1  0.495140  0.000000  0.997601  1
  V  V2  1  0.993388  0.000000  0.486776  1
  V  V3  1  0.501933  0.000000  0.503865  1
  V  V4  1  0.248067  0.500000  0.996135  1
  V  V5  1  0.756612  0.500000  0.013224  1
  V  V6  1  0.747539  0.500000  0.502399  1
  V  V7  1  0.254860  0.500000  0.502399  1
  O  O8  1  0.850089  0.000000  0.200177  1
  O  O9  1  0.501360  0.300506  0.001042  1
  O  O10  1  -0.000317  0.300506  0.001042  1
  O  O11  1  0.248640  0.199494  0.498958  1
  O  O12  1  -0.000317  0.699494  0.001042  1
  O  O13  1  0.501360  0.699494  0.001042  1
  O  O14  1  0.750317  0.199494  0.498958  1
  O  O15  1  0.899911  0.500000  0.299823  1
  O  O16  1  0.150906  0.000000  0.801810  1
  O  O17  1  0.599094  0.500000  0.698190  1
  O  O18  1  0.750317  0.800506  0.498958  1
  O  O19  1  0.248640  0.800506  0.498958  1
  F  F20  1  0.351264  0.000000  0.202528  1
  F  F21  1  0.650865  0.000000  0.801729  1
  F  F22  1  0.398736  0.500000  0.297472  1
  F  F23  1  0.099135  0.500000  0.698271  1
