# generated using pymatgen
data_LiZnAsH2O5
_symmetry_space_group_name_H-M   'P 1'
_cell_length_a   11.08621167
_cell_length_b   8.46595711
_cell_length_c   5.21551313
_cell_angle_alpha   90.00000000
_cell_angle_beta   90.00000000
_cell_angle_gamma   90.00000000
_symmetry_Int_Tables_number   1
_chemical_formula_structural   LiZnAsH2O5
_chemical_formula_sum   'Li4 Zn4 As4 H8 O20'
_cell_volume   489.50403196
_cell_formula_units_Z   4
loop_
 _symmetry_equiv_pos_site_id
 _symmetry_equiv_pos_as_xyz
  1  'x, y, z'
loop_
 _atom_site_type_symbol
 _atom_site_label
 _atom_site_symmetry_multiplicity
 _atom_site_fract_x
 _atom_site_fract_y
 _atom_site_fract_z
 _atom_site_occupancy
  Li  Li0  1  0.180219  0.675314  0.264131  1
  Li  Li1  1  0.319781  0.175314  0.764131  1
  Li  Li2  1  0.680219  0.824686  0.264131  1
  Li  Li3  1  0.819781  0.324686  0.764131  1
  Zn  Zn4  1  0.123738  0.868852  0.762846  1
  Zn  Zn5  1  0.376262  0.368852  0.262846  1
  Zn  Zn6  1  0.623738  0.631148  0.762846  1
  Zn  Zn7  1  0.876262  0.131148  0.262846  1
  As  As8  1  0.170853  0.079006  0.257709  1
  As  As9  1  0.329147  0.579006  0.757709  1
  As  As10  1  0.670853  0.420994  0.257709  1
  As  As11  1  0.829147  0.920994  0.757709  1
  H  H12  1  0.016446  0.451165  0.592574  1
  H  H13  1  0.041151  0.331369  0.821958  1
  H  H14  1  0.458849  0.831369  0.321958  1
  H  H15  1  0.483554  0.951165  0.092574  1
  H  H16  1  0.516446  0.048835  0.592574  1
  H  H17  1  0.541151  0.168631  0.821958  1
  H  H18  1  0.958849  0.668631  0.321958  1
  H  H19  1  0.983554  0.548835  0.092574  1
  O  O20  1  0.014881  0.588370  0.256234  1
  O  O21  1  0.043415  0.180866  0.170790  1
  O  O22  1  0.168316  0.891221  0.126990  1
  O  O23  1  0.189622  0.059773  0.584916  1
  O  O24  1  0.207270  0.677577  0.632286  1
  O  O25  1  0.292730  0.177577  0.132286  1
  O  O26  1  0.310378  0.559773  0.084916  1
  O  O27  1  0.331684  0.391221  0.626990  1
  O  O28  1  0.456585  0.680866  0.670790  1
  O  O29  1  0.485119  0.088370  0.756234  1
  O  O30  1  0.514881  0.911630  0.256234  1
  O  O31  1  0.543415  0.319134  0.170790  1
  O  O32  1  0.668316  0.608779  0.126990  1
  O  O33  1  0.689622  0.440227  0.584916  1
  O  O34  1  0.707270  0.822423  0.632286  1
  O  O35  1  0.792730  0.322423  0.132286  1
  O  O36  1  0.810378  0.940227  0.084916  1
  O  O37  1  0.831684  0.108779  0.626990  1
  O  O38  1  0.956585  0.819134  0.670790  1
  O  O39  1  0.985119  0.411630  0.756234  1
