# generated using pymatgen
data_SrLa3Mn4O12
_symmetry_space_group_name_H-M   'P 1'
_cell_length_a   11.08555664
_cell_length_b   11.08556052
_cell_length_c   13.50847336
_cell_angle_alpha   35.67200864
_cell_angle_beta   35.67204682
_cell_angle_gamma   60.66548362
_symmetry_Int_Tables_number   1
_chemical_formula_structural   SrLa3Mn4O12
_chemical_formula_sum   'Sr2 La6 Mn8 O24'
_cell_volume   488.87725432
_cell_formula_units_Z   2
loop_
 _symmetry_equiv_pos_site_id
 _symmetry_equiv_pos_as_xyz
  1  'x, y, z'
loop_
 _atom_site_type_symbol
 _atom_site_label
 _atom_site_symmetry_multiplicity
 _atom_site_fract_x
 _atom_site_fract_y
 _atom_site_fract_z
 _atom_site_occupancy
  Sr  Sr0  1  0.000001  0.000031  0.249968  1
  Sr  Sr1  1  0.999989  0.999990  0.750014  1
  La  La2  1  0.498153  0.996277  0.253731  1
  La  La3  1  0.498129  0.501830  0.250029  1
  La  La4  1  0.501870  0.498164  0.749982  1
  La  La5  1  0.003728  0.501841  0.246289  1
  La  La6  1  0.501841  0.003676  0.746291  1
  La  La7  1  0.996281  0.498141  0.753720  1
  Mn  Mn8  1  0.000001  0.000003  0.999999  1
  Mn  Mn9  1  0.499992  0.000002  -0.000000  1
  Mn  Mn10  1  0.499996  0.499991  0.000017  1
  Mn  Mn11  1  0.500012  0.000014  0.499982  1
  Mn  Mn12  1  0.500007  0.499985  0.500003  1
  Mn  Mn13  1  0.000003  0.499998  -0.000003  1
  Mn  Mn14  1  -0.000001  0.000004  0.499994  1
  Mn  Mn15  1  0.000004  0.500002  0.500003  1
  O  O16  1  0.284391  0.060186  0.189777  1
  O  O17  1  0.224221  0.284392  0.241435  1
  O  O18  1  0.280562  0.561075  0.188903  1
  O  O19  1  0.226508  0.773488  0.249999  1
  O  O20  1  0.453042  0.226528  0.296956  1
  O  O21  1  0.060174  0.284382  0.689791  1
  O  O22  1  0.775798  0.060153  0.189873  1
  O  O23  1  0.438912  0.719451  0.311090  1
  O  O24  1  0.719452  0.280538  0.250007  1
  O  O25  1  0.060158  0.775782  0.689885  1
  O  O26  1  0.284352  0.224179  0.741486  1
  O  O27  1  0.226540  0.453071  0.796927  1
  O  O28  1  0.773469  0.546960  0.203047  1
  O  O29  1  0.715653  0.775818  0.258514  1
  O  O30  1  0.939844  0.224226  0.310109  1
  O  O31  1  0.280547  0.719459  0.749998  1
  O  O32  1  0.561077  0.280547  0.688918  1
  O  O33  1  0.224205  0.939849  0.810130  1
  O  O34  1  0.939811  0.715608  0.310222  1
  O  O35  1  0.546950  0.773467  0.703051  1
  O  O36  1  0.773489  0.226517  0.750000  1
  O  O37  1  0.719431  0.438930  0.811099  1
  O  O38  1  0.775781  0.715621  0.758551  1
  O  O39  1  0.715622  0.939825  0.810214  1
