# generated using pymatgen
data_Li4Mn3Nb3(SnO8)2
_symmetry_space_group_name_H-M   'P 1'
_cell_length_a   6.28910546
_cell_length_b   6.13513051
_cell_length_c   10.07127282
_cell_angle_alpha   90.00160784
_cell_angle_beta   88.67276209
_cell_angle_gamma   119.19286523
_symmetry_Int_Tables_number   1
_chemical_formula_structural   Li4Mn3Nb3(SnO8)2
_chemical_formula_sum   'Li4 Mn3 Nb3 Sn2 O16'
_cell_volume   339.11734226
_cell_formula_units_Z   1
loop_
 _symmetry_equiv_pos_site_id
 _symmetry_equiv_pos_as_xyz
  1  'x, y, z'
loop_
 _atom_site_type_symbol
 _atom_site_label
 _atom_site_symmetry_multiplicity
 _atom_site_fract_x
 _atom_site_fract_y
 _atom_site_fract_z
 _atom_site_occupancy
  Li  Li0  1  0.342190  0.671118  0.907955  1
  Li  Li1  1  0.005105  0.002561  0.996273  1
  Li  Li2  1  0.009263  0.004650  0.483405  1
  Li  Li3  1  0.689512  0.344768  0.392737  1
  Mn  Mn4  1  0.169558  0.829288  0.210726  1
  Mn  Mn5  1  0.169515  0.340276  0.210718  1
  Mn  Mn6  1  0.332925  0.166473  0.714043  1
  Nb  Nb7  1  0.658648  0.829278  0.216798  1
  Nb  Nb8  1  0.824358  0.658246  0.713030  1
  Nb  Nb9  1  0.824395  0.166219  0.713034  1
  Sn  Sn10  1  0.318717  0.659398  0.481921  1
  Sn  Sn11  1  0.649345  0.324605  0.999059  1
  O  O12  1  0.140907  0.817534  0.600212  1
  O  O13  1  0.045115  0.522586  0.349869  1
  O  O14  1  0.372807  0.686396  0.101984  1
  O  O15  1  0.977892  0.988957  0.303371  1
  O  O16  1  0.986997  0.993537  0.812839  1
  O  O17  1  0.140927  0.323390  0.600199  1
  O  O18  1  0.506281  0.970178  0.348599  1
  O  O19  1  0.506279  0.536093  0.348610  1
  O  O20  1  0.315752  0.157896  0.084405  1
  O  O21  1  0.659120  0.829609  0.604185  1
  O  O22  1  0.542246  0.499045  0.839546  1
  O  O23  1  0.542239  0.043249  0.839546  1
  O  O24  1  0.679108  0.339577  0.599503  1
  O  O25  1  0.814973  0.662136  0.097447  1
  O  O26  1  0.960862  0.480461  0.840389  1
  O  O27  1  0.814967  0.152778  0.097436  1
