# generated using pymatgen
data_LiCo5O3F5
_symmetry_space_group_name_H-M   'P 1'
_cell_length_a   6.18530156
_cell_length_b   6.10924967
_cell_length_c   6.11564183
_cell_angle_alpha   60.79012401
_cell_angle_beta   88.72865341
_cell_angle_gamma   120.34398834
_symmetry_Int_Tables_number   1
_chemical_formula_structural   LiCo5O3F5
_chemical_formula_sum   'Li1 Co5 O3 F5'
_cell_volume   162.62210696
_cell_formula_units_Z   1
loop_
 _symmetry_equiv_pos_site_id
 _symmetry_equiv_pos_as_xyz
  1  'x, y, z'
loop_
 _atom_site_type_symbol
 _atom_site_label
 _atom_site_symmetry_multiplicity
 _atom_site_fract_x
 _atom_site_fract_y
 _atom_site_fract_z
 _atom_site_occupancy
  Li  Li0  1  0.614753  0.747428  0.614753  1
  Co  Co1  1  0.608897  0.223620  0.135555  1
  Co  Co2  1  0.976366  0.035113  0.976366  1
  Co  Co3  1  0.623825  0.246298  0.623825  1
  Co  Co4  1  0.282047  0.489761  0.282047  1
  Co  Co5  1  0.135555  0.750280  0.608897  1
  O  O6  1  0.399354  0.220518  0.399354  1
  O  O7  1  0.849868  0.287039  0.849868  1
  O  O8  1  0.389319  0.761415  0.389319  1
  F  F9  1  0.871308  0.226781  0.389848  1
  F  F10  1  0.867646  0.755519  0.377964  1
  F  F11  1  0.377964  0.265836  0.867646  1
  F  F12  1  0.863249  0.745070  0.863249  1
  F  F13  1  0.389848  0.745322  0.871308  1
