# generated using pymatgen
data_FeP2H2O9
_symmetry_space_group_name_H-M   'P 1'
_cell_length_a   5.25771426
_cell_length_b   8.73342568
_cell_length_c   14.67291697
_cell_angle_alpha   90.00000000
_cell_angle_beta   94.99038543
_cell_angle_gamma   90.00000000
_symmetry_Int_Tables_number   1
_chemical_formula_structural   FeP2H2O9
_chemical_formula_sum   'Fe4 P8 H8 O36'
_cell_volume   671.19492618
_cell_formula_units_Z   4
loop_
 _symmetry_equiv_pos_site_id
 _symmetry_equiv_pos_as_xyz
  1  'x, y, z'
loop_
 _atom_site_type_symbol
 _atom_site_label
 _atom_site_symmetry_multiplicity
 _atom_site_fract_x
 _atom_site_fract_y
 _atom_site_fract_z
 _atom_site_occupancy
  Fe  Fe0  1  0.242014  0.035786  0.851394  1
  Fe  Fe1  1  0.757986  0.535786  0.648606  1
  Fe  Fe2  1  0.757986  0.964214  0.148606  1
  Fe  Fe3  1  0.242014  0.464214  0.351394  1
  P  P4  1  0.226570  0.335632  0.561094  1
  P  P5  1  0.773430  0.835632  0.938906  1
  P  P6  1  0.773430  0.664368  0.438906  1
  P  P7  1  0.226570  0.164368  0.061094  1
  P  P8  1  0.720820  0.258902  0.812126  1
  P  P9  1  0.279180  0.758902  0.687874  1
  P  P10  1  0.279180  0.741098  0.187874  1
  P  P11  1  0.720820  0.241098  0.312126  1
  H  H12  1  0.322172  0.167073  0.668744  1
  H  H13  1  0.677828  0.667073  0.831256  1
  H  H14  1  0.677828  0.832927  0.331256  1
  H  H15  1  0.322172  0.332927  0.168744  1
  H  H16  1  0.813832  0.236164  0.961717  1
  H  H17  1  0.186168  0.736164  0.538283  1
  H  H18  1  0.186168  0.763836  0.038283  1
  H  H19  1  0.813832  0.263836  0.461717  1
  O  O20  1  0.951217  0.378508  0.579921  1
  O  O21  1  0.048783  0.878508  0.920079  1
  O  O22  1  0.048783  0.621492  0.420079  1
  O  O23  1  0.951217  0.121492  0.079921  1
  O  O24  1  0.422245  0.451294  0.601473  1
  O  O25  1  0.577755  0.951294  0.898527  1
  O  O26  1  0.577755  0.548706  0.398527  1
  O  O27  1  0.422245  0.048706  0.101473  1
  O  O28  1  0.240551  0.319080  0.457278  1
  O  O29  1  0.759449  0.819080  0.042722  1
  O  O30  1  0.759449  0.680920  0.542722  1
  O  O31  1  0.240551  0.180920  0.957278  1
  O  O32  1  0.286833  0.169768  0.600648  1
  O  O33  1  0.713167  0.669768  0.899352  1
  O  O34  1  0.713167  0.830232  0.399352  1
  O  O35  1  0.286833  0.330232  0.100648  1
  O  O36  1  0.926195  0.140683  0.793312  1
  O  O37  1  0.073805  0.640683  0.706688  1
  O  O38  1  0.073805  0.859317  0.206688  1
  O  O39  1  0.926195  0.359317  0.293312  1
  O  O40  1  0.451314  0.194272  0.783326  1
  O  O41  1  0.548686  0.694272  0.716674  1
  O  O42  1  0.548686  0.805728  0.216674  1
  O  O43  1  0.451314  0.305728  0.283326  1
  O  O44  1  0.764370  0.407223  0.760499  1
  O  O45  1  0.235630  0.907223  0.739501  1
  O  O46  1  0.235630  0.592777  0.239501  1
  O  O47  1  0.764370  0.092777  0.260499  1
  O  O48  1  0.732635  0.307511  0.916372  1
  O  O49  1  0.267365  0.807511  0.583628  1
  O  O50  1  0.267365  0.692489  0.083628  1
  O  O51  1  0.732635  0.192489  0.416372  1
  O  O52  1  0.226961  0.495376  0.889174  1
  O  O53  1  0.773039  0.995376  0.610826  1
  O  O54  1  0.773039  0.504624  0.110826  1
  O  O55  1  0.226961  0.004624  0.389174  1
