# generated using pymatgen
data_MnP6(WO8)3
_symmetry_space_group_name_H-M   'P 1'
_cell_length_a   8.98415408
_cell_length_b   8.98415445
_cell_length_c   8.98415448
_cell_angle_alpha   58.83083699
_cell_angle_beta   58.83083914
_cell_angle_gamma   58.83084193
_symmetry_Int_Tables_number   1
_chemical_formula_structural   MnP6(WO8)3
_chemical_formula_sum   'Mn1 P6 W3 O24'
_cell_volume   499.07457214
_cell_formula_units_Z   1
loop_
 _symmetry_equiv_pos_site_id
 _symmetry_equiv_pos_as_xyz
  1  'x, y, z'
loop_
 _atom_site_type_symbol
 _atom_site_label
 _atom_site_symmetry_multiplicity
 _atom_site_fract_x
 _atom_site_fract_y
 _atom_site_fract_z
 _atom_site_occupancy
  Mn  Mn0  1  0.860633  0.860633  0.860633  1
  P  P1  1  0.036768  0.751994  0.463887  1
  P  P2  1  0.463887  0.036768  0.751994  1
  P  P3  1  0.751994  0.463887  0.036768  1
  P  P4  1  0.254315  0.534180  0.962211  1
  P  P5  1  0.534180  0.962211  0.254315  1
  P  P6  1  0.962211  0.254315  0.534180  1
  W  W7  1  0.143217  0.143217  0.143217  1
  W  W8  1  0.357248  0.357248  0.357248  1
  W  W9  1  0.643448  0.643448  0.643448  1
  O  O10  1  0.131761  0.303265  0.482424  1
  O  O11  1  0.303265  0.482424  0.131761  1
  O  O12  1  0.061647  0.922599  0.284498  1
  O  O13  1  0.482424  0.131761  0.303265  1
  O  O14  1  0.215083  0.580955  0.415776  1
  O  O15  1  0.026336  0.761471  0.629396  1
  O  O16  1  0.284498  0.061647  0.922599  1
  O  O17  1  0.415776  0.215083  0.580955  1
  O  O18  1  0.580955  0.415776  0.215083  1
  O  O19  1  0.225922  0.362374  0.990442  1
  O  O20  1  0.090448  0.705372  0.952846  1
  O  O21  1  0.362374  0.990442  0.225922  1
  O  O22  1  0.629396  0.026336  0.761471  1
  O  O23  1  0.922599  0.284498  0.061647  1
  O  O24  1  0.761471  0.629396  0.026336  1
  O  O25  1  0.431034  0.552164  0.788915  1
  O  O26  1  0.552164  0.788915  0.431034  1
  O  O27  1  0.705372  0.952846  0.090448  1
  O  O28  1  0.990442  0.225922  0.362374  1
  O  O29  1  0.788915  0.431034  0.552164  1
  O  O30  1  0.488895  0.869503  0.718976  1
  O  O31  1  0.952846  0.090448  0.705372  1
  O  O32  1  0.718976  0.488895  0.869503  1
  O  O33  1  0.869503  0.718976  0.488895  1
