# generated using pymatgen
data_Fe6O7F5
_symmetry_space_group_name_H-M   'P 1'
_cell_length_a   7.69359087
_cell_length_b   5.65003962
_cell_length_c   5.65003962
_cell_angle_alpha   69.04221122
_cell_angle_beta   68.67567252
_cell_angle_gamma   68.67567252
_symmetry_Int_Tables_number   1
_chemical_formula_structural   Fe6O7F5
_chemical_formula_sum   'Fe6 O7 F5'
_cell_volume   205.80598585
_cell_formula_units_Z   1
loop_
 _symmetry_equiv_pos_site_id
 _symmetry_equiv_pos_as_xyz
  1  'x, y, z'
loop_
 _atom_site_type_symbol
 _atom_site_label
 _atom_site_symmetry_multiplicity
 _atom_site_fract_x
 _atom_site_fract_y
 _atom_site_fract_z
 _atom_site_occupancy
  Fe  Fe0  1  0.833203  0.665095  0.665095  1
  Fe  Fe1  1  0.653560  0.335925  0.335925  1
  Fe  Fe2  1  0.331024  0.654159  0.654159  1
  Fe  Fe3  1  0.187395  0.344167  0.344167  1
  Fe  Fe4  1  0.496465  0.998278  0.998278  1
  Fe  Fe5  1  0.001452  0.004414  0.004414  1
  O  O6  1  0.665087  0.027202  0.641101  1
  O  O7  1  0.335069  0.357085  0.969109  1
  O  O8  1  0.376007  0.435739  0.435739  1
  O  O9  1  0.335069  0.969109  0.357085  1
  O  O10  1  0.665087  0.641101  0.027202  1
  O  O11  1  0.000460  0.303152  0.701951  1
  O  O12  1  0.000460  0.701951  0.303152  1
  F  F13  1  0.296301  0.890212  0.890212  1
  F  F14  1  0.950760  0.235378  0.235378  1
  F  F15  1  0.631572  0.565231  0.565231  1
  F  F16  1  0.036944  0.770213  0.770213  1
  F  F17  1  0.704086  0.101589  0.101589  1
