# generated using pymatgen
data_Li4Cr3GaO8
_symmetry_space_group_name_H-M   'P 1'
_cell_length_a   5.14049412
_cell_length_b   5.92846109
_cell_length_c   10.68850839
_cell_angle_alpha   106.10805975
_cell_angle_beta   85.41026192
_cell_angle_gamma   73.23145855
_symmetry_Int_Tables_number   1
_chemical_formula_structural   Li4Cr3GaO8
_chemical_formula_sum   'Li8 Cr6 Ga2 O16'
_cell_volume   295.06810804
_cell_formula_units_Z   2
loop_
 _symmetry_equiv_pos_site_id
 _symmetry_equiv_pos_as_xyz
  1  'x, y, z'
loop_
 _atom_site_type_symbol
 _atom_site_label
 _atom_site_symmetry_multiplicity
 _atom_site_fract_x
 _atom_site_fract_y
 _atom_site_fract_z
 _atom_site_occupancy
  Li  Li0  1  0.000006  0.124998  0.750000  1
  Li  Li1  1  0.000016  0.999941  0.000145  1
  Li  Li2  1  0.999982  0.250066  0.499857  1
  Li  Li3  1  0.000000  0.374986  0.249894  1
  Li  Li4  1  0.000007  0.625002  0.749999  1
  Li  Li5  1  0.999521  0.500202  0.999949  1
  Li  Li6  1  0.000482  0.749801  0.500052  1
  Li  Li7  1  -0.000013  0.875024  0.250107  1
  Cr  Cr8  1  0.500032  0.312409  0.375104  1
  Cr  Cr9  1  0.500223  0.562236  0.874831  1
  Cr  Cr10  1  0.500022  0.437296  0.124824  1
  Cr  Cr11  1  0.499821  0.687749  0.625166  1
  Cr  Cr12  1  0.499914  0.812722  0.375175  1
  Cr  Cr13  1  0.499918  0.937601  0.124891  1
  Ga  Ga14  1  0.499992  0.062596  0.874893  1
  Ga  Ga15  1  0.500063  0.187399  0.625115  1
  O  O16  1  0.275306  0.086345  0.310404  1
  O  O17  1  0.725986  0.038327  0.439620  1
  O  O18  1  0.273790  0.336018  0.810367  1
  O  O19  1  0.725667  0.287993  0.939362  1
  O  O20  1  0.724609  0.163687  0.189595  1
  O  O21  1  0.273967  0.211646  0.060368  1
  O  O22  1  0.274674  0.461471  0.560533  1
  O  O23  1  0.725433  0.413343  0.689390  1
  O  O24  1  0.275608  0.586290  0.310224  1
  O  O25  1  0.724379  0.538633  0.439771  1
  O  O26  1  0.274636  0.836615  0.810605  1
  O  O27  1  0.725360  0.788566  0.939483  1
  O  O28  1  0.275588  0.711332  0.060208  1
  O  O29  1  0.274386  0.962033  0.560656  1
  O  O30  1  0.724317  0.663744  0.189774  1
  O  O31  1  0.726311  0.913931  0.689637  1
