# generated using pymatgen
data_Fe5SiO8
_symmetry_space_group_name_H-M   'P 1'
_cell_length_a   5.98805954
_cell_length_b   15.96382284
_cell_length_c   13.50383474
_cell_angle_alpha   32.23125899
_cell_angle_beta   63.46197896
_cell_angle_gamma   67.79373409
_symmetry_Int_Tables_number   1
_chemical_formula_structural   Fe5SiO8
_chemical_formula_sum   'Fe20 Si4 O32'
_cell_volume   615.92794756
_cell_formula_units_Z   4
loop_
 _symmetry_equiv_pos_site_id
 _symmetry_equiv_pos_as_xyz
  1  'x, y, z'
loop_
 _atom_site_type_symbol
 _atom_site_label
 _atom_site_symmetry_multiplicity
 _atom_site_fract_x
 _atom_site_fract_y
 _atom_site_fract_z
 _atom_site_occupancy
  Fe  Fe0  1  0.005584  0.998405  0.998759  1
  Fe  Fe1  1  0.994416  0.501595  0.001241  1
  Fe  Fe2  1  0.123868  0.120443  0.255372  1
  Fe  Fe3  1  0.117114  0.254170  0.371725  1
  Fe  Fe4  1  0.376132  0.620443  0.003742  1
  Fe  Fe5  1  0.505584  0.001595  0.495569  1
  Fe  Fe6  1  0.751611  0.030739  0.218179  1
  Fe  Fe7  1  0.126539  0.751118  0.374522  1
  Fe  Fe8  1  0.373461  0.251118  0.623241  1
  Fe  Fe9  1  0.626539  0.248882  0.376759  1
  Fe  Fe10  1  0.248389  0.469261  0.781821  1
  Fe  Fe11  1  0.494416  0.498405  0.504431  1
  Fe  Fe12  1  0.748389  0.530739  0.220342  1
  Fe  Fe13  1  0.382886  0.754170  0.619935  1
  Fe  Fe14  1  0.617114  0.745830  0.380065  1
  Fe  Fe15  1  0.882886  0.245830  0.628275  1
  Fe  Fe16  1  0.251611  0.969261  0.779658  1
  Fe  Fe17  1  0.876132  0.379557  0.744628  1
  Fe  Fe18  1  0.873461  0.748882  0.625478  1
  Fe  Fe19  1  0.623868  0.879557  0.996258  1
  O  O20  1  0.005212  0.250575  0.254760  1
  O  O21  1  0.273430  0.221043  0.009760  1
  O  O22  1  0.113031  0.999019  0.620681  1
  O  O23  1  0.117421  0.489997  0.136249  1
  O  O24  1  0.995269  0.735312  0.259053  1
  O  O25  1  0.236948  0.228172  0.514326  1
  O  O26  1  0.226570  0.721043  0.048154  1
  O  O27  1  0.495269  0.264688  0.229677  1
  O  O28  1  0.129679  0.505823  0.622754  1
  O  O29  1  0.152701  0.006724  0.111722  1
  O  O30  1  0.347299  0.506724  0.374831  1
  O  O31  1  0.370321  0.005823  0.865600  1
  O  O32  1  0.629679  0.494177  0.134400  1
  O  O33  1  0.652701  0.993276  0.625170  1
  O  O34  1  0.263052  0.728172  0.529331  1
  O  O35  1  0.504731  0.235312  0.770323  1
  O  O36  1  0.505212  0.749425  0.255910  1
  O  O37  1  0.763052  0.271828  0.485674  1
  O  O38  1  0.382579  0.989997  0.383758  1
  O  O39  1  0.386969  0.499019  0.881281  1
  O  O40  1  0.613031  0.000981  0.118719  1
  O  O41  1  0.617421  0.510003  0.616242  1
  O  O42  1  0.882579  0.010003  0.863751  1
  O  O43  1  0.886969  0.500981  0.379319  1
  O  O44  1  0.494788  0.750575  0.744090  1
  O  O45  1  0.726570  0.278957  0.990240  1
  O  O46  1  0.736948  0.771828  0.470669  1
  O  O47  1  0.994788  0.249425  0.745240  1
  O  O48  1  0.847299  0.493276  0.888278  1
  O  O49  1  0.870321  0.994177  0.377246  1
  O  O50  1  0.773430  0.778957  0.951846  1
  O  O51  1  0.004731  0.764688  0.740947  1
  Si  Si52  1  0.388311  0.115411  0.999965  1
  Si  Si53  1  0.111689  0.615411  0.269212  1
  Si  Si54  1  0.611689  0.384589  0.000035  1
  Si  Si55  1  0.888311  0.884589  0.730788  1
