# generated using pymatgen
data_Na3Ti2(PO4)3
_symmetry_space_group_name_H-M   'P 1'
_cell_length_a   8.89976793
_cell_length_b   9.15021676
_cell_length_c   8.89976796
_cell_angle_alpha   119.09863953
_cell_angle_beta   59.99999638
_cell_angle_gamma   119.09864069
_symmetry_Int_Tables_number   1
_chemical_formula_structural   Na3Ti2(PO4)3
_chemical_formula_sum   'Na6 Ti4 P6 O24'
_cell_volume   519.34761698
_cell_formula_units_Z   2
loop_
 _symmetry_equiv_pos_site_id
 _symmetry_equiv_pos_as_xyz
  1  'x, y, z'
loop_
 _atom_site_type_symbol
 _atom_site_label
 _atom_site_symmetry_multiplicity
 _atom_site_fract_x
 _atom_site_fract_y
 _atom_site_fract_z
 _atom_site_occupancy
  Na  Na0  1  0.251515  0.826360  0.661840  1
  Na  Na1  1  0.338160  0.173640  0.086994  1
  Na  Na2  1  0.086994  0.173640  0.748485  1
  Na  Na3  1  0.913006  0.826360  0.251515  1
  Na  Na4  1  0.661840  0.826360  0.913006  1
  Na  Na5  1  0.748485  0.173640  0.338160  1
  Ti  Ti6  1  0.147656  0.442968  0.147656  1
  Ti  Ti7  1  0.350321  0.050963  0.350321  1
  Ti  Ti8  1  0.649679  0.949037  0.649679  1
  Ti  Ti9  1  0.852344  0.557032  0.852344  1
  P  P10  1  0.037080  0.253675  0.464851  1
  P  P11  1  0.535149  0.746325  0.248256  1
  P  P12  1  0.248256  0.746325  0.962920  1
  P  P13  1  0.751744  0.253675  0.037080  1
  P  P14  1  0.464851  0.253675  0.751744  1
  P  P15  1  0.962920  0.746325  0.535149  1
  O  O16  1  0.236185  0.902320  0.149101  1
  O  O17  1  0.149101  0.902320  0.517034  1
  O  O18  1  0.010893  0.423001  0.625496  1
  O  O19  1  0.089784  0.272641  0.278850  1
  O  O20  1  0.517034  0.902320  0.236185  1
  O  O21  1  0.095993  0.727359  0.910216  1
  O  O22  1  0.374504  0.576999  0.213388  1
  O  O23  1  0.182867  0.203861  0.459749  1
  O  O24  1  0.540251  0.796139  0.438754  1
  O  O25  1  0.213388  0.576999  0.989107  1
  O  O26  1  0.721150  0.727359  0.095993  1
  O  O27  1  0.438754  0.796139  0.817133  1
  O  O28  1  0.561246  0.203861  0.182867  1
  O  O29  1  0.278850  0.272641  0.904007  1
  O  O30  1  0.786612  0.423001  0.010893  1
  O  O31  1  0.459749  0.203861  0.561246  1
  O  O32  1  0.817133  0.796139  0.540251  1
  O  O33  1  0.625496  0.423001  0.786612  1
  O  O34  1  0.904007  0.272641  0.089784  1
  O  O35  1  0.482966  0.097680  0.763815  1
  O  O36  1  0.910216  0.727359  0.721150  1
  O  O37  1  0.989107  0.576999  0.374504  1
  O  O38  1  0.850899  0.097680  0.482966  1
  O  O39  1  0.763815  0.097680  0.850899  1
