# generated using pymatgen
data_LiCu2F7
_symmetry_space_group_name_H-M   'P 1'
_cell_length_a   5.28644647
_cell_length_b   6.61563052
_cell_length_c   9.27260043
_cell_angle_alpha   65.95923321
_cell_angle_beta   106.27025556
_cell_angle_gamma   66.23107563
_symmetry_Int_Tables_number   1
_chemical_formula_structural   LiCu2F7
_chemical_formula_sum   'Li2 Cu4 F14'
_cell_volume   229.55861244
_cell_formula_units_Z   2
loop_
 _symmetry_equiv_pos_site_id
 _symmetry_equiv_pos_as_xyz
  1  'x, y, z'
loop_
 _atom_site_type_symbol
 _atom_site_label
 _atom_site_symmetry_multiplicity
 _atom_site_fract_x
 _atom_site_fract_y
 _atom_site_fract_z
 _atom_site_occupancy
  Li  Li0  1  0.262895  0.749722  0.250790  1
  Li  Li1  1  0.742881  0.251725  0.759488  1
  Cu  Cu2  1  0.948373  0.414888  0.285465  1
  Cu  Cu3  1  0.579501  0.084457  0.214344  1
  Cu  Cu4  1  0.427059  0.916900  0.785038  1
  Cu  Cu5  1  0.058018  0.580288  0.714518  1
  F  F6  1  0.942618  0.832964  0.466995  1
  F  F7  1  0.805246  0.667527  0.031848  1
  F  F8  1  0.609862  0.752179  0.249105  1
  F  F9  1  0.718323  0.880049  0.701846  1
  F  F10  1  0.836583  0.045728  0.111064  1
  F  F11  1  0.738039  0.543843  0.615936  1
  F  F12  1  0.590729  0.384217  0.200516  1
  F  F13  1  0.396829  0.618848  0.796770  1
  F  F14  1  0.264305  0.455888  0.385056  1
  F  F15  1  0.275190  0.113785  0.300046  1
  F  F16  1  0.169340  0.953995  0.882215  1
  F  F17  1  0.382590  0.254347  0.748549  1
  F  F18  1  0.059093  0.167425  0.533358  1
  F  F19  1  0.192522  0.331224  0.967049  1
