# generated using pymatgen
data_K4NbFe3(PO4)6
_symmetry_space_group_name_H-M   'P 1'
_cell_length_a   10.06015618
_cell_length_b   10.06192911
_cell_length_c   10.06044797
_cell_angle_alpha   90.00000000
_cell_angle_beta   90.00000000
_cell_angle_gamma   89.60980457
_symmetry_Int_Tables_number   1
_chemical_formula_structural   K4NbFe3(PO4)6
_chemical_formula_sum   'K8 Nb2 Fe6 P12 O48'
_cell_volume   1018.34098877
_cell_formula_units_Z   2
loop_
 _symmetry_equiv_pos_site_id
 _symmetry_equiv_pos_as_xyz
  1  'x, y, z'
loop_
 _atom_site_type_symbol
 _atom_site_label
 _atom_site_symmetry_multiplicity
 _atom_site_fract_x
 _atom_site_fract_y
 _atom_site_fract_z
 _atom_site_occupancy
  K  K0  1  0.063911  0.069960  0.066008  1
  K  K1  1  0.206466  0.703236  0.794310  1
  K  K2  1  0.293534  0.296764  0.294310  1
  K  K3  1  0.436089  0.930040  0.566008  1
  K  K4  1  0.570515  0.436160  0.932386  1
  K  K5  1  0.705230  0.791201  0.206014  1
  K  K6  1  0.794770  0.208799  0.706014  1
  K  K7  1  0.929485  0.563840  0.432386  1
  Nb  Nb8  1  0.083229  0.911646  0.413042  1
  Nb  Nb9  1  0.416771  0.088354  0.913042  1
  Fe  Fe10  1  0.142399  0.359415  0.644614  1
  Fe  Fe11  1  0.357601  0.640585  0.144614  1
  Fe  Fe12  1  0.588774  0.583698  0.585015  1
  Fe  Fe13  1  0.645129  0.148120  0.355587  1
  Fe  Fe14  1  0.854871  0.851880  0.855587  1
  Fe  Fe15  1  0.911226  0.416302  0.085015  1
  P  P16  1  0.042512  0.725610  0.121342  1
  P  P17  1  0.122274  0.043058  0.730177  1
  P  P18  1  0.225364  0.377750  0.958064  1
  P  P19  1  0.274636  0.622250  0.458064  1
  P  P20  1  0.377726  0.956942  0.230177  1
  P  P21  1  0.457488  0.274390  0.621342  1
  P  P22  1  0.542339  0.766895  0.874528  1
  P  P23  1  0.626048  0.458630  0.271733  1
  P  P24  1  0.733851  0.124736  0.042944  1
  P  P25  1  0.766149  0.875264  0.542944  1
  P  P26  1  0.873952  0.541370  0.771733  1
  P  P27  1  0.957661  0.233105  0.374528  1
  O  O28  1  0.001899  0.081593  0.354605  1
  O  O29  1  0.024769  0.950229  0.797812  1
  O  O30  1  0.024356  0.807299  0.257502  1
  O  O31  1  0.049254  0.295781  0.478037  1
  O  O32  1  0.077788  0.188247  0.735382  1
  O  O33  1  0.083651  0.347421  0.002684  1
  O  O34  1  0.148705  0.997843  0.582998  1
  O  O35  1  0.188669  0.736174  0.078287  1
  O  O36  1  0.192916  0.758495  0.475861  1
  O  O37  1  0.200777  0.524961  0.548344  1
  O  O38  1  0.236263  0.421277  0.812031  1
  O  O39  1  0.241271  0.977672  0.304317  1
  O  O40  1  0.258729  0.022328  0.804317  1
  O  O41  1  0.263737  0.578723  0.312031  1
  O  O42  1  0.299223  0.475039  0.048344  1
  O  O43  1  0.307084  0.241505  0.975861  1
  O  O44  1  0.311331  0.263826  0.578287  1
  O  O45  1  0.351295  0.002157  0.082998  1
  O  O46  1  0.416349  0.652579  0.502684  1
  O  O47  1  0.422212  0.811753  0.235382  1
  O  O48  1  0.450746  0.704219  0.978037  1
  O  O49  1  0.475644  0.192701  0.757502  1
  O  O50  1  0.475231  0.049771  0.297812  1
  O  O51  1  0.498101  0.918407  0.854605  1
  O  O52  1  0.501639  0.415938  0.652773  1
  O  O53  1  0.521527  0.547685  0.201802  1
  O  O54  1  0.519324  0.697609  0.740930  1
  O  O55  1  0.548650  0.199545  0.524837  1
  O  O56  1  0.578012  0.312103  0.265118  1
  O  O57  1  0.582072  0.145690  0.999283  1
  O  O58  1  0.649413  0.501327  0.417069  1
  O  O59  1  0.687182  0.765954  0.922537  1
  O  O60  1  0.697216  0.742039  0.519229  1
  O  O61  1  0.703237  0.978470  0.450541  1
  O  O62  1  0.734234  0.076891  0.187903  1
  O  O63  1  0.742632  0.520586  0.694357  1
  O  O64  1  0.757368  0.479414  0.194357  1
  O  O65  1  0.765766  0.923109  0.687903  1
  O  O66  1  0.796763  0.021530  0.950541  1
  O  O67  1  0.802784  0.257961  0.019229  1
  O  O68  1  0.812818  0.234046  0.422537  1
  O  O69  1  0.850587  0.498673  0.917069  1
  O  O70  1  0.917928  0.854310  0.499283  1
  O  O71  1  0.921988  0.687897  0.765118  1
  O  O72  1  0.951350  0.800455  0.024837  1
  O  O73  1  0.980676  0.302391  0.240930  1
  O  O74  1  0.978473  0.452315  0.701802  1
  O  O75  1  0.998361  0.584062  0.152773  1
