# generated using pymatgen
data_LiNiPO4
_symmetry_space_group_name_H-M   'P 1'
_cell_length_a   7.36489705
_cell_length_b   4.78575729
_cell_length_c   17.63229614
_cell_angle_alpha   90.00000000
_cell_angle_beta   87.40151539
_cell_angle_gamma   90.00000000
_symmetry_Int_Tables_number   1
_chemical_formula_structural   LiNiPO4
_chemical_formula_sum   'Li8 Ni8 P8 O32'
_cell_volume   620.83963751
_cell_formula_units_Z   8
loop_
 _symmetry_equiv_pos_site_id
 _symmetry_equiv_pos_as_xyz
  1  'x, y, z'
loop_
 _atom_site_type_symbol
 _atom_site_label
 _atom_site_symmetry_multiplicity
 _atom_site_fract_x
 _atom_site_fract_y
 _atom_site_fract_z
 _atom_site_occupancy
  Li  Li0  1  0.137043  0.779530  0.775971  1
  Li  Li1  1  0.137043  0.720470  0.275971  1
  Li  Li2  1  0.346025  0.216755  0.514190  1
  Li  Li3  1  0.346025  0.283245  0.014190  1
  Li  Li4  1  0.653975  0.716755  0.985810  1
  Li  Li5  1  0.653975  0.783245  0.485810  1
  Li  Li6  1  0.862957  0.279530  0.724029  1
  Li  Li7  1  0.862957  0.220470  0.224029  1
  Ni  Ni8  1  0.041834  0.713684  0.600103  1
  Ni  Ni9  1  0.041834  0.786316  0.100103  1
  Ni  Ni10  1  0.497348  0.349506  0.827085  1
  Ni  Ni11  1  0.497348  0.150494  0.327085  1
  Ni  Ni12  1  0.502652  0.849506  0.672915  1
  Ni  Ni13  1  0.502652  0.650494  0.172915  1
  Ni  Ni14  1  0.958166  0.213684  0.899897  1
  Ni  Ni15  1  0.958166  0.286316  0.399897  1
  P  P16  1  0.255052  0.358205  0.678845  1
  P  P17  1  0.255052  0.141795  0.178845  1
  P  P18  1  0.224562  0.691444  0.930734  1
  P  P19  1  0.224562  0.808556  0.430734  1
  P  P20  1  0.775438  0.191444  0.569266  1
  P  P21  1  0.775438  0.308556  0.069266  1
  P  P22  1  0.744948  0.858205  0.821155  1
  P  P23  1  0.744948  0.641795  0.321155  1
  O  O24  1  0.073070  0.493584  0.706502  1
  O  O25  1  0.073070  0.006416  0.206502  1
  O  O26  1  0.172038  0.597725  0.012194  1
  O  O27  1  0.108171  0.549952  0.870776  1
  O  O28  1  0.279749  0.459834  0.596097  1
  O  O29  1  0.261434  0.039060  0.691038  1
  O  O30  1  0.172038  0.902275  0.512194  1
  O  O31  1  0.108171  0.950048  0.370776  1
  O  O32  1  0.279749  0.040166  0.096097  1
  O  O33  1  0.261434  0.460940  0.191038  1
  O  O34  1  0.211502  0.013049  0.920552  1
  O  O35  1  0.211502  0.486951  0.420552  1
  O  O36  1  0.411710  0.493940  0.725370  1
  O  O37  1  0.411710  0.006060  0.225370  1
  O  O38  1  0.425036  0.579259  0.916746  1
  O  O39  1  0.425036  0.920741  0.416746  1
  O  O40  1  0.574964  0.079259  0.583254  1
  O  O41  1  0.574964  0.420741  0.083254  1
  O  O42  1  0.588290  0.993940  0.774630  1
  O  O43  1  0.588290  0.506060  0.274630  1
  O  O44  1  0.788498  0.513049  0.579448  1
  O  O45  1  0.788498  0.986951  0.079448  1
  O  O46  1  0.738566  0.539060  0.808962  1
  O  O47  1  0.720251  0.959834  0.903903  1
  O  O48  1  0.891829  0.049952  0.629224  1
  O  O49  1  0.827962  0.097725  0.487806  1
  O  O50  1  0.738566  0.960940  0.308962  1
  O  O51  1  0.720251  0.540166  0.403903  1
  O  O52  1  0.891829  0.450048  0.129224  1
  O  O53  1  0.827962  0.402275  0.987806  1
  O  O54  1  0.926930  0.993584  0.793498  1
  O  O55  1  0.926930  0.506416  0.293498  1
