# generated using pymatgen
data_Mn6O5F7
_symmetry_space_group_name_H-M   'P 1'
_cell_length_a   5.79640631
_cell_length_b   5.12678659
_cell_length_c   14.47441352
_cell_angle_alpha   91.94610485
_cell_angle_beta   86.79994217
_cell_angle_gamma   90.05593802
_symmetry_Int_Tables_number   1
_chemical_formula_structural   Mn6O5F7
_chemical_formula_sum   'Mn12 O10 F14'
_cell_volume   429.21665284
_cell_formula_units_Z   2
loop_
 _symmetry_equiv_pos_site_id
 _symmetry_equiv_pos_as_xyz
  1  'x, y, z'
loop_
 _atom_site_type_symbol
 _atom_site_label
 _atom_site_symmetry_multiplicity
 _atom_site_fract_x
 _atom_site_fract_y
 _atom_site_fract_z
 _atom_site_occupancy
  Mn  Mn0  1  0.120246  0.970290  0.005227  1
  Mn  Mn1  1  0.839111  0.481912  0.168217  1
  Mn  Mn2  1  0.077635  0.983860  0.330218  1
  Mn  Mn3  1  0.903848  0.534287  0.498662  1
  Mn  Mn4  1  0.125704  0.026354  0.666975  1
  Mn  Mn5  1  0.067920  0.463818  0.831223  1
  Mn  Mn6  1  0.551540  0.981707  0.168189  1
  Mn  Mn7  1  0.431820  0.438469  0.010302  1
  Mn  Mn8  1  0.417937  0.544797  0.660238  1
  Mn  Mn9  1  0.576739  0.049746  0.507094  1
  Mn  Mn10  1  0.375253  0.518397  0.324869  1
  Mn  Mn11  1  0.550512  0.026679  0.825237  1
  O  O12  1  0.123782  0.682956  0.402074  1
  O  O13  1  0.216086  0.256623  0.928941  1
  O  O14  1  0.170637  0.717542  0.736471  1
  O  O15  1  0.347598  0.137128  0.081447  1
  O  O16  1  0.329377  0.824324  0.256283  1
  O  O17  1  0.373577  0.874487  0.592316  1
  O  O18  1  0.324806  0.239293  0.739436  1
  O  O19  1  0.628849  0.369303  0.571691  1
  O  O20  1  0.592158  0.315897  0.238969  1
  O  O21  1  0.611771  0.650936  0.098377  1
  F  F22  1  0.073675  0.311026  0.252175  1
  F  F23  1  0.095156  0.645952  0.085826  1
  F  F24  1  0.128100  0.342423  0.582402  1
  F  F25  1  0.409884  0.745653  0.929792  1
  F  F26  1  0.353057  0.212631  0.404808  1
  F  F27  1  0.697381  0.283870  0.917596  1
  F  F28  1  0.620922  0.721016  0.428965  1
  F  F29  1  0.648746  0.691193  0.752915  1
  F  F30  1  0.849826  0.173311  0.420241  1
  F  F31  1  0.837678  0.128899  0.089663  1
  F  F32  1  0.877325  0.175991  0.748992  1
  F  F33  1  0.891612  0.874141  0.582083  1
  F  F34  1  0.944952  0.772122  0.913514  1
  F  F35  1  0.814777  0.832965  0.248576  1
