# generated using pymatgen
data_Li5Bi2(BO3)4
_symmetry_space_group_name_H-M   'P 1'
_cell_length_a   8.87365042
_cell_length_b   6.47376933
_cell_length_c   10.17330228
_cell_angle_alpha   90.00000000
_cell_angle_beta   66.00804516
_cell_angle_gamma   90.00000000
_symmetry_Int_Tables_number   1
_chemical_formula_structural   Li5Bi2(BO3)4
_chemical_formula_sum   'Li10 Bi4 B8 O24'
_cell_volume   533.92320148
_cell_formula_units_Z   2
loop_
 _symmetry_equiv_pos_site_id
 _symmetry_equiv_pos_as_xyz
  1  'x, y, z'
loop_
 _atom_site_type_symbol
 _atom_site_label
 _atom_site_symmetry_multiplicity
 _atom_site_fract_x
 _atom_site_fract_y
 _atom_site_fract_z
 _atom_site_occupancy
  Li  Li0  1  0.123353  0.273361  0.488482  1
  Li  Li1  1  0.382447  0.766269  0.020651  1
  Li  Li2  1  0.279865  0.766056  0.548868  1
  Li  Li3  1  0.201899  0.278523  0.955438  1
  Li  Li4  1  0.779865  0.733944  0.048868  1
  Li  Li5  1  0.460478  0.066608  0.833743  1
  Li  Li6  1  0.701899  0.221477  0.455438  1
  Li  Li7  1  0.623353  0.226639  0.988482  1
  Li  Li8  1  0.960478  0.433392  0.333743  1
  Li  Li9  1  0.882447  0.733731  0.520651  1
  Bi  Bi10  1  0.007330  0.018118  0.793574  1
  Bi  Bi11  1  0.507330  0.481882  0.293574  1
  Bi  Bi12  1  0.484509  0.532496  0.703384  1
  Bi  Bi13  1  0.984510  0.967504  0.203384  1
  B  B14  1  0.282432  0.169122  0.177641  1
  B  B15  1  0.218471  0.656015  0.316799  1
  B  B16  1  0.165258  0.677120  0.891638  1
  B  B17  1  0.338602  0.172912  0.611903  1
  B  B18  1  0.665258  0.822880  0.391638  1
  B  B19  1  0.838602  0.327088  0.111903  1
  B  B20  1  0.782432  0.330878  0.677641  1
  B  B21  1  0.718471  0.843985  0.816799  1
  O  O22  1  0.064733  0.705420  0.319971  1
  O  O23  1  0.128471  0.203422  0.290386  1
  O  O24  1  0.283589  0.064739  0.055813  1
  O  O25  1  0.225805  0.552503  0.434603  1
  O  O26  1  0.367652  0.695296  0.204776  1
  O  O27  1  0.022023  0.776640  0.982097  1
  O  O28  1  0.234444  0.067135  0.565238  1
  O  O29  1  0.429983  0.233064  0.176718  1
  O  O30  1  0.217043  0.700701  0.745386  1
  O  O31  1  0.309078  0.183347  0.756373  1
  O  O32  1  0.263111  0.566066  0.943631  1
  O  O33  1  0.472032  0.285020  0.516945  1
  O  O34  1  0.522023  0.723360  0.482097  1
  O  O35  1  0.734444  0.432865  0.065238  1
  O  O36  1  0.717043  0.799299  0.245387  1
  O  O37  1  0.809078  0.316653  0.256373  1
  O  O38  1  0.564733  0.794580  0.819971  1
  O  O39  1  0.763111  0.933934  0.443631  1
  O  O40  1  0.972032  0.214980  0.016945  1
  O  O41  1  0.628471  0.296578  0.790386  1
  O  O42  1  0.783589  0.435261  0.555813  1
  O  O43  1  0.725805  0.947497  0.934603  1
  O  O44  1  0.867652  0.804704  0.704776  1
  O  O45  1  0.929983  0.266936  0.676718  1
