# generated using pymatgen
data_LiCrB2O5
_symmetry_space_group_name_H-M   'P 1'
_cell_length_a   12.03099870
_cell_length_b   5.40538635
_cell_length_c   10.67555494
_cell_angle_alpha   90.00000000
_cell_angle_beta   90.00000000
_cell_angle_gamma   79.53632385
_symmetry_Int_Tables_number   1
_chemical_formula_structural   LiCrB2O5
_chemical_formula_sum   'Li8 Cr8 B16 O40'
_cell_volume   682.70949461
_cell_formula_units_Z   8
loop_
 _symmetry_equiv_pos_site_id
 _symmetry_equiv_pos_as_xyz
  1  'x, y, z'
loop_
 _atom_site_type_symbol
 _atom_site_label
 _atom_site_symmetry_multiplicity
 _atom_site_fract_x
 _atom_site_fract_y
 _atom_site_fract_z
 _atom_site_occupancy
  Li  Li0  1  0.062978  0.380209  0.368980  1
  Li  Li1  1  0.062978  0.880209  0.131020  1
  Li  Li2  1  0.438005  0.118648  0.879849  1
  Li  Li3  1  0.438005  0.618648  0.620151  1
  Li  Li4  1  0.561995  0.381352  0.379849  1
  Li  Li5  1  0.561995  0.881352  0.120151  1
  Li  Li6  1  0.937022  0.119791  0.868980  1
  Li  Li7  1  0.937022  0.619791  0.631020  1
  Cr  Cr8  1  0.238514  0.269506  0.623463  1
  Cr  Cr9  1  0.258947  0.254697  0.124260  1
  Cr  Cr10  1  0.238514  0.769506  0.876537  1
  Cr  Cr11  1  0.258947  0.754697  0.375740  1
  Cr  Cr12  1  0.741053  0.245303  0.624260  1
  Cr  Cr13  1  0.761486  0.230494  0.123463  1
  Cr  Cr14  1  0.741053  0.745303  0.875740  1
  Cr  Cr15  1  0.761486  0.730494  0.376537  1
  B  B16  1  0.005487  0.145466  0.629140  1
  B  B17  1  0.005487  0.645466  0.870860  1
  B  B18  1  0.166344  0.305917  0.880184  1
  B  B19  1  0.166344  0.805917  0.619816  1
  B  B20  1  0.334259  0.205752  0.371168  1
  B  B21  1  0.334259  0.705752  0.128832  1
  B  B22  1  0.509017  0.157490  0.613264  1
  B  B23  1  0.490983  0.342510  0.113264  1
  B  B24  1  0.509017  0.657490  0.886736  1
  B  B25  1  0.490983  0.842510  0.386736  1
  B  B26  1  0.665741  0.294248  0.871168  1
  B  B27  1  0.665741  0.794248  0.628832  1
  B  B28  1  0.833656  0.194083  0.380184  1
  B  B29  1  0.833656  0.694083  0.119816  1
  B  B30  1  0.994513  0.354534  0.129140  1
  B  B31  1  0.994513  0.854534  0.370860  1
  O  O32  1  0.070973  0.321416  0.604838  1
  O  O33  1  0.050456  0.383530  0.890299  1
  O  O34  1  0.099705  0.286083  0.177309  1
  O  O35  1  0.070973  0.821416  0.895162  1
  O  O36  1  0.050456  0.883530  0.609701  1
  O  O37  1  0.099705  0.786083  0.322691  1
  O  O38  1  0.223040  0.116345  0.955167  1
  O  O39  1  0.255832  0.112559  0.445955  1
  O  O40  1  0.227197  0.429980  0.798542  1
  O  O41  1  0.223040  0.616345  0.544833  1
  O  O42  1  0.294825  0.406104  0.292976  1
  O  O43  1  0.255832  0.612559  0.054045  1
  O  O44  1  0.227197  0.929980  0.701458  1
  O  O45  1  0.294825  0.906104  0.207024  1
  O  O46  1  0.402189  0.256705  0.646973  1
  O  O47  1  0.449774  0.106603  0.371380  1
  O  O48  1  0.419981  0.187491  0.072972  1
  O  O49  1  0.402189  0.756705  0.853027  1
  O  O50  1  0.449774  0.606603  0.128620  1
  O  O51  1  0.419981  0.687491  0.427028  1
  O  O52  1  0.580019  0.312509  0.572972  1
  O  O53  1  0.550226  0.393397  0.871380  1
  O  O54  1  0.597811  0.243295  0.146973  1
  O  O55  1  0.580019  0.812509  0.927028  1
  O  O56  1  0.550226  0.893397  0.628620  1
  O  O57  1  0.597811  0.743295  0.353027  1
  O  O58  1  0.705175  0.093896  0.792976  1
  O  O59  1  0.772803  0.070020  0.298542  1
  O  O60  1  0.744168  0.387441  0.945955  1
  O  O61  1  0.705175  0.593896  0.707024  1
  O  O62  1  0.776960  0.383655  0.455167  1
  O  O63  1  0.772803  0.570020  0.201458  1
  O  O64  1  0.744168  0.887441  0.554045  1
  O  O65  1  0.776960  0.883655  0.044833  1
  O  O66  1  0.900295  0.213917  0.677309  1
  O  O67  1  0.949544  0.116470  0.390299  1
  O  O68  1  0.929027  0.178584  0.104838  1
  O  O69  1  0.900295  0.713917  0.822691  1
  O  O70  1  0.949544  0.616470  0.109701  1
  O  O71  1  0.929027  0.678584  0.395162  1
