# generated using pymatgen
data_Li2V3WO8
_symmetry_space_group_name_H-M   'P 1'
_cell_length_a   8.62041711
_cell_length_b   8.58555431
_cell_length_c   8.61406602
_cell_angle_alpha   90.01282968
_cell_angle_beta   89.98205282
_cell_angle_gamma   90.01619009
_symmetry_Int_Tables_number   1
_chemical_formula_structural   Li2V3WO8
_chemical_formula_sum   'Li8 V12 W4 O32'
_cell_volume   637.53607823
_cell_formula_units_Z   4
loop_
 _symmetry_equiv_pos_site_id
 _symmetry_equiv_pos_as_xyz
  1  'x, y, z'
loop_
 _atom_site_type_symbol
 _atom_site_label
 _atom_site_symmetry_multiplicity
 _atom_site_fract_x
 _atom_site_fract_y
 _atom_site_fract_z
 _atom_site_occupancy
  Li  Li0  1  0.998732  0.999568  0.999277  1
  Li  Li1  1  0.250380  0.251569  0.251321  1
  Li  Li2  1  0.249665  0.748442  0.751132  1
  Li  Li3  1  0.501061  0.000529  0.498768  1
  Li  Li4  1  0.498506  0.500402  0.000872  1
  Li  Li5  1  0.750130  0.249057  0.749101  1
  Li  Li6  1  0.749382  0.751933  0.249195  1
  Li  Li7  1  0.001143  0.499128  0.501365  1
  V  V8  1  0.122197  0.127913  0.626055  1
  V  V9  1  0.122858  0.379329  0.871623  1
  V  V10  1  0.130401  0.625878  0.120308  1
  V  V11  1  0.369878  0.373518  0.620123  1
  V  V12  1  0.377425  0.620621  0.370913  1
  V  V13  1  0.378054  0.871924  0.125790  1
  V  V14  1  0.622186  0.372076  0.373607  1
  V  V15  1  0.622325  0.121435  0.129079  1
  V  V16  1  0.629949  0.873592  0.879694  1
  V  V17  1  0.870027  0.126484  0.380570  1
  V  V18  1  0.877262  0.879175  0.628842  1
  V  V19  1  0.877974  0.628327  0.873723  1
  W  W20  1  0.126247  0.875410  0.375294  1
  W  W21  1  0.373938  0.124082  0.875396  1
  W  W22  1  0.626011  0.624199  0.624506  1
  W  W23  1  0.873875  0.375953  0.124415  1
  O  O24  1  0.110998  0.106742  0.380408  1
  O  O25  1  0.118281  0.889184  0.612644  1
  O  O26  1  0.112570  0.613342  0.887149  1
  O  O27  1  0.140576  0.139494  0.869830  1
  O  O28  1  0.109823  0.383812  0.112067  1
  O  O29  1  0.137030  0.362783  0.637159  1
  O  O30  1  0.133028  0.643726  0.363132  1
  O  O31  1  0.139310  0.867502  0.137710  1
  O  O32  1  0.360556  0.131969  0.637677  1
  O  O33  1  0.366823  0.356402  0.862698  1
  O  O34  1  0.363002  0.636906  0.137000  1
  O  O35  1  0.391395  0.616236  0.612190  1
  O  O36  1  0.359768  0.860105  0.369507  1
  O  O37  1  0.387540  0.386572  0.387093  1
  O  O38  1  0.381485  0.110545  0.112626  1
  O  O39  1  0.389359  0.892655  0.880189  1
  O  O40  1  0.610936  0.392991  0.619543  1
  O  O41  1  0.618544  0.610706  0.387166  1
  O  O42  1  0.612797  0.886972  0.112690  1
  O  O43  1  0.638892  0.360206  0.130515  1
  O  O44  1  0.608227  0.116341  0.887582  1
  O  O45  1  0.637241  0.136871  0.362937  1
  O  O46  1  0.633248  0.856196  0.636803  1
  O  O47  1  0.639453  0.632189  0.862074  1
  O  O48  1  0.861007  0.367745  0.362246  1
  O  O49  1  0.867468  0.145134  0.137173  1
  O  O50  1  0.863015  0.863216  0.862926  1
  O  O51  1  0.891281  0.884010  0.387563  1
  O  O52  1  0.859674  0.639781  0.630242  1
  O  O53  1  0.887332  0.113446  0.613258  1
  O  O54  1  0.881405  0.389704  0.887668  1
  O  O55  1  0.888335  0.606115  0.119706  1
