# generated using pymatgen
data_Fe3O5F
_symmetry_space_group_name_H-M   'P 1'
_cell_length_a   4.64925860
_cell_length_b   4.64162775
_cell_length_c   9.01804126
_cell_angle_alpha   90.00269648
_cell_angle_beta   89.99784226
_cell_angle_gamma   90.12618063
_symmetry_Int_Tables_number   1
_chemical_formula_structural   Fe3O5F
_chemical_formula_sum   'Fe6 O10 F2'
_cell_volume   194.61001031
_cell_formula_units_Z   2
loop_
 _symmetry_equiv_pos_site_id
 _symmetry_equiv_pos_as_xyz
  1  'x, y, z'
loop_
 _atom_site_type_symbol
 _atom_site_label
 _atom_site_symmetry_multiplicity
 _atom_site_fract_x
 _atom_site_fract_y
 _atom_site_fract_z
 _atom_site_occupancy
  Fe  Fe0  1  0.002778  0.989295  0.006081  1
  Fe  Fe1  1  0.022461  0.017504  0.333325  1
  Fe  Fe2  1  0.002723  0.989222  0.660569  1
  Fe  Fe3  1  0.496847  0.490110  0.160253  1
  Fe  Fe4  1  0.477325  0.516057  0.833328  1
  Fe  Fe5  1  0.496887  0.490160  0.506462  1
  O  O6  1  0.201476  0.806024  0.172867  1
  O  O7  1  0.201460  0.806017  0.493757  1
  O  O8  1  0.174801  0.813372  0.833365  1
  O  O9  1  0.298230  0.305161  0.992925  1
  O  O10  1  0.323491  0.312949  0.333358  1
  O  O11  1  0.298166  0.305098  0.673756  1
  O  O12  1  0.686863  0.691425  0.996011  1
  O  O13  1  0.686890  0.691425  0.670627  1
  O  O14  1  0.814149  0.191220  0.168982  1
  O  O15  1  0.814138  0.191202  0.497659  1
  F  F16  1  0.707048  0.698224  0.333367  1
  F  F17  1  0.794265  0.195534  0.833306  1
