# generated using pymatgen
data_TeH14C2(NO2)4
_symmetry_space_group_name_H-M   'P 1'
_cell_length_a   8.75772723
_cell_length_b   8.75772723
_cell_length_c   9.04316255
_cell_angle_alpha   81.66782297
_cell_angle_beta   68.32916429
_cell_angle_gamma   117.97302372
_symmetry_Int_Tables_number   1
_chemical_formula_structural   TeH14C2(NO2)4
_chemical_formula_sum   'Te2 H28 C4 N8 O16'
_cell_volume   524.76150919
_cell_formula_units_Z   2
loop_
 _symmetry_equiv_pos_site_id
 _symmetry_equiv_pos_as_xyz
  1  'x, y, z'
loop_
 _atom_site_type_symbol
 _atom_site_label
 _atom_site_symmetry_multiplicity
 _atom_site_fract_x
 _atom_site_fract_y
 _atom_site_fract_z
 _atom_site_occupancy
  Te  Te0  1  0.183775  0.433775  0.250000  1
  Te  Te1  1  0.816225  0.566225  0.750000  1
  H  H2  1  0.257401  0.971389  0.410871  1
  H  H3  1  0.128433  0.669211  0.337107  1
  H  H4  1  0.107252  0.683965  0.802176  1
  H  H5  1  0.547947  0.888075  0.102389  1
  H  H6  1  0.482721  0.897194  0.681339  1
  H  H7  1  0.339001  0.689826  0.553354  1
  H  H8  1  0.295068  0.652406  0.966396  1
  H  H9  1  0.490463  0.650336  0.397611  1
  H  H10  1  0.118802  0.261464  0.533604  1
  H  H11  1  0.117741  0.331728  0.910871  1
  H  H12  1  0.013860  0.090571  0.302176  1
  H  H13  1  0.743180  0.892355  0.946646  1
  H  H14  1  0.078534  0.164061  0.818661  1
  H  H15  1  0.506317  0.465540  0.162893  1
  H  H16  1  0.493683  0.534460  0.837107  1
  H  H17  1  0.921466  0.835939  0.181339  1
  H  H18  1  0.256820  0.107645  0.053354  1
  H  H19  1  0.986140  0.909429  0.697824  1
  H  H20  1  0.882259  0.668272  0.089129  1
  H  H21  1  0.881198  0.738536  0.466396  1
  H  H22  1  0.509537  0.349664  0.602389  1
  H  H23  1  0.704932  0.347594  0.033604  1
  H  H24  1  0.660999  0.310174  0.446646  1
  H  H25  1  0.517279  0.102806  0.318661  1
  H  H26  1  0.452053  0.111925  0.897611  1
  H  H27  1  0.892748  0.316035  0.197824  1
  H  H28  1  0.871567  0.330789  0.662893  1
  H  H29  1  0.742599  0.028611  0.589129  1
  C  C30  1  0.175520  0.876331  0.986833  1
  C  C31  1  0.636836  0.837647  0.486833  1
  C  C32  1  0.363164  0.162353  0.513167  1
  C  C33  1  0.824480  0.123669  0.013167  1
  N  N34  1  0.695750  0.960651  0.013233  1
  N  N35  1  0.617959  0.928554  0.592932  1
  N  N36  1  0.473885  0.708983  0.486767  1
  N  N37  1  0.021487  0.210891  0.907068  1
  N  N38  1  0.978513  0.789109  0.092932  1
  N  N39  1  0.526115  0.291017  0.513233  1
  N  N40  1  0.382041  0.071446  0.407068  1
  N  N41  1  0.304250  0.039349  0.986767  1
  O  O42  1  0.073270  0.628669  0.719019  1
  O  O43  1  0.239152  0.802981  0.887470  1
  O  O44  1  0.249332  0.674943  0.262069  1
  O  O45  1  0.312868  0.549219  0.996110  1
  O  O46  1  0.045329  0.308978  0.503890  1
  O  O47  1  0.437012  0.511401  0.237931  1
  O  O48  1  0.152310  0.207710  0.219019  1
  O  O49  1  0.809549  0.873377  0.387470  1
  O  O50  1  0.190451  0.126623  0.612530  1
  O  O51  1  0.847690  0.792290  0.780981  1
  O  O52  1  0.562988  0.488599  0.762069  1
  O  O53  1  0.954671  0.691022  0.496110  1
  O  O54  1  0.687132  0.450781  0.003890  1
  O  O55  1  0.750668  0.325057  0.737931  1
  O  O56  1  0.760848  0.197019  0.112530  1
  O  O57  1  0.926730  0.371331  0.280981  1
