# generated using pymatgen
data_CsVZn(PO3)6
_symmetry_space_group_name_H-M   'P 1'
_cell_length_a   13.67787364
_cell_length_b   10.29387822
_cell_length_c   10.29387941
_cell_angle_alpha   81.34278076
_cell_angle_beta   56.57846557
_cell_angle_gamma   56.57846333
_symmetry_Int_Tables_number   1
_chemical_formula_structural   CsVZn(PO3)6
_chemical_formula_sum   'Cs2 V2 Zn2 P12 O36'
_cell_volume   985.05758812
_cell_formula_units_Z   2
loop_
 _symmetry_equiv_pos_site_id
 _symmetry_equiv_pos_as_xyz
  1  'x, y, z'
loop_
 _atom_site_type_symbol
 _atom_site_label
 _atom_site_symmetry_multiplicity
 _atom_site_fract_x
 _atom_site_fract_y
 _atom_site_fract_z
 _atom_site_occupancy
  Cs  Cs0  1  0.745055  0.049721  0.049721  1
  Cs  Cs1  1  0.254945  0.950279  0.950279  1
  V  V2  1  1.000000  0.719214  0.280786  1
  V  V3  1  0.000000  0.280786  0.719214  1
  Zn  Zn4  1  0.500000  0.270676  0.729324  1
  Zn  Zn5  1  0.500000  0.729324  0.270676  1
  P  P6  1  0.292183  0.459607  0.232873  1
  P  P7  1  0.292183  0.232873  0.459607  1
  P  P8  1  0.207064  0.327868  0.707347  1
  P  P9  1  0.207064  0.707347  0.327868  1
  P  P10  1  0.206779  0.755882  0.533193  1
  P  P11  1  0.206779  0.533193  0.755882  1
  P  P12  1  0.793221  0.244118  0.466807  1
  P  P13  1  0.793221  0.466807  0.244118  1
  P  P14  1  0.792936  0.292653  0.672132  1
  P  P15  1  0.792936  0.672132  0.292653  1
  P  P16  1  0.707817  0.767127  0.540393  1
  P  P17  1  0.707817  0.540393  0.767127  1
  O  O18  1  0.184160  0.515792  0.188965  1
  O  O19  1  0.184160  0.188965  0.515792  1
  O  O20  1  0.232578  0.396286  0.396286  1
  O  O21  1  0.566686  0.879581  0.037107  1
  O  O22  1  0.566686  0.037107  0.879581  1
  O  O23  1  0.048129  0.397712  0.771778  1
  O  O24  1  0.048129  0.771778  0.397712  1
  O  O25  1  0.444629  0.105326  0.346439  1
  O  O26  1  0.444629  0.346439  0.105326  1
  O  O27  1  0.063363  0.883876  0.664792  1
  O  O28  1  0.063363  0.664792  0.883876  1
  O  O29  1  0.276689  0.199673  0.776245  1
  O  O30  1  0.276689  0.776245  0.199673  1
  O  O31  1  0.925108  0.899990  0.211340  1
  O  O32  1  0.925108  0.211340  0.899990  1
  O  O33  1  0.272514  0.581786  0.581786  1
  O  O34  1  0.326842  0.452369  0.782573  1
  O  O35  1  0.326842  0.782573  0.452369  1
  O  O36  1  0.673158  0.217427  0.547631  1
  O  O37  1  0.673158  0.547631  0.217427  1
  O  O38  1  0.727486  0.418214  0.418214  1
  O  O39  1  0.074892  0.788660  0.100010  1
  O  O40  1  0.074892  0.100010  0.788660  1
  O  O41  1  0.723311  0.223755  0.800327  1
  O  O42  1  0.723311  0.800327  0.223755  1
  O  O43  1  0.936637  0.335208  0.116124  1
  O  O44  1  0.936637  0.116124  0.335208  1
  O  O45  1  0.555371  0.653561  0.894674  1
  O  O46  1  0.555371  0.894674  0.653561  1
  O  O47  1  0.951871  0.228222  0.602288  1
  O  O48  1  0.951871  0.602288  0.228222  1
  O  O49  1  0.433314  0.962893  0.120419  1
  O  O50  1  0.433314  0.120419  0.962893  1
  O  O51  1  0.767422  0.603714  0.603714  1
  O  O52  1  0.815840  0.484208  0.811035  1
  O  O53  1  0.815840  0.811035  0.484208  1
