# generated using pymatgen
data_Li5V3P8O29
_symmetry_space_group_name_H-M   'P 1'
_cell_length_a   9.77068622
_cell_length_b   9.81908862
_cell_length_c   14.01688085
_cell_angle_alpha   90.34699640
_cell_angle_beta   90.12559584
_cell_angle_gamma   59.90904193
_symmetry_Int_Tables_number   1
_chemical_formula_structural   Li5V3P8O29
_chemical_formula_sum   'Li10 V6 P16 O58'
_cell_volume   1163.51317088
_cell_formula_units_Z   2
loop_
 _symmetry_equiv_pos_site_id
 _symmetry_equiv_pos_as_xyz
  1  'x, y, z'
loop_
 _atom_site_type_symbol
 _atom_site_label
 _atom_site_symmetry_multiplicity
 _atom_site_fract_x
 _atom_site_fract_y
 _atom_site_fract_z
 _atom_site_occupancy
  Li  Li0  1  0.768597  0.907966  0.562638  1
  Li  Li1  1  0.678880  0.668672  0.887010  1
  Li  Li2  1  0.764629  0.324853  0.059542  1
  Li  Li3  1  0.317303  0.912834  0.060761  1
  Li  Li4  1  0.693194  0.223517  0.440908  1
  Li  Li5  1  0.320566  0.772487  0.560517  1
  Li  Li6  1  0.232049  0.661738  0.941707  1
  Li  Li7  1  0.093438  0.677576  0.438648  1
  Li  Li8  1  0.226612  0.092724  0.444890  1
  Li  Li9  1  0.950763  0.002360  0.990343  1
  V  V10  1  0.569347  0.430794  0.251788  1
  V  V11  1  0.431553  0.566696  0.746276  1
  V  V12  1  0.566813  0.003917  0.757520  1
  V  V13  1  0.434939  0.001858  0.247458  1
  V  V14  1  0.995561  0.566100  0.243366  1
  V  V15  1  0.005855  0.425099  0.748384  1
  P  P16  1  0.914066  0.777041  0.841551  1
  P  P17  1  0.769662  0.911096  0.341152  1
  P  P18  1  0.917143  0.316897  0.345323  1
  P  P19  1  0.664685  0.663501  0.126055  1
  P  P20  1  0.668737  0.670374  0.629991  1
  P  P21  1  0.776219  0.316446  0.841354  1
  P  P22  1  0.683380  0.228449  0.658243  1
  P  P23  1  0.317021  0.906693  0.843834  1
  P  P24  1  0.693299  0.084084  0.156929  1
  P  P25  1  0.321554  0.769716  0.341192  1
  P  P26  1  0.227973  0.683175  0.159475  1
  P  P27  1  0.330366  0.336392  0.368938  1
  P  P28  1  0.329280  0.338801  0.872890  1
  P  P29  1  0.083010  0.681959  0.655059  1
  P  P30  1  0.233375  0.084036  0.661092  1
  P  P31  1  0.081582  0.225437  0.157437  1
  O  O32  1  0.996598  0.754804  0.563885  1
  O  O33  1  0.917688  0.744136  0.338291  1
  O  O34  1  0.796528  0.005879  0.074186  1
  O  O35  1  0.743102  0.915658  0.842949  1
  O  O36  1  0.907877  0.622434  0.834615  1
  O  O37  1  0.811415  0.669065  0.172606  1
  O  O38  1  0.906540  0.477214  0.322024  1
  O  O39  1  0.991016  0.219963  0.073642  1
  O  O40  1  0.921215  0.341446  0.833049  1
  O  O41  1  0.669104  0.819407  0.672202  1
  O  O42  1  0.619625  0.900035  0.320053  1
  O  O43  1  0.814941  0.525885  0.680395  1
  O  O44  1  0.674067  0.659499  0.019324  1
  O  O45  1  0.678001  0.666000  0.524245  1
  O  O46  1  0.676118  0.509295  0.163516  1
  O  O47  1  0.483499  0.888198  0.830833  1
  O  O48  1  0.510563  0.810381  0.162917  1
  O  O49  1  0.749339  0.337073  0.343259  1
  O  O50  1  0.792442  0.210269  0.749638  1
  O  O51  1  0.752614  0.241775  0.567703  1
  O  O52  1  0.786892  0.229354  0.930650  1
  O  O53  1  0.626495  0.480234  0.830283  1
  O  O54  1  0.513724  0.673299  0.666365  1
  O  O55  1  0.659423  0.257705  0.165267  1
  O  O56  1  0.482680  0.620156  0.321110  1
  O  O57  1  0.338404  0.917818  0.341404  1
  O  O58  1  0.790560  0.005114  0.255189  1
  O  O59  1  0.757061  0.996148  0.433021  1
  O  O60  1  0.238868  0.997500  0.571357  1
  O  O61  1  0.664308  0.082162  0.663180  1
  O  O62  1  0.521567  0.379948  0.681059  1
  O  O63  1  0.338234  0.738384  0.836181  1
  O  O64  1  0.486622  0.328666  0.332250  1
  O  O65  1  0.380877  0.526865  0.171818  1
  O  O66  1  0.221744  0.771408  0.070561  1
  O  O67  1  0.245835  0.754712  0.430685  1
  O  O68  1  0.208275  0.792942  0.251192  1
  O  O69  1  0.249143  0.666241  0.656350  1
  O  O70  1  0.478486  0.189749  0.830682  1
  O  O71  1  0.537911  0.081292  0.165587  1
  O  O72  1  0.325753  0.489231  0.833568  1
  O  O73  1  0.314490  0.344376  0.978009  1
  O  O74  1  0.320342  0.345397  0.475029  1
  O  O75  1  0.183366  0.485786  0.322997  1
  O  O76  1  0.383718  0.092201  0.677272  1
  O  O77  1  0.329036  0.186585  0.328426  1
  O  O78  1  0.082669  0.658935  0.165986  1
  O  O79  1  0.987042  0.796746  0.741643  1
  O  O80  1  0.010055  0.789982  0.920646  1
  O  O81  1  0.095511  0.522633  0.676399  1
  O  O82  1  0.183823  0.336400  0.822096  1
  O  O83  1  0.084721  0.382466  0.170285  1
  O  O84  1  0.254227  0.085207  0.159442  1
  O  O85  1  0.233451  0.983933  0.933864  1
  O  O86  1  0.211013  0.995891  0.751770  1
  O  O87  1  0.086305  0.252469  0.664501  1
  O  O88  1  0.010123  0.237357  0.431259  1
  O  O89  1  0.002845  0.206750  0.252851  1
