# generated using pymatgen
data_CrInO3
_symmetry_space_group_name_H-M   'P 1'
_cell_length_a   5.24029320
_cell_length_b   5.45271220
_cell_length_c   7.71516628
_cell_angle_alpha   89.99998815
_cell_angle_beta   90.00031168
_cell_angle_gamma   89.99998850
_symmetry_Int_Tables_number   1
_chemical_formula_structural   CrInO3
_chemical_formula_sum   'Cr4 In4 O12'
_cell_volume   220.45170052
_cell_formula_units_Z   4
loop_
 _symmetry_equiv_pos_site_id
 _symmetry_equiv_pos_as_xyz
  1  'x, y, z'
loop_
 _atom_site_type_symbol
 _atom_site_label
 _atom_site_symmetry_multiplicity
 _atom_site_fract_x
 _atom_site_fract_y
 _atom_site_fract_z
 _atom_site_occupancy
  Cr  Cr0  1  0.999985  0.499999  0.999997  1
  Cr  Cr1  1  0.000004  0.499996  0.499998  1
  Cr  Cr2  1  0.499999  0.000002  -0.000002  1
  Cr  Cr3  1  0.500005  0.999995  0.500010  1
  In  In4  1  0.023315  0.938694  0.749999  1
  In  In5  1  0.476689  0.438698  0.750002  1
  In  In6  1  0.523311  0.561309  0.250001  1
  In  In7  1  0.976688  0.061307  0.250000  1
  O  O8  1  0.127071  0.442288  0.250001  1
  O  O9  1  0.194932  0.198257  0.568725  1
  O  O10  1  0.194932  0.198261  0.931273  1
  O  O11  1  0.305070  0.698259  0.568727  1
  O  O12  1  0.305068  0.698260  0.931274  1
  O  O13  1  0.372933  0.942288  0.250001  1
  O  O14  1  0.627072  0.057716  0.750003  1
  O  O15  1  0.694929  0.301741  0.068727  1
  O  O16  1  0.694930  0.301740  0.431269  1
  O  O17  1  0.805070  0.801739  0.068725  1
  O  O18  1  0.805070  0.801741  0.431275  1
  O  O19  1  0.872929  0.557711  0.749996  1
