# generated using pymatgen
data_LiMn3(BO3)3
_symmetry_space_group_name_H-M   'P 1'
_cell_length_a   7.72057683
_cell_length_b   9.10603465
_cell_length_c   6.18527364
_cell_angle_alpha   105.43021305
_cell_angle_beta   82.43379319
_cell_angle_gamma   66.43795474
_symmetry_Int_Tables_number   1
_chemical_formula_structural   LiMn3(BO3)3
_chemical_formula_sum   'Li2 Mn6 B6 O18'
_cell_volume   370.02264463
_cell_formula_units_Z   2
loop_
 _symmetry_equiv_pos_site_id
 _symmetry_equiv_pos_as_xyz
  1  'x, y, z'
loop_
 _atom_site_type_symbol
 _atom_site_label
 _atom_site_symmetry_multiplicity
 _atom_site_fract_x
 _atom_site_fract_y
 _atom_site_fract_z
 _atom_site_occupancy
  Li  Li0  1  0.385228  0.610668  0.945510  1
  Li  Li1  1  0.723989  0.941757  0.605514  1
  Mn  Mn2  1  0.993378  0.401199  0.751026  1
  Mn  Mn3  1  0.692892  0.272647  0.573115  1
  Mn  Mn4  1  0.655391  0.063266  0.100645  1
  Mn  Mn5  1  0.336095  0.959132  0.927562  1
  Mn  Mn6  1  0.308625  0.729701  0.445532  1
  Mn  Mn7  1  0.007917  0.591702  0.239015  1
  B  B8  1  0.978788  0.059875  0.767779  1
  B  B9  1  0.361314  0.277891  0.875259  1
  B  B10  1  0.684134  0.622912  0.584562  1
  B  B11  1  0.316094  0.382548  0.433809  1
  B  B12  1  0.634993  0.722672  0.099784  1
  B  B13  1  0.022400  0.935786  0.233645  1
  O  O14  1  0.882668  0.223506  0.756672  1
  O  O15  1  0.844413  0.634942  0.021181  1
  O  O16  1  0.881848  0.972593  0.814641  1
  O  O17  1  0.820948  0.023468  0.357180  1
  O  O18  1  0.463628  0.108134  0.854100  1
  O  O19  1  0.798716  0.455681  0.572981  1
  O  O20  1  0.451190  0.372185  0.828778  1
  O  O21  1  0.769246  0.710044  0.500402  1
  O  O22  1  0.484256  0.696123  0.689724  1
  O  O23  1  0.521812  0.312235  0.361528  1
  O  O24  1  0.231709  0.292967  0.506812  1
  O  O25  1  0.536215  0.642034  0.161185  1
  O  O26  1  0.207578  0.540168  0.414023  1
  O  O27  1  0.545024  0.887100  0.089433  1
  O  O28  1  0.184369  0.982999  0.701900  1
  O  O29  1  0.108009  0.027036  0.168320  1
  O  O30  1  0.155073  0.362350  0.972902  1
  O  O31  1  0.123017  0.763203  0.197491  1
