# generated using pymatgen
data_Li24Ti5Cr7O36
_symmetry_space_group_name_H-M   'P 1'
_cell_length_a   5.06972694
_cell_length_b   13.35764908
_cell_length_c   9.78922379
_cell_angle_alpha   97.19702759
_cell_angle_beta   94.98820378
_cell_angle_gamma   100.87935359
_symmetry_Int_Tables_number   1
_chemical_formula_structural   Li24Ti5Cr7O36
_chemical_formula_sum   'Li24 Ti5 Cr7 O36'
_cell_volume   641.70385970
_cell_formula_units_Z   1
loop_
 _symmetry_equiv_pos_site_id
 _symmetry_equiv_pos_as_xyz
  1  'x, y, z'
loop_
 _atom_site_type_symbol
 _atom_site_label
 _atom_site_symmetry_multiplicity
 _atom_site_fract_x
 _atom_site_fract_y
 _atom_site_fract_z
 _atom_site_occupancy
  Li  Li0  1  0.829195  0.168356  0.999847  1
  Li  Li1  1  0.954544  0.386098  0.000224  1
  Li  Li2  1  0.002170  0.750224  0.248718  1
  Li  Li3  1  0.665754  0.082335  0.249663  1
  Li  Li4  1  0.951069  0.887530  0.500974  1
  Li  Li5  1  0.620152  0.221002  0.499769  1
  Li  Li6  1  0.829223  0.666320  0.500642  1
  Li  Li7  1  0.499704  0.000265  0.499361  1
  Li  Li8  1  0.716037  0.445333  0.499179  1
  Li  Li9  1  0.666828  0.582522  0.749976  1
  Li  Li10  1  0.491854  0.501764  0.000283  1
  Li  Li11  1  0.719347  0.947379  0.000984  1
  Li  Li12  1  0.385637  0.280965  0.001605  1
  Li  Li13  1  0.617302  0.719788  0.001562  1
  Li  Li14  1  0.280086  0.051746  0.998247  1
  Li  Li15  1  0.334483  0.417070  0.250437  1
  Li  Li16  1  0.290448  0.554127  0.500703  1
  Li  Li17  1  0.161016  0.335314  0.499808  1
  Li  Li18  1  0.376963  0.777639  0.497966  1
  Li  Li19  1  0.050883  0.112849  0.500935  1
  Li  Li20  1  0.333894  0.917648  0.749725  1
  Li  Li21  1  0.171575  0.832356  0.000371  1
  Li  Li22  1  0.999665  0.249835  0.749935  1
  Li  Li23  1  0.050260  0.612267  0.999238  1
  Ti  Ti24  1  0.892243  0.527410  0.253280  1
  Ti  Ti25  1  0.778316  0.808154  0.751570  1
  Ti  Ti26  1  0.555779  0.359416  0.751085  1
  Ti  Ti27  1  0.221732  0.193788  0.250420  1
  Ti  Ti28  1  0.222664  0.693590  0.748673  1
  Cr  Cr29  1  0.889980  0.031726  0.749686  1
  Cr  Cr30  1  0.774324  0.304675  0.249147  1
  Cr  Cr31  1  0.440583  0.135752  0.749084  1
  Cr  Cr32  1  0.553847  0.865050  0.248425  1
  Cr  Cr33  1  0.449748  0.641535  0.250502  1
  Cr  Cr34  1  0.110566  0.472505  0.750073  1
  Cr  Cr35  1  0.106128  0.969136  0.249174  1
  O  O36  1  0.999070  0.068834  0.137420  1
  O  O37  1  0.926039  0.215137  0.364917  1
  O  O38  1  0.995915  0.569886  0.636820  1
  O  O39  1  0.858170  0.356042  0.637671  1
  O  O40  1  0.741879  0.116631  0.635124  1
  O  O41  1  0.667032  0.402346  0.136972  1
  O  O42  1  0.931013  0.715364  0.866400  1
  O  O43  1  0.816937  0.477207  0.862558  1
  O  O44  1  0.590923  0.050919  0.863931  1
  O  O45  1  0.864395  0.858787  0.137871  1
  O  O46  1  0.729752  0.619213  0.135489  1
  O  O47  1  0.527209  0.189576  0.137399  1
  O  O48  1  0.664906  0.260397  0.862689  1
  O  O49  1  0.802487  0.973363  0.362810  1
  O  O50  1  0.600613  0.548040  0.366741  1
  O  O51  1  0.478974  0.309900  0.363163  1
  O  O52  1  0.662856  0.761425  0.359766  1
  O  O53  1  0.332174  0.093616  0.362838  1
  O  O54  1  0.667167  0.906714  0.637762  1
  O  O55  1  0.333164  0.235879  0.636883  1
  O  O56  1  0.523306  0.689890  0.636134  1
  O  O57  1  0.396930  0.452283  0.636058  1
  O  O58  1  0.197030  0.025410  0.637377  1
  O  O59  1  0.335150  0.741323  0.137893  1
  O  O60  1  0.477226  0.810646  0.864237  1
  O  O61  1  0.262080  0.380752  0.865776  1
  O  O62  1  0.135087  0.140763  0.861963  1
  O  O63  1  0.407717  0.950340  0.134630  1
  O  O64  1  0.193745  0.525442  0.138205  1
  O  O65  1  0.070025  0.284857  0.134270  1
  O  O66  1  0.336263  0.593872  0.862378  1
  O  O67  1  0.257113  0.883936  0.363979  1
  O  O68  1  0.147895  0.644559  0.362433  1
  O  O69  1  0.002522  0.427017  0.362357  1
  O  O70  1  0.070119  0.784979  0.633198  1
  O  O71  1  0.003112  0.931189  0.862615  1
