# generated using pymatgen
data_V3(O2F)2
_symmetry_space_group_name_H-M   'P 1'
_cell_length_a   4.72445929
_cell_length_b   7.55169361
_cell_length_c   5.65055533
_cell_angle_alpha   95.19906290
_cell_angle_beta   90.00000000
_cell_angle_gamma   90.00000000
_symmetry_Int_Tables_number   1
_chemical_formula_structural   V3(O2F)2
_chemical_formula_sum   'V6 O8 F4'
_cell_volume   200.76924195
_cell_formula_units_Z   2
loop_
 _symmetry_equiv_pos_site_id
 _symmetry_equiv_pos_as_xyz
  1  'x, y, z'
loop_
 _atom_site_type_symbol
 _atom_site_label
 _atom_site_symmetry_multiplicity
 _atom_site_fract_x
 _atom_site_fract_y
 _atom_site_fract_z
 _atom_site_occupancy
  V  V0  1  0.534116  0.677273  0.179566  1
  V  V1  1  0.465884  0.989393  0.487100  1
  V  V2  1  0.500000  0.333333  0.833333  1
  V  V3  1  0.965884  0.677273  0.679566  1
  V  V4  1  0.000000  0.333333  0.333333  1
  V  V5  1  0.034116  0.989393  0.987100  1
  O  O6  1  0.811976  0.442336  0.635223  1
  O  O7  1  0.797995  0.775720  0.975364  1
  O  O8  1  0.702005  0.775720  0.475364  1
  O  O9  1  0.688024  0.442336  0.135223  1
  O  O10  1  0.311976  0.224331  0.531444  1
  O  O11  1  0.297995  0.890947  0.191303  1
  O  O12  1  0.188024  0.224331  0.031444  1
  O  O13  1  0.202005  0.890947  0.691303  1
  F  F14  1  0.795498  0.090742  0.291085  1
  F  F15  1  0.704502  0.090742  0.791085  1
  F  F16  1  0.295498  0.575925  0.875582  1
  F  F17  1  0.204502  0.575925  0.375582  1
