# generated using pymatgen
data_SbTe2F6
_symmetry_space_group_name_H-M   'P 1'
_cell_length_a   5.80581782
_cell_length_b   8.51183698
_cell_length_c   9.87542282
_cell_angle_alpha   127.75904069
_cell_angle_beta   89.01338202
_cell_angle_gamma   103.04343435
_symmetry_Int_Tables_number   1
_chemical_formula_structural   SbTe2F6
_chemical_formula_sum   'Sb2 Te4 F12'
_cell_volume   371.20872958
_cell_formula_units_Z   2
loop_
 _symmetry_equiv_pos_site_id
 _symmetry_equiv_pos_as_xyz
  1  'x, y, z'
loop_
 _atom_site_type_symbol
 _atom_site_label
 _atom_site_symmetry_multiplicity
 _atom_site_fract_x
 _atom_site_fract_y
 _atom_site_fract_z
 _atom_site_occupancy
  Sb  Sb0  1  0.393027  0.840801  0.178476  1
  Sb  Sb1  1  0.606973  0.159199  0.821524  1
  Te  Te2  1  0.071671  0.333037  0.270005  1
  Te  Te3  1  0.155825  0.365154  0.556767  1
  Te  Te4  1  0.844175  0.634846  0.443233  1
  Te  Te5  1  0.928329  0.666963  0.729995  1
  F  F6  1  0.115530  0.856703  0.290415  1
  F  F7  1  0.194416  0.620989  0.956080  1
  F  F8  1  0.417907  0.922232  0.603219  1
  F  F9  1  0.457344  0.651822  0.207388  1
  F  F10  1  0.334610  0.169661  0.935966  1
  F  F11  1  0.322470  0.037665  0.156183  1
  F  F12  1  0.677530  0.962335  0.843817  1
  F  F13  1  0.665390  0.830339  0.064034  1
  F  F14  1  0.542656  0.348178  0.792612  1
  F  F15  1  0.582093  0.077768  0.396781  1
  F  F16  1  0.805584  0.379011  0.043920  1
  F  F17  1  0.884470  0.143297  0.709585  1
