# generated using pymatgen
data_Li2MnCrO4
_symmetry_space_group_name_H-M   'P 1'
_cell_length_a   6.05398175
_cell_length_b   6.05398175
_cell_length_c   6.07790339
_cell_angle_alpha   122.35651784
_cell_angle_beta   122.35651784
_cell_angle_gamma   86.43779298
_symmetry_Int_Tables_number   1
_chemical_formula_structural   Li2MnCrO4
_chemical_formula_sum   'Li4 Mn2 Cr2 O8'
_cell_volume   150.89939030
_cell_formula_units_Z   2
loop_
 _symmetry_equiv_pos_site_id
 _symmetry_equiv_pos_as_xyz
  1  'x, y, z'
loop_
 _atom_site_type_symbol
 _atom_site_label
 _atom_site_symmetry_multiplicity
 _atom_site_fract_x
 _atom_site_fract_y
 _atom_site_fract_z
 _atom_site_occupancy
  Li  Li0  1  0.500000  0.000000  0.000000  1
  Li  Li1  1  0.500000  0.500000  0.500000  1
  Li  Li2  1  0.000000  0.500000  0.500000  1
  Li  Li3  1  0.500000  0.500000  0.000000  1
  Mn  Mn4  1  0.000000  0.000000  0.000000  1
  Mn  Mn5  1  0.000000  0.000000  0.500000  1
  Cr  Cr6  1  0.500000  0.000000  0.500000  1
  Cr  Cr7  1  0.000000  0.500000  0.000000  1
  O  O8  1  0.775615  0.253439  0.992200  1
  O  O9  1  0.237546  0.249883  0.972132  1
  O  O10  1  0.746561  0.224385  0.507800  1
  O  O11  1  0.750117  0.762454  0.527868  1
  O  O12  1  0.249883  0.237546  0.472132  1
  O  O13  1  0.762454  0.750117  0.027868  1
  O  O14  1  0.253439  0.775615  0.492200  1
  O  O15  1  0.224385  0.746561  0.007800  1
