# generated using pymatgen
data_V6O11F
_symmetry_space_group_name_H-M   'P 1'
_cell_length_a   4.61609397
_cell_length_b   7.53219660
_cell_length_c   5.53104804
_cell_angle_alpha   94.18686976
_cell_angle_beta   90.98944192
_cell_angle_gamma   89.22114759
_symmetry_Int_Tables_number   1
_chemical_formula_structural   V6O11F
_chemical_formula_sum   'V6 O11 F1'
_cell_volume   191.75432309
_cell_formula_units_Z   1
loop_
 _symmetry_equiv_pos_site_id
 _symmetry_equiv_pos_as_xyz
  1  'x, y, z'
loop_
 _atom_site_type_symbol
 _atom_site_label
 _atom_site_symmetry_multiplicity
 _atom_site_fract_x
 _atom_site_fract_y
 _atom_site_fract_z
 _atom_site_occupancy
  V  V0  1  0.523169  0.673566  0.152551  1
  V  V1  1  0.481087  0.990057  0.518074  1
  V  V2  1  0.491956  0.333876  0.830775  1
  V  V3  1  0.984404  0.662342  0.678973  1
  V  V4  1  0.980694  0.311307  0.334523  1
  V  V5  1  0.007869  0.008234  0.995317  1
  O  O6  1  0.802040  0.431741  0.634081  1
  O  O7  1  0.797150  0.108055  0.308511  1
  O  O8  1  0.809579  0.770925  0.958516  1
  O  O9  1  0.691654  0.103804  0.796246  1
  O  O10  1  0.712661  0.764430  0.463630  1
  O  O11  1  0.695049  0.446260  0.136289  1
  O  O12  1  0.301057  0.574191  0.860337  1
  O  O13  1  0.304765  0.232183  0.535605  1
  O  O14  1  0.313044  0.887380  0.199593  1
  O  O15  1  0.207722  0.243251  0.037415  1
  O  O16  1  0.201258  0.899020  0.692832  1
  F  F17  1  0.194842  0.559379  0.366731  1
