# generated using pymatgen
data_LiCrCO4
_symmetry_space_group_name_H-M   'P 1'
_cell_length_a   3.09891611
_cell_length_b   9.31374971
_cell_length_c   9.28889529
_cell_angle_alpha   90.00000000
_cell_angle_beta   89.80777265
_cell_angle_gamma   90.00000000
_symmetry_Int_Tables_number   1
_chemical_formula_structural   LiCrCO4
_chemical_formula_sum   'Li4 Cr4 C4 O16'
_cell_volume   268.09950124
_cell_formula_units_Z   4
loop_
 _symmetry_equiv_pos_site_id
 _symmetry_equiv_pos_as_xyz
  1  'x, y, z'
loop_
 _atom_site_type_symbol
 _atom_site_label
 _atom_site_symmetry_multiplicity
 _atom_site_fract_x
 _atom_site_fract_y
 _atom_site_fract_z
 _atom_site_occupancy
  Li  Li0  1  0.246048  0.304702  0.902612  1
  Li  Li1  1  0.246048  0.195298  0.402612  1
  Li  Li2  1  0.753952  0.804702  0.597388  1
  Li  Li3  1  0.753952  0.695298  0.097388  1
  Cr  Cr4  1  0.250581  0.937059  0.878900  1
  Cr  Cr5  1  0.250581  0.562941  0.378900  1
  Cr  Cr6  1  0.749419  0.437059  0.621100  1
  Cr  Cr7  1  0.749419  0.062941  0.121100  1
  C  C8  1  0.249524  0.627500  0.836755  1
  C  C9  1  0.249524  0.872500  0.336755  1
  C  C10  1  0.750476  0.127500  0.663245  1
  C  C11  1  0.750476  0.372500  0.163245  1
  O  O12  1  0.247168  0.501842  0.763401  1
  O  O13  1  0.250313  0.112808  0.997686  1
  O  O14  1  0.245176  0.745613  0.760860  1
  O  O15  1  0.247168  0.998158  0.263401  1
  O  O16  1  0.250313  0.387192  0.497686  1
  O  O17  1  0.245176  0.754387  0.260860  1
  O  O18  1  0.255895  0.625744  0.970825  1
  O  O19  1  0.255895  0.874256  0.470825  1
  O  O20  1  0.744105  0.125744  0.529175  1
  O  O21  1  0.744105  0.374256  0.029175  1
  O  O22  1  0.754824  0.245613  0.739140  1
  O  O23  1  0.749687  0.612808  0.502314  1
  O  O24  1  0.752832  0.001842  0.736599  1
  O  O25  1  0.754824  0.254387  0.239140  1
  O  O26  1  0.749687  0.887192  0.002314  1
  O  O27  1  0.752832  0.498158  0.236599  1
