# generated using pymatgen
data_Ca4Ta2O9
_symmetry_space_group_name_H-M   'P 1'
_cell_length_a   5.66773625
_cell_length_b   5.66772874
_cell_length_c   14.92344975
_cell_angle_alpha   89.99992646
_cell_angle_beta   90.00003904
_cell_angle_gamma   120.00008152
_symmetry_Int_Tables_number   1
_chemical_formula_structural   Ca4Ta2O9
_chemical_formula_sum   'Ca8 Ta4 O18'
_cell_volume   415.16256908
_cell_formula_units_Z   2
loop_
 _symmetry_equiv_pos_site_id
 _symmetry_equiv_pos_as_xyz
  1  'x, y, z'
loop_
 _atom_site_type_symbol
 _atom_site_label
 _atom_site_symmetry_multiplicity
 _atom_site_fract_x
 _atom_site_fract_y
 _atom_site_fract_z
 _atom_site_occupancy
  Ca  Ca0  1  0.333312  0.666667  0.023042  1
  Ca  Ca1  1  0.333325  0.666673  0.304558  1
  Ca  Ca2  1  0.333330  0.666669  0.804558  1
  Ca  Ca3  1  0.333337  0.666665  0.523043  1
  Ca  Ca4  1  0.666652  0.333333  0.195442  1
  Ca  Ca5  1  0.666670  0.333331  0.695443  1
  Ca  Ca6  1  0.666653  0.333340  0.476958  1
  Ca  Ca7  1  0.666667  0.333330  0.976956  1
  Ta  Ta8  1  0.999992  0.000001  0.147216  1
  Ta  Ta9  1  0.999991  0.000004  0.352784  1
  Ta  Ta10  1  0.000002  0.999998  0.647218  1
  Ta  Ta11  1  0.999994  0.999999  0.852785  1
  O  O12  1  1.000000  0.738255  0.750001  1
  O  O13  1  0.036405  0.714140  0.410360  1
  O  O14  1  0.285864  0.963590  0.910359  1
  O  O15  1  0.036399  0.322271  0.910360  1
  O  O16  1  0.999990  0.261747  0.249999  1
  O  O17  1  0.261742  0.261742  0.750001  1
  O  O18  1  0.285856  0.322273  0.410357  1
  O  O19  1  0.677724  0.963598  0.410361  1
  O  O20  1  0.322263  0.285863  0.089637  1
  O  O21  1  0.261726  0.000000  0.249999  1
  O  O22  1  0.677721  0.714133  0.910362  1
  O  O23  1  0.322269  0.036404  0.589642  1
  O  O24  1  0.714130  0.677723  0.589642  1
  O  O25  1  0.738243  0.738257  0.249999  1
  O  O26  1  0.963578  0.677724  0.089640  1
  O  O27  1  0.714117  0.036405  0.089641  1
  O  O28  1  0.738256  0.999996  0.750000  1
  O  O29  1  0.963592  0.285868  0.589641  1
