# generated using pymatgen
data_Fe3(O2F)2
_symmetry_space_group_name_H-M   'P 1'
_cell_length_a   7.67983384
_cell_length_b   5.64878343
_cell_length_c   5.64878343
_cell_angle_alpha   69.19188486
_cell_angle_beta   68.60204339
_cell_angle_gamma   68.60204339
_symmetry_Int_Tables_number   1
_chemical_formula_structural   Fe3(O2F)2
_chemical_formula_sum   'Fe6 O8 F4'
_cell_volume   205.34228832
_cell_formula_units_Z   2
loop_
 _symmetry_equiv_pos_site_id
 _symmetry_equiv_pos_as_xyz
  1  'x, y, z'
loop_
 _atom_site_type_symbol
 _atom_site_label
 _atom_site_symmetry_multiplicity
 _atom_site_fract_x
 _atom_site_fract_y
 _atom_site_fract_z
 _atom_site_occupancy
  Fe  Fe0  1  0.853934  0.675960  0.675960  1
  Fe  Fe1  1  0.655029  0.339794  0.339794  1
  Fe  Fe2  1  0.321617  0.657315  0.657315  1
  Fe  Fe3  1  0.185740  0.342920  0.342920  1
  Fe  Fe4  1  0.495056  0.997147  0.997147  1
  Fe  Fe5  1  0.996994  0.991054  0.991054  1
  O  O6  1  0.667651  0.028969  0.643484  1
  O  O7  1  0.334176  0.353973  0.970253  1
  O  O8  1  0.041251  0.771697  0.771697  1
  O  O9  1  0.376628  0.433334  0.433334  1
  O  O10  1  0.334176  0.970253  0.353973  1
  O  O11  1  0.667651  0.643484  0.028969  1
  O  O12  1  0.999726  0.306686  0.697139  1
  O  O13  1  0.999726  0.697139  0.306686  1
  F  F14  1  0.298777  0.892656  0.892656  1
  F  F15  1  0.949179  0.225823  0.225823  1
  F  F16  1  0.622697  0.568356  0.568356  1
  F  F17  1  0.699991  0.103442  0.103442  1
