# generated using pymatgen
data_V2Ni(H4O5)2
_symmetry_space_group_name_H-M   'P 1'
_cell_length_a   8.41989115
_cell_length_b   8.41989115
_cell_length_c   7.03579869
_cell_angle_alpha   72.13366556
_cell_angle_beta   107.86633444
_cell_angle_gamma   103.36021372
_symmetry_Int_Tables_number   1
_chemical_formula_structural   V2Ni(H4O5)2
_chemical_formula_sum   'V4 Ni2 H16 O20'
_cell_volume   446.65726591
_cell_formula_units_Z   2
loop_
 _symmetry_equiv_pos_site_id
 _symmetry_equiv_pos_as_xyz
  1  'x, y, z'
loop_
 _atom_site_type_symbol
 _atom_site_label
 _atom_site_symmetry_multiplicity
 _atom_site_fract_x
 _atom_site_fract_y
 _atom_site_fract_z
 _atom_site_occupancy
  V  V0  1  0.139658  0.926569  0.699934  1
  V  V1  1  0.926569  0.139658  0.800066  1
  V  V2  1  0.860342  0.073431  0.300066  1
  V  V3  1  0.073431  0.860342  0.199934  1
  Ni  Ni4  1  0.000000  0.500000  0.000000  1
  Ni  Ni5  1  0.500000  0.000000  0.500000  1
  H  H6  1  0.589160  0.365704  0.837697  1
  H  H7  1  0.365704  0.589160  0.662303  1
  H  H8  1  0.410840  0.634296  0.162303  1
  H  H9  1  0.634296  0.410840  0.337697  1
  H  H10  1  0.265185  0.663859  0.844640  1
  H  H11  1  0.663859  0.265185  0.655360  1
  H  H12  1  0.734815  0.336141  0.155360  1
  H  H13  1  0.336141  0.734815  0.344640  1
  H  H14  1  0.460882  0.164375  0.081489  1
  H  H15  1  0.164375  0.460882  0.418511  1
  H  H16  1  0.539118  0.835625  0.918511  1
  H  H17  1  0.835625  0.539118  0.581489  1
  H  H18  1  0.680322  0.494039  0.291076  1
  H  H19  1  0.494039  0.680322  0.208924  1
  H  H20  1  0.319678  0.505961  0.708924  1
  H  H21  1  0.505961  0.319678  0.791076  1
  O  O22  1  0.099602  0.977998  0.927188  1
  O  O23  1  0.977998  0.099602  0.572812  1
  O  O24  1  0.900398  0.022002  0.072812  1
  O  O25  1  0.022002  0.900398  0.427188  1
  O  O26  1  0.001783  0.338221  0.813169  1
  O  O27  1  0.338221  0.001783  0.686831  1
  O  O28  1  0.998217  0.661779  0.186831  1
  O  O29  1  0.661779  0.998217  0.313169  1
  O  O30  1  0.838823  0.306476  0.152251  1
  O  O31  1  0.306476  0.838823  0.347749  1
  O  O32  1  0.161177  0.693524  0.847749  1
  O  O33  1  0.693524  0.161177  0.652251  1
  O  O34  1  0.374386  0.173047  0.297011  1
  O  O35  1  0.173047  0.374386  0.202989  1
  O  O36  1  0.625614  0.826953  0.702989  1
  O  O37  1  0.826953  0.625614  0.797011  1
  O  O38  1  0.578234  0.747948  0.884921  1
  O  O39  1  0.747948  0.578234  0.615079  1
  O  O40  1  0.421766  0.252052  0.115079  1
  O  O41  1  0.252052  0.421766  0.384921  1
