# generated using pymatgen
data_LiVP2HO8
_symmetry_space_group_name_H-M   'P 1'
_cell_length_a   4.86069874
_cell_length_b   7.99234263
_cell_length_c   7.47356367
_cell_angle_alpha   90.13403173
_cell_angle_beta   105.56403200
_cell_angle_gamma   89.93406662
_symmetry_Int_Tables_number   1
_chemical_formula_structural   LiVP2HO8
_chemical_formula_sum   'Li2 V2 P4 H2 O16'
_cell_volume   279.68869239
_cell_formula_units_Z   2
loop_
 _symmetry_equiv_pos_site_id
 _symmetry_equiv_pos_as_xyz
  1  'x, y, z'
loop_
 _atom_site_type_symbol
 _atom_site_label
 _atom_site_symmetry_multiplicity
 _atom_site_fract_x
 _atom_site_fract_y
 _atom_site_fract_z
 _atom_site_occupancy
  Li  Li0  1  0.396838  0.869492  0.851104  1
  Li  Li1  1  0.907676  0.632557  0.352848  1
  V  V2  1  0.491644  0.490913  0.998315  1
  V  V3  1  0.989192  0.010210  0.492504  1
  P  P4  1  0.135120  0.349241  0.267406  1
  P  P5  1  0.368539  0.847690  0.231352  1
  P  P6  1  0.627784  0.155501  0.761657  1
  P  P7  1  0.870219  0.654486  0.736115  1
  H  H8  1  0.513559  0.504238  0.505010  1
  H  H9  1  0.964771  0.010042  0.989564  1
  O  O10  1  0.132910  0.555392  0.857003  1
  O  O11  1  0.045100  0.174842  0.317078  1
  O  O12  1  0.157464  0.829529  0.353740  1
  O  O13  1  0.260745  0.455789  0.439657  1
  O  O14  1  0.359587  0.052165  0.655297  1
  O  O15  1  0.541355  0.328252  0.815849  1
  O  O16  1  0.239346  0.940181  0.051175  1
  O  O17  1  0.331023  0.328859  0.136173  1
  O  O18  1  0.653177  0.673459  0.853051  1
  O  O19  1  0.747989  0.048187  0.939275  1
  O  O20  1  0.489119  0.676652  0.190626  1
  O  O21  1  0.634281  0.946449  0.354294  1
  O  O22  1  0.742024  0.559734  0.553331  1
  O  O23  1  0.832260  0.171941  0.637843  1
  O  O24  1  0.986988  0.822892  0.687410  1
  O  O25  1  0.861477  0.449155  0.156186  1
