# generated using pymatgen
data_Fe7(PO5)4
_symmetry_space_group_name_H-M   'P 1'
_cell_length_a   7.36920604
_cell_length_b   7.40731105
_cell_length_c   15.21372081
_cell_angle_alpha   90.00000000
_cell_angle_beta   90.00000000
_cell_angle_gamma   61.93719482
_symmetry_Int_Tables_number   1
_chemical_formula_structural   Fe7(PO5)4
_chemical_formula_sum   'Fe14 P8 O40'
_cell_volume   732.82148338
_cell_formula_units_Z   2
loop_
 _symmetry_equiv_pos_site_id
 _symmetry_equiv_pos_as_xyz
  1  'x, y, z'
loop_
 _atom_site_type_symbol
 _atom_site_label
 _atom_site_symmetry_multiplicity
 _atom_site_fract_x
 _atom_site_fract_y
 _atom_site_fract_z
 _atom_site_occupancy
  Fe  Fe0  1  0.500000  0.000000  0.000000  1
  Fe  Fe1  1  0.719251  0.270964  0.112970  1
  Fe  Fe2  1  0.239385  0.252780  0.126777  1
  Fe  Fe3  1  0.988382  0.014506  0.248773  1
  Fe  Fe4  1  0.719251  0.770964  0.387030  1
  Fe  Fe5  1  0.988382  0.514506  0.251227  1
  Fe  Fe6  1  0.760615  0.247220  0.626777  1
  Fe  Fe7  1  0.239385  0.752780  0.373223  1
  Fe  Fe8  1  0.500000  0.500000  0.500000  1
  Fe  Fe9  1  0.280749  0.229036  0.612970  1
  Fe  Fe10  1  0.011618  0.985494  0.751227  1
  Fe  Fe11  1  0.760615  0.747220  0.873223  1
  Fe  Fe12  1  0.011618  0.485494  0.748773  1
  Fe  Fe13  1  0.280749  0.729036  0.887030  1
  P  P14  1  0.998308  0.757502  0.062604  1
  P  P15  1  0.494215  0.247158  0.310584  1
  P  P16  1  0.494215  0.747158  0.189416  1
  P  P17  1  0.998308  0.257502  0.437396  1
  P  P18  1  0.505785  0.252842  0.810584  1
  P  P19  1  0.001692  0.742498  0.562604  1
  P  P20  1  0.505785  0.752842  0.689416  1
  P  P21  1  0.001692  0.242498  0.937396  1
  O  O22  1  0.808456  0.800256  0.003551  1
  O  O23  1  0.496558  0.221815  0.071982  1
  O  O24  1  0.932865  0.946070  0.123884  1
  O  O25  1  0.545647  0.558528  0.134701  1
  O  O26  1  0.678544  0.210471  0.249767  1
  O  O27  1  0.179974  0.715760  0.004041  1
  O  O28  1  0.932865  0.446070  0.376116  1
  O  O29  1  0.545647  0.058528  0.365299  1
  O  O30  1  0.051053  0.568770  0.123125  1
  O  O31  1  0.990297  0.258723  0.184787  1
  O  O32  1  0.302995  0.308100  0.249863  1
  O  O33  1  0.678544  0.710471  0.250233  1
  O  O34  1  0.431283  0.932827  0.126929  1
  O  O35  1  0.431283  0.432827  0.373071  1
  O  O36  1  0.302995  0.808100  0.250136  1
  O  O37  1  0.808456  0.300256  0.496449  1
  O  O38  1  0.051053  0.068770  0.376875  1
  O  O39  1  0.990297  0.758723  0.315213  1
  O  O40  1  0.503442  0.278185  0.571982  1
  O  O41  1  0.496558  0.721815  0.428018  1
  O  O42  1  0.179974  0.215760  0.495959  1
  O  O43  1  0.820026  0.784240  0.504041  1
  O  O44  1  0.948947  0.931230  0.623125  1
  O  O45  1  0.191544  0.699744  0.503551  1
  O  O46  1  0.697005  0.191900  0.749864  1
  O  O47  1  0.568717  0.567173  0.626929  1
  O  O48  1  0.067135  0.553930  0.623884  1
  O  O49  1  0.568717  0.067173  0.873071  1
  O  O50  1  0.321456  0.289529  0.749767  1
  O  O51  1  0.454353  0.941472  0.634701  1
  O  O52  1  0.009703  0.241277  0.684787  1
  O  O53  1  0.948947  0.431230  0.876875  1
  O  O54  1  0.697005  0.691900  0.750136  1
  O  O55  1  0.454353  0.441472  0.865299  1
  O  O56  1  0.820026  0.284240  0.995959  1
  O  O57  1  0.321456  0.789529  0.750233  1
  O  O58  1  0.067135  0.053930  0.876116  1
  O  O59  1  0.191544  0.199744  0.996449  1
  O  O60  1  0.503442  0.778185  0.928018  1
  O  O61  1  0.009703  0.741277  0.815213  1
