# generated using pymatgen
data_Na3CoSiCO7
_symmetry_space_group_name_H-M   'P 1'
_cell_length_a   9.12812382
_cell_length_b   6.42675438
_cell_length_c   5.19482281
_cell_angle_alpha   90.00000000
_cell_angle_beta   88.74002121
_cell_angle_gamma   90.00000000
_symmetry_Int_Tables_number   1
_chemical_formula_structural   Na3CoSiCO7
_chemical_formula_sum   'Na6 Co2 Si2 C2 O14'
_cell_volume   304.67649048
_cell_formula_units_Z   2
loop_
 _symmetry_equiv_pos_site_id
 _symmetry_equiv_pos_as_xyz
  1  'x, y, z'
loop_
 _atom_site_type_symbol
 _atom_site_label
 _atom_site_symmetry_multiplicity
 _atom_site_fract_x
 _atom_site_fract_y
 _atom_site_fract_z
 _atom_site_occupancy
  Na  Na0  1  0.084397  0.250000  0.761081  1
  Na  Na1  1  0.260981  0.003819  0.252255  1
  Na  Na2  1  0.260981  0.496181  0.252255  1
  Na  Na3  1  0.739019  0.503819  0.747745  1
  Na  Na4  1  0.739019  0.996181  0.747745  1
  Na  Na5  1  0.915603  0.750000  0.238919  1
  Co  Co6  1  0.357268  0.750000  0.794936  1
  Co  Co7  1  0.642732  0.250000  0.205064  1
  Si  Si8  1  0.421195  0.250000  0.700095  1
  Si  Si9  1  0.578805  0.750000  0.299905  1
  C  C10  1  0.061265  0.750000  0.730210  1
  C  C11  1  0.938735  0.250000  0.269790  1
  O  O12  1  0.080669  0.250000  0.281930  1
  O  O13  1  0.123159  0.750000  0.953648  1
  O  O14  1  0.141536  0.750000  0.522147  1
  O  O15  1  0.317275  0.045898  0.773787  1
  O  O16  1  0.317275  0.454102  0.773787  1
  O  O17  1  0.451054  0.250000  0.385136  1
  O  O18  1  0.424323  0.750000  0.149510  1
  O  O19  1  0.575677  0.250000  0.850490  1
  O  O20  1  0.548946  0.750000  0.614864  1
  O  O21  1  0.682725  0.545898  0.226213  1
  O  O22  1  0.682725  0.954102  0.226213  1
  O  O23  1  0.858464  0.250000  0.477853  1
  O  O24  1  0.876841  0.250000  0.046352  1
  O  O25  1  0.919331  0.750000  0.718070  1
