# generated using pymatgen
data_Li4Cr5Fe3O16
_symmetry_space_group_name_H-M   'P 1'
_cell_length_a   5.89252847
_cell_length_b   5.87690086
_cell_length_c   9.51771901
_cell_angle_alpha   89.99425168
_cell_angle_beta   90.95030669
_cell_angle_gamma   119.91699835
_symmetry_Int_Tables_number   1
_chemical_formula_structural   Li4Cr5Fe3O16
_chemical_formula_sum   'Li4 Cr5 Fe3 O16'
_cell_volume   285.62561115
_cell_formula_units_Z   1
loop_
 _symmetry_equiv_pos_site_id
 _symmetry_equiv_pos_as_xyz
  1  'x, y, z'
loop_
 _atom_site_type_symbol
 _atom_site_label
 _atom_site_symmetry_multiplicity
 _atom_site_fract_x
 _atom_site_fract_y
 _atom_site_fract_z
 _atom_site_occupancy
  Li  Li0  1  0.335086  0.667525  0.893705  1
  Li  Li1  1  0.997109  0.998601  0.996513  1
  Li  Li2  1  0.997716  0.998885  0.495493  1
  Li  Li3  1  0.665441  0.332736  0.395102  1
  Cr  Cr4  1  0.165765  0.830012  0.210318  1
  Cr  Cr5  1  0.337446  0.668753  0.485419  1
  Cr  Cr6  1  0.165773  0.335794  0.210322  1
  Cr  Cr7  1  0.335675  0.167846  0.707907  1
  Cr  Cr8  1  0.671239  0.335632  0.982835  1
  Fe  Fe9  1  0.656639  0.828334  0.217167  1
  Fe  Fe10  1  0.828499  0.660428  0.714949  1
  Fe  Fe11  1  0.828505  0.168094  0.714976  1
  O  O12  1  0.177534  0.845970  0.602817  1
  O  O13  1  0.042990  0.521487  0.334188  1
  O  O14  1  0.328773  0.664400  0.102319  1
  O  O15  1  0.002849  0.001396  0.309701  1
  O  O16  1  0.005472  0.002691  0.810512  1
  O  O17  1  0.177502  0.331586  0.602834  1
  O  O18  1  0.468704  0.959631  0.340601  1
  O  O19  1  0.468654  0.509051  0.340631  1
  O  O20  1  0.329011  0.164531  0.108725  1
  O  O21  1  0.672136  0.836103  0.598563  1
  O  O22  1  0.510886  0.470361  0.839968  1
  O  O23  1  0.510913  0.040531  0.839977  1
  O  O24  1  0.664187  0.332147  0.602261  1
  O  O25  1  0.846811  0.670423  0.103405  1
  O  O26  1  0.961839  0.480933  0.843225  1
  O  O27  1  0.846845  0.176416  0.103408  1
