# generated using pymatgen
data_Na3NiBSO7
_symmetry_space_group_name_H-M   'P 1'
_cell_length_a   8.96410741
_cell_length_b   6.74605816
_cell_length_c   5.24783099
_cell_angle_alpha   90.00000000
_cell_angle_beta   88.73727554
_cell_angle_gamma   90.00000000
_symmetry_Int_Tables_number   1
_chemical_formula_structural   Na3NiBSO7
_chemical_formula_sum   'Na6 Ni2 B2 S2 O14'
_cell_volume   317.27181649
_cell_formula_units_Z   2
loop_
 _symmetry_equiv_pos_site_id
 _symmetry_equiv_pos_as_xyz
  1  'x, y, z'
loop_
 _atom_site_type_symbol
 _atom_site_label
 _atom_site_symmetry_multiplicity
 _atom_site_fract_x
 _atom_site_fract_y
 _atom_site_fract_z
 _atom_site_occupancy
  Na  Na0  1  0.064553  0.250000  0.751379  1
  Na  Na1  1  0.242144  0.992405  0.246045  1
  Na  Na2  1  0.242144  0.507595  0.246045  1
  Na  Na3  1  0.757856  0.492405  0.753955  1
  Na  Na4  1  0.757856  0.007595  0.753955  1
  Na  Na5  1  0.935447  0.750000  0.248621  1
  Ni  Ni6  1  0.336070  0.750000  0.770263  1
  Ni  Ni7  1  0.663930  0.250000  0.229737  1
  B  B8  1  0.066269  0.750000  0.734927  1
  B  B9  1  0.933731  0.250000  0.265073  1
  S  S10  1  0.419390  0.250000  0.709781  1
  S  S11  1  0.580610  0.750000  0.290219  1
  O  O12  1  0.084385  0.250000  0.287975  1
  O  O13  1  0.139147  0.750000  0.968285  1
  O  O14  1  0.166305  0.750000  0.525807  1
  O  O15  1  0.326844  0.073453  0.778071  1
  O  O16  1  0.326844  0.426547  0.778071  1
  O  O17  1  0.453631  0.250000  0.428022  1
  O  O18  1  0.438325  0.750000  0.150358  1
  O  O19  1  0.561675  0.250000  0.849642  1
  O  O20  1  0.546369  0.750000  0.571978  1
  O  O21  1  0.673156  0.573453  0.221929  1
  O  O22  1  0.673156  0.926547  0.221929  1
  O  O23  1  0.833695  0.250000  0.474193  1
  O  O24  1  0.860853  0.250000  0.031715  1
  O  O25  1  0.915615  0.750000  0.712025  1
