# generated using pymatgen
data_InH8C8N4Cl7
_symmetry_space_group_name_H-M   'P 1'
_cell_length_a   11.19050449
_cell_length_b   13.55317914
_cell_length_c   8.25586104
_cell_angle_alpha   90.00000000
_cell_angle_beta   90.00000000
_cell_angle_gamma   90.00000000
_symmetry_Int_Tables_number   1
_chemical_formula_structural   InH8C8N4Cl7
_chemical_formula_sum   'In2 H16 C16 N8 Cl14'
_cell_volume   1252.14095000
_cell_formula_units_Z   2
loop_
 _symmetry_equiv_pos_site_id
 _symmetry_equiv_pos_as_xyz
  1  'x, y, z'
loop_
 _atom_site_type_symbol
 _atom_site_label
 _atom_site_symmetry_multiplicity
 _atom_site_fract_x
 _atom_site_fract_y
 _atom_site_fract_z
 _atom_site_occupancy
  In  In0  1  0.500000  0.500000  0.401576  1
  In  In1  1  0.000000  0.000000  0.598424  1
  H  H2  1  0.074880  0.530698  0.071181  1
  H  H3  1  0.925120  0.469302  0.071181  1
  H  H4  1  0.574880  0.969302  0.928819  1
  H  H5  1  0.425120  0.030698  0.928819  1
  H  H6  1  0.327784  0.558666  0.153898  1
  H  H7  1  0.672216  0.441334  0.153898  1
  H  H8  1  0.827784  0.941334  0.846102  1
  H  H9  1  0.172216  0.058666  0.846102  1
  H  H10  1  0.161552  0.842874  0.458953  1
  H  H11  1  0.838448  0.157126  0.458953  1
  H  H12  1  0.661552  0.657126  0.541047  1
  H  H13  1  0.338448  0.342874  0.541047  1
  H  H14  1  0.361369  0.736424  0.529215  1
  H  H15  1  0.638631  0.263576  0.529215  1
  H  H16  1  0.861369  0.763576  0.470785  1
  H  H17  1  0.138631  0.236424  0.470785  1
  C  C18  1  0.266474  0.691056  0.008412  1
  C  C19  1  0.733526  0.308944  0.008412  1
  C  C20  1  0.766474  0.808944  0.991588  1
  C  C21  1  0.233526  0.191056  0.991588  1
  C  C22  1  0.310893  0.610102  0.893270  1
  C  C23  1  0.689107  0.389898  0.893270  1
  C  C24  1  0.810893  0.889898  0.106730  1
  C  C25  1  0.189107  0.110102  0.106730  1
  C  C26  1  0.447501  0.880193  0.450017  1
  C  C27  1  0.552499  0.119807  0.450017  1
  C  C28  1  0.947501  0.619807  0.549983  1
  C  C29  1  0.052499  0.380193  0.549983  1
  C  C30  1  0.442905  0.877872  0.634260  1
  C  C31  1  0.557095  0.122128  0.634260  1
  C  C32  1  0.942905  0.622128  0.365740  1
  C  C33  1  0.057095  0.377872  0.365740  1
  N  N34  1  0.308742  0.603102  0.054480  1
  N  N35  1  0.691258  0.396898  0.054480  1
  N  N36  1  0.808742  0.896898  0.945520  1
  N  N37  1  0.191258  0.103102  0.945520  1
  N  N38  1  0.402522  0.805907  0.538007  1
  N  N39  1  0.597478  0.194093  0.538007  1
  N  N40  1  0.902522  0.694093  0.461993  1
  N  N41  1  0.097478  0.305907  0.461993  1
  Cl  Cl42  1  0.601092  0.628877  0.666238  1
  Cl  Cl43  1  0.398908  0.371123  0.666238  1
  Cl  Cl44  1  0.101092  0.871123  0.333762  1
  Cl  Cl45  1  0.898908  0.128877  0.333762  1
  Cl  Cl46  1  0.311433  0.585677  0.455480  1
  Cl  Cl47  1  0.688567  0.414323  0.455480  1
  Cl  Cl48  1  0.811433  0.914323  0.544520  1
  Cl  Cl49  1  0.188567  0.085677  0.544520  1
  Cl  Cl50  1  0.596921  0.621368  0.228686  1
  Cl  Cl51  1  0.403079  0.378632  0.228686  1
  Cl  Cl52  1  0.096921  0.878632  0.771314  1
  Cl  Cl53  1  0.903079  0.121368  0.771314  1
  Cl  Cl54  1  0.000000  0.500000  0.957351  1
  Cl  Cl55  1  0.500000  0.000000  0.042649  1
