# generated using pymatgen
data_Li2Mn3NiO8
_symmetry_space_group_name_H-M   'P 1'
_cell_length_a   8.27677995
_cell_length_b   8.28502574
_cell_length_c   8.31584635
_cell_angle_alpha   89.94279319
_cell_angle_beta   89.99172531
_cell_angle_gamma   89.99900402
_symmetry_Int_Tables_number   1
_chemical_formula_structural   Li2Mn3NiO8
_chemical_formula_sum   'Li8 Mn12 Ni4 O32'
_cell_volume   570.24502623
_cell_formula_units_Z   4
loop_
 _symmetry_equiv_pos_site_id
 _symmetry_equiv_pos_as_xyz
  1  'x, y, z'
loop_
 _atom_site_type_symbol
 _atom_site_label
 _atom_site_symmetry_multiplicity
 _atom_site_fract_x
 _atom_site_fract_y
 _atom_site_fract_z
 _atom_site_occupancy
  Li  Li0  1  0.125094  0.874551  0.375258  1
  Li  Li1  1  0.252992  0.752227  0.747506  1
  Li  Li2  1  0.247214  0.247916  0.247842  1
  Li  Li3  1  0.374800  0.125299  0.875026  1
  Li  Li4  1  0.623718  0.624767  0.625621  1
  Li  Li5  1  0.752516  0.747774  0.251970  1
  Li  Li6  1  0.747811  0.252522  0.752014  1
  Li  Li7  1  0.876321  0.375175  0.125558  1
  Mn  Mn8  1  0.124549  0.623762  0.121515  1
  Mn  Mn9  1  0.122925  0.377497  0.875363  1
  Mn  Mn10  1  0.122137  0.123323  0.624031  1
  Mn  Mn11  1  0.377689  0.877000  0.123920  1
  Mn  Mn12  1  0.377447  0.622415  0.375353  1
  Mn  Mn13  1  0.375822  0.376152  0.621438  1
  Mn  Mn14  1  0.622672  0.876786  0.877686  1
  Mn  Mn15  1  0.624682  0.123063  0.123870  1
  Mn  Mn16  1  0.623993  0.376385  0.376536  1
  Mn  Mn17  1  0.876054  0.623521  0.877176  1
  Mn  Mn18  1  0.875146  0.876979  0.624123  1
  Mn  Mn19  1  0.877255  0.123244  0.377637  1
  Ni  Ni20  1  0.996968  0.505785  0.496700  1
  Ni  Ni21  1  0.501940  0.494248  0.996846  1
  Ni  Ni22  1  0.496269  0.997311  0.502721  1
  Ni  Ni23  1  0.002970  0.002620  0.002959  1
  O  O24  1  0.103240  0.126655  0.394769  1
  O  O25  1  0.105418  0.897210  0.628447  1
  O  O26  1  0.112883  0.614105  0.885930  1
  O  O27  1  0.129372  0.393943  0.100457  1
  O  O28  1  0.121917  0.147445  0.860312  1
  O  O29  1  0.136679  0.361565  0.638339  1
  O  O30  1  0.139989  0.621700  0.350195  1
  O  O31  1  0.147725  0.861172  0.123704  1
  O  O32  1  0.352098  0.139007  0.623410  1
  O  O33  1  0.360348  0.377143  0.850117  1
  O  O34  1  0.363446  0.639024  0.138315  1
  O  O35  1  0.377952  0.852347  0.360251  1
  O  O36  1  0.371491  0.606006  0.600507  1
  O  O37  1  0.387421  0.385966  0.385847  1
  O  O38  1  0.394441  0.103015  0.128128  1
  O  O39  1  0.396696  0.873457  0.894706  1
  O  O40  1  0.602111  0.372049  0.605709  1
  O  O41  1  0.607496  0.602269  0.373054  1
  O  O42  1  0.614137  0.886896  0.113230  1
  O  O43  1  0.628023  0.106839  0.898543  1
  O  O44  1  0.624254  0.353026  0.139814  1
  O  O45  1  0.639285  0.138428  0.361166  1
  O  O46  1  0.637324  0.877463  0.648428  1
  O  O47  1  0.645841  0.639199  0.878589  1
  O  O48  1  0.854049  0.360935  0.377410  1
  O  O49  1  0.862403  0.122732  0.148454  1
  O  O50  1  0.860605  0.861602  0.861237  1
  O  O51  1  0.875277  0.646797  0.640570  1
  O  O52  1  0.872122  0.893156  0.398782  1
  O  O53  1  0.885780  0.113230  0.613204  1
  O  O54  1  0.892869  0.397672  0.873540  1
  O  O55  1  0.898325  0.627697  0.106243  1
