# generated using pymatgen
data_Li2SiNiO4
_symmetry_space_group_name_H-M   'P 1'
_cell_length_a   4.97647567
_cell_length_b   6.36139664
_cell_length_c   10.86224358
_cell_angle_alpha   88.30356647
_cell_angle_beta   90.00000000
_cell_angle_gamma   90.00000000
_symmetry_Int_Tables_number   1
_chemical_formula_structural   Li2SiNiO4
_chemical_formula_sum   'Li8 Si4 Ni4 O16'
_cell_volume   343.71897411
_cell_formula_units_Z   4
loop_
 _symmetry_equiv_pos_site_id
 _symmetry_equiv_pos_as_xyz
  1  'x, y, z'
loop_
 _atom_site_type_symbol
 _atom_site_label
 _atom_site_symmetry_multiplicity
 _atom_site_fract_x
 _atom_site_fract_y
 _atom_site_fract_z
 _atom_site_occupancy
  Li  Li0  1  0.806815  0.991958  0.914896  1
  Li  Li1  1  0.693185  0.991958  0.414896  1
  Li  Li2  1  0.803511  0.235845  0.671781  1
  Li  Li3  1  0.696489  0.235845  0.171781  1
  Li  Li4  1  0.303451  0.761593  0.828387  1
  Li  Li5  1  0.196549  0.761593  0.328387  1
  Li  Li6  1  0.307162  0.005494  0.585266  1
  Li  Li7  1  0.192838  0.005494  0.085266  1
  Si  Si8  1  0.306892  0.236470  0.833744  1
  Si  Si9  1  0.193108  0.236470  0.333744  1
  Si  Si10  1  0.807200  0.760864  0.666484  1
  Si  Si11  1  0.692800  0.760864  0.166484  1
  Ni  Ni12  1  0.790026  0.493275  0.910170  1
  Ni  Ni13  1  0.709974  0.493275  0.410170  1
  Ni  Ni14  1  0.290277  0.504059  0.590029  1
  Ni  Ni15  1  0.209723  0.504059  0.090029  1
  O  O16  1  0.203206  0.025006  0.903467  1
  O  O17  1  0.296794  0.025006  0.403467  1
  O  O18  1  0.640417  0.248269  0.835342  1
  O  O19  1  0.859583  0.248269  0.335342  1
  O  O20  1  0.204488  0.252062  0.688253  1
  O  O21  1  0.295512  0.252062  0.188253  1
  O  O22  1  0.195329  0.452321  0.905912  1
  O  O23  1  0.304671  0.452321  0.405912  1
  O  O24  1  0.695662  0.545135  0.594283  1
  O  O25  1  0.804338  0.545135  0.094283  1
  O  O26  1  0.140566  0.749165  0.664826  1
  O  O27  1  0.359434  0.749165  0.164826  1
  O  O28  1  0.704549  0.745325  0.811837  1
  O  O29  1  0.795451  0.745325  0.311837  1
  O  O30  1  0.703417  0.972735  0.596631  1
  O  O31  1  0.796583  0.972735  0.096631  1
