# generated using pymatgen
data_Li5V3P8O29
_symmetry_space_group_name_H-M   'P 1'
_cell_length_a   9.79074217
_cell_length_b   9.80038661
_cell_length_c   14.10371735
_cell_angle_alpha   90.44155215
_cell_angle_beta   90.62713019
_cell_angle_gamma   60.21795035
_symmetry_Int_Tables_number   1
_chemical_formula_structural   Li5V3P8O29
_chemical_formula_sum   'Li10 V6 P16 O58'
_cell_volume   1174.47876185
_cell_formula_units_Z   2
loop_
 _symmetry_equiv_pos_site_id
 _symmetry_equiv_pos_as_xyz
  1  'x, y, z'
loop_
 _atom_site_type_symbol
 _atom_site_label
 _atom_site_symmetry_multiplicity
 _atom_site_fract_x
 _atom_site_fract_y
 _atom_site_fract_z
 _atom_site_occupancy
  Li  Li0  1  0.909359  0.320727  0.563450  1
  Li  Li1  1  0.681034  0.673150  0.888758  1
  Li  Li2  1  0.767054  0.321724  0.058927  1
  Li  Li3  1  0.321115  0.910375  0.060773  1
  Li  Li4  1  0.686215  0.223108  0.443151  1
  Li  Li5  1  0.317978  0.771100  0.563342  1
  Li  Li6  1  0.669485  0.095353  0.937174  1
  Li  Li7  1  0.085124  0.689768  0.439913  1
  Li  Li8  1  0.227883  0.091802  0.443129  1
  Li  Li9  1  0.035947  0.936619  0.994578  1
  V  V10  1  0.566187  0.434347  0.249825  1
  V  V11  1  0.427172  0.563953  0.753135  1
  V  V12  1  0.568384  0.997562  0.744781  1
  V  V13  1  0.434376  0.000793  0.250298  1
  V  V14  1  0.996276  0.568419  0.241383  1
  V  V15  1  0.003787  0.434924  0.756798  1
  P  P16  1  0.914955  0.782554  0.840279  1
  P  P17  1  0.774445  0.913088  0.335716  1
  P  P18  1  0.914039  0.322024  0.344906  1
  P  P19  1  0.663744  0.664198  0.126148  1
  P  P20  1  0.662985  0.661523  0.631216  1
  P  P21  1  0.773031  0.318523  0.841281  1
  P  P22  1  0.682221  0.230236  0.658592  1
  P  P23  1  0.318224  0.907892  0.842834  1
  P  P24  1  0.683355  0.087476  0.153711  1
  P  P25  1  0.323276  0.766612  0.344388  1
  P  P26  1  0.222953  0.692190  0.161349  1
  P  P27  1  0.328492  0.338025  0.367203  1
  P  P28  1  0.339320  0.326619  0.871955  1
  P  P29  1  0.083589  0.682804  0.656341  1
  P  P30  1  0.228868  0.089851  0.660912  1
  P  P31  1  0.082371  0.222675  0.160936  1
  O  O32  1  0.012883  0.756404  0.563798  1
  O  O33  1  0.917967  0.743213  0.336197  1
  O  O34  1  0.763864  0.022172  0.061509  1
  O  O35  1  0.745104  0.922873  0.838774  1
  O  O36  1  0.901051  0.630202  0.832387  1
  O  O37  1  0.811251  0.669970  0.171886  1
  O  O38  1  0.904110  0.480218  0.320629  1
  O  O39  1  0.990027  0.212993  0.079408  1
  O  O40  1  0.912579  0.347286  0.843265  1
  O  O41  1  0.657957  0.812672  0.676786  1
  O  O42  1  0.620295  0.904892  0.319428  1
  O  O43  1  0.812655  0.516473  0.674131  1
  O  O44  1  0.673585  0.659586  0.019947  1
  O  O45  1  0.656968  0.663082  0.525820  1
  O  O46  1  0.676912  0.509118  0.163696  1
  O  O47  1  0.480540  0.896906  0.834218  1
  O  O48  1  0.511601  0.810644  0.162301  1
  O  O49  1  0.749364  0.337272  0.342811  1
  O  O50  1  0.793543  0.212477  0.748998  1
  O  O51  1  0.756124  0.247742  0.569943  1
  O  O52  1  0.763597  0.234869  0.927982  1
  O  O53  1  0.620690  0.482142  0.828027  1
  O  O54  1  0.511544  0.664317  0.672435  1
  O  O55  1  0.659944  0.256805  0.167219  1
  O  O56  1  0.483578  0.620530  0.320727  1
  O  O57  1  0.337746  0.916503  0.342694  1
  O  O58  1  0.799173  0.987435  0.239768  1
  O  O59  1  0.768373  0.006789  0.419915  1
  O  O60  1  0.241149  0.998646  0.571497  1
  O  O61  1  0.657997  0.089168  0.659190  1
  O  O62  1  0.524250  0.382401  0.679505  1
  O  O63  1  0.344687  0.737383  0.832693  1
  O  O64  1  0.481375  0.333039  0.329401  1
  O  O65  1  0.379522  0.539103  0.167189  1
  O  O66  1  0.203188  0.801116  0.082118  1
  O  O67  1  0.254664  0.747904  0.434916  1
  O  O68  1  0.203282  0.787562  0.259731  1
  O  O69  1  0.254387  0.660285  0.665320  1
  O  O70  1  0.487130  0.178678  0.830412  1
  O  O71  1  0.527273  0.091162  0.169240  1
  O  O72  1  0.338462  0.475681  0.824464  1
  O  O73  1  0.349975  0.332147  0.976752  1
  O  O74  1  0.318674  0.349684  0.472681  1
  O  O75  1  0.181372  0.485039  0.319642  1
  O  O76  1  0.374936  0.106356  0.676742  1
  O  O77  1  0.326397  0.186487  0.330400  1
  O  O78  1  0.082422  0.659137  0.163946  1
  O  O79  1  0.989680  0.798652  0.741976  1
  O  O80  1  0.007503  0.790787  0.921765  1
  O  O81  1  0.091480  0.524879  0.675821  1
  O  O82  1  0.188909  0.331118  0.829841  1
  O  O83  1  0.082513  0.381672  0.169880  1
  O  O84  1  0.254424  0.083962  0.161652  1
  O  O85  1  0.230527  0.978763  0.932580  1
  O  O86  1  0.212711  0.997089  0.751484  1
  O  O87  1  0.078049  0.251403  0.663185  1
  O  O88  1  0.001481  0.251754  0.436063  1
  O  O89  1  0.011701  0.202991  0.259869  1
