# generated using pymatgen
data_V3O5F
_symmetry_space_group_name_H-M   'P 1'
_cell_length_a   10.52648617
_cell_length_b   6.42349929
_cell_length_c   2.99171084
_cell_angle_alpha   90.00000000
_cell_angle_beta   90.00000000
_cell_angle_gamma   107.76702470
_symmetry_Int_Tables_number   1
_chemical_formula_structural   V3O5F
_chemical_formula_sum   'V6 O10 F2'
_cell_volume   192.64194841
_cell_formula_units_Z   2
loop_
 _symmetry_equiv_pos_site_id
 _symmetry_equiv_pos_as_xyz
  1  'x, y, z'
loop_
 _atom_site_type_symbol
 _atom_site_label
 _atom_site_symmetry_multiplicity
 _atom_site_fract_x
 _atom_site_fract_y
 _atom_site_fract_z
 _atom_site_occupancy
  V  V0  1  0.022543  0.011290  0.000000  1
  V  V1  1  0.344606  0.172258  0.500000  1
  V  V2  1  0.988689  0.494343  0.500000  1
  V  V3  1  0.310792  0.655347  0.000000  1
  V  V4  1  0.666634  0.333331  0.000000  1
  V  V5  1  0.666662  0.833352  0.500000  1
  O  O6  1  0.140201  0.070113  0.500000  1
  O  O7  1  0.997719  0.289558  0.000000  1
  O  O8  1  0.997733  0.708164  0.000000  1
  O  O9  1  0.335625  0.377075  0.000000  1
  O  O10  1  0.666697  0.030133  0.000000  1
  O  O11  1  0.193151  0.596521  0.500000  1
  O  O12  1  0.537483  0.268725  0.500000  1
  O  O13  1  0.795847  0.397939  0.500000  1
  O  O14  1  0.335608  0.958498  0.000000  1
  O  O15  1  0.666677  0.636569  0.000000  1
  F  F16  1  0.458785  0.729448  0.500000  1
  F  F17  1  0.874549  0.937334  0.500000  1
