# generated using pymatgen
data_BaNa3PCO7
_symmetry_space_group_name_H-M   'P 1'
_cell_length_a   9.70654352
_cell_length_b   7.64667611
_cell_length_c   5.38983591
_cell_angle_alpha   90.00000000
_cell_angle_beta   89.67488685
_cell_angle_gamma   90.00000000
_symmetry_Int_Tables_number   1
_chemical_formula_structural   BaNa3PCO7
_chemical_formula_sum   'Ba2 Na6 P2 C2 O14'
_cell_volume   400.04224288
_cell_formula_units_Z   2
loop_
 _symmetry_equiv_pos_site_id
 _symmetry_equiv_pos_as_xyz
  1  'x, y, z'
loop_
 _atom_site_type_symbol
 _atom_site_label
 _atom_site_symmetry_multiplicity
 _atom_site_fract_x
 _atom_site_fract_y
 _atom_site_fract_z
 _atom_site_occupancy
  Ba  Ba0  1  0.374681  0.750000  0.760135  1
  Ba  Ba1  1  0.625319  0.250000  0.239865  1
  Na  Na2  1  0.081528  0.250000  0.756305  1
  Na  Na3  1  0.246494  0.023307  0.237465  1
  Na  Na4  1  0.246494  0.476693  0.237465  1
  Na  Na5  1  0.753506  0.523307  0.762535  1
  Na  Na6  1  0.753506  0.976693  0.762535  1
  Na  Na7  1  0.918472  0.750000  0.243695  1
  P  P8  1  0.392551  0.250000  0.704997  1
  P  P9  1  0.607449  0.750000  0.295003  1
  C  C10  1  0.046639  0.750000  0.733697  1
  C  C11  1  0.953361  0.250000  0.266303  1
  O  O12  1  0.086948  0.250000  0.284182  1
  O  O13  1  0.104260  0.750000  0.952467  1
  O  O14  1  0.121582  0.750000  0.530636  1
  O  O15  1  0.320916  0.086083  0.819030  1
  O  O16  1  0.320916  0.413917  0.819030  1
  O  O17  1  0.372749  0.250000  0.418248  1
  O  O18  1  0.447480  0.750000  0.247840  1
  O  O19  1  0.552520  0.250000  0.752160  1
  O  O20  1  0.627251  0.750000  0.581752  1
  O  O21  1  0.679084  0.586083  0.180970  1
  O  O22  1  0.679084  0.913917  0.180970  1
  O  O23  1  0.878418  0.250000  0.469364  1
  O  O24  1  0.895740  0.250000  0.047533  1
  O  O25  1  0.913052  0.750000  0.715818  1
