# generated using pymatgen
data_LiFe2(BO3)2
_symmetry_space_group_name_H-M   'P 1'
_cell_length_a   5.25187124
_cell_length_b   9.10990939
_cell_length_c   11.31420297
_cell_angle_alpha   66.88456973
_cell_angle_beta   76.84655984
_cell_angle_gamma   89.27219398
_symmetry_Int_Tables_number   1
_chemical_formula_structural   LiFe2(BO3)2
_chemical_formula_sum   'Li4 Fe8 B8 O24'
_cell_volume   483.01844734
_cell_formula_units_Z   4
loop_
 _symmetry_equiv_pos_site_id
 _symmetry_equiv_pos_as_xyz
  1  'x, y, z'
loop_
 _atom_site_type_symbol
 _atom_site_label
 _atom_site_symmetry_multiplicity
 _atom_site_fract_x
 _atom_site_fract_y
 _atom_site_fract_z
 _atom_site_occupancy
  Li  Li0  1  0.971804  0.967991  0.400123  1
  Li  Li1  1  0.468471  0.465260  0.414466  1
  Li  Li2  1  0.016189  0.992474  0.662838  1
  Li  Li3  1  0.253307  0.260399  0.141023  1
  Fe  Fe4  1  0.963715  0.650751  0.378036  1
  Fe  Fe5  1  0.727007  0.071062  0.876120  1
  Fe  Fe6  1  0.535079  0.834612  0.629250  1
  Fe  Fe7  1  0.764651  0.438656  0.132604  1
  Fe  Fe8  1  0.232885  0.566125  0.872152  1
  Fe  Fe9  1  0.469144  0.148016  0.385838  1
  Fe  Fe10  1  0.021910  0.350536  0.631321  1
  Fe  Fe11  1  0.266037  0.926817  0.130452  1
  B  B12  1  0.982564  0.318034  0.371448  1
  B  B13  1  0.725860  0.392109  0.887987  1
  B  B14  1  0.513169  0.178032  0.629129  1
  B  B15  1  0.764555  0.107921  0.128254  1
  B  B16  1  0.482116  0.815383  0.371913  1
  B  B17  1  0.234461  0.893873  0.879774  1
  B  B18  1  0.030176  0.689950  0.622475  1
  B  B19  1  0.265665  0.599757  0.131140  1
  O  O20  1  0.993852  0.932502  0.856201  1
  O  O21  1  0.858540  0.285536  0.842062  1
  O  O22  1  0.864002  0.483934  0.932028  1
  O  O23  1  0.923322  0.835904  0.602551  1
  O  O24  1  0.940691  0.583924  0.580580  1
  O  O25  1  0.743571  0.147352  0.677854  1
  O  O26  1  0.739936  0.346884  0.334380  1
  O  O27  1  0.464177  0.403672  0.898032  1
  O  O28  1  0.362787  0.775886  0.849703  1
  O  O29  1  0.588087  0.921190  0.412732  1
  O  O30  1  0.591807  0.679129  0.375298  1
  O  O31  1  0.361129  0.980843  0.932226  1
  O  O32  1  0.635938  0.017377  0.080565  1
  O  O33  1  0.401185  0.317586  0.609810  1
  O  O34  1  0.411681  0.062601  0.595208  1
  O  O35  1  0.623991  0.221268  0.163909  1
  O  O36  1  0.518800  0.583233  0.139066  1
  O  O37  1  0.243680  0.656548  0.682750  1
  O  O38  1  0.247121  0.852727  0.326572  1
  O  O39  1  0.087504  0.420626  0.413076  1
  O  O40  1  0.105131  0.186853  0.361718  1
  O  O41  1  0.141398  0.493509  0.094044  1
  O  O42  1  0.125879  0.714518  0.162532  1
  O  O43  1  0.018232  0.087343  0.139246  1
