# generated using pymatgen
data_Sr2YI7
_symmetry_space_group_name_H-M   'P 1'
_cell_length_a   7.80737477
_cell_length_b   17.30452821
_cell_length_c   11.96543308
_cell_angle_alpha   90.00000000
_cell_angle_beta   89.35679335
_cell_angle_gamma   90.00000000
_symmetry_Int_Tables_number   1
_chemical_formula_structural   Sr2YI7
_chemical_formula_sum   'Sr8 Y4 I28'
_cell_volume   1616.46328734
_cell_formula_units_Z   4
loop_
 _symmetry_equiv_pos_site_id
 _symmetry_equiv_pos_as_xyz
  1  'x, y, z'
loop_
 _atom_site_type_symbol
 _atom_site_label
 _atom_site_symmetry_multiplicity
 _atom_site_fract_x
 _atom_site_fract_y
 _atom_site_fract_z
 _atom_site_occupancy
  Sr  Sr0  1  0.279054  0.557201  0.675473  1
  Sr  Sr1  1  0.285783  0.218953  0.548901  1
  Sr  Sr2  1  0.279054  0.942799  0.175473  1
  Sr  Sr3  1  0.285783  0.281047  0.048901  1
  Sr  Sr4  1  0.714217  0.718953  0.951099  1
  Sr  Sr5  1  0.720946  0.057201  0.824527  1
  Sr  Sr6  1  0.714217  0.781047  0.451099  1
  Sr  Sr7  1  0.720946  0.442799  0.324527  1
  Y  Y8  1  0.216993  0.868472  0.722449  1
  Y  Y9  1  0.216993  0.631528  0.222449  1
  Y  Y10  1  0.783007  0.368472  0.777551  1
  Y  Y11  1  0.783007  0.131528  0.277551  1
  I  I12  1  0.996489  0.215251  0.780379  1
  I  I13  1  0.004246  0.396619  0.564052  1
  I  I14  1  0.996489  0.284749  0.280379  1
  I  I15  1  0.004246  0.103381  0.064052  1
  I  I16  1  0.135305  0.427313  0.877994  1
  I  I17  1  0.135305  0.072687  0.377994  1
  I  I18  1  0.306532  0.642053  0.971796  1
  I  I19  1  0.306532  0.857947  0.471796  1
  I  I20  1  0.316491  0.039392  0.709767  1
  I  I21  1  0.316491  0.460608  0.209767  1
  I  I22  1  0.492837  0.893723  0.924406  1
  I  I23  1  0.502676  0.738423  0.700140  1
  I  I24  1  0.492837  0.606277  0.424406  1
  I  I25  1  0.502676  0.761577  0.200140  1
  I  I26  1  0.497324  0.238423  0.799860  1
  I  I27  1  0.507162  0.393723  0.575594  1
  I  I28  1  0.497324  0.261577  0.299860  1
  I  I29  1  0.507162  0.106277  0.075594  1
  I  I30  1  0.683509  0.539392  0.790233  1
  I  I31  1  0.683509  0.960608  0.290233  1
  I  I32  1  0.693468  0.142053  0.528204  1
  I  I33  1  0.693468  0.357947  0.028204  1
  I  I34  1  0.864695  0.927313  0.622006  1
  I  I35  1  0.864695  0.572687  0.122006  1
  I  I36  1  0.995754  0.896619  0.935948  1
  I  I37  1  0.003511  0.715251  0.719621  1
  I  I38  1  0.995754  0.603381  0.435948  1
  I  I39  1  0.003511  0.784749  0.219621  1
