# generated using pymatgen
data_Na3Mn2P2(CO7)2
_symmetry_space_group_name_H-M   'P 1'
_cell_length_a   8.98087399
_cell_length_b   6.57844405
_cell_length_c   10.38662615
_cell_angle_alpha   89.61763352
_cell_angle_beta   88.50651607
_cell_angle_gamma   91.23872706
_symmetry_Int_Tables_number   1
_chemical_formula_structural   Na3Mn2P2(CO7)2
_chemical_formula_sum   'Na6 Mn4 P4 C4 O28'
_cell_volume   613.27581526
_cell_formula_units_Z   2
loop_
 _symmetry_equiv_pos_site_id
 _symmetry_equiv_pos_as_xyz
  1  'x, y, z'
loop_
 _atom_site_type_symbol
 _atom_site_label
 _atom_site_symmetry_multiplicity
 _atom_site_fract_x
 _atom_site_fract_y
 _atom_site_fract_z
 _atom_site_occupancy
  Na  Na0  1  0.240116  0.004911  0.618942  1
  Na  Na1  1  0.239119  0.486850  0.624857  1
  Na  Na2  1  0.241834  0.024686  0.121720  1
  Na  Na3  1  0.760881  0.513150  0.875143  1
  Na  Na4  1  0.759884  0.995089  0.881058  1
  Na  Na5  1  0.758166  0.975314  0.378280  1
  Mn  Mn6  1  0.345642  0.743885  0.896243  1
  Mn  Mn7  1  0.348353  0.742532  0.388468  1
  Mn  Mn8  1  0.654358  0.256115  0.603757  1
  Mn  Mn9  1  0.651647  0.257468  0.111532  1
  P  P10  1  0.425644  0.249135  0.853286  1
  P  P11  1  0.428063  0.245955  0.360030  1
  P  P12  1  0.574356  0.750865  0.646714  1
  P  P13  1  0.571937  0.754045  0.139970  1
  C  C14  1  0.076771  0.753214  0.865733  1
  C  C15  1  0.077662  0.746206  0.365042  1
  C  C16  1  0.923229  0.246786  0.634267  1
  C  C17  1  0.922338  0.253794  0.134958  1
  O  O18  1  0.060457  0.240276  0.649032  1
  O  O19  1  0.058649  0.246595  0.144835  1
  O  O20  1  0.141293  0.751387  0.976960  1
  O  O21  1  0.146771  0.736396  0.476875  1
  O  O22  1  0.175592  0.747069  0.768739  1
  O  O23  1  0.175556  0.749398  0.268228  1
  O  O24  1  0.327171  0.060854  0.889964  1
  O  O25  1  0.330202  0.436243  0.879472  1
  O  O26  1  0.326705  0.058063  0.395130  1
  O  O27  1  0.336333  0.432331  0.399716  1
  O  O28  1  0.463189  0.241788  0.703989  1
  O  O29  1  0.425806  0.747090  0.573680  1
  O  O30  1  0.465644  0.242408  0.212681  1
  O  O31  1  0.422776  0.761868  0.069335  1
  O  O32  1  0.574194  0.252910  0.926320  1
  O  O33  1  0.536811  0.758212  0.796011  1
  O  O34  1  0.577224  0.238132  0.430665  1
  O  O35  1  0.534356  0.757592  0.287319  1
  O  O36  1  0.669798  0.563757  0.620528  1
  O  O37  1  0.672829  0.939146  0.610036  1
  O  O38  1  0.663667  0.567670  0.100284  1
  O  O39  1  0.673295  0.941937  0.104870  1
  O  O40  1  0.824408  0.252931  0.731261  1
  O  O41  1  0.824444  0.250602  0.231772  1
  O  O42  1  0.858707  0.248613  0.523040  1
  O  O43  1  0.853229  0.263604  0.023125  1
  O  O44  1  0.939543  0.759724  0.850968  1
  O  O45  1  0.941351  0.753405  0.355165  1
