# generated using pymatgen
data_Li11V6O5F19
_symmetry_space_group_name_H-M   'P 1'
_cell_length_a   5.19940158
_cell_length_b   5.47607448
_cell_length_c   16.19173612
_cell_angle_alpha   79.94397151
_cell_angle_beta   90.39162189
_cell_angle_gamma   89.32845368
_symmetry_Int_Tables_number   1
_chemical_formula_structural   Li11V6O5F19
_chemical_formula_sum   'Li11 V6 O5 F19'
_cell_volume   453.88411623
_cell_formula_units_Z   1
loop_
 _symmetry_equiv_pos_site_id
 _symmetry_equiv_pos_as_xyz
  1  'x, y, z'
loop_
 _atom_site_type_symbol
 _atom_site_label
 _atom_site_symmetry_multiplicity
 _atom_site_fract_x
 _atom_site_fract_y
 _atom_site_fract_z
 _atom_site_occupancy
  Li  Li0  1  0.456260  0.277945  0.210658  1
  Li  Li1  1  0.988524  0.042633  0.769656  1
  Li  Li2  1  0.501742  0.204134  0.437039  1
  Li  Li3  1  0.979195  0.421852  0.093905  1
  Li  Li4  1  0.489550  0.121752  0.888943  1
  Li  Li5  1  0.478497  0.588512  0.532306  1
  Li  Li6  1  0.032414  0.777582  0.211368  1
  Li  Li7  1  0.000115  0.716348  0.437997  1
  Li  Li8  1  0.517223  0.572829  0.767500  1
  Li  Li9  1  0.501756  0.860149  0.107052  1
  Li  Li10  1  0.007929  0.567151  0.900315  1
  V  V11  1  0.020225  0.321232  0.338921  1
  V  V12  1  0.480681  0.141990  0.668566  1
  V  V13  1  0.995394  0.997847  0.996381  1
  V  V14  1  0.493946  0.497174  0.996436  1
  V  V15  1  0.472404  0.816823  0.337475  1
  V  V16  1  0.013210  0.675602  0.666628  1
  O  O17  1  0.197778  0.017936  0.367457  1
  O  O18  1  0.186328  0.680862  0.020592  1
  O  O19  1  0.302519  0.514344  0.372444  1
  O  O20  1  0.804222  0.313605  0.975489  1
  O  O21  1  0.302212  0.843580  0.704282  1
  F  F22  1  0.315079  0.163588  0.039784  1
  F  F23  1  0.686464  0.149090  0.299878  1
  F  F24  1  0.129615  0.033079  0.880117  1
  F  F25  1  0.405829  0.236703  0.550783  1
  F  F26  1  0.117283  0.412236  0.208882  1
  F  F27  1  0.616106  0.497923  0.116663  1
  F  F28  1  0.633845  0.164209  0.781052  1
  F  F29  1  0.843496  0.344463  0.444052  1
  F  F30  1  0.178076  0.334817  0.708451  1
  F  F31  1  0.671614  0.500835  0.646074  1
  F  F32  1  0.806988  0.657772  0.298574  1
  F  F33  1  0.368842  0.483284  0.879652  1
  F  F34  1  0.861565  0.951414  0.114954  1
  F  F35  1  0.130868  0.680862  0.552487  1
  F  F36  1  0.364559  0.909038  0.210372  1
  F  F37  1  0.868848  0.664329  0.785727  1
  F  F38  1  0.639151  0.823406  0.451765  1
  F  F39  1  0.673529  0.832065  0.955389  1
  F  F40  1  0.818457  0.995566  0.641337  1
