# generated using pymatgen
data_Fe4OF7
_symmetry_space_group_name_H-M   'P 1'
_cell_length_a   6.87535888
_cell_length_b   6.68426444
_cell_length_c   7.98522357
_cell_angle_alpha   65.22853058
_cell_angle_beta   64.50038093
_cell_angle_gamma   90.00000000
_symmetry_Int_Tables_number   1
_chemical_formula_structural   Fe4OF7
_chemical_formula_sum   'Fe8 O2 F14'
_cell_volume   293.37423276
_cell_formula_units_Z   2
loop_
 _symmetry_equiv_pos_site_id
 _symmetry_equiv_pos_as_xyz
  1  'x, y, z'
loop_
 _atom_site_type_symbol
 _atom_site_label
 _atom_site_symmetry_multiplicity
 _atom_site_fract_x
 _atom_site_fract_y
 _atom_site_fract_z
 _atom_site_occupancy
  Fe  Fe0  1  0.996561  0.967278  0.006877  1
  Fe  Fe1  1  0.502627  0.500532  0.994747  1
  Fe  Fe2  1  0.247373  0.249468  0.505253  1
  Fe  Fe3  1  0.875000  0.375000  0.250000  1
  Fe  Fe4  1  0.375000  0.875000  0.250000  1
  Fe  Fe5  1  0.634988  0.127162  0.730025  1
  Fe  Fe6  1  0.115012  0.622838  0.769975  1
  Fe  Fe7  1  0.753439  0.782722  0.493123  1
  O  O8  1  0.992404  0.665953  0.015194  1
  O  O9  1  0.757596  0.084047  0.484806  1
  F  F10  1  0.995303  0.282283  0.009395  1
  F  F11  1  0.508482  0.203053  0.983037  1
  F  F12  1  0.180078  0.375000  0.250000  1
  F  F13  1  0.569922  0.375000  0.250000  1
  F  F14  1  0.325624  0.127512  0.751357  1
  F  F15  1  0.080222  0.875000  0.250000  1
  F  F16  1  0.241518  0.546947  0.516963  1
  F  F17  1  0.507321  0.808708  0.985357  1
  F  F18  1  0.754697  0.467717  0.490605  1
  F  F19  1  0.242679  0.941292  0.514643  1
  F  F20  1  0.923019  0.127512  0.751357  1
  F  F21  1  0.669778  0.875000  0.250000  1
  F  F22  1  0.424376  0.622488  0.748643  1
  F  F23  1  0.826981  0.622488  0.748643  1
