# generated using pymatgen
data_Li2CrP3O10
_symmetry_space_group_name_H-M   'P 1'
_cell_length_a   12.03625809
_cell_length_b   8.02673591
_cell_length_c   9.70995752
_cell_angle_alpha   90.00000000
_cell_angle_beta   95.86159384
_cell_angle_gamma   90.00000000
_symmetry_Int_Tables_number   1
_chemical_formula_structural   Li2CrP3O10
_chemical_formula_sum   'Li8 Cr4 P12 O40'
_cell_volume   933.19226133
_cell_formula_units_Z   4
loop_
 _symmetry_equiv_pos_site_id
 _symmetry_equiv_pos_as_xyz
  1  'x, y, z'
loop_
 _atom_site_type_symbol
 _atom_site_label
 _atom_site_symmetry_multiplicity
 _atom_site_fract_x
 _atom_site_fract_y
 _atom_site_fract_z
 _atom_site_occupancy
  Li  Li0  1  0.148057  0.457592  0.385172  1
  Li  Li1  1  0.148057  0.042408  0.885172  1
  Li  Li2  1  0.448790  0.110862  0.907037  1
  Li  Li3  1  0.448790  0.389138  0.407037  1
  Li  Li4  1  0.551210  0.610862  0.592963  1
  Li  Li5  1  0.551210  0.889138  0.092963  1
  Li  Li6  1  0.851943  0.957592  0.114828  1
  Li  Li7  1  0.851943  0.542408  0.614828  1
  Cr  Cr8  1  0.169193  0.856739  0.629113  1
  Cr  Cr9  1  0.169193  0.643261  0.129113  1
  Cr  Cr10  1  0.830807  0.356739  0.870887  1
  Cr  Cr11  1  0.830807  0.143261  0.370887  1
  P  P12  1  0.063696  0.567240  0.808002  1
  P  P13  1  0.063696  0.932760  0.308002  1
  P  P14  1  0.274639  0.424109  0.914918  1
  P  P15  1  0.274639  0.075890  0.414918  1
  P  P16  1  0.332817  0.784493  0.924968  1
  P  P17  1  0.332817  0.715507  0.424968  1
  P  P18  1  0.667183  0.284493  0.575032  1
  P  P19  1  0.667183  0.215507  0.075032  1
  P  P20  1  0.725361  0.924110  0.585082  1
  P  P21  1  0.725361  0.575890  0.085082  1
  P  P22  1  0.936304  0.067240  0.691998  1
  P  P23  1  0.936304  0.432760  0.191998  1
  O  O24  1  0.082478  0.664769  0.942514  1
  O  O25  1  0.053556  0.993224  0.717334  1
  O  O26  1  0.082934  0.658659  0.675414  1
  O  O27  1  0.082478  0.835231  0.442514  1
  O  O28  1  0.053556  0.506776  0.217334  1
  O  O29  1  0.082934  0.841341  0.175414  1
  O  O30  1  0.155262  0.415325  0.818329  1
  O  O31  1  0.155262  0.084675  0.318329  1
  O  O32  1  0.248572  0.879162  0.822620  1
  O  O33  1  0.248853  0.057934  0.564073  1
  O  O34  1  0.292662  0.719846  0.569600  1
  O  O35  1  0.248572  0.620838  0.322620  1
  O  O36  1  0.248853  0.442066  0.064073  1
  O  O37  1  0.292662  0.780154  0.069600  1
  O  O38  1  0.336285  0.591299  0.868035  1
  O  O39  1  0.336975  0.273856  0.877307  1
  O  O40  1  0.336285  0.908701  0.368035  1
  O  O41  1  0.336975  0.226144  0.377307  1
  O  O42  1  0.447832  0.859972  0.927927  1
  O  O43  1  0.447832  0.640028  0.427927  1
  O  O44  1  0.552168  0.359972  0.572073  1
  O  O45  1  0.552168  0.140028  0.072073  1
  O  O46  1  0.663025  0.773856  0.622693  1
  O  O47  1  0.663715  0.091299  0.631965  1
  O  O48  1  0.663025  0.726144  0.122693  1
  O  O49  1  0.663715  0.408701  0.131965  1
  O  O50  1  0.707338  0.219846  0.930400  1
  O  O51  1  0.751147  0.557934  0.935927  1
  O  O52  1  0.751428  0.379162  0.677380  1
  O  O53  1  0.707338  0.280154  0.430400  1
  O  O54  1  0.751147  0.942066  0.435927  1
  O  O55  1  0.751428  0.120838  0.177380  1
  O  O56  1  0.844738  0.915325  0.681671  1
  O  O57  1  0.844738  0.584675  0.181671  1
  O  O58  1  0.917066  0.158659  0.824586  1
  O  O59  1  0.946444  0.493224  0.782666  1
  O  O60  1  0.917522  0.164769  0.557486  1
  O  O61  1  0.917066  0.341341  0.324586  1
  O  O62  1  0.946444  0.006776  0.282666  1
  O  O63  1  0.917522  0.335231  0.057486  1
