# generated using pymatgen
data_K5NaP3(HO4)3
_symmetry_space_group_name_H-M   'P 1'
_cell_length_a   22.77759775
_cell_length_b   10.08055317
_cell_length_c   5.92890573
_cell_angle_alpha   90.00000000
_cell_angle_beta   90.00000000
_cell_angle_gamma   90.00000000
_symmetry_Int_Tables_number   1
_chemical_formula_structural   K5NaP3(HO4)3
_chemical_formula_sum   'K20 Na4 P12 H12 O48'
_cell_volume   1361.34070006
_cell_formula_units_Z   4
loop_
 _symmetry_equiv_pos_site_id
 _symmetry_equiv_pos_as_xyz
  1  'x, y, z'
loop_
 _atom_site_type_symbol
 _atom_site_label
 _atom_site_symmetry_multiplicity
 _atom_site_fract_x
 _atom_site_fract_y
 _atom_site_fract_z
 _atom_site_occupancy
  K  K0  1  0.451244  0.598320  0.749206  1
  K  K1  1  0.548756  0.401680  0.249206  1
  K  K2  1  0.048756  0.098320  0.249206  1
  K  K3  1  0.951244  0.901680  0.749206  1
  K  K4  1  0.093718  0.621869  0.742508  1
  K  K5  1  0.906282  0.378131  0.242508  1
  K  K6  1  0.406282  0.121869  0.242508  1
  K  K7  1  0.593718  0.878131  0.742508  1
  K  K8  1  0.333011  0.349926  0.742339  1
  K  K9  1  0.666989  0.650074  0.242339  1
  K  K10  1  0.166989  0.849926  0.242339  1
  K  K11  1  0.833011  0.150074  0.742339  1
  K  K12  1  0.158584  0.266441  0.783112  1
  K  K13  1  0.841416  0.733559  0.283112  1
  K  K14  1  0.341416  0.766441  0.283112  1
  K  K15  1  0.658584  0.233559  0.783112  1
  K  K16  1  0.281514  0.997789  0.802359  1
  K  K17  1  0.718486  0.002211  0.302359  1
  K  K18  1  0.218486  0.497789  0.302359  1
  K  K19  1  0.781514  0.502211  0.802359  1
  Na  Na20  1  0.485754  0.253017  0.755316  1
  Na  Na21  1  0.514246  0.746983  0.255316  1
  Na  Na22  1  0.014246  0.753017  0.255316  1
  Na  Na23  1  0.985754  0.246983  0.755316  1
  P  P24  1  0.087405  0.949937  0.747115  1
  P  P25  1  0.912595  0.050063  0.247115  1
  P  P26  1  0.412595  0.449937  0.247115  1
  P  P27  1  0.587405  0.550063  0.747115  1
  P  P28  1  0.425427  0.928700  0.746250  1
  P  P29  1  0.574573  0.071300  0.246250  1
  P  P30  1  0.074573  0.428700  0.246250  1
  P  P31  1  0.925427  0.571300  0.746250  1
  P  P32  1  0.240308  0.644468  0.800802  1
  P  P33  1  0.759692  0.355532  0.300802  1
  P  P34  1  0.259692  0.144468  0.300802  1
  P  P35  1  0.740308  0.855532  0.800802  1
  H  H36  1  0.177039  0.866825  0.704542  1
  H  H37  1  0.822961  0.133175  0.204542  1
  H  H38  1  0.322961  0.366825  0.204542  1
  H  H39  1  0.677039  0.633175  0.704542  1
  H  H40  1  0.499038  0.987220  0.976460  1
  H  H41  1  0.500962  0.012780  0.476460  1
  H  H42  1  0.000962  0.487220  0.476460  1
  H  H43  1  0.999038  0.512780  0.976460  1
  H  H44  1  0.333087  0.699461  0.752982  1
  H  H45  1  0.666913  0.300539  0.252982  1
  H  H46  1  0.166913  0.199461  0.252982  1
  H  H47  1  0.833087  0.800539  0.752982  1
  O  O48  1  0.159162  0.957838  0.739299  1
  O  O49  1  0.840838  0.042162  0.239299  1
  O  O50  1  0.340838  0.457838  0.239299  1
  O  O51  1  0.659162  0.542162  0.739299  1
  O  O52  1  0.066368  0.094411  0.753263  1
  O  O53  1  0.933632  0.905589  0.253263  1
  O  O54  1  0.433632  0.594411  0.253263  1
  O  O55  1  0.566368  0.405589  0.753263  1
  O  O56  1  0.067769  0.875241  0.533116  1
  O  O57  1  0.932231  0.124759  0.033116  1
  O  O58  1  0.432231  0.375241  0.033116  1
  O  O59  1  0.567769  0.624759  0.533116  1
  O  O60  1  0.070710  0.872465  0.962620  1
  O  O61  1  0.929290  0.127535  0.462620  1
  O  O62  1  0.429290  0.372465  0.462620  1
  O  O63  1  0.570710  0.627535  0.962620  1
  O  O64  1  0.472690  0.905122  0.950354  1
  O  O65  1  0.527310  0.094878  0.450354  1
  O  O66  1  0.027310  0.405122  0.450354  1
  O  O67  1  0.972690  0.594878  0.950354  1
  O  O68  1  0.406117  0.074198  0.757459  1
  O  O69  1  0.593883  0.925802  0.257459  1
  O  O70  1  0.093883  0.574198  0.257459  1
  O  O71  1  0.906117  0.425802  0.757459  1
  O  O72  1  0.376926  0.827317  0.796873  1
  O  O73  1  0.623074  0.172683  0.296873  1
  O  O74  1  0.123074  0.327317  0.296873  1
  O  O75  1  0.876926  0.672683  0.796873  1
  O  O76  1  0.457535  0.897210  0.521036  1
  O  O77  1  0.542465  0.102790  0.021036  1
  O  O78  1  0.042465  0.397210  0.021036  1
  O  O79  1  0.957535  0.602790  0.521036  1
  O  O80  1  0.308114  0.620879  0.711852  1
  O  O81  1  0.691886  0.379121  0.211852  1
  O  O82  1  0.191886  0.120879  0.211852  1
  O  O83  1  0.808114  0.879121  0.711852  1
  O  O84  1  0.213029  0.505901  0.801707  1
  O  O85  1  0.786971  0.494099  0.301707  1
  O  O86  1  0.286971  0.005901  0.301707  1
  O  O87  1  0.713029  0.994099  0.801707  1
  O  O88  1  0.210168  0.736089  0.624671  1
  O  O89  1  0.789832  0.263911  0.124671  1
  O  O90  1  0.289832  0.236089  0.124671  1
  O  O91  1  0.710168  0.763911  0.624671  1
  O  O92  1  0.244833  0.711975  0.030360  1
  O  O93  1  0.755167  0.288025  0.530360  1
  O  O94  1  0.255167  0.211975  0.530360  1
  O  O95  1  0.744833  0.788025  0.030360  1
