# generated using pymatgen
data_Na3VBPO7
_symmetry_space_group_name_H-M   'P 1'
_cell_length_a   9.00337675
_cell_length_b   6.61975545
_cell_length_c   5.28383014
_cell_angle_alpha   90.00000000
_cell_angle_beta   88.58200279
_cell_angle_gamma   90.00000000
_symmetry_Int_Tables_number   1
_chemical_formula_structural   Na3VBPO7
_chemical_formula_sum   'Na6 V2 B2 P2 O14'
_cell_volume   314.82064293
_cell_formula_units_Z   2
loop_
 _symmetry_equiv_pos_site_id
 _symmetry_equiv_pos_as_xyz
  1  'x, y, z'
loop_
 _atom_site_type_symbol
 _atom_site_label
 _atom_site_symmetry_multiplicity
 _atom_site_fract_x
 _atom_site_fract_y
 _atom_site_fract_z
 _atom_site_occupancy
  Na  Na0  1  0.072328  0.250000  0.757185  1
  Na  Na1  1  0.253463  0.001763  0.250351  1
  Na  Na2  1  0.253463  0.498237  0.250351  1
  Na  Na3  1  0.746537  0.501763  0.749649  1
  Na  Na4  1  0.746537  0.998237  0.749649  1
  Na  Na5  1  0.927672  0.750000  0.242815  1
  V  V6  1  0.333654  0.750000  0.777903  1
  V  V7  1  0.666346  0.250000  0.222097  1
  B  B8  1  0.063989  0.750000  0.731269  1
  B  B9  1  0.936011  0.250000  0.268731  1
  P  P10  1  0.423395  0.250000  0.712902  1
  P  P11  1  0.576605  0.750000  0.287098  1
  O  O12  1  0.083893  0.250000  0.296875  1
  O  O13  1  0.134669  0.750000  0.965244  1
  O  O14  1  0.169286  0.750000  0.527894  1
  O  O15  1  0.325537  0.062915  0.782309  1
  O  O16  1  0.325537  0.437085  0.782309  1
  O  O17  1  0.461566  0.250000  0.422987  1
  O  O18  1  0.432418  0.750000  0.135268  1
  O  O19  1  0.567582  0.250000  0.864732  1
  O  O20  1  0.538434  0.750000  0.577013  1
  O  O21  1  0.674463  0.562915  0.217691  1
  O  O22  1  0.674463  0.937085  0.217691  1
  O  O23  1  0.830714  0.250000  0.472106  1
  O  O24  1  0.865331  0.250000  0.034756  1
  O  O25  1  0.916107  0.750000  0.703125  1
