# generated using pymatgen
data_Li2MnBO4
_symmetry_space_group_name_H-M   'P 1'
_cell_length_a   6.66194134
_cell_length_b   5.16350894
_cell_length_c   10.50619556
_cell_angle_alpha   90.00000000
_cell_angle_beta   94.76861484
_cell_angle_gamma   90.00000000
_symmetry_Int_Tables_number   1
_chemical_formula_structural   Li2MnBO4
_chemical_formula_sum   'Li8 Mn4 B4 O16'
_cell_volume   360.15157607
_cell_formula_units_Z   4
loop_
 _symmetry_equiv_pos_site_id
 _symmetry_equiv_pos_as_xyz
  1  'x, y, z'
loop_
 _atom_site_type_symbol
 _atom_site_label
 _atom_site_symmetry_multiplicity
 _atom_site_fract_x
 _atom_site_fract_y
 _atom_site_fract_z
 _atom_site_occupancy
  Li  Li0  1  0.096813  0.346228  0.792422  1
  Li  Li1  1  0.096813  0.153772  0.292422  1
  Li  Li2  1  0.208668  0.173013  0.568740  1
  Li  Li3  1  0.208668  0.326987  0.068740  1
  Li  Li4  1  0.791332  0.673013  0.931260  1
  Li  Li5  1  0.791332  0.826987  0.431260  1
  Li  Li6  1  0.903187  0.846228  0.707578  1
  Li  Li7  1  0.903187  0.653772  0.207578  1
  Mn  Mn8  1  0.507295  0.152884  0.846524  1
  Mn  Mn9  1  0.492705  0.652883  0.653476  1
  Mn  Mn10  1  0.507295  0.347116  0.346524  1
  Mn  Mn11  1  0.492705  0.847117  0.153476  1
  B  B12  1  0.188711  0.824004  0.937872  1
  B  B13  1  0.188711  0.675996  0.437872  1
  B  B14  1  0.811289  0.324004  0.562128  1
  B  B15  1  0.811289  0.175996  0.062128  1
  O  O16  1  0.054058  0.694627  0.857666  1
  O  O17  1  0.054058  0.805373  0.357666  1
  O  O18  1  0.239902  0.085036  0.919782  1
  O  O19  1  0.239902  0.414964  0.419782  1
  O  O20  1  0.281777  0.806566  0.544374  1
  O  O21  1  0.376370  0.352201  0.710423  1
  O  O22  1  0.281777  0.693434  0.044374  1
  O  O23  1  0.376370  0.147799  0.210423  1
  O  O24  1  0.623630  0.852201  0.789577  1
  O  O25  1  0.718223  0.306566  0.955626  1
  O  O26  1  0.623630  0.647799  0.289577  1
  O  O27  1  0.718223  0.193434  0.455626  1
  O  O28  1  0.760098  0.585036  0.580218  1
  O  O29  1  0.760098  0.914964  0.080218  1
  O  O30  1  0.945942  0.194627  0.642334  1
  O  O31  1  0.945942  0.305373  0.142334  1
