# generated using pymatgen
data_LiMn(PO3)4
_symmetry_space_group_name_H-M   'P 1'
_cell_length_a   7.42834670
_cell_length_b   7.42834670
_cell_length_c   18.11383552
_cell_angle_alpha   90.00000000
_cell_angle_beta   90.00000000
_cell_angle_gamma   99.79150814
_symmetry_Int_Tables_number   1
_chemical_formula_structural   LiMn(PO3)4
_chemical_formula_sum   'Li4 Mn4 P16 O48'
_cell_volume   984.96750356
_cell_formula_units_Z   4
loop_
 _symmetry_equiv_pos_site_id
 _symmetry_equiv_pos_as_xyz
  1  'x, y, z'
loop_
 _atom_site_type_symbol
 _atom_site_label
 _atom_site_symmetry_multiplicity
 _atom_site_fract_x
 _atom_site_fract_y
 _atom_site_fract_z
 _atom_site_occupancy
  Li  Li0  1  0.204478  0.098974  0.394544  1
  Li  Li1  1  0.901026  0.795522  0.605456  1
  Li  Li2  1  0.795522  0.901026  0.894544  1
  Li  Li3  1  0.098974  0.204478  0.105456  1
  Mn  Mn4  1  0.576767  0.965491  0.633954  1
  Mn  Mn5  1  0.034509  0.423233  0.366046  1
  Mn  Mn6  1  0.423233  0.034509  0.133954  1
  Mn  Mn7  1  0.965491  0.576767  0.866046  1
  P  P8  1  0.042067  0.766269  0.097812  1
  P  P9  1  0.233731  0.957933  0.902188  1
  P  P10  1  0.298403  0.787713  0.758455  1
  P  P11  1  0.212287  0.701597  0.241545  1
  P  P12  1  0.377835  0.622165  0.500000  1
  P  P13  1  0.660224  0.759742  0.058858  1
  P  P14  1  0.240258  0.339776  0.941142  1
  P  P15  1  0.355714  0.355714  0.250000  1
  P  P16  1  0.644285  0.644285  0.750000  1
  P  P17  1  0.339776  0.240258  0.558858  1
  P  P18  1  0.759742  0.660224  0.441142  1
  P  P19  1  0.622165  0.377835  0.000000  1
  P  P20  1  0.787713  0.298403  0.741545  1
  P  P21  1  0.701597  0.212287  0.258455  1
  P  P22  1  0.766269  0.042067  0.402188  1
  P  P23  1  0.957933  0.233731  0.597812  1
  O  O24  1  0.042610  0.839288  0.894277  1
  O  O25  1  0.160712  0.957390  0.105723  1
  O  O26  1  0.348403  0.946019  0.966647  1
  O  O27  1  0.053981  0.651597  0.033353  1
  O  O28  1  0.108695  0.683607  0.759797  1
  O  O29  1  0.316393  0.891305  0.240203  1
  O  O30  1  0.076279  0.655601  0.173498  1
  O  O31  1  0.344399  0.923721  0.826502  1
  O  O32  1  0.351724  0.892349  0.688077  1
  O  O33  1  0.107651  0.648276  0.311923  1
  O  O34  1  0.420372  0.789502  0.546787  1
  O  O35  1  0.210498  0.579628  0.453213  1
  O  O36  1  0.503417  0.814079  0.103681  1
  O  O37  1  0.185921  0.496583  0.896319  1
  O  O38  1  0.355830  0.561561  0.227935  1
  O  O39  1  0.438439  0.644170  0.772065  1
  O  O40  1  0.804281  0.836283  0.385940  1
  O  O41  1  0.163717  0.195719  0.614060  1
  O  O42  1  0.542234  0.608734  0.440949  1
  O  O43  1  0.391266  0.457766  0.559051  1
  O  O44  1  0.240138  0.309254  0.318971  1
  O  O45  1  0.690746  0.759862  0.681029  1
  O  O46  1  0.163187  0.294820  0.015083  1
  O  O47  1  0.705180  0.836813  0.984917  1
  O  O48  1  0.294820  0.163187  0.484917  1
  O  O49  1  0.836813  0.705180  0.515083  1
  O  O50  1  0.309254  0.240138  0.181029  1
  O  O51  1  0.759862  0.690746  0.818971  1
  O  O52  1  0.457766  0.391266  0.940949  1
  O  O53  1  0.608734  0.542234  0.059051  1
  O  O54  1  0.195719  0.163717  0.885940  1
  O  O55  1  0.836283  0.804281  0.114060  1
  O  O56  1  0.644170  0.438439  0.727935  1
  O  O57  1  0.561561  0.355830  0.272065  1
  O  O58  1  0.496583  0.185921  0.603681  1
  O  O59  1  0.814079  0.503417  0.396319  1
  O  O60  1  0.789502  0.420372  0.953213  1
  O  O61  1  0.579628  0.210498  0.046787  1
  O  O62  1  0.648276  0.107651  0.188077  1
  O  O63  1  0.892349  0.351724  0.811923  1
  O  O64  1  0.655601  0.076279  0.326502  1
  O  O65  1  0.923721  0.344399  0.673498  1
  O  O66  1  0.683607  0.108695  0.740203  1
  O  O67  1  0.891305  0.316393  0.259797  1
  O  O68  1  0.651597  0.053981  0.466647  1
  O  O69  1  0.946019  0.348403  0.533353  1
  O  O70  1  0.957390  0.160712  0.394277  1
  O  O71  1  0.839288  0.042610  0.605723  1
