# generated using pymatgen
data_Gd2Nb2N2O5
_symmetry_space_group_name_H-M   'P 1'
_cell_length_a   7.89320973
_cell_length_b   13.58887314
_cell_length_c   5.54526753
_cell_angle_alpha   90.60592459
_cell_angle_beta   90.29651070
_cell_angle_gamma   98.48654864
_symmetry_Int_Tables_number   1
_chemical_formula_structural   Gd2Nb2N2O5
_chemical_formula_sum   'Gd8 Nb8 N8 O20'
_cell_volume   588.22531969
_cell_formula_units_Z   4
loop_
 _symmetry_equiv_pos_site_id
 _symmetry_equiv_pos_as_xyz
  1  'x, y, z'
loop_
 _atom_site_type_symbol
 _atom_site_label
 _atom_site_symmetry_multiplicity
 _atom_site_fract_x
 _atom_site_fract_y
 _atom_site_fract_z
 _atom_site_occupancy
  Gd  Gd0  1  0.129214  0.564444  0.347164  1
  Gd  Gd1  1  0.220587  0.916926  0.768161  1
  Gd  Gd2  1  0.279334  0.129941  0.250934  1
  Gd  Gd3  1  0.342750  0.384866  0.758481  1
  Gd  Gd4  1  0.666003  0.608019  0.273021  1
  Gd  Gd5  1  0.725735  0.873944  0.749255  1
  Gd  Gd6  1  0.774623  0.083724  0.277161  1
  Gd  Gd7  1  0.863646  0.435926  0.829307  1
  Nb  Nb8  1  0.072098  0.324544  0.281912  1
  Nb  Nb9  1  0.015092  0.109222  0.759576  1
  Nb  Nb10  1  0.412067  0.673387  0.789655  1
  Nb  Nb11  1  0.461711  0.880047  0.270730  1
  Nb  Nb12  1  0.533281  0.120433  0.768853  1
  Nb  Nb13  1  0.600083  0.326748  0.275497  1
  Nb  Nb14  1  0.971186  0.878300  0.258462  1
  Nb  Nb15  1  0.925283  0.673806  0.791625  1
  N  N16  1  0.084045  0.411124  0.551416  1
  N  N17  1  0.225860  0.885119  0.337526  1
  N  N18  1  0.948297  0.983787  0.545616  1
  N  N19  1  0.862219  0.569675  0.556710  1
  N  N20  1  0.774603  0.115283  0.843969  1
  N  N21  1  0.824752  0.308319  0.178397  1
  N  N22  1  0.980356  0.824613  0.929424  1
  N  N23  1  0.921297  0.587285  0.054873  1
  O  O24  1  0.020819  0.180397  0.432886  1
  O  O25  1  0.179706  0.690518  0.669877  1
  O  O26  1  0.143608  0.431439  0.054414  1
  O  O27  1  0.061025  0.025147  0.045452  1
  O  O28  1  0.138398  0.226820  0.948193  1
  O  O29  1  0.367342  0.618035  0.088187  1
  O  O30  1  0.429203  0.824912  0.927578  1
  O  O31  1  0.277661  0.082581  0.650496  1
  O  O32  1  0.325347  0.298556  0.377138  1
  O  O33  1  0.416447  0.557171  0.586798  1
  O  O34  1  0.554853  0.979173  0.535283  1
  O  O35  1  0.510353  0.770132  0.458803  1
  O  O36  1  0.487691  0.232195  0.961032  1
  O  O37  1  0.449633  0.024326  0.037014  1
  O  O38  1  0.580569  0.443545  0.083032  1
  O  O39  1  0.667993  0.696821  0.869770  1
  O  O40  1  0.727567  0.920984  0.146872  1
  O  O41  1  0.567959  0.174397  0.431903  1
  O  O42  1  0.621813  0.382253  0.590616  1
  O  O43  1  0.857891  0.771118  0.441912  1
