# generated using pymatgen
data_SrCd2H16(Br3O4)2
_symmetry_space_group_name_H-M   'P 1'
_cell_length_a   26.10246680
_cell_length_b   4.18570069
_cell_length_c   8.73339038
_cell_angle_alpha   90.00000000
_cell_angle_beta   90.00000000
_cell_angle_gamma   90.00000000
_symmetry_Int_Tables_number   1
_chemical_formula_structural   SrCd2H16(Br3O4)2
_chemical_formula_sum   'Sr2 Cd4 H32 Br12 O16'
_cell_volume   954.18502220
_cell_formula_units_Z   2
loop_
 _symmetry_equiv_pos_site_id
 _symmetry_equiv_pos_as_xyz
  1  'x, y, z'
loop_
 _atom_site_type_symbol
 _atom_site_label
 _atom_site_symmetry_multiplicity
 _atom_site_fract_x
 _atom_site_fract_y
 _atom_site_fract_z
 _atom_site_occupancy
  Sr  Sr0  1  0.000000  0.500000  0.670049  1
  Sr  Sr1  1  0.500000  0.000000  0.329951  1
  Cd  Cd2  1  0.193104  0.035332  0.136677  1
  Cd  Cd3  1  0.306896  0.535332  0.863323  1
  Cd  Cd4  1  0.693104  0.464668  0.863323  1
  Cd  Cd5  1  0.806896  0.964668  0.136677  1
  H  H6  1  0.025465  0.909738  0.388822  1
  H  H7  1  0.029876  0.498313  0.031084  1
  H  H8  1  0.067086  0.966551  0.873344  1
  H  H9  1  0.091383  0.274715  0.487040  1
  H  H10  1  0.095110  0.969594  0.712965  1
  H  H11  1  0.093781  0.594156  0.400032  1
  H  H12  1  0.172869  0.200379  0.565760  1
  H  H13  1  0.177906  0.881054  0.654107  1
  H  H14  1  0.322094  0.381054  0.345893  1
  H  H15  1  0.327131  0.700379  0.434240  1
  H  H16  1  0.406219  0.094156  0.599968  1
  H  H17  1  0.404890  0.469594  0.287035  1
  H  H18  1  0.408617  0.774715  0.512960  1
  H  H19  1  0.432914  0.466551  0.126656  1
  H  H20  1  0.470124  0.998313  0.968916  1
  H  H21  1  0.474535  0.409738  0.611178  1
  H  H22  1  0.525465  0.590262  0.611178  1
  H  H23  1  0.529876  0.001687  0.968916  1
  H  H24  1  0.567086  0.533449  0.126656  1
  H  H25  1  0.591383  0.225285  0.512960  1
  H  H26  1  0.595110  0.530406  0.287035  1
  H  H27  1  0.593781  0.905844  0.599968  1
  H  H28  1  0.672869  0.299621  0.434240  1
  H  H29  1  0.677906  0.618946  0.345893  1
  H  H30  1  0.822094  0.118946  0.654107  1
  H  H31  1  0.827131  0.799621  0.565760  1
  H  H32  1  0.906219  0.405844  0.400032  1
  H  H33  1  0.904890  0.030406  0.712965  1
  H  H34  1  0.908617  0.725285  0.487040  1
  H  H35  1  0.932914  0.033449  0.873344  1
  H  H36  1  0.970124  0.501687  0.031084  1
  H  H37  1  0.974535  0.090262  0.388822  1
  Br  Br38  1  0.087313  0.994516  0.161363  1
  Br  Br39  1  0.193110  0.543439  0.916003  1
  Br  Br40  1  0.210206  0.522616  0.341727  1
  Br  Br41  1  0.289794  0.022616  0.658273  1
  Br  Br42  1  0.306890  0.043439  0.083997  1
  Br  Br43  1  0.412687  0.494515  0.838637  1
  Br  Br44  1  0.587313  0.505484  0.838637  1
  Br  Br45  1  0.693110  0.956561  0.083997  1
  Br  Br46  1  0.710206  0.977384  0.658273  1
  Br  Br47  1  0.789794  0.477384  0.341727  1
  Br  Br48  1  0.806890  0.456561  0.916003  1
  Br  Br49  1  0.912687  0.005484  0.161363  1
  O  O50  1  0.000000  0.000000  0.459796  1
  O  O51  1  0.000000  0.500000  0.962967  1
  O  O52  1  0.060556  0.966046  0.762149  1
  O  O53  1  0.078725  0.495120  0.490962  1
  O  O54  1  0.152421  0.029637  0.612626  1
  O  O55  1  0.347579  0.529637  0.387374  1
  O  O56  1  0.421275  0.995120  0.509038  1
  O  O57  1  0.439444  0.466046  0.237851  1
  O  O58  1  0.500000  0.000000  0.037033  1
  O  O59  1  0.500000  0.500000  0.540204  1
  O  O60  1  0.560556  0.533954  0.237851  1
  O  O61  1  0.578725  0.004880  0.509038  1
  O  O62  1  0.652421  0.470363  0.387374  1
  O  O63  1  0.847579  0.970363  0.612626  1
  O  O64  1  0.921275  0.504880  0.490962  1
  O  O65  1  0.939444  0.033954  0.762149  1
