# generated using pymatgen
data_LiCuPO4
_symmetry_space_group_name_H-M   'P 1'
_cell_length_a   9.90619272
_cell_length_b   9.90619251
_cell_length_c   23.69266499
_cell_angle_alpha   90.00000000
_cell_angle_beta   90.00000000
_cell_angle_gamma   120.00000090
_symmetry_Int_Tables_number   1
_chemical_formula_structural   LiCuPO4
_chemical_formula_sum   'Li24 Cu24 P24 O96'
_cell_volume   2013.52987450
_cell_formula_units_Z   24
loop_
 _symmetry_equiv_pos_site_id
 _symmetry_equiv_pos_as_xyz
  1  'x, y, z'
loop_
 _atom_site_type_symbol
 _atom_site_label
 _atom_site_symmetry_multiplicity
 _atom_site_fract_x
 _atom_site_fract_y
 _atom_site_fract_z
 _atom_site_occupancy
  Li  Li0  1  0.023612  0.982529  0.695537  1
  Li  Li1  1  0.032683  0.581765  0.035972  1
  Li  Li2  1  0.039846  0.461403  0.192339  1
  Li  Li3  1  0.040811  0.482881  0.850378  1
  Li  Li4  1  0.421557  0.960154  0.859006  1
  Li  Li5  1  0.442071  0.959189  0.517045  1
  Li  Li6  1  0.017472  0.041082  0.028870  1
  Li  Li7  1  0.041082  0.023612  0.862203  1
  Li  Li8  1  0.549082  0.967317  0.702639  1
  Li  Li9  1  0.418235  0.450918  0.369306  1
  Li  Li10  1  0.517119  0.557929  0.183711  1
  Li  Li11  1  0.538597  0.578443  0.525673  1
  Li  Li12  1  0.461403  0.421557  0.025673  1
  Li  Li13  1  0.482881  0.442071  0.683711  1
  Li  Li14  1  0.581765  0.549082  0.869306  1
  Li  Li15  1  0.450918  0.032683  0.202639  1
  Li  Li16  1  0.958918  0.976388  0.362203  1
  Li  Li17  1  0.982529  0.958918  0.528870  1
  Li  Li18  1  0.557929  0.040811  0.017045  1
  Li  Li19  1  0.578443  0.039846  0.359006  1
  Li  Li20  1  0.959189  0.517119  0.350378  1
  Li  Li21  1  0.960154  0.538597  0.692339  1
  Li  Li22  1  0.967317  0.418235  0.535972  1
  Li  Li23  1  0.976388  0.017472  0.195537  1
  Cu  Cu24  1  0.114211  0.819275  0.269130  1
  Cu  Cu25  1  0.096239  0.773099  0.922511  1
  Cu  Cu26  1  0.123244  0.760100  0.593883  1
  Cu  Cu27  1  0.315487  0.657296  0.755880  1
  Cu  Cu28  1  0.342704  0.658191  0.089213  1
  Cu  Cu29  1  0.341809  0.684513  0.422546  1
  Cu  Cu30  1  0.180725  0.294936  0.602464  1
  Cu  Cu31  1  0.239900  0.363145  0.927216  1
  Cu  Cu32  1  0.226901  0.323141  0.255844  1
  Cu  Cu33  1  0.636855  0.876756  0.260549  1
  Cu  Cu34  1  0.676859  0.903761  0.589177  1
  Cu  Cu35  1  0.294936  0.114211  0.435797  1
  Cu  Cu36  1  0.705064  0.885789  0.935797  1
  Cu  Cu37  1  0.323141  0.096239  0.089177  1
  Cu  Cu38  1  0.363145  0.123244  0.760549  1
  Cu  Cu39  1  0.773099  0.676859  0.755844  1
  Cu  Cu40  1  0.760100  0.636855  0.427216  1
  Cu  Cu41  1  0.819275  0.705064  0.102464  1
  Cu  Cu42  1  0.658191  0.315487  0.922546  1
  Cu  Cu43  1  0.657296  0.341809  0.589213  1
  Cu  Cu44  1  0.684513  0.342704  0.255880  1
  Cu  Cu45  1  0.876756  0.239900  0.093883  1
  Cu  Cu46  1  0.903761  0.226901  0.422511  1
  Cu  Cu47  1  0.885789  0.180725  0.769130  1
  P  P48  1  0.095525  0.790356  0.790594  1
  P  P49  1  0.080120  0.759971  0.465231  1
  P  P50  1  0.135180  0.773951  0.138123  1
  P  P51  1  0.291223  0.650355  0.296333  1
  P  P52  1  0.359132  0.708777  0.963000  1
  P  P53  1  0.349645  0.640868  0.629666  1
  P  P54  1  0.226049  0.361229  0.471456  1
  P  P55  1  0.209644  0.305170  0.123927  1
  P  P56  1  0.240029  0.320150  0.798565  1
  P  P57  1  0.638771  0.864820  0.804789  1
  P  P58  1  0.679850  0.919880  0.131898  1
  P  P59  1  0.694830  0.904475  0.457260  1
  P  P60  1  0.305170  0.095525  0.957260  1
  P  P61  1  0.320150  0.080120  0.631898  1
  P  P62  1  0.361229  0.135180  0.304789  1
  P  P63  1  0.759971  0.679850  0.298565  1
  P  P64  1  0.790356  0.694830  0.623927  1
  P  P65  1  0.773951  0.638771  0.971456  1
  P  P66  1  0.650355  0.359132  0.129666  1
  P  P67  1  0.640868  0.291223  0.463000  1
  P  P68  1  0.708777  0.349645  0.796333  1
  P  P69  1  0.864820  0.226049  0.638123  1
  P  P70  1  0.919880  0.240029  0.965231  1
  P  P71  1  0.904475  0.209644  0.290594  1
  O  O72  1  0.038210  0.773636  0.086340  1
  O  O73  1  0.090339  0.921783  0.467222  1
  O  O74  1  0.015901  0.701160  0.845861  1
  O  O75  1  0.142029  0.990741  0.928764  1
  O  O76  1  0.036939  0.748731  0.192058  1
  O  O77  1  0.012916  0.673713  0.522056  1
  O  O78  1  0.249478  0.938934  0.808281  1
  O  O79  1  0.137709  0.655637  0.304457  1
  O  O80  1  0.116116  0.679209  0.751268  1
  O  O81  1  0.311621  0.968209  0.583692  1
  O  O82  1  0.295179  0.926471  0.140684  1
  O  O83  1  0.162266  0.632978  0.132077  1
  O  O84  1  0.248330  0.790285  0.456988  1
  O  O85  1  0.180783  0.604210  0.618510  1
  O  O86  1  0.073529  0.368708  0.474017  1
  O  O87  1  0.269008  0.728754  0.913217  1
  O  O88  1  0.031791  0.343411  0.917026  1
  O  O89  1  0.061066  0.310544  0.141614  1
  O  O90  1  0.009259  0.151289  0.262098  1
  O  O91  1  0.078217  0.168556  0.800556  1
  O  O92  1  0.259962  0.676881  0.017562  1
  O  O93  1  0.271246  0.540254  0.246550  1
  O  O94  1  0.323119  0.583081  0.350895  1
  O  O95  1  0.209715  0.458044  0.790321  1
  O  O96  1  0.416919  0.740038  0.684228  1
  O  O97  1  0.423427  0.819217  0.285176  1
  O  O98  1  0.470712  0.837734  0.798743  1
  O  O99  1  0.320791  0.436907  0.084601  1
  O  O100  1  0.344363  0.482071  0.637791  1
  O  O101  1  0.367022  0.529288  0.465410  1
  O  O102  1  0.251269  0.288209  0.525392  1
  O  O103  1  0.395790  0.576573  0.951843  1
  O  O104  1  0.459746  0.730992  0.579883  1
  O  O105  1  0.517929  0.862291  0.971124  1
  O  O106  1  0.563093  0.883884  0.417934  1
  O  O107  1  0.151289  0.142029  0.095431  1
  O  O108  1  0.226364  0.264575  0.419673  1
  O  O109  1  0.298840  0.314741  0.179195  1
  O  O110  1  0.168556  0.090339  0.633889  1
  O  O111  1  0.326287  0.339202  0.855389  1
  O  O112  1  0.541956  0.751670  0.123655  1
  O  O113  1  0.310544  0.249478  0.974947  1
  O  O114  1  0.660798  0.987084  0.188722  1
  O  O115  1  0.343411  0.311621  0.750359  1
  O  O116  1  0.368708  0.295179  0.307351  1
  O  O117  1  0.685259  0.984099  0.512528  1
  O  O118  1  0.711791  0.963061  0.858725  1
  O  O119  1  0.264575  0.038210  0.253007  1
  O  O120  1  0.735425  0.961790  0.753007  1
  O  O121  1  0.288209  0.036939  0.358725  1
  O  O122  1  0.314741  0.015901  0.012528  1
  O  O123  1  0.631292  0.704821  0.807351  1
  O  O124  1  0.656589  0.688379  0.250359  1
  O  O125  1  0.339202  0.012916  0.688722  1
  O  O126  1  0.689456  0.750522  0.474947  1
  O  O127  1  0.458044  0.248330  0.623655  1
  O  O128  1  0.673713  0.660798  0.355389  1
  O  O129  1  0.831444  0.909661  0.133889  1
  O  O130  1  0.701160  0.685259  0.679195  1
  O  O131  1  0.773636  0.735425  0.919673  1
  O  O132  1  0.848711  0.857971  0.595431  1
  O  O133  1  0.436907  0.116116  0.917934  1
  O  O134  1  0.482071  0.137709  0.471124  1
  O  O135  1  0.540254  0.269008  0.079883  1
  O  O136  1  0.604210  0.423427  0.451842  1
  O  O137  1  0.748731  0.711791  0.025392  1
  O  O138  1  0.632978  0.470712  0.965410  1
  O  O139  1  0.655637  0.517929  0.137791  1
  O  O140  1  0.679209  0.563093  0.584601  1
  O  O141  1  0.529288  0.162266  0.298743  1
  O  O142  1  0.576573  0.180783  0.785176  1
  O  O143  1  0.583081  0.259962  0.184228  1
  O  O144  1  0.790285  0.541956  0.290321  1
  O  O145  1  0.676881  0.416919  0.850895  1
  O  O146  1  0.728754  0.459746  0.746550  1
  O  O147  1  0.740038  0.323119  0.517562  1
  O  O148  1  0.921783  0.831444  0.300556  1
  O  O149  1  0.990741  0.848711  0.762098  1
  O  O150  1  0.938934  0.689456  0.641614  1
  O  O151  1  0.968209  0.656589  0.417026  1
  O  O152  1  0.730992  0.271246  0.413217  1
  O  O153  1  0.926471  0.631292  0.974017  1
  O  O154  1  0.819217  0.395790  0.118510  1
  O  O155  1  0.751670  0.209715  0.956988  1
  O  O156  1  0.837734  0.367022  0.632077  1
  O  O157  1  0.704821  0.073529  0.640684  1
  O  O158  1  0.688379  0.031791  0.083692  1
  O  O159  1  0.883884  0.320791  0.251268  1
  O  O160  1  0.862291  0.344363  0.804457  1
  O  O161  1  0.750522  0.061066  0.308281  1
  O  O162  1  0.987084  0.326287  0.022056  1
  O  O163  1  0.963061  0.251269  0.692058  1
  O  O164  1  0.857971  0.009259  0.428764  1
  O  O165  1  0.984099  0.298840  0.345861  1
  O  O166  1  0.909661  0.078217  0.967222  1
  O  O167  1  0.961790  0.226364  0.586340  1
