# generated using pymatgen
data_Li4MnFe3(BO3)4
_symmetry_space_group_name_H-M   'P 1'
_cell_length_a   6.02598780
_cell_length_b   5.24212324
_cell_length_c   16.13566786
_cell_angle_alpha   90.48439428
_cell_angle_beta   98.40511601
_cell_angle_gamma   88.72642106
_symmetry_Int_Tables_number   1
_chemical_formula_structural   Li4MnFe3(BO3)4
_chemical_formula_sum   'Li8 Mn2 Fe6 B8 O24'
_cell_volume   504.10295283
_cell_formula_units_Z   2
loop_
 _symmetry_equiv_pos_site_id
 _symmetry_equiv_pos_as_xyz
  1  'x, y, z'
loop_
 _atom_site_type_symbol
 _atom_site_label
 _atom_site_symmetry_multiplicity
 _atom_site_fract_x
 _atom_site_fract_y
 _atom_site_fract_z
 _atom_site_occupancy
  Li  Li0  1  0.065901  0.842650  0.611700  1
  Li  Li1  1  0.434099  0.157350  0.888300  1
  Li  Li2  1  0.184821  0.651619  0.137176  1
  Li  Li3  1  0.315179  0.348381  0.362824  1
  Li  Li4  1  0.688795  0.655463  0.641722  1
  Li  Li5  1  0.811205  0.344537  0.858278  1
  Li  Li6  1  0.566958  0.847935  0.110237  1
  Li  Li7  1  0.933042  0.152065  0.389763  1
  Mn  Mn8  1  0.770305  0.670470  0.458358  1
  Mn  Mn9  1  0.729695  0.329530  0.041642  1
  Fe  Fe10  1  0.272873  0.662963  0.957642  1
  Fe  Fe11  1  0.030852  0.170408  0.213164  1
  Fe  Fe12  1  0.227127  0.337037  0.542358  1
  Fe  Fe13  1  0.523619  0.162630  0.707397  1
  Fe  Fe14  1  0.469148  0.829592  0.286836  1
  Fe  Fe15  1  0.976381  0.837370  0.792603  1
  B  B16  1  0.039809  0.327106  0.704087  1
  B  B17  1  0.286112  0.830137  0.453613  1
  B  B18  1  0.460191  0.672894  0.795913  1
  B  B19  1  0.213888  0.169863  0.046387  1
  B  B20  1  0.785535  0.829281  0.952182  1
  B  B21  1  0.536885  0.327747  0.205367  1
  B  B22  1  0.714465  0.170719  0.547818  1
  B  B23  1  0.963115  0.672253  0.294633  1
  O  O24  1  0.012969  0.587084  0.694080  1
  O  O25  1  0.167775  0.182263  0.653990  1
  O  O26  1  0.178006  0.704112  0.511767  1
  O  O27  1  0.321994  0.295888  0.988233  1
  O  O28  1  0.078215  0.791782  0.237178  1
  O  O29  1  0.332225  0.817737  0.846010  1
  O  O30  1  0.085261  0.313601  0.096302  1
  O  O31  1  0.259047  0.089507  0.443171  1
  O  O32  1  0.487031  0.412916  0.805920  1
  O  O33  1  0.240953  0.910493  0.056829  1
  O  O34  1  0.414739  0.686399  0.403698  1
  O  O35  1  0.421785  0.208218  0.262822  1
  O  O36  1  0.569425  0.797125  0.737972  1
  O  O37  1  0.584525  0.320142  0.596338  1
  O  O38  1  0.761118  0.088718  0.939169  1
  O  O39  1  0.513254  0.587496  0.192265  1
  O  O40  1  0.738882  0.911282  0.560831  1
  O  O41  1  0.915475  0.679858  0.903662  1
  O  O42  1  0.670088  0.181492  0.158016  1
  O  O43  1  0.930575  0.202875  0.762028  1
  O  O44  1  0.676427  0.711488  0.011428  1
  O  O45  1  0.823573  0.288512  0.488572  1
  O  O46  1  0.829912  0.818508  0.341984  1
  O  O47  1  0.986746  0.412504  0.307735  1
