# generated using pymatgen
data_Li2Sn(BO3)2
_symmetry_space_group_name_H-M   'P 1'
_cell_length_a   5.22364574
_cell_length_b   8.98132460
_cell_length_c   10.48521584
_cell_angle_alpha   90.00000000
_cell_angle_beta   93.18313024
_cell_angle_gamma   90.00000000
_symmetry_Int_Tables_number   1
_chemical_formula_structural   Li2Sn(BO3)2
_chemical_formula_sum   'Li8 Sn4 B8 O24'
_cell_volume   491.15765578
_cell_formula_units_Z   4
loop_
 _symmetry_equiv_pos_site_id
 _symmetry_equiv_pos_as_xyz
  1  'x, y, z'
loop_
 _atom_site_type_symbol
 _atom_site_label
 _atom_site_symmetry_multiplicity
 _atom_site_fract_x
 _atom_site_fract_y
 _atom_site_fract_z
 _atom_site_occupancy
  Li  Li0  1  0.196379  0.656790  0.639951  1
  Li  Li1  1  0.195113  0.971847  0.098930  1
  Li  Li2  1  0.303621  0.156790  0.860049  1
  Li  Li3  1  0.304887  0.471847  0.401070  1
  Li  Li4  1  0.671471  0.515824  0.588353  1
  Li  Li5  1  0.638066  0.541376  0.182635  1
  Li  Li6  1  0.828529  0.015824  0.911647  1
  Li  Li7  1  0.861934  0.041376  0.317365  1
  Sn  Sn8  1  0.133808  0.305468  0.128034  1
  Sn  Sn9  1  0.366192  0.805468  0.371966  1
  Sn  Sn10  1  0.654442  0.169819  0.626408  1
  Sn  Sn11  1  0.845558  0.669819  0.873592  1
  B  B12  1  0.171693  0.331255  0.615793  1
  B  B13  1  0.145358  0.649192  0.131642  1
  B  B14  1  0.328307  0.831255  0.884207  1
  B  B15  1  0.354642  0.149192  0.368358  1
  B  B16  1  0.669692  0.829038  0.630136  1
  B  B17  1  0.676263  0.200542  0.121503  1
  B  B18  1  0.830308  0.329038  0.869864  1
  B  B19  1  0.823737  0.700542  0.378497  1
  O  O20  1  0.071696  0.311106  0.931001  1
  O  O21  1  0.074046  0.656945  0.402933  1
  O  O22  1  0.179488  0.948996  0.912189  1
  O  O23  1  0.225521  0.015788  0.344981  1
  O  O24  1  0.237305  0.278441  0.322439  1
  O  O25  1  0.273622  0.192177  0.654323  1
  O  O26  1  0.226378  0.692177  0.845677  1
  O  O27  1  0.262695  0.778441  0.177561  1
  O  O28  1  0.274479  0.515788  0.155019  1
  O  O29  1  0.320512  0.448996  0.587811  1
  O  O30  1  0.428304  0.811106  0.568999  1
  O  O31  1  0.425954  0.156945  0.097067  1
  O  O32  1  0.598060  0.841881  0.894075  1
  O  O33  1  0.596250  0.151396  0.430459  1
  O  O34  1  0.617854  0.602120  0.380315  1
  O  O35  1  0.712199  0.463590  0.845410  1
  O  O36  1  0.699406  0.199043  0.827678  1
  O  O37  1  0.745940  0.346938  0.147762  1
  O  O38  1  0.754060  0.846938  0.352238  1
  O  O39  1  0.800594  0.699043  0.672322  1
  O  O40  1  0.787801  0.963590  0.654590  1
  O  O41  1  0.882146  0.102120  0.119685  1
  O  O42  1  0.901940  0.341881  0.605925  1
  O  O43  1  0.903750  0.651396  0.069541  1
