# generated using pymatgen
data_Na5MnHO4
_symmetry_space_group_name_H-M   'P 1'
_cell_length_a   10.09625223
_cell_length_b   10.36104672
_cell_length_c   12.14891514
_cell_angle_alpha   90.00000000
_cell_angle_beta   90.00000000
_cell_angle_gamma   90.00000000
_symmetry_Int_Tables_number   1
_chemical_formula_structural   Na5MnHO4
_chemical_formula_sum   'Na40 Mn8 H8 O32'
_cell_volume   1270.87056903
_cell_formula_units_Z   8
loop_
 _symmetry_equiv_pos_site_id
 _symmetry_equiv_pos_as_xyz
  1  'x, y, z'
loop_
 _atom_site_type_symbol
 _atom_site_label
 _atom_site_symmetry_multiplicity
 _atom_site_fract_x
 _atom_site_fract_y
 _atom_site_fract_z
 _atom_site_occupancy
  Na  Na0  1  0.989235  0.587798  0.208906  1
  Na  Na1  1  0.989235  0.912202  0.208906  1
  Na  Na2  1  0.069984  0.063410  0.417300  1
  Na  Na3  1  0.069984  0.436590  0.417300  1
  Na  Na4  1  0.080800  0.750000  0.446161  1
  Na  Na5  1  0.117809  0.250000  0.982970  1
  Na  Na6  1  0.123485  0.563923  0.990788  1
  Na  Na7  1  0.123485  0.936077  0.990788  1
  Na  Na8  1  0.215971  0.576816  0.670285  1
  Na  Na9  1  0.215971  0.923184  0.670285  1
  Na  Na10  1  0.284029  0.076816  0.170285  1
  Na  Na11  1  0.284029  0.423184  0.170285  1
  Na  Na12  1  0.376515  0.063923  0.490788  1
  Na  Na13  1  0.376515  0.436077  0.490788  1
  Na  Na14  1  0.382191  0.750000  0.482970  1
  Na  Na15  1  0.419200  0.250000  0.946161  1
  Na  Na16  1  0.430016  0.563410  0.917300  1
  Na  Na17  1  0.430016  0.936590  0.917300  1
  Na  Na18  1  0.510765  0.087798  0.708906  1
  Na  Na19  1  0.510765  0.412202  0.708906  1
  Na  Na20  1  0.489235  0.587798  0.291094  1
  Na  Na21  1  0.489235  0.912202  0.291094  1
  Na  Na22  1  0.569984  0.063410  0.082700  1
  Na  Na23  1  0.569984  0.436590  0.082700  1
  Na  Na24  1  0.580800  0.750000  0.053839  1
  Na  Na25  1  0.617809  0.250000  0.517030  1
  Na  Na26  1  0.623485  0.563923  0.509212  1
  Na  Na27  1  0.623485  0.936077  0.509212  1
  Na  Na28  1  0.715971  0.576816  0.829715  1
  Na  Na29  1  0.715971  0.923184  0.829715  1
  Na  Na30  1  0.784029  0.076816  0.329715  1
  Na  Na31  1  0.784029  0.423184  0.329715  1
  Na  Na32  1  0.876515  0.063923  0.009212  1
  Na  Na33  1  0.876515  0.436077  0.009212  1
  Na  Na34  1  0.882191  0.750000  0.017030  1
  Na  Na35  1  0.919200  0.250000  0.553839  1
  Na  Na36  1  0.930016  0.936590  0.582700  1
  Na  Na37  1  0.930016  0.563410  0.582700  1
  Na  Na38  1  0.010765  0.087798  0.791094  1
  Na  Na39  1  0.010765  0.412202  0.791094  1
  Mn  Mn40  1  0.012298  0.250000  0.206826  1
  Mn  Mn41  1  0.203877  0.250000  0.625103  1
  Mn  Mn42  1  0.296123  0.750000  0.125103  1
  Mn  Mn43  1  0.487702  0.750000  0.706826  1
  Mn  Mn44  1  0.512298  0.250000  0.293174  1
  Mn  Mn45  1  0.703877  0.250000  0.874897  1
  Mn  Mn46  1  0.796123  0.750000  0.374897  1
  Mn  Mn47  1  0.987702  0.750000  0.793174  1
  H  H48  1  0.231906  0.625456  0.311303  1
  H  H49  1  0.231906  0.874544  0.311303  1
  H  H50  1  0.268094  0.125456  0.811303  1
  H  H51  1  0.268094  0.374544  0.811303  1
  H  H52  1  0.731906  0.625456  0.188697  1
  H  H53  1  0.731906  0.874544  0.188697  1
  H  H54  1  0.768094  0.125456  0.688697  1
  H  H55  1  0.768094  0.374544  0.688697  1
  O  O56  1  0.062101  0.750000  0.642572  1
  O  O57  1  0.064308  0.406642  0.121743  1
  O  O58  1  0.064308  0.093358  0.121743  1
  O  O59  1  0.090770  0.406510  0.608416  1
  O  O60  1  0.090770  0.093490  0.608416  1
  O  O61  1  0.100894  0.750000  0.112508  1
  O  O62  1  0.242794  0.079789  0.878840  1
  O  O63  1  0.242794  0.420211  0.878840  1
  O  O64  1  0.257206  0.579789  0.378840  1
  O  O65  1  0.257206  0.920211  0.378840  1
  O  O66  1  0.399106  0.250000  0.612508  1
  O  O67  1  0.409230  0.593490  0.108416  1
  O  O68  1  0.409230  0.906510  0.108416  1
  O  O69  1  0.435692  0.593358  0.621743  1
  O  O70  1  0.435692  0.906642  0.621743  1
  O  O71  1  0.437899  0.250000  0.142572  1
  O  O72  1  0.562101  0.750000  0.857428  1
  O  O73  1  0.564308  0.093358  0.378257  1
  O  O74  1  0.564308  0.406642  0.378257  1
  O  O75  1  0.590770  0.093490  0.891584  1
  O  O76  1  0.590770  0.406510  0.891584  1
  O  O77  1  0.600894  0.750000  0.387492  1
  O  O78  1  0.742794  0.079789  0.621160  1
  O  O79  1  0.742794  0.420211  0.621160  1
  O  O80  1  0.757206  0.579789  0.121160  1
  O  O81  1  0.757206  0.920211  0.121160  1
  O  O82  1  0.899106  0.250000  0.887492  1
  O  O83  1  0.909230  0.906510  0.391584  1
  O  O84  1  0.909230  0.593490  0.391584  1
  O  O85  1  0.935692  0.906642  0.878257  1
  O  O86  1  0.935692  0.593358  0.878257  1
  O  O87  1  0.937899  0.250000  0.357428  1
