# generated using pymatgen
data_Li7Zr3Nb(TeO6)4
_symmetry_space_group_name_H-M   'P 1'
_cell_length_a   5.25802199
_cell_length_b   5.25802206
_cell_length_c   18.70535923
_cell_angle_alpha   89.99999899
_cell_angle_beta   98.07958934
_cell_angle_gamma   60.00000039
_symmetry_Int_Tables_number   1
_chemical_formula_structural   Li7Zr3Nb(TeO6)4
_chemical_formula_sum   'Li7 Zr3 Nb1 Te4 O24'
_cell_volume   441.92185620
_cell_formula_units_Z   1
loop_
 _symmetry_equiv_pos_site_id
 _symmetry_equiv_pos_as_xyz
  1  'x, y, z'
loop_
 _atom_site_type_symbol
 _atom_site_label
 _atom_site_symmetry_multiplicity
 _atom_site_fract_x
 _atom_site_fract_y
 _atom_site_fract_z
 _atom_site_occupancy
  Li  Li0  1  0.114565  0.442717  0.671848  1
  Li  Li1  1  0.116087  0.941957  0.174130  1
  Li  Li2  1  0.615437  0.692281  0.923157  1
  Li  Li3  1  0.356525  0.321737  0.034787  1
  Li  Li4  1  0.616386  0.191807  0.424579  1
  Li  Li5  1  0.856028  0.071986  0.784042  1
  Li  Li6  1  0.857768  0.571116  0.286652  1
  Zr  Zr7  1  0.999170  0.000415  0.998755  1
  Zr  Zr8  1  0.498357  0.750821  0.747536  1
  Zr  Zr9  1  0.500419  0.249790  0.250629  1
  Nb  Nb10  1  0.000701  0.499649  0.501052  1
  Te  Te11  1  0.249066  0.375467  0.873599  1
  Te  Te12  1  0.251970  0.874015  0.377954  1
  Te  Te13  1  0.748670  0.125665  0.623005  1
  Te  Te14  1  0.750203  0.624899  0.125304  1
  O  O15  1  0.096541  0.079976  0.687647  1
  O  O16  1  0.271752  0.070259  0.938850  1
  O  O17  1  0.009109  0.657989  0.938850  1
  O  O18  1  0.007486  0.176999  0.439745  1
  O  O19  1  0.001709  0.322638  0.067191  1
  O  O20  1  0.500904  0.073699  0.815937  1
  O  O21  1  0.976032  0.813466  0.564346  1
  O  O22  1  0.377812  0.210502  0.564346  1
  O  O23  1  0.241335  0.684967  0.815937  1
  O  O24  1  0.249938  0.179160  0.319824  1
  O  O25  1  0.596840  0.332902  0.938850  1
  O  O26  1  0.097551  0.581804  0.190434  1
  O  O27  1  0.255259  0.567742  0.439745  1
  O  O28  1  0.511131  0.408894  0.687647  1
  O  O29  1  0.498984  0.570902  0.319824  1
  O  O30  1  0.889635  0.425399  0.815937  1
  O  O31  1  0.389829  0.675653  0.067191  1
  O  O32  1  0.774848  0.411686  0.564346  1
  O  O33  1  0.616744  0.815514  0.439745  1
  O  O34  1  0.767622  0.823483  0.687647  1
  O  O35  1  0.772238  0.320645  0.190434  1
  O  O36  1  0.511079  0.907117  0.190434  1
  O  O37  1  0.890727  0.930114  0.319824  1
  O  O38  1  0.742844  0.934518  0.067191  1
