# generated using pymatgen
data_Nd3SbO7
_symmetry_space_group_name_H-M   'P 1'
_cell_length_a   6.69934244
_cell_length_b   6.69934244
_cell_length_c   7.76917794
_cell_angle_alpha   90.00000000
_cell_angle_beta   90.00000000
_cell_angle_gamma   109.70005986
_symmetry_Int_Tables_number   1
_chemical_formula_structural   Nd3SbO7
_chemical_formula_sum   'Nd6 Sb2 O14'
_cell_volume   328.28118905
_cell_formula_units_Z   2
loop_
 _symmetry_equiv_pos_site_id
 _symmetry_equiv_pos_as_xyz
  1  'x, y, z'
loop_
 _atom_site_type_symbol
 _atom_site_label
 _atom_site_symmetry_multiplicity
 _atom_site_fract_x
 _atom_site_fract_y
 _atom_site_fract_z
 _atom_site_occupancy
  Nd  Nd0  1  0.000569  0.468434  0.499857  1
  Nd  Nd1  1  0.531566  0.999431  0.500143  1
  Nd  Nd2  1  0.502214  0.502214  0.250000  1
  Nd  Nd3  1  0.497786  0.497786  0.750000  1
  Nd  Nd4  1  0.468434  0.000569  0.000143  1
  Nd  Nd5  1  0.999431  0.531566  0.999857  1
  Sb  Sb6  1  0.000021  0.000021  0.250000  1
  Sb  Sb7  1  -0.000021  -0.000021  0.750000  1
  O  O8  1  0.062569  0.937431  0.000000  1
  O  O9  1  0.686052  0.931621  0.777396  1
  O  O10  1  0.068379  0.313948  0.222604  1
  O  O11  1  0.685101  0.929294  0.222753  1
  O  O12  1  0.070706  0.314899  0.777247  1
  O  O13  1  0.365164  0.634836  0.000000  1
  O  O14  1  0.370636  0.629364  0.500000  1
  O  O15  1  0.629364  0.370636  0.000000  1
  O  O16  1  0.634836  0.365164  0.500000  1
  O  O17  1  0.314899  0.070706  0.722753  1
  O  O18  1  0.929294  0.685101  0.277247  1
  O  O19  1  0.931621  0.686052  0.722604  1
  O  O20  1  0.313948  0.068379  0.277396  1
  O  O21  1  0.937431  0.062569  0.500000  1
