# generated using pymatgen
data_VFe2Ni3(PO4)6
_symmetry_space_group_name_H-M   'P 1'
_cell_length_a   8.38459138
_cell_length_b   8.64627875
_cell_length_c   8.64627902
_cell_angle_alpha   59.99999860
_cell_angle_beta   58.96207947
_cell_angle_gamma   58.96207832
_symmetry_Int_Tables_number   1
_chemical_formula_structural   VFe2Ni3(PO4)6
_chemical_formula_sum   'V1 Fe2 Ni3 P6 O24'
_cell_volume   436.14498473
_cell_formula_units_Z   1
loop_
 _symmetry_equiv_pos_site_id
 _symmetry_equiv_pos_as_xyz
  1  'x, y, z'
loop_
 _atom_site_type_symbol
 _atom_site_label
 _atom_site_symmetry_multiplicity
 _atom_site_fract_x
 _atom_site_fract_y
 _atom_site_fract_z
 _atom_site_occupancy
  V  V0  1  0.563677  0.145441  0.145441  1
  Fe  Fe1  1  0.012585  0.995805  0.995805  1
  Fe  Fe2  1  0.506448  0.497851  0.497851  1
  Ni  Ni3  1  0.072068  0.642644  0.642644  1
  Ni  Ni4  1  0.434815  0.855062  0.855062  1
  Ni  Ni5  1  0.925845  0.358052  0.358052  1
  P  P6  1  0.244741  0.254009  0.547477  1
  P  P7  1  0.244741  0.953773  0.254009  1
  P  P8  1  0.244741  0.547477  0.953773  1
  P  P9  1  0.749317  0.453053  0.046615  1
  P  P10  1  0.749317  0.046615  0.751015  1
  P  P11  1  0.749317  0.751015  0.453053  1
  O  O12  1  0.062764  0.105107  0.329261  1
  O  O13  1  0.062764  0.502867  0.105107  1
  O  O14  1  0.062764  0.329261  0.502867  1
  O  O15  1  0.217731  0.096750  0.745785  1
  O  O16  1  0.430701  0.173859  0.379474  1
  O  O17  1  0.299295  0.399714  0.547376  1
  O  O18  1  0.217731  0.939735  0.096750  1
  O  O19  1  0.299295  0.753614  0.399714  1
  O  O20  1  0.561434  0.602464  0.008202  1
  O  O21  1  0.299295  0.547376  0.753614  1
  O  O22  1  0.774303  0.245104  0.068072  1
  O  O23  1  0.561434  0.008202  0.827899  1
  O  O24  1  0.430701  0.015964  0.173859  1
  O  O25  1  0.217731  0.745785  0.939735  1
  O  O26  1  0.714807  0.433834  0.250678  1
  O  O27  1  0.430701  0.379474  0.015964  1
  O  O28  1  0.714807  0.250678  0.600681  1
  O  O29  1  0.774303  0.068072  0.912522  1
  O  O30  1  0.714807  0.600681  0.433834  1
  O  O31  1  0.561434  0.827899  0.602464  1
  O  O32  1  0.774303  0.912522  0.245104  1
  O  O33  1  0.939762  0.686802  0.481065  1
  O  O34  1  0.939762  0.481065  0.892372  1
  O  O35  1  0.939762  0.892372  0.686802  1
