# generated using pymatgen
data_Te8Rh3
_symmetry_space_group_name_H-M   'P 1'
_cell_length_a   6.52445752
_cell_length_b   6.52445751
_cell_length_c   6.52445752
_cell_angle_alpha   90.92950411
_cell_angle_beta   90.92950411
_cell_angle_gamma   90.92950411
_symmetry_Int_Tables_number   1
_chemical_formula_structural   Te8Rh3
_chemical_formula_sum   'Te8 Rh3'
_cell_volume   277.62582735
_cell_formula_units_Z   1
loop_
 _symmetry_equiv_pos_site_id
 _symmetry_equiv_pos_as_xyz
  1  'x, y, z'
loop_
 _atom_site_type_symbol
 _atom_site_label
 _atom_site_symmetry_multiplicity
 _atom_site_fract_x
 _atom_site_fract_y
 _atom_site_fract_z
 _atom_site_occupancy
  Rh  Rh0  1  0.500000  0.500000  0.000000  1
  Rh  Rh1  1  0.000000  0.500000  0.500000  1
  Rh  Rh2  1  0.500000  0.000000  0.500000  1
  Te  Te3  1  0.369085  0.369085  0.369085  1
  Te  Te4  1  0.630915  0.630915  0.630915  1
  Te  Te5  1  0.129761  0.626308  0.876677  1
  Te  Te6  1  0.876677  0.129761  0.626308  1
  Te  Te7  1  0.626308  0.876677  0.129761  1
  Te  Te8  1  0.870239  0.373692  0.123323  1
  Te  Te9  1  0.123323  0.870239  0.373692  1
  Te  Te10  1  0.373692  0.123323  0.870239  1
