# generated using pymatgen
data_Li4V3P8O29
_symmetry_space_group_name_H-M   'P 1'
_cell_length_a   9.80215072
_cell_length_b   9.79114659
_cell_length_c   13.95652731
_cell_angle_alpha   89.95469610
_cell_angle_beta   89.98978861
_cell_angle_gamma   59.96515089
_symmetry_Int_Tables_number   1
_chemical_formula_structural   Li4V3P8O29
_chemical_formula_sum   'Li8 V6 P16 O58'
_cell_volume   1159.60522994
_cell_formula_units_Z   2
loop_
 _symmetry_equiv_pos_site_id
 _symmetry_equiv_pos_as_xyz
  1  'x, y, z'
loop_
 _atom_site_type_symbol
 _atom_site_label
 _atom_site_symmetry_multiplicity
 _atom_site_fract_x
 _atom_site_fract_y
 _atom_site_fract_z
 _atom_site_occupancy
  Li  Li0  1  0.908904  0.772356  0.058906  1
  Li  Li1  1  0.772349  0.317855  0.060430  1
  Li  Li2  1  0.321805  0.903457  0.057985  1
  Li  Li3  1  0.681039  0.227719  0.441137  1
  Li  Li4  1  0.322460  0.771689  0.560150  1
  Li  Li5  1  0.090200  0.682135  0.439563  1
  Li  Li6  1  0.225413  0.096631  0.442019  1
  Li  Li7  1  0.094036  0.228350  0.939799  1
  V  V8  1  0.567990  0.432563  0.247906  1
  V  V9  1  0.432383  0.562690  0.756328  1
  V  V10  1  0.571326  0.000054  0.750017  1
  V  V11  1  0.436048  0.999983  0.249964  1
  V  V12  1  0.000490  0.567434  0.252151  1
  V  V13  1  0.995056  0.437348  0.743641  1
  P  P14  1  0.913202  0.769645  0.842206  1
  P  P15  1  0.769729  0.916087  0.343799  1
  P  P16  1  0.913996  0.316186  0.341560  1
  P  P17  1  0.667698  0.667589  0.126699  1
  P  P18  1  0.660602  0.670807  0.628169  1
  P  P19  1  0.773057  0.315798  0.842085  1
  P  P20  1  0.682930  0.230338  0.657760  1
  P  P21  1  0.319569  0.911927  0.841222  1
  P  P22  1  0.685877  0.083941  0.156196  1
  P  P23  1  0.320426  0.767978  0.342567  1
  P  P24  1  0.230269  0.683699  0.158484  1
  P  P25  1  0.335241  0.332389  0.373279  1
  P  P26  1  0.331251  0.329243  0.871812  1
  P  P27  1  0.088821  0.684200  0.657908  1
  P  P28  1  0.231499  0.088176  0.658802  1
  P  P29  1  0.088372  0.231994  0.157441  1
  O  O30  1  0.008284  0.754276  0.566272  1
  O  O31  1  0.915382  0.748626  0.342364  1
  O  O32  1  0.763598  0.991610  0.068990  1
  O  O33  1  0.743974  0.913217  0.833641  1
  O  O34  1  0.906326  0.616683  0.820452  1
  O  O35  1  0.812250  0.675313  0.166632  1
  O  O36  1  0.904699  0.477479  0.323478  1
  O  O37  1  0.003560  0.238447  0.066058  1
  O  O38  1  0.918709  0.339276  0.837119  1
  O  O39  1  0.663199  0.816145  0.674581  1
  O  O40  1  0.617845  0.905142  0.322532  1
  O  O41  1  0.813405  0.520706  0.672647  1
  O  O42  1  0.657129  0.675081  0.019828  1
  O  O43  1  0.662370  0.670360  0.522098  1
  O  O44  1  0.673929  0.513569  0.165939  1
  O  O45  1  0.477656  0.905612  0.824000  1
  O  O46  1  0.512233  0.817187  0.170844  1
  O  O47  1  0.745609  0.338844  0.339138  1
  O  O48  1  0.793369  0.208914  0.749694  1
  O  O49  1  0.753581  0.240082  0.566574  1
  O  O50  1  0.762696  0.245714  0.933698  1
  O  O51  1  0.619758  0.478109  0.822691  1
  O  O52  1  0.512001  0.668904  0.669501  1
  O  O53  1  0.664000  0.251454  0.157673  1
  O  O54  1  0.479959  0.621559  0.324322  1
  O  O55  1  0.336240  0.918934  0.339345  1
  O  O56  1  0.791584  0.000025  0.250004  1
  O  O57  1  0.755004  0.008496  0.431011  1
  O  O58  1  0.240473  0.000540  0.568947  1
  O  O59  1  0.657260  0.086764  0.666384  1
  O  O60  1  0.523021  0.383300  0.679503  1
  O  O61  1  0.343023  0.743637  0.836062  1
  O  O62  1  0.487559  0.324669  0.333373  1
  O  O63  1  0.382211  0.522415  0.176569  1
  O  O64  1  0.238651  0.768014  0.072304  1
  O  O65  1  0.242068  0.761474  0.433991  1
  O  O66  1  0.206382  0.788309  0.254249  1
  O  O67  1  0.257956  0.660770  0.662805  1
  O  O68  1  0.479239  0.183870  0.825402  1
  O  O69  1  0.523026  0.094862  0.177411  1
  O  O70  1  0.333979  0.479311  0.827329  1
  O  O71  1  0.332704  0.329567  0.977898  1
  O  O72  1  0.332122  0.324881  0.480158  1
  O  O73  1  0.187464  0.486404  0.334067  1
  O  O74  1  0.383303  0.094408  0.675962  1
  O  O75  1  0.329420  0.182804  0.329118  1
  O  O76  1  0.084457  0.661122  0.160967  1
  O  O77  1  0.002251  0.791098  0.750278  1
  O  O78  1  0.993635  0.759850  0.933413  1
  O  O79  1  0.097845  0.521918  0.677298  1
  O  O80  1  0.180833  0.331106  0.830531  1
  O  O81  1  0.101470  0.378423  0.175685  1
  O  O82  1  0.255175  0.081041  0.160672  1
  O  O83  1  0.240942  0.999515  0.931022  1
  O  O84  1  0.207613  0.000015  0.749993  1
  O  O85  1  0.086734  0.256398  0.663946  1
  O  O86  1  0.006810  0.231906  0.427736  1
  O  O87  1  0.994721  0.211586  0.245812  1
