# generated using pymatgen
data_Mn3CrSn2(PO4)6
_symmetry_space_group_name_H-M   'P 1'
_cell_length_a   8.59513948
_cell_length_b   8.59513964
_cell_length_c   8.59514015
_cell_angle_alpha   61.53151001
_cell_angle_beta   61.53151630
_cell_angle_gamma   61.53151346
_symmetry_Int_Tables_number   1
_chemical_formula_structural   Mn3CrSn2(PO4)6
_chemical_formula_sum   'Mn3 Cr1 Sn2 P6 O24'
_cell_volume   464.42986952
_cell_formula_units_Z   1
loop_
 _symmetry_equiv_pos_site_id
 _symmetry_equiv_pos_as_xyz
  1  'x, y, z'
loop_
 _atom_site_type_symbol
 _atom_site_label
 _atom_site_symmetry_multiplicity
 _atom_site_fract_x
 _atom_site_fract_y
 _atom_site_fract_z
 _atom_site_occupancy
  Mn  Mn0  1  0.151920  0.151920  0.151920  1
  Mn  Mn1  1  0.346810  0.346810  0.346810  1
  Mn  Mn2  1  0.650435  0.650435  0.650435  1
  Cr  Cr3  1  0.854504  0.854504  0.854504  1
  Sn  Sn4  1  0.002295  0.002295  0.002295  1
  Sn  Sn5  1  0.499210  0.499210  0.499210  1
  P  P6  1  0.750514  0.454758  0.047360  1
  P  P7  1  0.248688  0.553929  0.944417  1
  P  P8  1  0.553929  0.944417  0.248688  1
  P  P9  1  0.944417  0.248688  0.553929  1
  P  P10  1  0.047360  0.750514  0.454758  1
  P  P11  1  0.454758  0.047360  0.750514  1
  O  O12  1  0.090658  0.317299  0.524734  1
  O  O13  1  0.317299  0.524734  0.090658  1
  O  O14  1  0.066268  0.905101  0.251657  1
  O  O15  1  0.524734  0.090658  0.317299  1
  O  O16  1  0.999792  0.824039  0.606524  1
  O  O17  1  0.250809  0.601615  0.437042  1
  O  O18  1  0.251657  0.066268  0.905101  1
  O  O19  1  0.437042  0.250809  0.601615  1
  O  O20  1  0.178393  0.404320  0.982398  1
  O  O21  1  0.601615  0.437042  0.250809  1
  O  O22  1  0.090730  0.757187  0.925005  1
  O  O23  1  0.404320  0.982398  0.178393  1
  O  O24  1  0.606524  0.999792  0.824039  1
  O  O25  1  0.905101  0.251657  0.066268  1
  O  O26  1  0.398605  0.576208  0.741075  1
  O  O27  1  0.824039  0.606524  0.999792  1
  O  O28  1  0.576208  0.741075  0.398605  1
  O  O29  1  0.757187  0.925005  0.090730  1
  O  O30  1  0.741075  0.398605  0.576208  1
  O  O31  1  0.982398  0.178393  0.404320  1
  O  O32  1  0.485554  0.903970  0.676182  1
  O  O33  1  0.925005  0.090730  0.757187  1
  O  O34  1  0.676182  0.485554  0.903970  1
  O  O35  1  0.903970  0.676182  0.485554  1
