# generated using pymatgen
data_Li4Mn2Nb3Fe3O16
_symmetry_space_group_name_H-M   'P 1'
_cell_length_a   6.06126182
_cell_length_b   6.15834838
_cell_length_c   9.92249268
_cell_angle_alpha   90.08672758
_cell_angle_beta   88.63361822
_cell_angle_gamma   120.59094132
_symmetry_Int_Tables_number   1
_chemical_formula_structural   Li4Mn2Nb3Fe3O16
_chemical_formula_sum   'Li4 Mn2 Nb3 Fe3 O16'
_cell_volume   318.71690914
_cell_formula_units_Z   1
loop_
 _symmetry_equiv_pos_site_id
 _symmetry_equiv_pos_as_xyz
  1  'x, y, z'
loop_
 _atom_site_type_symbol
 _atom_site_label
 _atom_site_symmetry_multiplicity
 _atom_site_fract_x
 _atom_site_fract_y
 _atom_site_fract_z
 _atom_site_occupancy
  Li  Li0  1  0.325679  0.663035  0.902803  1
  Li  Li1  1  0.028223  0.013685  0.998554  1
  Li  Li2  1  0.043133  0.021126  0.493777  1
  Li  Li3  1  0.669011  0.334806  0.377191  1
  Mn  Mn4  1  0.304886  0.652594  0.488365  1
  Mn  Mn5  1  0.659165  0.329770  0.995311  1
  Nb  Nb6  1  0.662539  0.831794  0.215208  1
  Nb  Nb7  1  0.813071  0.656497  0.714111  1
  Nb  Nb8  1  0.815594  0.157301  0.714857  1
  Fe  Fe9  1  0.168170  0.826417  0.212608  1
  Fe  Fe10  1  0.168773  0.341864  0.212646  1
  Fe  Fe11  1  0.336795  0.168337  0.719510  1
  O  O12  1  0.145677  0.834065  0.612065  1
  O  O13  1  0.032254  0.516201  0.326731  1
  O  O14  1  0.348116  0.674019  0.100810  1
  O  O15  1  0.004696  0.002299  0.310776  1
  O  O16  1  0.972524  0.986548  0.818348  1
  O  O17  1  0.146266  0.311747  0.611795  1
  O  O18  1  0.493038  0.970557  0.330158  1
  O  O19  1  0.493172  0.523037  0.330183  1
  O  O20  1  0.341750  0.170780  0.100436  1
  O  O21  1  0.672770  0.836430  0.605640  1
  O  O22  1  0.514948  0.486693  0.839987  1
  O  O23  1  0.515266  0.030269  0.840198  1
  O  O24  1  0.688404  0.343501  0.599677  1
  O  O25  1  0.844753  0.686173  0.097733  1
  O  O26  1  0.945848  0.473103  0.840430  1
  O  O27  1  0.845478  0.157650  0.097934  1
