# generated using pymatgen
data_K2Pr2H3(S2O9)2
_symmetry_space_group_name_H-M   'P 1'
_cell_length_a   11.01586361
_cell_length_b   15.65011198
_cell_length_c   10.18943465
_cell_angle_alpha   90.00000000
_cell_angle_beta   111.96988883
_cell_angle_gamma   90.00000000
_symmetry_Int_Tables_number   1
_chemical_formula_structural   K2Pr2H3(S2O9)2
_chemical_formula_sum   'K8 Pr8 H12 S16 O72'
_cell_volume   1629.08630687
_cell_formula_units_Z   4
loop_
 _symmetry_equiv_pos_site_id
 _symmetry_equiv_pos_as_xyz
  1  'x, y, z'
loop_
 _atom_site_type_symbol
 _atom_site_label
 _atom_site_symmetry_multiplicity
 _atom_site_fract_x
 _atom_site_fract_y
 _atom_site_fract_z
 _atom_site_occupancy
  K  K0  1  0.346716  0.328536  0.826370  1
  K  K1  1  0.653284  0.828536  0.673630  1
  K  K2  1  0.653284  0.671464  0.173630  1
  K  K3  1  0.346716  0.171464  0.326370  1
  K  K4  1  0.845422  0.419204  0.826680  1
  K  K5  1  0.154578  0.919204  0.673320  1
  K  K6  1  0.154578  0.580796  0.173320  1
  K  K7  1  0.845422  0.080796  0.326680  1
  Pr  Pr8  1  0.998493  0.170180  0.770412  1
  Pr  Pr9  1  0.001507  0.670180  0.729588  1
  Pr  Pr10  1  0.001507  0.829820  0.229588  1
  Pr  Pr11  1  0.998493  0.329820  0.270412  1
  Pr  Pr12  1  0.504443  0.081178  0.764680  1
  Pr  Pr13  1  0.495557  0.581178  0.735320  1
  Pr  Pr14  1  0.495557  0.918822  0.235320  1
  Pr  Pr15  1  0.504443  0.418822  0.264680  1
  H  H16  1  0.988401  0.474682  0.630625  1
  H  H17  1  0.011600  0.974682  0.869375  1
  H  H18  1  0.011600  0.525318  0.369375  1
  H  H19  1  0.988401  0.025318  0.130625  1
  H  H20  1  0.117509  0.491612  0.756955  1
  H  H21  1  0.882491  0.991612  0.743045  1
  H  H22  1  0.882491  0.508388  0.243045  1
  H  H23  1  0.117509  0.008388  0.256955  1
  H  H24  1  0.640401  0.247899  0.793540  1
  H  H25  1  0.359599  0.747899  0.706460  1
  H  H26  1  0.359599  0.752101  0.206460  1
  H  H27  1  0.640401  0.252101  0.293540  1
  S  S28  1  0.667065  0.070968  0.551206  1
  S  S29  1  0.332935  0.570968  0.948794  1
  S  S30  1  0.332935  0.929032  0.448794  1
  S  S31  1  0.667065  0.429032  0.051206  1
  S  S32  1  0.347008  0.409880  0.468002  1
  S  S33  1  0.652992  0.909880  0.031998  1
  S  S34  1  0.652992  0.590120  0.531998  1
  S  S35  1  0.347008  0.090120  0.968002  1
  S  S36  1  0.840867  0.331979  0.484249  1
  S  S37  1  0.159133  0.831979  0.015751  1
  S  S38  1  0.159133  0.668021  0.515751  1
  S  S39  1  0.840867  0.168021  0.984249  1
  S  S40  1  0.155830  0.169389  0.560813  1
  S  S41  1  0.844171  0.669389  0.939187  1
  S  S42  1  0.844171  0.830611  0.439187  1
  S  S43  1  0.155830  0.330611  0.060813  1
  O  O44  1  0.792323  0.116742  0.578680  1
  O  O45  1  0.207677  0.616742  0.921320  1
  O  O46  1  0.207677  0.883258  0.421320  1
  O  O47  1  0.792323  0.383258  0.078680  1
  O  O48  1  0.622625  0.466338  0.906830  1
  O  O49  1  0.377375  0.966338  0.593170  1
  O  O50  1  0.377375  0.533662  0.093170  1
  O  O51  1  0.622625  0.033662  0.406830  1
  O  O52  1  0.563504  0.130998  0.558618  1
  O  O53  1  0.436496  0.630998  0.941382  1
  O  O54  1  0.436496  0.869002  0.441382  1
  O  O55  1  0.563504  0.369002  0.058618  1
  O  O56  1  0.685671  0.004905  0.662656  1
  O  O57  1  0.314329  0.504905  0.837344  1
  O  O58  1  0.314329  0.995095  0.337344  1
  O  O59  1  0.685671  0.495095  0.162656  1
  O  O60  1  0.396533  0.440669  0.616321  1
  O  O61  1  0.603467  0.940669  0.883679  1
  O  O62  1  0.603467  0.559331  0.383679  1
  O  O63  1  0.396533  0.059331  0.116321  1
  O  O64  1  0.348858  0.019672  0.868973  1
  O  O65  1  0.651142  0.519672  0.631027  1
  O  O66  1  0.651142  0.980328  0.131027  1
  O  O67  1  0.348858  0.480328  0.368973  1
  O  O68  1  0.433124  0.158659  0.947513  1
  O  O69  1  0.566876  0.658659  0.552487  1
  O  O70  1  0.566876  0.841341  0.052487  1
  O  O71  1  0.433124  0.341341  0.447513  1
  O  O72  1  0.211740  0.122568  0.932209  1
  O  O73  1  0.788260  0.622568  0.567791  1
  O  O74  1  0.788260  0.877432  0.067791  1
  O  O75  1  0.211740  0.377432  0.432209  1
  O  O76  1  0.715407  0.121204  0.945069  1
  O  O77  1  0.284593  0.621204  0.554931  1
  O  O78  1  0.284593  0.878796  0.054931  1
  O  O79  1  0.715407  0.378796  0.445069  1
  O  O80  1  0.946317  0.108307  0.982177  1
  O  O81  1  0.053683  0.608307  0.517823  1
  O  O82  1  0.053683  0.891693  0.017823  1
  O  O83  1  0.946317  0.391693  0.482177  1
  O  O84  1  0.874346  0.295140  0.627293  1
  O  O85  1  0.125654  0.795140  0.872707  1
  O  O86  1  0.125654  0.704860  0.372707  1
  O  O87  1  0.874346  0.204860  0.127293  1
  O  O88  1  0.829866  0.235071  0.875008  1
  O  O89  1  0.170134  0.735071  0.624992  1
  O  O90  1  0.170134  0.764929  0.124992  1
  O  O91  1  0.829866  0.264929  0.375008  1
  O  O92  1  0.079261  0.095587  0.583633  1
  O  O93  1  0.920739  0.595587  0.916367  1
  O  O94  1  0.920739  0.904413  0.416367  1
  O  O95  1  0.079261  0.404413  0.083633  1
  O  O96  1  0.102436  0.304307  0.909495  1
  O  O97  1  0.897564  0.804307  0.590505  1
  O  O98  1  0.897564  0.695693  0.090505  1
  O  O99  1  0.102436  0.195693  0.409495  1
  O  O100  1  0.296322  0.147775  0.600874  1
  O  O101  1  0.703678  0.647775  0.899126  1
  O  O102  1  0.703678  0.852225  0.399126  1
  O  O103  1  0.296322  0.352225  0.100874  1
  O  O104  1  0.140007  0.239337  0.653321  1
  O  O105  1  0.859993  0.739337  0.846679  1
  O  O106  1  0.859993  0.760663  0.346679  1
  O  O107  1  0.140007  0.260663  0.153321  1
  O  O108  1  0.022432  0.502867  0.723698  1
  O  O109  1  0.977568  0.002867  0.776302  1
  O  O110  1  0.977568  0.497133  0.276302  1
  O  O111  1  0.022432  0.997133  0.223698  1
  O  O112  1  0.544612  0.239618  0.758573  1
  O  O113  1  0.455388  0.739618  0.741427  1
  O  O114  1  0.455388  0.760382  0.241427  1
  O  O115  1  0.544612  0.260382  0.258573  1
