# generated using pymatgen
data_PH6N3O
_symmetry_space_group_name_H-M   'P 1'
_cell_length_a   8.56524287
_cell_length_b   8.91969807
_cell_length_c   5.44831413
_cell_angle_alpha   90.00000000
_cell_angle_beta   94.44737972
_cell_angle_gamma   90.00000000
_symmetry_Int_Tables_number   1
_chemical_formula_structural   PH6N3O
_chemical_formula_sum   'P4 H24 N12 O4'
_cell_volume   414.99448900
_cell_formula_units_Z   4
loop_
 _symmetry_equiv_pos_site_id
 _symmetry_equiv_pos_as_xyz
  1  'x, y, z'
loop_
 _atom_site_type_symbol
 _atom_site_label
 _atom_site_symmetry_multiplicity
 _atom_site_fract_x
 _atom_site_fract_y
 _atom_site_fract_z
 _atom_site_occupancy
  P  P0  1  0.251617  0.474467  0.666106  1
  P  P1  1  0.748383  0.974467  0.833894  1
  P  P2  1  0.748383  0.525533  0.333894  1
  P  P3  1  0.251617  0.025533  0.166106  1
  H  H4  1  0.105535  0.266151  0.568892  1
  H  H5  1  0.894465  0.766151  0.931108  1
  H  H6  1  0.894465  0.733849  0.431108  1
  H  H7  1  0.105535  0.233849  0.068892  1
  H  H8  1  0.997469  0.396527  0.701240  1
  H  H9  1  0.002531  0.896527  0.798760  1
  H  H10  1  0.002531  0.603473  0.298760  1
  H  H11  1  0.997469  0.103473  0.201240  1
  H  H12  1  0.401400  0.291061  0.860326  1
  H  H13  1  0.598600  0.791061  0.639674  1
  H  H14  1  0.598600  0.708939  0.139674  1
  H  H15  1  0.401400  0.208939  0.360326  1
  H  H16  1  0.511225  0.395741  0.677005  1
  H  H17  1  0.488775  0.895741  0.822995  1
  H  H18  1  0.488775  0.604259  0.322995  1
  H  H19  1  0.511225  0.104259  0.177005  1
  H  H20  1  0.254015  0.704229  0.867275  1
  H  H21  1  0.745985  0.204229  0.632725  1
  H  H22  1  0.745985  0.295771  0.132725  1
  H  H23  1  0.254015  0.795771  0.367275  1
  H  H24  1  0.233427  0.559418  0.068261  1
  H  H25  1  0.766573  0.059418  0.431739  1
  H  H26  1  0.766573  0.440582  0.931739  1
  H  H27  1  0.233427  0.940582  0.568261  1
  N  N28  1  0.107049  0.352792  0.692664  1
  N  N29  1  0.892951  0.852792  0.807336  1
  N  N30  1  0.892951  0.647208  0.307336  1
  N  N31  1  0.107049  0.147208  0.192664  1
  N  N32  1  0.401575  0.355128  0.703726  1
  N  N33  1  0.598425  0.855128  0.796274  1
  N  N34  1  0.598425  0.644872  0.296274  1
  N  N35  1  0.401575  0.144872  0.203726  1
  N  N36  1  0.224369  0.594057  0.888553  1
  N  N37  1  0.775631  0.094057  0.611447  1
  N  N38  1  0.775631  0.405943  0.111447  1
  N  N39  1  0.224369  0.905943  0.388553  1
  O  O40  1  0.263296  0.561436  0.429839  1
  O  O41  1  0.736704  0.061436  0.070161  1
  O  O42  1  0.736704  0.438564  0.570161  1
  O  O43  1  0.263296  0.938564  0.929839  1
