# generated using pymatgen
data_LiMnPO4
_symmetry_space_group_name_H-M   'P 1'
_cell_length_a   5.01338881
_cell_length_b   5.51733934
_cell_length_c   6.71567792
_cell_angle_alpha   77.27541838
_cell_angle_beta   90.07620437
_cell_angle_gamma   63.15012917
_symmetry_Int_Tables_number   1
_chemical_formula_structural   LiMnPO4
_chemical_formula_sum   'Li2 Mn2 P2 O8'
_cell_volume   160.57457217
_cell_formula_units_Z   2
loop_
 _symmetry_equiv_pos_site_id
 _symmetry_equiv_pos_as_xyz
  1  'x, y, z'
loop_
 _atom_site_type_symbol
 _atom_site_label
 _atom_site_symmetry_multiplicity
 _atom_site_fract_x
 _atom_site_fract_y
 _atom_site_fract_z
 _atom_site_occupancy
  Li  Li0  1  0.936407  0.002978  0.502058  1
  Li  Li1  1  0.966895  0.000167  0.995383  1
  Mn  Mn2  1  0.644879  0.714311  0.729045  1
  Mn  Mn3  1  0.359736  0.286645  0.274377  1
  P  P4  1  0.686124  0.646642  0.232145  1
  P  P5  1  0.328578  0.356422  0.771741  1
  O  O6  1  0.246651  0.672573  0.680158  1
  O  O7  1  0.696682  0.831949  0.377637  1
  O  O8  1  0.785765  0.731731  0.021913  1
  O  O9  1  0.361325  0.683958  0.212382  1
  O  O10  1  0.042391  0.316461  0.790480  1
  O  O11  1  0.515032  0.270137  0.981629  1
  O  O12  1  0.525025  0.172968  0.626263  1
  O  O13  1  0.921012  0.332209  0.326139  1
