# generated using pymatgen
data_V4(OF3)3
_symmetry_space_group_name_H-M   'P 1'
_cell_length_a   5.23734027
_cell_length_b   5.43917934
_cell_length_c   17.50069996
_cell_angle_alpha   91.57133993
_cell_angle_beta   99.43243683
_cell_angle_gamma   60.60020213
_symmetry_Int_Tables_number   1
_chemical_formula_structural   V4(OF3)3
_chemical_formula_sum   'V8 O6 F18'
_cell_volume   427.64656217
_cell_formula_units_Z   2
loop_
 _symmetry_equiv_pos_site_id
 _symmetry_equiv_pos_as_xyz
  1  'x, y, z'
loop_
 _atom_site_type_symbol
 _atom_site_label
 _atom_site_symmetry_multiplicity
 _atom_site_fract_x
 _atom_site_fract_y
 _atom_site_fract_z
 _atom_site_occupancy
  V  V0  1  0.741110  0.632194  0.124760  1
  V  V1  1  0.787215  0.087032  0.621954  1
  V  V2  1  0.454914  0.279976  0.248169  1
  V  V3  1  0.484035  0.750774  0.747519  1
  V  V4  1  0.218091  0.911364  0.379084  1
  V  V5  1  0.281787  0.356065  0.882290  1
  V  V6  1  0.026669  0.985618  0.001639  1
  V  V7  1  0.001162  0.500587  0.500204  1
  O  O8  1  0.951762  0.822721  0.564501  1
  O  O9  1  0.390026  0.801195  0.040699  1
  O  O10  1  0.574270  0.210816  0.955622  1
  O  O11  1  0.092928  0.460245  0.208838  1
  O  O12  1  0.118525  0.934993  0.708552  1
  O  O13  1  0.048997  0.178350  0.435084  1
  F  F14  1  0.904605  0.851956  0.084794  1
  F  F15  1  0.960232  0.322032  0.059038  1
  F  F16  1  0.527051  0.941579  0.190138  1
  F  F17  1  0.905441  0.049995  0.287780  1
  F  F18  1  0.930197  0.333460  0.586734  1
  F  F19  1  0.920779  0.537014  0.792884  1
  F  F20  1  0.582737  0.408894  0.165366  1
  F  F21  1  0.590860  0.905095  0.664841  1
  F  F22  1  0.576069  0.703183  0.459783  1
  F  F23  1  0.456774  0.573527  0.315107  1
  F  F24  1  0.560771  0.414905  0.688369  1
  F  F25  1  0.425028  0.085850  0.336671  1
  F  F26  1  0.424891  0.296734  0.540646  1
  F  F27  1  0.419430  0.590809  0.837713  1
  F  F28  1  0.069093  0.669084  0.412964  1
  F  F29  1  0.475113  0.063804  0.810421  1
  F  F30  1  0.021319  0.683599  0.937001  1
  F  F31  1  0.078117  0.156552  0.910837  1
