# generated using pymatgen
data_LiBH2C4O9
_symmetry_space_group_name_H-M   'P 1'
_cell_length_a   16.26743160
_cell_length_b   16.07750769
_cell_length_c   5.65596438
_cell_angle_alpha   90.00000000
_cell_angle_beta   90.00000000
_cell_angle_gamma   90.00000000
_symmetry_Int_Tables_number   1
_chemical_formula_structural   LiBH2C4O9
_chemical_formula_sum   'Li8 B8 H16 C32 O72'
_cell_volume   1479.25954754
_cell_formula_units_Z   8
loop_
 _symmetry_equiv_pos_site_id
 _symmetry_equiv_pos_as_xyz
  1  'x, y, z'
loop_
 _atom_site_type_symbol
 _atom_site_label
 _atom_site_symmetry_multiplicity
 _atom_site_fract_x
 _atom_site_fract_y
 _atom_site_fract_z
 _atom_site_occupancy
  Li  Li0  1  0.154428  0.248239  0.623184  1
  Li  Li1  1  0.654428  0.251761  0.376816  1
  Li  Li2  1  0.845572  0.748239  0.876816  1
  Li  Li3  1  0.345572  0.751761  0.123184  1
  Li  Li4  1  0.845572  0.751761  0.376816  1
  Li  Li5  1  0.345572  0.748239  0.623184  1
  Li  Li6  1  0.154428  0.251761  0.123184  1
  Li  Li7  1  0.654428  0.248239  0.876816  1
  B  B8  1  0.910216  0.442506  0.719157  1
  B  B9  1  0.410216  0.057494  0.280843  1
  B  B10  1  0.089784  0.942506  0.780843  1
  B  B11  1  0.589784  0.557494  0.219157  1
  B  B12  1  0.089784  0.557494  0.280843  1
  B  B13  1  0.589784  0.942506  0.719157  1
  B  B14  1  0.910216  0.057494  0.219157  1
  B  B15  1  0.410216  0.442506  0.780843  1
  H  H16  1  0.290751  0.228419  0.367093  1
  H  H17  1  0.790751  0.271581  0.632907  1
  H  H18  1  0.709249  0.728419  0.132907  1
  H  H19  1  0.209249  0.771581  0.867093  1
  H  H20  1  0.709249  0.771581  0.632907  1
  H  H21  1  0.209249  0.728419  0.367093  1
  H  H22  1  0.290751  0.271581  0.867093  1
  H  H23  1  0.790751  0.228419  0.132907  1
  H  H24  1  0.238057  0.145796  0.336451  1
  H  H25  1  0.738057  0.354204  0.663549  1
  H  H26  1  0.761943  0.645796  0.163549  1
  H  H27  1  0.261943  0.854204  0.836451  1
  H  H28  1  0.761943  0.854204  0.663549  1
  H  H29  1  0.261943  0.645796  0.336451  1
  H  H30  1  0.238057  0.354204  0.836451  1
  H  H31  1  0.738057  0.145796  0.163549  1
  C  C32  1  0.003942  0.345650  0.853077  1
  C  C33  1  0.503942  0.154350  0.146923  1
  C  C34  1  0.996058  0.845650  0.646923  1
  C  C35  1  0.496058  0.654350  0.353077  1
  C  C36  1  0.996058  0.654350  0.146923  1
  C  C37  1  0.496058  0.845650  0.853077  1
  C  C38  1  0.003942  0.154350  0.353077  1
  C  C39  1  0.503942  0.345650  0.646923  1
  C  C40  1  0.920813  0.332752  0.980390  1
  C  C41  1  0.420813  0.167248  0.019610  1
  C  C42  1  0.079187  0.832752  0.519610  1
  C  C43  1  0.579187  0.667248  0.480390  1
  C  C44  1  0.079187  0.667248  0.019610  1
  C  C45  1  0.579187  0.832752  0.980390  1
  C  C46  1  0.920813  0.167248  0.480390  1
  C  C47  1  0.420813  0.332752  0.519610  1
  C  C48  1  0.866879  0.574121  0.624631  1
  C  C49  1  0.366879  0.925879  0.375369  1
  C  C50  1  0.133121  0.074121  0.875369  1
  C  C51  1  0.633121  0.425879  0.124631  1
  C  C52  1  0.133121  0.425879  0.375369  1
  C  C53  1  0.633121  0.074121  0.624631  1
  C  C54  1  0.866879  0.925879  0.124631  1
  C  C55  1  0.366879  0.574121  0.875369  1
  C  C56  1  0.838062  0.513103  0.431265  1
  C  C57  1  0.338062  0.986897  0.568735  1
  C  C58  1  0.161938  0.013103  0.068735  1
  C  C59  1  0.661938  0.486897  0.931265  1
  C  C60  1  0.161938  0.486897  0.568735  1
  C  C61  1  0.661938  0.013103  0.431265  1
  C  C62  1  0.838062  0.986897  0.931265  1
  C  C63  1  0.338062  0.513103  0.068735  1
  O  O64  1  0.866809  0.438044  0.488856  1
  O  O65  1  0.366809  0.061956  0.511144  1
  O  O66  1  0.133191  0.938044  0.011144  1
  O  O67  1  0.633191  0.561956  0.988856  1
  O  O68  1  0.133191  0.561956  0.511144  1
  O  O69  1  0.633191  0.938044  0.488856  1
  O  O70  1  0.866809  0.061956  0.988856  1
  O  O71  1  0.366809  0.438044  0.011144  1
  O  O72  1  0.065997  0.303975  0.877876  1
  O  O73  1  0.565997  0.196025  0.122124  1
  O  O74  1  0.934003  0.803975  0.622124  1
  O  O75  1  0.434003  0.696025  0.377876  1
  O  O76  1  0.934003  0.696025  0.122124  1
  O  O77  1  0.434003  0.803975  0.877876  1
  O  O78  1  0.065997  0.196025  0.377876  1
  O  O79  1  0.565997  0.303975  0.622124  1
  O  O80  1  0.852423  0.648714  0.629767  1
  O  O81  1  0.352423  0.851286  0.370233  1
  O  O82  1  0.147577  0.148714  0.870233  1
  O  O83  1  0.647577  0.351286  0.129767  1
  O  O84  1  0.147577  0.351286  0.370233  1
  O  O85  1  0.647577  0.148714  0.629767  1
  O  O86  1  0.852423  0.851286  0.129767  1
  O  O87  1  0.352423  0.648714  0.870233  1
  O  O88  1  0.995669  0.409308  0.704925  1
  O  O89  1  0.495669  0.090692  0.295075  1
  O  O90  1  0.004331  0.909308  0.795075  1
  O  O91  1  0.504331  0.590692  0.204925  1
  O  O92  1  0.004331  0.590692  0.295075  1
  O  O93  1  0.504331  0.909308  0.704925  1
  O  O94  1  0.995669  0.090692  0.204925  1
  O  O95  1  0.495669  0.409308  0.795075  1
  O  O96  1  0.903896  0.277846  0.120565  1
  O  O97  1  0.403896  0.222154  0.879435  1
  O  O98  1  0.096104  0.777846  0.379435  1
  O  O99  1  0.596104  0.722154  0.620565  1
  O  O100  1  0.096104  0.722154  0.879435  1
  O  O101  1  0.596104  0.777846  0.120565  1
  O  O102  1  0.903896  0.222154  0.620565  1
  O  O103  1  0.403896  0.277846  0.379435  1
  O  O104  1  0.796787  0.530479  0.258837  1
  O  O105  1  0.296787  0.969521  0.741163  1
  O  O106  1  0.203213  0.030479  0.241163  1
  O  O107  1  0.703213  0.469521  0.758837  1
  O  O108  1  0.203213  0.469521  0.741163  1
  O  O109  1  0.703213  0.030479  0.258837  1
  O  O110  1  0.796787  0.969521  0.758837  1
  O  O111  1  0.296787  0.530479  0.241163  1
  O  O112  1  0.909478  0.532223  0.784872  1
  O  O113  1  0.409478  0.967777  0.215128  1
  O  O114  1  0.090522  0.032223  0.715128  1
  O  O115  1  0.590522  0.467777  0.284872  1
  O  O116  1  0.090522  0.467777  0.215128  1
  O  O117  1  0.590522  0.032223  0.784872  1
  O  O118  1  0.909478  0.967777  0.284872  1
  O  O119  1  0.409478  0.532223  0.715128  1
  O  O120  1  0.869279  0.390420  0.900509  1
  O  O121  1  0.369279  0.109580  0.099491  1
  O  O122  1  0.130721  0.890420  0.599491  1
  O  O123  1  0.630721  0.609580  0.400509  1
  O  O124  1  0.130721  0.609580  0.099491  1
  O  O125  1  0.630721  0.890420  0.900509  1
  O  O126  1  0.869279  0.109580  0.400509  1
  O  O127  1  0.369279  0.390420  0.599491  1
  O  O128  1  0.234749  0.205536  0.372715  1
  O  O129  1  0.734749  0.294464  0.627285  1
  O  O130  1  0.765251  0.705536  0.127285  1
  O  O131  1  0.265251  0.794464  0.872715  1
  O  O132  1  0.765251  0.794464  0.627285  1
  O  O133  1  0.265251  0.705536  0.372715  1
  O  O134  1  0.234749  0.294464  0.872715  1
  O  O135  1  0.734749  0.205536  0.127285  1
