# generated using pymatgen
data_KPH3O3F
_symmetry_space_group_name_H-M   'P 1'
_cell_length_a   6.82918370
_cell_length_b   10.94555050
_cell_length_c   7.92774059
_cell_angle_alpha   90.00000000
_cell_angle_beta   128.06123835
_cell_angle_gamma   90.00000000
_symmetry_Int_Tables_number   1
_chemical_formula_structural   KPH3O3F
_chemical_formula_sum   'K4 P4 H12 O12 F4'
_cell_volume   466.57871513
_cell_formula_units_Z   4
loop_
 _symmetry_equiv_pos_site_id
 _symmetry_equiv_pos_as_xyz
  1  'x, y, z'
loop_
 _atom_site_type_symbol
 _atom_site_label
 _atom_site_symmetry_multiplicity
 _atom_site_fract_x
 _atom_site_fract_y
 _atom_site_fract_z
 _atom_site_occupancy
  K  K0  1  0.065219  0.320713  0.615363  1
  K  K1  1  0.934781  0.820713  0.884637  1
  K  K2  1  0.934781  0.679287  0.384637  1
  K  K3  1  0.065219  0.179287  0.115363  1
  P  P4  1  0.404441  0.047493  0.698249  1
  P  P5  1  0.595559  0.547493  0.801751  1
  P  P6  1  0.595559  0.952507  0.301751  1
  P  P7  1  0.404441  0.452507  0.198249  1
  H  H8  1  0.284986  0.947478  0.557914  1
  H  H9  1  0.715014  0.447478  0.942086  1
  H  H10  1  0.715014  0.052522  0.442086  1
  H  H11  1  0.284986  0.552522  0.057914  1
  H  H12  1  0.283119  0.039650  0.903813  1
  H  H13  1  0.716881  0.539650  0.596187  1
  H  H14  1  0.716881  0.960350  0.096187  1
  H  H15  1  0.283119  0.460350  0.403813  1
  H  H16  1  0.589712  0.221385  0.640451  1
  H  H17  1  0.410288  0.721385  0.859549  1
  H  H18  1  0.410288  0.778615  0.359549  1
  H  H19  1  0.589712  0.278615  0.140451  1
  O  O20  1  0.666239  0.010481  0.888558  1
  O  O21  1  0.333761  0.510481  0.611442  1
  O  O22  1  0.333761  0.989519  0.111442  1
  O  O23  1  0.666239  0.489519  0.388558  1
  O  O24  1  0.234610  0.080379  0.765837  1
  O  O25  1  0.765390  0.580379  0.734163  1
  O  O26  1  0.765390  0.919621  0.234163  1
  O  O27  1  0.234610  0.419621  0.265837  1
  O  O28  1  0.384404  0.156213  0.565899  1
  O  O29  1  0.615596  0.656213  0.934101  1
  O  O30  1  0.615596  0.843787  0.434101  1
  O  O31  1  0.384404  0.343787  0.065899  1
  F  F32  1  0.750801  0.272864  0.702048  1
  F  F33  1  0.249199  0.772864  0.797952  1
  F  F34  1  0.249199  0.727136  0.297952  1
  F  F35  1  0.750801  0.227136  0.202048  1
