# generated using pymatgen
data_TbCeO4
_symmetry_space_group_name_H-M   'P 1'
_cell_length_a   7.63686917
_cell_length_b   5.60429232
_cell_length_c   3.81278786
_cell_angle_alpha   90.14898308
_cell_angle_beta   94.54862551
_cell_angle_gamma   89.98082479
_symmetry_Int_Tables_number   1
_chemical_formula_structural   TbCeO4
_chemical_formula_sum   'Tb2 Ce2 O8'
_cell_volume   162.66993122
_cell_formula_units_Z   2
loop_
 _symmetry_equiv_pos_site_id
 _symmetry_equiv_pos_as_xyz
  1  'x, y, z'
loop_
 _atom_site_type_symbol
 _atom_site_label
 _atom_site_symmetry_multiplicity
 _atom_site_fract_x
 _atom_site_fract_y
 _atom_site_fract_z
 _atom_site_occupancy
  Tb  Tb0  1  0.126301  0.245060  0.224795  1
  Tb  Tb1  1  0.873169  0.744959  0.772261  1
  Ce  Ce2  1  0.374792  0.744496  0.731314  1
  Ce  Ce3  1  0.624396  0.245406  0.268063  1
  O  O4  1  0.118198  0.994277  0.720683  1
  O  O5  1  0.118310  0.497314  0.722006  1
  O  O6  1  0.374285  0.497678  0.234319  1
  O  O7  1  0.373854  0.990587  0.232204  1
  O  O8  1  0.625826  0.493070  0.767365  1
  O  O9  1  0.625345  -0.000118  0.764864  1
  O  O10  1  0.879788  0.995722  0.273237  1
  O  O11  1  0.879612  0.492266  0.272254  1
