# generated using pymatgen
data_Na5Li3Ti5O14
_symmetry_space_group_name_H-M   'P 1'
_cell_length_a   8.19284370
_cell_length_b   7.03750950
_cell_length_c   5.22810692
_cell_angle_alpha   97.62297441
_cell_angle_beta   101.75013801
_cell_angle_gamma   88.47939472
_symmetry_Int_Tables_number   1
_chemical_formula_structural   Na5Li3Ti5O14
_chemical_formula_sum   'Na5 Li3 Ti5 O14'
_cell_volume   292.51325416
_cell_formula_units_Z   1
loop_
 _symmetry_equiv_pos_site_id
 _symmetry_equiv_pos_as_xyz
  1  'x, y, z'
loop_
 _atom_site_type_symbol
 _atom_site_label
 _atom_site_symmetry_multiplicity
 _atom_site_fract_x
 _atom_site_fract_y
 _atom_site_fract_z
 _atom_site_occupancy
  Na  Na0  1  0.200452  0.706722  0.350750  1
  Na  Na1  1  0.360081  0.863655  0.928103  1
  Na  Na2  1  0.505810  0.997631  0.489756  1
  Na  Na3  1  0.641844  0.143195  0.095397  1
  Na  Na4  1  0.779306  0.270460  0.643073  1
  Li  Li5  1  0.061598  0.563684  0.774053  1
  Li  Li6  1  0.285564  0.295179  0.139425  1
  Li  Li7  1  0.933822  0.429704  0.221718  1
  Ti  Ti8  1  0.002416  0.008215  0.994162  1
  Ti  Ti9  1  0.130138  0.140404  0.561695  1
  Ti  Ti10  1  0.410251  0.423693  0.711812  1
  Ti  Ti11  1  0.584454  0.574699  0.294462  1
  Ti  Ti12  1  0.734598  0.716198  0.867721  1
  O  O13  1  0.041133  0.253414  0.882597  1
  O  O14  1  0.104132  0.907068  0.700147  1
  O  O15  1  0.188142  0.418612  0.505781  1
  O  O16  1  0.215445  0.015715  0.256985  1
  O  O17  1  0.374587  0.175542  0.790248  1
  O  O18  1  0.350282  0.551594  0.026113  1
  O  O19  1  0.488219  0.687033  0.600325  1
  O  O20  1  0.515907  0.324286  0.404592  1
  O  O21  1  0.665720  0.454146  0.974780  1
  O  O22  1  0.617783  0.811023  0.157654  1
  O  O23  1  0.769300  0.971385  0.802647  1
  O  O24  1  0.793735  0.574145  0.536364  1
  O  O25  1  0.928960  0.154864  0.311798  1
  O  O26  1  0.956045  0.718326  0.045940  1
