# generated using pymatgen
data_NaLiMnP2O7
_symmetry_space_group_name_H-M   'P 1'
_cell_length_a   6.69850617
_cell_length_b   7.04612098
_cell_length_c   6.63529810
_cell_angle_alpha   85.59766363
_cell_angle_beta   96.50644804
_cell_angle_gamma   112.97464490
_symmetry_Int_Tables_number   1
_chemical_formula_structural   NaLiMnP2O7
_chemical_formula_sum   'Na2 Li2 Mn2 P4 O14'
_cell_volume   286.29583428
_cell_formula_units_Z   2
loop_
 _symmetry_equiv_pos_site_id
 _symmetry_equiv_pos_as_xyz
  1  'x, y, z'
loop_
 _atom_site_type_symbol
 _atom_site_label
 _atom_site_symmetry_multiplicity
 _atom_site_fract_x
 _atom_site_fract_y
 _atom_site_fract_z
 _atom_site_occupancy
  Na  Na0  1  0.269272  0.850551  0.139076  1
  Na  Na1  1  0.666292  0.113346  0.843445  1
  Li  Li2  1  0.658040  0.964205  0.353933  1
  Li  Li3  1  0.000972  0.514738  0.889954  1
  Mn  Mn4  1  0.130381  0.249242  0.338779  1
  Mn  Mn5  1  0.909589  0.791867  0.645033  1
  P  P6  1  0.776927  0.744996  0.145398  1
  P  P7  1  0.660173  0.343721  0.397155  1
  P  P8  1  0.352258  0.655338  0.616534  1
  P  P9  1  0.219538  0.245955  0.846714  1
  O  O10  1  0.613940  0.844162  0.082491  1
  O  O11  1  0.085919  0.294529  0.998870  1
  O  O12  1  0.638158  0.518340  0.231425  1
  O  O13  1  0.802212  0.247937  0.311932  1
  O  O14  1  0.938875  0.868646  0.322077  1
  O  O15  1  0.425447  0.184511  0.399280  1
  O  O16  1  0.258289  0.575675  0.403752  1
  O  O17  1  0.761298  0.448616  0.599413  1
  O  O18  1  0.585644  0.822206  0.611746  1
  O  O19  1  0.059680  0.133577  0.664519  1
  O  O20  1  0.203915  0.725849  0.724829  1
  O  O21  1  0.382059  0.468318  0.757538  1
  O  O22  1  0.903746  0.719030  0.977488  1
  O  O23  1  0.364900  0.141619  0.941910  1
