# generated using pymatgen
data_LiMnF3
_symmetry_space_group_name_H-M   'P 1'
_cell_length_a   7.00079964
_cell_length_b   8.05082168
_cell_length_c   21.51586594
_cell_angle_alpha   97.01785348
_cell_angle_beta   82.39544826
_cell_angle_gamma   91.26307563
_symmetry_Int_Tables_number   1
_chemical_formula_structural   LiMnF3
_chemical_formula_sum   'Li18 Mn18 F54'
_cell_volume   1192.98920113
_cell_formula_units_Z   18
loop_
 _symmetry_equiv_pos_site_id
 _symmetry_equiv_pos_as_xyz
  1  'x, y, z'
loop_
 _atom_site_type_symbol
 _atom_site_label
 _atom_site_symmetry_multiplicity
 _atom_site_fract_x
 _atom_site_fract_y
 _atom_site_fract_z
 _atom_site_occupancy
  Li  Li0  1  0.253277  0.703283  0.134306  1
  Li  Li1  1  0.102310  0.293309  0.704412  1
  Li  Li2  1  0.339903  0.398189  0.348429  1
  Li  Li3  1  0.251963  0.309247  0.553819  1
  Li  Li4  1  0.173136  0.996027  0.912504  1
  Li  Li5  1  0.463081  0.431065  0.202871  1
  Li  Li6  1  0.621331  0.281020  0.018102  1
  Li  Li7  1  0.303282  0.020550  0.767950  1
  Li  Li8  1  0.486623  0.865506  0.578612  1
  Li  Li9  1  0.513377  0.134494  0.421388  1
  Li  Li10  1  0.696718  0.979450  0.232050  1
  Li  Li11  1  0.378669  0.718980  0.981898  1
  Li  Li12  1  0.536919  0.568935  0.797129  1
  Li  Li13  1  0.826864  0.003973  0.087496  1
  Li  Li14  1  0.748037  0.690753  0.446181  1
  Li  Li15  1  0.660097  0.601811  0.651571  1
  Li  Li16  1  0.897690  0.706691  0.295588  1
  Li  Li17  1  0.746723  0.296717  0.865694  1
  Mn  Mn18  1  0.107599  0.352036  0.033054  1
  Mn  Mn19  1  0.059793  0.009803  0.416864  1
  Mn  Mn20  1  0.198494  0.047248  0.259463  1
  Mn  Mn21  1  0.009259  0.669705  0.812347  1
  Mn  Mn22  1  0.235762  0.692614  0.491620  1
  Mn  Mn23  1  0.396956  0.038391  0.097190  1
  Mn  Mn24  1  0.150102  0.676482  0.652438  1
  Mn  Mn25  1  0.429910  0.756892  0.336070  1
  Mn  Mn26  1  0.244653  0.359614  0.864819  1
  Mn  Mn27  1  0.755347  0.640386  0.135181  1
  Mn  Mn28  1  0.570090  0.243108  0.663930  1
  Mn  Mn29  1  0.849898  0.323518  0.347562  1
  Mn  Mn30  1  0.603044  0.961609  0.902810  1
  Mn  Mn31  1  0.764238  0.307386  0.508380  1
  Mn  Mn32  1  0.990741  0.330295  0.187653  1
  Mn  Mn33  1  0.801506  0.952752  0.740537  1
  Mn  Mn34  1  0.940207  0.990197  0.583136  1
  Mn  Mn35  1  0.892401  0.647964  0.966946  1
  F  F36  1  0.021987  0.168976  0.099618  1
  F  F37  1  0.058534  0.529012  0.127368  1
  F  F38  1  0.096006  0.863816  0.326629  1
  F  F39  1  0.189886  0.925334  0.173689  1
  F  F40  1  0.036497  0.171165  0.515859  1
  F  F41  1  0.138891  0.215912  0.355106  1
  F  F42  1  0.369945  0.788498  0.064967  1
  F  F43  1  0.034381  0.521886  0.717995  1
  F  F44  1  0.271001  0.253416  0.205379  1
  F  F45  1  0.146466  0.531096  0.560024  1
  F  F46  1  0.103568  0.858417  0.738684  1
  F  F47  1  0.366980  0.288414  0.062880  1
  F  F48  1  0.258264  0.600376  0.400655  1
  F  F49  1  0.208247  0.879666  0.576887  1
  F  F50  1  0.341372  0.946450  0.422387  1
  F  F51  1  0.464498  0.616332  0.160266  1
  F  F52  1  0.460544  0.972430  0.288345  1
  F  F53  1  0.431976  0.529035  0.286049  1
  F  F54  1  0.118694  0.223609  0.939500  1
  F  F55  1  0.197137  0.234829  0.774483  1
  F  F56  1  0.297145  0.259316  0.633244  1
  F  F57  1  0.182050  0.550386  0.970740  1
  F  F58  1  0.277767  0.609768  0.827842  1
  F  F59  1  0.621077  0.985318  0.154535  1
  F  F60  1  0.477138  0.276971  0.498183  1
  F  F61  1  0.341606  0.931016  0.961358  1
  F  F62  1  0.558937  0.293081  0.364324  1
  F  F63  1  0.441063  0.706919  0.635676  1
  F  F64  1  0.658394  0.068984  0.038642  1
  F  F65  1  0.522862  0.723029  0.501817  1
  F  F66  1  0.378923  0.014682  0.845465  1
  F  F67  1  0.722233  0.390232  0.172158  1
  F  F68  1  0.817950  0.449614  0.029260  1
  F  F69  1  0.702855  0.740684  0.366756  1
  F  F70  1  0.802863  0.765171  0.225517  1
  F  F71  1  0.881306  0.776391  0.060500  1
  F  F72  1  0.568024  0.470965  0.713951  1
  F  F73  1  0.539456  0.027570  0.711655  1
  F  F74  1  0.535502  0.383668  0.839734  1
  F  F75  1  0.658628  0.053550  0.577613  1
  F  F76  1  0.791753  0.120334  0.423113  1
  F  F77  1  0.741736  0.399624  0.599345  1
  F  F78  1  0.633020  0.711586  0.937120  1
  F  F79  1  0.896432  0.141583  0.261316  1
  F  F80  1  0.853534  0.468904  0.439976  1
  F  F81  1  0.728999  0.746584  0.794621  1
  F  F82  1  0.965619  0.478114  0.282005  1
  F  F83  1  0.630055  0.211502  0.935033  1
  F  F84  1  0.861109  0.784088  0.644894  1
  F  F85  1  0.963503  0.828835  0.484141  1
  F  F86  1  0.810114  0.074666  0.826311  1
  F  F87  1  0.903994  0.136184  0.673371  1
  F  F88  1  0.941466  0.470988  0.872632  1
  F  F89  1  0.978013  0.831024  0.900382  1
