# generated using pymatgen
data_NaVPCO7
_symmetry_space_group_name_H-M   'P 1'
_cell_length_a   8.52385563
_cell_length_b   5.48482576
_cell_length_c   6.43589540
_cell_angle_alpha   90.00000000
_cell_angle_beta   90.00000000
_cell_angle_gamma   87.08007168
_symmetry_Int_Tables_number   1
_chemical_formula_structural   NaVPCO7
_chemical_formula_sum   'Na2 V2 P2 C2 O14'
_cell_volume   300.49945403
_cell_formula_units_Z   2
loop_
 _symmetry_equiv_pos_site_id
 _symmetry_equiv_pos_as_xyz
  1  'x, y, z'
loop_
 _atom_site_type_symbol
 _atom_site_label
 _atom_site_symmetry_multiplicity
 _atom_site_fract_x
 _atom_site_fract_y
 _atom_site_fract_z
 _atom_site_occupancy
  Na  Na0  1  0.081059  0.772785  0.250000  1
  Na  Na1  1  0.918941  0.227215  0.750000  1
  V  V2  1  0.336550  0.779435  0.750000  1
  V  V3  1  0.663450  0.220565  0.250000  1
  P  P4  1  0.436644  0.740023  0.250000  1
  P  P5  1  0.563356  0.259977  0.750000  1
  C  C6  1  0.055511  0.696679  0.750000  1
  C  C7  1  0.944489  0.303321  0.250000  1
  O  O8  1  0.085629  0.346482  0.250000  1
  O  O9  1  0.111404  0.919723  0.750000  1
  O  O10  1  0.173549  0.529167  0.750000  1
  O  O11  1  0.328744  0.784103  0.059918  1
  O  O12  1  0.328744  0.784103  0.440082  1
  O  O13  1  0.426198  0.085778  0.750000  1
  O  O14  1  0.506316  0.473505  0.250000  1
  O  O15  1  0.493684  0.526495  0.750000  1
  O  O16  1  0.573802  0.914222  0.250000  1
  O  O17  1  0.671256  0.215897  0.559918  1
  O  O18  1  0.671256  0.215897  0.940082  1
  O  O19  1  0.826451  0.470833  0.250000  1
  O  O20  1  0.888596  0.080277  0.250000  1
  O  O21  1  0.914371  0.653518  0.750000  1
