# generated using pymatgen
data_LiFe2(BO3)2
_symmetry_space_group_name_H-M   'P 1'
_cell_length_a   5.25863295
_cell_length_b   9.11930646
_cell_length_c   10.09415945
_cell_angle_alpha   91.10277176
_cell_angle_beta   90.74666124
_cell_angle_gamma   89.04324228
_symmetry_Int_Tables_number   1
_chemical_formula_structural   LiFe2(BO3)2
_chemical_formula_sum   'Li4 Fe8 B8 O24'
_cell_volume   483.87003267
_cell_formula_units_Z   4
loop_
 _symmetry_equiv_pos_site_id
 _symmetry_equiv_pos_as_xyz
  1  'x, y, z'
loop_
 _atom_site_type_symbol
 _atom_site_label
 _atom_site_symmetry_multiplicity
 _atom_site_fract_x
 _atom_site_fract_y
 _atom_site_fract_z
 _atom_site_occupancy
  Li  Li0  1  0.818716  0.830899  0.155520  1
  Li  Li1  1  0.674001  0.671249  0.416943  1
  Li  Li2  1  0.671098  0.670643  0.905758  1
  Li  Li3  1  0.171232  0.172792  0.900050  1
  Fe  Fe4  1  0.832921  0.163577  0.631528  1
  Fe  Fe5  1  0.819349  0.492428  0.128303  1
  Fe  Fe6  1  0.685521  0.996716  0.874243  1
  Fe  Fe7  1  0.667489  0.330773  0.375772  1
  Fe  Fe8  1  0.320866  0.664810  0.633113  1
  Fe  Fe9  1  0.331460  0.003557  0.133054  1
  Fe  Fe10  1  0.160580  0.850859  0.384278  1
  Fe  Fe11  1  0.178219  0.496100  0.881067  1
  B  B12  1  0.833110  0.499406  0.622127  1
  B  B13  1  0.834321  0.160054  0.130694  1
  B  B14  1  0.655170  0.001567  0.375438  1
  B  B15  1  0.666830  0.333641  0.876407  1
  B  B16  1  0.338205  0.000434  0.633132  1
  B  B17  1  0.323912  0.675799  0.122619  1
  B  B18  1  0.170331  0.504136  0.379606  1
  B  B19  1  0.177412  0.832952  0.880703  1
  O  O20  1  0.905104  0.503632  0.349895  1
  O  O21  1  0.919243  0.824717  0.887921  1
  O  O22  1  0.816016  0.209731  0.836571  1
  O  O23  1  0.767187  0.127679  0.428095  1
  O  O24  1  0.785400  0.869577  0.363963  1
  O  O25  1  0.791943  0.461853  0.913838  1
  O  O26  1  0.674626  0.620265  0.615346  1
  O  O27  1  0.691096  0.035764  0.096161  1
  O  O28  1  0.745606  0.362817  0.578455  1
  O  O29  1  0.717959  0.284944  0.181935  1
  O  O30  1  0.587228  0.674364  0.115794  1
  O  O31  1  0.595420  0.009324  0.665731  1
  O  O32  1  0.405909  0.011302  0.328290  1
  O  O33  1  0.410003  0.324135  0.879945  1
  O  O34  1  0.324187  0.711850  0.833509  1
  O  O35  1  0.277803  0.637081  0.423855  1
  O  O36  1  0.319720  0.382392  0.367850  1
  O  O37  1  0.307816  0.958964  0.923464  1
  O  O38  1  0.179184  0.559253  0.084789  1
  O  O39  1  0.179664  0.118340  0.645965  1
  O  O40  1  0.245337  0.865870  0.588296  1
  O  O41  1  0.196198  0.807352  0.164303  1
  O  O42  1  0.089251  0.154746  0.106321  1
  O  O43  1  0.080983  0.512846  0.667446  1
