# generated using pymatgen
data_V3OF11
_symmetry_space_group_name_H-M   'P 1'
_cell_length_a   5.45423774
_cell_length_b   5.27029525
_cell_length_c   14.78977379
_cell_angle_alpha   89.99138610
_cell_angle_beta   100.28210762
_cell_angle_gamma   89.90731674
_symmetry_Int_Tables_number   1
_chemical_formula_structural   V3OF11
_chemical_formula_sum   'V6 O2 F22'
_cell_volume   418.31063940
_cell_formula_units_Z   2
loop_
 _symmetry_equiv_pos_site_id
 _symmetry_equiv_pos_as_xyz
  1  'x, y, z'
loop_
 _atom_site_type_symbol
 _atom_site_label
 _atom_site_symmetry_multiplicity
 _atom_site_fract_x
 _atom_site_fract_y
 _atom_site_fract_z
 _atom_site_occupancy
  V  V0  1  0.000185  0.009001  0.006308  1
  V  V1  1  0.125897  0.475285  0.330373  1
  V  V2  1  0.333481  0.999965  0.667087  1
  V  V3  1  0.498089  0.503976  0.998729  1
  V  V4  1  0.655488  0.991949  0.334384  1
  V  V5  1  0.833523  0.500125  0.667114  1
  O  O6  1  0.044812  0.081678  0.114221  1
  O  O7  1  0.874699  0.294828  0.310877  1
  F  F8  1  0.024056  0.199088  0.642264  1
  F  F9  1  0.194077  0.292089  0.973918  1
  F  F10  1  0.143798  0.698791  0.691615  1
  F  F11  1  0.226856  0.427439  0.449410  1
  F  F12  1  0.376626  0.087459  0.784204  1
  F  F13  1  0.135015  0.592044  0.218466  1
  F  F14  1  0.290997  0.916224  0.549499  1
  F  F15  1  0.457336  0.582186  0.881486  1
  F  F16  1  0.357255  0.210582  0.308824  1
  F  F17  1  0.524118  0.301168  0.642016  1
  F  F18  1  0.697664  0.202990  0.974225  1
  F  F19  1  0.303123  0.798177  0.024427  1
  F  F20  1  0.471746  0.707300  0.356908  1
  F  F21  1  0.642749  0.800987  0.691118  1
  F  F22  1  0.542446  0.412418  0.115525  1
  F  F23  1  0.715825  0.087880  0.450738  1
  F  F24  1  0.875130  0.413141  0.784190  1
  F  F25  1  0.628555  0.923655  0.215581  1
  F  F26  1  0.793796  0.585786  0.549698  1
  F  F27  1  0.958259  0.909956  0.884997  1
  F  F28  1  0.804215  0.707400  0.024499  1
  F  F29  1  0.970183  0.786435  0.357302  1
