# generated using pymatgen
data_H24C8S(NO2)2
_symmetry_space_group_name_H-M   'P 1'
_cell_length_a   7.71831586
_cell_length_b   7.71831586
_cell_length_c   11.19779214
_cell_angle_alpha   90.00000000
_cell_angle_beta   90.00000000
_cell_angle_gamma   90.00000000
_symmetry_Int_Tables_number   1
_chemical_formula_structural   H24C8S(NO2)2
_chemical_formula_sum   'H48 C16 S2 N4 O8'
_cell_volume   667.07934929
_cell_formula_units_Z   2
loop_
 _symmetry_equiv_pos_site_id
 _symmetry_equiv_pos_as_xyz
  1  'x, y, z'
loop_
 _atom_site_type_symbol
 _atom_site_label
 _atom_site_symmetry_multiplicity
 _atom_site_fract_x
 _atom_site_fract_y
 _atom_site_fract_z
 _atom_site_occupancy
  H  H0  1  0.616185  0.847871  0.827773  1
  H  H1  1  0.383815  0.152129  0.827773  1
  H  H2  1  0.116185  0.347871  0.672227  1
  H  H3  1  0.883815  0.652129  0.672227  1
  H  H4  1  0.383815  0.847871  0.827773  1
  H  H5  1  0.616185  0.152129  0.827773  1
  H  H6  1  0.883815  0.347871  0.672227  1
  H  H7  1  0.116185  0.652129  0.672227  1
  H  H8  1  0.152129  0.616185  0.172227  1
  H  H9  1  0.847871  0.383815  0.172227  1
  H  H10  1  0.652129  0.116185  0.327773  1
  H  H11  1  0.347871  0.883815  0.327773  1
  H  H12  1  0.847871  0.616185  0.172227  1
  H  H13  1  0.152129  0.383815  0.172227  1
  H  H14  1  0.347871  0.116185  0.327773  1
  H  H15  1  0.652129  0.883815  0.327773  1
  H  H16  1  0.500000  0.726548  0.713781  1
  H  H17  1  0.500000  0.273452  0.713781  1
  H  H18  1  0.000000  0.226548  0.786219  1
  H  H19  1  0.000000  0.773452  0.786219  1
  H  H20  1  0.273452  0.500000  0.286219  1
  H  H21  1  0.726548  0.500000  0.286219  1
  H  H22  1  0.773452  0.000000  0.213781  1
  H  H23  1  0.226548  0.000000  0.213781  1
  H  H24  1  0.341141  0.116895  0.560965  1
  H  H25  1  0.658859  0.883105  0.560965  1
  H  H26  1  0.841141  0.616895  0.939035  1
  H  H27  1  0.158859  0.383105  0.939035  1
  H  H28  1  0.658859  0.116895  0.560965  1
  H  H29  1  0.341141  0.883105  0.560965  1
  H  H30  1  0.158859  0.616895  0.939035  1
  H  H31  1  0.841141  0.383105  0.939035  1
  H  H32  1  0.883105  0.341141  0.439035  1
  H  H33  1  0.116895  0.658859  0.439035  1
  H  H34  1  0.383105  0.841141  0.060965  1
  H  H35  1  0.616895  0.158859  0.060965  1
  H  H36  1  0.116895  0.341141  0.439035  1
  H  H37  1  0.883105  0.658859  0.439035  1
  H  H38  1  0.616895  0.841141  0.060965  1
  H  H39  1  0.383105  0.158859  0.060965  1
  H  H40  1  0.228388  0.000000  0.677288  1
  H  H41  1  0.771612  0.000000  0.677288  1
  H  H42  1  0.728388  0.500000  0.822712  1
  H  H43  1  0.271612  0.500000  0.822712  1
  H  H44  1  0.000000  0.228388  0.322712  1
  H  H45  1  0.000000  0.771612  0.322712  1
  H  H46  1  0.500000  0.728388  0.177288  1
  H  H47  1  0.500000  0.271612  0.177288  1
  C  C48  1  0.500000  0.841649  0.771549  1
  C  C49  1  0.500000  0.158351  0.771549  1
  C  C50  1  0.000000  0.341649  0.728451  1
  C  C51  1  0.000000  0.658351  0.728451  1
  C  C52  1  0.158351  0.500000  0.228451  1
  C  C53  1  0.841649  0.500000  0.228451  1
  C  C54  1  0.658351  0.000000  0.271549  1
  C  C55  1  0.341649  0.000000  0.271549  1
  C  C56  1  0.339684  0.000000  0.616864  1
  C  C57  1  0.660316  0.000000  0.616864  1
  C  C58  1  0.839684  0.500000  0.883136  1
  C  C59  1  0.160316  0.500000  0.883136  1
  C  C60  1  0.000000  0.339684  0.383136  1
  C  C61  1  0.000000  0.660316  0.383136  1
  C  C62  1  0.500000  0.839684  0.116864  1
  C  C63  1  0.500000  0.160316  0.116864  1
  S  S64  1  0.500000  0.500000  0.500000  1
  S  S65  1  0.000000  0.000000  0.000000  1
  N  N66  1  0.500000  0.000000  0.693296  1
  N  N67  1  0.000000  0.500000  0.806704  1
  N  N68  1  0.000000  0.500000  0.306704  1
  N  N69  1  0.500000  0.000000  0.193296  1
  O  O70  1  0.340929  0.500000  0.577207  1
  O  O71  1  0.659072  0.500000  0.577207  1
  O  O72  1  0.840928  0.000000  0.922793  1
  O  O73  1  0.159072  0.000000  0.922793  1
  O  O74  1  0.500000  0.340929  0.422793  1
  O  O75  1  0.500000  0.659072  0.422793  1
  O  O76  1  0.000000  0.840928  0.077207  1
  O  O77  1  0.000000  0.159072  0.077207  1
