# generated using pymatgen
data_Li2Mg3Ti6O16
_symmetry_space_group_name_H-M   'P 1'
_cell_length_a   8.47021172
_cell_length_b   8.47210548
_cell_length_c   8.47538746
_cell_angle_alpha   90.00000000
_cell_angle_beta   90.00000000
_cell_angle_gamma   89.63307869
_symmetry_Int_Tables_number   1
_chemical_formula_structural   Li2Mg3Ti6O16
_chemical_formula_sum   'Li4 Mg6 Ti12 O32'
_cell_volume   608.18580057
_cell_formula_units_Z   2
loop_
 _symmetry_equiv_pos_site_id
 _symmetry_equiv_pos_as_xyz
  1  'x, y, z'
loop_
 _atom_site_type_symbol
 _atom_site_label
 _atom_site_symmetry_multiplicity
 _atom_site_fract_x
 _atom_site_fract_y
 _atom_site_fract_z
 _atom_site_occupancy
  Li  Li0  1  0.503159  0.002255  0.495509  1
  Li  Li1  1  0.624131  0.625658  0.624377  1
  Li  Li2  1  0.875869  0.374342  0.124377  1
  Li  Li3  1  0.996841  0.997745  0.995509  1
  Mg  Mg4  1  0.002955  0.495647  0.501639  1
  Mg  Mg5  1  0.247572  0.747005  0.755553  1
  Mg  Mg6  1  0.252428  0.252995  0.255553  1
  Mg  Mg7  1  0.497045  0.504353  0.001639  1
  Mg  Mg8  1  0.744583  0.753907  0.248143  1
  Mg  Mg9  1  0.755417  0.246093  0.748143  1
  Ti  Ti10  1  0.119102  0.633942  0.133173  1
  Ti  Ti11  1  0.126558  0.359979  0.884196  1
  Ti  Ti12  1  0.137535  0.112847  0.626597  1
  Ti  Ti13  1  0.362465  0.887153  0.126597  1
  Ti  Ti14  1  0.373442  0.640021  0.384196  1
  Ti  Ti15  1  0.380898  0.366058  0.633173  1
  Ti  Ti16  1  0.615439  0.882170  0.863202  1
  Ti  Ti17  1  0.624561  0.128594  0.119588  1
  Ti  Ti18  1  0.630644  0.376527  0.375160  1
  Ti  Ti19  1  0.869356  0.623473  0.875160  1
  Ti  Ti20  1  0.875439  0.871406  0.619588  1
  Ti  Ti21  1  0.884561  0.117830  0.363202  1
  O  O22  1  0.102713  0.141712  0.393799  1
  O  O23  1  0.109520  0.612859  0.889447  1
  O  O24  1  0.107991  0.893447  0.638515  1
  O  O25  1  0.111677  0.146181  0.854744  1
  O  O26  1  0.129746  0.388103  0.105618  1
  O  O27  1  0.141522  0.610859  0.353996  1
  O  O28  1  0.139320  0.363811  0.638690  1
  O  O29  1  0.144830  0.857127  0.111963  1
  O  O30  1  0.355170  0.142873  0.611963  1
  O  O31  1  0.360680  0.636189  0.138690  1
  O  O32  1  0.358478  0.389141  0.853996  1
  O  O33  1  0.370254  0.611897  0.605618  1
  O  O34  1  0.388323  0.853819  0.354744  1
  O  O35  1  0.392009  0.106553  0.138515  1
  O  O36  1  0.390480  0.387141  0.389447  1
  O  O37  1  0.397287  0.858288  0.893799  1
  O  O38  1  0.607799  0.372365  0.612313  1
  O  O39  1  0.612846  0.890462  0.111354  1
  O  O40  1  0.610320  0.604700  0.370037  1
  O  O41  1  0.620484  0.357000  0.137733  1
  O  O42  1  0.638466  0.109118  0.895396  1
  O  O43  1  0.640571  0.877793  0.644868  1
  O  O44  1  0.639826  0.142241  0.360208  1
  O  O45  1  0.645071  0.637847  0.879186  1
  O  O46  1  0.854929  0.362153  0.379186  1
  O  O47  1  0.860174  0.857759  0.860208  1
  O  O48  1  0.859429  0.122207  0.144868  1
  O  O49  1  0.861534  0.890883  0.395396  1
  O  O50  1  0.879516  0.643000  0.637733  1
  O  O51  1  0.889680  0.395300  0.870037  1
  O  O52  1  0.887154  0.109538  0.611354  1
  O  O53  1  0.892201  0.627635  0.112313  1
