# generated using pymatgen
data_Li10Co(SiO5)2
_symmetry_space_group_name_H-M   'P 1'
_cell_length_a   6.17534188
_cell_length_b   15.40061706
_cell_length_c   5.18435330
_cell_angle_alpha   79.71040298
_cell_angle_beta   89.99801582
_cell_angle_gamma   78.39114106
_symmetry_Int_Tables_number   1
_chemical_formula_structural   Li10Co(SiO5)2
_chemical_formula_sum   'Li20 Co2 Si4 O20'
_cell_volume   474.87002247
_cell_formula_units_Z   2
loop_
 _symmetry_equiv_pos_site_id
 _symmetry_equiv_pos_as_xyz
  1  'x, y, z'
loop_
 _atom_site_type_symbol
 _atom_site_label
 _atom_site_symmetry_multiplicity
 _atom_site_fract_x
 _atom_site_fract_y
 _atom_site_fract_z
 _atom_site_occupancy
  Li  Li0  1  0.509171  0.981149  0.752720  1
  Li  Li1  1  0.361446  0.864894  0.243606  1
  Li  Li2  1  0.768630  0.865969  0.238877  1
  Li  Li3  1  0.130294  0.736024  0.486458  1
  Li  Li4  1  0.345776  0.737522  0.018152  1
  Li  Li5  1  0.912846  0.737823  0.019154  1
  Li  Li6  1  0.676961  0.651168  0.416405  1
  Li  Li7  1  0.439372  0.609895  0.784412  1
  Li  Li8  1  0.951869  0.609990  0.785663  1
  Li  Li9  1  0.730262  0.539214  0.135349  1
  Li  Li10  1  0.269859  0.459780  0.862721  1
  Li  Li11  1  0.048471  0.388912  0.212099  1
  Li  Li12  1  0.561520  0.389758  0.212518  1
  Li  Li13  1  0.326808  0.348102  0.579203  1
  Li  Li14  1  0.087680  0.261064  0.977940  1
  Li  Li15  1  0.654817  0.261255  0.979265  1
  Li  Li16  1  0.869803  0.263026  0.512957  1
  Li  Li17  1  0.643638  0.133611  0.758793  1
  Li  Li18  1  0.227798  0.132792  0.763777  1
  Li  Li19  1  0.491463  0.018573  0.245919  1
  Co  Co20  1  0.036336  0.930014  0.943032  1
  Co  Co21  1  0.963290  0.071423  0.062844  1
  Si  Si22  1  0.598948  0.799649  0.690414  1
  Si  Si23  1  0.218932  0.562203  0.306614  1
  Si  Si24  1  0.781912  0.436600  0.691628  1
  Si  Si25  1  0.401428  0.199734  0.308738  1
  O  O26  1  0.550160  0.899333  0.495398  1
  O  O27  1  0.090624  0.814722  0.132215  1
  O  O28  1  0.593460  0.808856  0.004761  1
  O  O29  1  0.411504  0.742595  0.630230  1
  O  O30  1  0.842657  0.741580  0.632170  1
  O  O31  1  0.417505  0.612828  0.166633  1
  O  O32  1  0.969131  0.613372  0.168550  1
  O  O33  1  0.213993  0.573242  0.616589  1
  O  O34  1  0.729140  0.543545  0.734275  1
  O  O35  1  0.271035  0.456181  0.263448  1
  O  O36  1  0.786849  0.425941  0.381970  1
  O  O37  1  0.583236  0.386595  0.831437  1
  O  O38  1  0.031132  0.386164  0.830126  1
  O  O39  1  0.156656  0.257414  0.365513  1
  O  O40  1  0.587082  0.257353  0.368151  1
  O  O41  1  0.407512  0.189872  0.994431  1
  O  O42  1  0.909455  0.185419  0.867222  1
  O  O43  1  0.450902  0.099884  0.504705  1
  O  O44  1  0.251847  0.998959  0.000286  1
  O  O45  1  0.750247  0.998838  0.999420  1
