# generated using pymatgen
data_Mg2SiO4
_symmetry_space_group_name_H-M   'P 1'
_cell_length_a   3.49973996
_cell_length_b   3.49973995
_cell_length_c   5.90990937
_cell_angle_alpha   107.22295994
_cell_angle_beta   107.22295984
_cell_angle_gamma   90.00000007
_symmetry_Int_Tables_number   1
_chemical_formula_structural   Mg2SiO4
_chemical_formula_sum   'Mg2 Si1 O4'
_cell_volume   65.73398366
_cell_formula_units_Z   1
loop_
 _symmetry_equiv_pos_site_id
 _symmetry_equiv_pos_as_xyz
  1  'x, y, z'
loop_
 _atom_site_type_symbol
 _atom_site_label
 _atom_site_symmetry_multiplicity
 _atom_site_fract_x
 _atom_site_fract_y
 _atom_site_fract_z
 _atom_site_occupancy
  O  O0  1  0.833040  0.833040  0.666079  1
  O  O1  1  0.166960  0.166960  0.333921  1
  O  O2  1  0.000000  0.500000  0.000000  1
  O  O3  1  0.500000  0.000000  0.000000  1
  Mg  Mg4  1  0.650146  0.650146  0.300292  1
  Mg  Mg5  1  0.349854  0.349854  0.699708  1
  Si  Si6  1  0.000000  0.000000  0.000000  1
