# generated using pymatgen
data_Lu2Sb2O7
_symmetry_space_group_name_H-M   'P 1'
_cell_length_a   7.50026156
_cell_length_b   7.50038875
_cell_length_c   18.28162686
_cell_angle_alpha   90.00233579
_cell_angle_beta   89.99825343
_cell_angle_gamma   119.99667791
_symmetry_Int_Tables_number   1
_chemical_formula_structural   Lu2Sb2O7
_chemical_formula_sum   'Lu12 Sb12 O42'
_cell_volume   890.67690702
_cell_formula_units_Z   6
loop_
 _symmetry_equiv_pos_site_id
 _symmetry_equiv_pos_as_xyz
  1  'x, y, z'
loop_
 _atom_site_type_symbol
 _atom_site_label
 _atom_site_symmetry_multiplicity
 _atom_site_fract_x
 _atom_site_fract_y
 _atom_site_fract_z
 _atom_site_occupancy
  Lu  Lu0  1  0.999923  0.848786  0.666628  1
  Lu  Lu1  1  0.000297  0.832431  0.166699  1
  Lu  Lu2  1  0.175322  0.681668  0.010985  1
  Lu  Lu3  1  0.151358  0.151320  0.000010  1
  Lu  Lu4  1  0.506579  0.825168  0.677576  1
  Lu  Lu5  1  0.167024  0.167101  0.500001  1
  Lu  Lu6  1  0.318198  0.493799  0.344269  1
  Lu  Lu7  1  0.493795  0.318203  0.655732  1
  Lu  Lu8  1  0.681642  0.175287  0.989028  1
  Lu  Lu9  1  0.825165  0.506563  0.322426  1
  Lu  Lu10  1  0.832531  0.000360  0.833289  1
  Lu  Lu11  1  0.848757  0.999881  0.333363  1
  Sb  Sb12  1  0.999961  0.324250  0.166613  1
  Sb  Sb13  1  0.000971  0.314842  0.666810  1
  Sb  Sb14  1  0.170537  0.671615  0.501983  1
  Sb  Sb15  1  0.500992  0.829446  0.168537  1
  Sb  Sb16  1  0.328710  0.499114  0.835331  1
  Sb  Sb17  1  0.314830  0.001021  0.333180  1
  Sb  Sb18  1  0.674407  0.674464  0.500004  1
  Sb  Sb19  1  0.324314  0.999889  0.833402  1
  Sb  Sb20  1  0.685821  0.685813  0.999978  1
  Sb  Sb21  1  0.499110  0.328705  0.164664  1
  Sb  Sb22  1  0.671574  0.170560  0.498029  1
  Sb  Sb23  1  0.829492  0.501064  0.831468  1
  O  O24  1  0.024953  0.853485  0.283460  1
  O  O25  1  0.979653  0.802249  0.800404  1
  O  O26  1  0.101689  0.658862  0.394726  1
  O  O27  1  0.055532  0.451161  0.804181  1
  O  O28  1  0.323874  0.991209  0.958413  1
  O  O29  1  0.244047  0.687505  0.606959  1
  O  O30  1  0.008406  0.332500  0.291790  1
  O  O31  1  0.198697  0.683048  0.137805  1
  O  O32  1  0.395479  0.945004  0.470849  1
  O  O33  1  0.443730  0.755896  0.273493  1
  O  O34  1  0.484926  0.801171  0.804414  1
  O  O35  1  0.340183  0.441543  0.728086  1
  O  O36  1  0.147079  0.171591  0.616765  1
  O  O37  1  0.317572  0.516053  0.471216  1
  O  O38  1  0.197702  0.177966  0.133743  1
  O  O39  1  0.171563  0.147040  0.383241  1
  O  O40  1  0.311927  0.555696  0.940359  1
  O  O41  1  0.178040  0.197697  0.866262  1
  O  O42  1  0.557705  0.898503  0.061298  1
  O  O43  1  0.548438  0.604139  0.137187  1
  O  O44  1  0.822298  0.020216  0.466921  1
  O  O45  1  0.667092  0.675710  0.625211  1
  O  O46  1  0.441539  0.340138  0.271927  1
  O  O47  1  0.604170  0.548484  0.862838  1
  O  O48  1  0.332561  0.008451  0.708238  1
  O  O49  1  0.828682  0.975398  0.950031  1
  O  O50  1  0.555661  0.311963  0.059628  1
  O  O51  1  0.675693  0.667086  0.374787  1
  O  O52  1  0.516049  0.317591  0.528791  1
  O  O53  1  0.451260  0.055579  0.195822  1
  O  O54  1  0.687446  0.244070  0.393055  1
  O  O55  1  0.682964  0.198704  0.862195  1
  O  O56  1  0.898529  0.557712  0.938703  1
  O  O57  1  0.975356  0.828674  0.049955  1
  O  O58  1  0.801181  0.484892  0.195573  1
  O  O59  1  0.020204  0.822323  0.533092  1
  O  O60  1  0.755879  0.443733  0.726511  1
  O  O61  1  0.658906  0.101729  0.605287  1
  O  O62  1  0.945072  0.395429  0.529168  1
  O  O63  1  0.802239  0.979650  0.199590  1
  O  O64  1  0.991206  0.323841  0.041628  1
  O  O65  1  0.853508  0.024958  0.716525  1
