# generated using pymatgen
data_H22C10O3
_symmetry_space_group_name_H-M   'P 1'
_cell_length_a   11.41876863
_cell_length_b   15.94064390
_cell_length_c   14.10452333
_cell_angle_alpha   44.14880725
_cell_angle_beta   76.49523653
_cell_angle_gamma   59.35595621
_symmetry_Int_Tables_number   1
_chemical_formula_structural   H22C10O3
_chemical_formula_sum   'H88 C40 O12'
_cell_volume   1500.58611557
_cell_formula_units_Z   4
loop_
 _symmetry_equiv_pos_site_id
 _symmetry_equiv_pos_as_xyz
  1  'x, y, z'
loop_
 _atom_site_type_symbol
 _atom_site_label
 _atom_site_symmetry_multiplicity
 _atom_site_fract_x
 _atom_site_fract_y
 _atom_site_fract_z
 _atom_site_occupancy
  H  H0  1  0.113999  0.115870  0.795450  1
  H  H1  1  0.795450  0.974681  0.113999  1
  H  H2  1  0.275319  0.454550  0.134130  1
  H  H3  1  0.134130  0.136001  0.275319  1
  H  H4  1  0.270119  0.988582  0.925794  1
  H  H5  1  0.925794  0.815505  0.270119  1
  H  H6  1  0.434495  0.324206  0.261418  1
  H  H7  1  0.261418  0.979881  0.434495  1
  H  H8  1  0.318385  0.131254  0.685070  1
  H  H9  1  0.685070  0.865292  0.318385  1
  H  H10  1  0.384708  0.564930  0.118746  1
  H  H11  1  0.118746  0.931615  0.384708  1
  H  H12  1  0.391804  0.602648  0.965227  1
  H  H13  1  0.965227  0.040322  0.391804  1
  H  H14  1  0.209678  0.284773  0.647352  1
  H  H15  1  0.647352  0.858196  0.209678  1
  H  H16  1  0.625078  0.352345  0.228703  1
  H  H17  1  0.228703  0.793874  0.625078  1
  H  H18  1  0.456126  0.021297  0.897655  1
  H  H19  1  0.897655  0.624922  0.456126  1
  H  H20  1  0.931485  0.480594  0.431324  1
  H  H21  1  0.431324  0.156597  0.931485  1
  H  H22  1  0.093403  0.818676  0.769406  1
  H  H23  1  0.769406  0.318515  0.093403  1
  H  H24  1  0.700950  0.705573  0.200003  1
  H  H25  1  0.200003  0.393474  0.700950  1
  H  H26  1  0.856526  0.049997  0.544427  1
  H  H27  1  0.544427  0.549050  0.856526  1
  H  H28  1  0.070981  0.039514  0.653706  1
  H  H29  1  0.653706  0.235799  0.070981  1
  H  H30  1  0.014201  0.596294  0.210486  1
  H  H31  1  0.210486  0.179019  0.014201  1
  H  H32  1  0.336415  0.841852  0.736747  1
  H  H33  1  0.736747  0.084986  0.336415  1
  H  H34  1  0.165014  0.513253  0.408148  1
  H  H35  1  0.408148  0.913585  0.165014  1
  H  H36  1  0.164370  0.268451  0.311891  1
  H  H37  1  0.311891  0.255287  0.164370  1
  H  H38  1  0.994713  0.938109  0.981549  1
  H  H39  1  0.981549  0.085630  0.994713  1
  H  H40  1  0.125239  0.225462  0.468422  1
  H  H41  1  0.468422  0.180876  0.125239  1
  H  H42  1  0.069124  0.781578  0.024538  1
  H  H43  1  0.024538  0.124761  0.069124  1
  H  H44  1  0.279207  0.103510  0.478136  1
  H  H45  1  0.478136  0.139148  0.279207  1
  H  H46  1  0.110852  0.771864  0.146490  1
  H  H47  1  0.146490  0.970793  0.110852  1
  H  H48  1  0.498039  0.657461  0.103561  1
  H  H49  1  0.103561  0.740939  0.498039  1
  H  H50  1  0.509061  0.146439  0.592539  1
  H  H51  1  0.592539  0.751961  0.509061  1
  H  H52  1  0.660819  0.662509  0.071340  1
  H  H53  1  0.071340  0.605332  0.660819  1
  H  H54  1  0.644668  0.178660  0.587491  1
  H  H55  1  0.587491  0.589181  0.644668  1
  H  H56  1  0.628680  0.444172  0.358419  1
  H  H57  1  0.358419  0.568728  0.628680  1
  H  H58  1  0.681272  0.891581  0.805828  1
  H  H59  1  0.805828  0.621320  0.681272  1
  H  H60  1  0.680923  0.763642  0.819716  1
  H  H61  1  0.819716  0.735719  0.680923  1
  H  H62  1  0.514281  0.430284  0.486358  1
  H  H63  1  0.486358  0.569077  0.514281  1
  H  H64  1  0.383555  0.839728  0.768869  1
  H  H65  1  0.768869  0.007848  0.383555  1
  H  H66  1  0.242152  0.481131  0.410272  1
  H  H67  1  0.410272  0.866445  0.242152  1
  H  H68  1  0.652386  0.652337  0.809521  1
  H  H69  1  0.809521  0.885756  0.652386  1
  H  H70  1  0.364244  0.440479  0.597663  1
  H  H71  1  0.597663  0.597614  0.364244  1
  H  H72  1  0.813445  0.299265  0.544099  1
  H  H73  1  0.544099  0.343191  0.813445  1
  H  H74  1  0.906809  0.705901  0.950735  1
  H  H75  1  0.950735  0.436555  0.906809  1
  H  H76  1  0.837445  0.248062  0.540695  1
  H  H77  1  0.540695  0.373798  0.837445  1
  H  H78  1  0.876202  0.709305  0.001938  1
  H  H79  1  0.001938  0.412555  0.876202  1
  H  H80  1  0.756371  0.488087  0.568753  1
  H  H81  1  0.568753  0.186789  0.756371  1
  H  H82  1  0.063211  0.681247  0.761913  1
  H  H83  1  0.761913  0.493629  0.063211  1
  H  H84  1  0.821343  0.907427  0.939344  1
  H  H85  1  0.939344  0.331886  0.821343  1
  H  H86  1  0.918114  0.310656  0.342573  1
  H  H87  1  0.342573  0.428657  0.918114  1
  C  C88  1  0.089402  0.119733  0.443766  1
  C  C89  1  0.443766  0.347099  0.089402  1
  C  C90  1  0.902901  0.806234  0.130267  1
  C  C91  1  0.130267  0.160598  0.902901  1
  C  C92  1  0.148024  0.052771  0.389732  1
  C  C93  1  0.389732  0.409473  0.148024  1
  C  C94  1  0.840527  0.860268  0.197229  1
  C  C95  1  0.197229  0.101976  0.840527  1
  C  C96  1  0.079278  0.971278  0.431359  1
  C  C97  1  0.431359  0.518086  0.079278  1
  C  C98  1  0.731914  0.818641  0.278722  1
  C  C99  1  0.278722  0.170722  0.731914  1
  C  C100  1  0.113772  0.849002  0.591825  1
  C  C101  1  0.591825  0.445401  0.113772  1
  C  C102  1  0.804599  0.658175  0.400998  1
  C  C103  1  0.400998  0.136228  0.804599  1
  C  C104  1  0.052847  0.906841  0.655364  1
  C  C105  1  0.655364  0.384948  0.052847  1
  C  C106  1  0.865052  0.594636  0.343159  1
  C  C107  1  0.343159  0.197153  0.865052  1
  C  C108  1  0.082924  0.016592  0.594103  1
  C  C109  1  0.594103  0.306381  0.082924  1
  C  C110  1  0.943619  0.655897  0.233408  1
  C  C111  1  0.233408  0.167076  0.943619  1
  C  C112  1  0.169029  0.183747  0.423244  1
  C  C113  1  0.423244  0.223980  0.169029  1
  C  C114  1  0.026020  0.826756  0.066253  1
  C  C115  1  0.066253  0.080971  0.026020  1
  C  C116  1  0.082568  0.737127  0.655979  1
  C  C117  1  0.655979  0.524326  0.082568  1
  C  C118  1  0.725674  0.594021  0.512873  1
  C  C119  1  0.512873  0.167432  0.725674  1
  C  C120  1  0.393629  0.628860  0.530044  1
  C  C121  1  0.530044  0.447468  0.393629  1
  C  C122  1  0.802532  0.719956  0.621140  1
  C  C123  1  0.621140  0.856371  0.802532  1
  C  C124  1  0.085887  0.693397  0.602127  1
  C  C125  1  0.602127  0.618589  0.085887  1
  C  C126  1  0.631411  0.647873  0.556603  1
  C  C127  1  0.556603  0.164113  0.631411  1
  O  O128  1  0.943611  0.232088  0.359032  1
  O  O129  1  0.359032  0.465268  0.943611  1
  O  O130  1  0.784732  0.890968  0.017912  1
  O  O131  1  0.017912  0.306389  0.784732  1
  O  O132  1  0.493788  0.919166  0.777624  1
  O  O133  1  0.777624  0.809422  0.493788  1
  O  O134  1  0.440578  0.472376  0.330834  1
  O  O135  1  0.330834  0.756212  0.440578  1
  O  O136  1  0.760041  0.605949  0.285177  1
  O  O137  1  0.285177  0.348833  0.760041  1
  O  O138  1  0.901167  0.964823  0.644051  1
  O  O139  1  0.644051  0.489959  0.901167  1
