# generated using pymatgen
data_ScH3(ClO5)2
_symmetry_space_group_name_H-M   'P 1'
_cell_length_a   9.60603357
_cell_length_b   7.48732516
_cell_length_c   11.75158978
_cell_angle_alpha   90.00000000
_cell_angle_beta   93.43159993
_cell_angle_gamma   90.00000000
_symmetry_Int_Tables_number   1
_chemical_formula_structural   ScH3(ClO5)2
_chemical_formula_sum   'Sc4 H12 Cl8 O40'
_cell_volume   843.69993193
_cell_formula_units_Z   4
loop_
 _symmetry_equiv_pos_site_id
 _symmetry_equiv_pos_as_xyz
  1  'x, y, z'
loop_
 _atom_site_type_symbol
 _atom_site_label
 _atom_site_symmetry_multiplicity
 _atom_site_fract_x
 _atom_site_fract_y
 _atom_site_fract_z
 _atom_site_occupancy
  Sc  Sc0  1  0.118023  0.466939  0.909934  1
  Sc  Sc1  1  0.381977  0.966939  0.590066  1
  Sc  Sc2  1  0.618023  0.033061  0.409934  1
  Sc  Sc3  1  0.881977  0.533061  0.090066  1
  H  H4  1  0.066829  0.254003  0.097118  1
  H  H5  1  0.172563  0.104360  0.435004  1
  H  H6  1  0.219244  0.267229  0.516922  1
  H  H7  1  0.280756  0.767229  0.983078  1
  H  H8  1  0.327437  0.604360  0.064996  1
  H  H9  1  0.433171  0.754003  0.402882  1
  H  H10  1  0.566829  0.245997  0.597118  1
  H  H11  1  0.672563  0.395640  0.935004  1
  H  H12  1  0.719244  0.232771  0.016922  1
  H  H13  1  0.780756  0.732771  0.483078  1
  H  H14  1  0.827437  0.895640  0.564996  1
  H  H15  1  0.933171  0.745997  0.902882  1
  Cl  Cl16  1  0.086651  0.854235  0.231115  1
  Cl  Cl17  1  0.142571  0.628604  0.638487  1
  Cl  Cl18  1  0.357429  0.128604  0.861513  1
  Cl  Cl19  1  0.413349  0.354235  0.268885  1
  Cl  Cl20  1  0.586651  0.645765  0.731115  1
  Cl  Cl21  1  0.642571  0.871396  0.138487  1
  Cl  Cl22  1  0.857429  0.371396  0.361513  1
  Cl  Cl23  1  0.913349  0.145765  0.768885  1
  O  O24  1  0.019445  0.295866  0.790655  1
  O  O25  1  0.004119  0.381580  0.387411  1
  O  O26  1  0.046998  0.942431  0.333796  1
  O  O27  1  0.044449  0.364921  0.056114  1
  O  O28  1  0.075108  0.971647  0.133355  1
  O  O29  1  0.172899  0.633574  0.764587  1
  O  O30  1  0.194736  0.800238  0.594831  1
  O  O31  1  0.220426  0.484746  0.591995  1
  O  O32  1  0.231268  0.139332  0.502828  1
  O  O33  1  0.222103  0.772662  0.246003  1
  O  O34  1  0.279574  0.984746  0.908005  1
  O  O35  1  0.305264  0.300238  0.905169  1
  O  O36  1  0.277897  0.272662  0.253997  1
  O  O37  1  0.327101  0.133574  0.735413  1
  O  O38  1  0.268732  0.639332  0.997172  1
  O  O39  1  0.424892  0.471647  0.366645  1
  O  O40  1  0.455551  0.864921  0.443886  1
  O  O41  1  0.480555  0.795866  0.709345  1
  O  O42  1  0.504119  0.118420  0.887411  1
  O  O43  1  0.453002  0.442431  0.166204  1
  O  O44  1  0.546998  0.557569  0.833796  1
  O  O45  1  0.495881  0.881580  0.112589  1
  O  O46  1  0.519445  0.204134  0.290655  1
  O  O47  1  0.544449  0.135079  0.556114  1
  O  O48  1  0.575108  0.528353  0.633355  1
  O  O49  1  0.731268  0.360668  0.002828  1
  O  O50  1  0.672899  0.866426  0.264587  1
  O  O51  1  0.722103  0.727338  0.746003  1
  O  O52  1  0.694736  0.699762  0.094831  1
  O  O53  1  0.720426  0.015254  0.091995  1
  O  O54  1  0.777897  0.227338  0.753997  1
  O  O55  1  0.768732  0.860668  0.497172  1
  O  O56  1  0.779574  0.515254  0.408005  1
  O  O57  1  0.805264  0.199762  0.405169  1
  O  O58  1  0.827101  0.366426  0.235413  1
  O  O59  1  0.924892  0.028353  0.866645  1
  O  O60  1  0.955551  0.635079  0.943886  1
  O  O61  1  0.953002  0.057569  0.666204  1
  O  O62  1  0.995881  0.618420  0.612589  1
  O  O63  1  0.980555  0.704134  0.209345  1
