# generated using pymatgen
data_Na3Li6Mn5O9
_symmetry_space_group_name_H-M   'P 1'
_cell_length_a   5.90656718
_cell_length_b   5.88179973
_cell_length_c   9.27598850
_cell_angle_alpha   83.85491035
_cell_angle_beta   77.78532514
_cell_angle_gamma   60.00160416
_symmetry_Int_Tables_number   1
_chemical_formula_structural   Na3Li6Mn5O9
_chemical_formula_sum   'Na3 Li6 Mn5 O9'
_cell_volume   272.77092898
_cell_formula_units_Z   1
loop_
 _symmetry_equiv_pos_site_id
 _symmetry_equiv_pos_as_xyz
  1  'x, y, z'
loop_
 _atom_site_type_symbol
 _atom_site_label
 _atom_site_symmetry_multiplicity
 _atom_site_fract_x
 _atom_site_fract_y
 _atom_site_fract_z
 _atom_site_occupancy
  Na  Na0  1  0.840479  0.322236  0.504684  1
  Na  Na1  1  0.161645  0.675479  0.504205  1
  Na  Na2  1  0.484160  0.997264  0.512973  1
  Li  Li3  1  0.338797  0.675539  0.935135  1
  Li  Li4  1  0.017765  0.316924  0.935176  1
  Li  Li5  1  0.071252  0.996972  0.752947  1
  Li  Li6  1  0.930046  0.718181  0.026243  1
  Li  Li7  1  0.364257  0.996558  0.036047  1
  Li  Li8  1  0.654706  0.265299  0.018795  1
  Mn  Mn9  1  0.583532  0.680098  0.244643  1
  Mn  Mn10  1  0.271674  0.312993  0.244283  1
  Mn  Mn11  1  0.747480  0.677480  0.758643  1
  Mn  Mn12  1  0.425387  0.319660  0.756253  1
  Mn  Mn13  1  0.888907  0.001157  0.242461  1
  O  O14  1  0.661203  0.624522  0.997354  1
  O  O15  1  0.290253  0.366979  0.995682  1
  O  O16  1  0.425985  0.671632  0.704910  1
  O  O17  1  0.779825  0.998532  0.675719  1
  O  O18  1  0.097128  0.325358  0.704870  1
  O  O19  1  0.902010  0.646819  0.328777  1
  O  O20  1  0.548651  0.347517  0.336555  1
  O  O21  1  0.206768  0.997572  0.325533  1
  O  O22  1  0.030087  0.995497  0.004356  1
