# generated using pymatgen
data_Li8TiMn3O12
_symmetry_space_group_name_H-M   'P 1'
_cell_length_a   4.97249809
_cell_length_b   4.94873430
_cell_length_c   8.44396843
_cell_angle_alpha   89.99710544
_cell_angle_beta   90.00533525
_cell_angle_gamma   90.06854448
_symmetry_Int_Tables_number   1
_chemical_formula_structural   Li8TiMn3O12
_chemical_formula_sum   'Li8 Ti1 Mn3 O12'
_cell_volume   207.78541012
_cell_formula_units_Z   1
loop_
 _symmetry_equiv_pos_site_id
 _symmetry_equiv_pos_as_xyz
  1  'x, y, z'
loop_
 _atom_site_type_symbol
 _atom_site_label
 _atom_site_symmetry_multiplicity
 _atom_site_fract_x
 _atom_site_fract_y
 _atom_site_fract_z
 _atom_site_occupancy
  Li  Li0  1  0.500149  0.004172  0.919770  1
  Li  Li1  1  0.500374  0.002858  0.231955  1
  Li  Li2  1  0.000094  0.000240  0.564778  1
  Li  Li3  1  0.000396  0.000104  0.252251  1
  Li  Li4  1  0.499834  0.500766  0.757459  1
  Li  Li5  1  0.999913  0.499884  0.727740  1
  Li  Li6  1  0.000382  0.500188  0.414003  1
  Li  Li7  1  0.500784  0.503831  0.072725  1
  Ti  Ti8  1  0.000076  0.999978  0.901343  1
  Mn  Mn9  1  0.500063  0.000513  0.579522  1
  Mn  Mn10  1  0.500323  0.500701  0.403906  1
  Mn  Mn11  1  0.000655  0.500304  0.084915  1
  O  O12  1  0.254369  0.138696  0.741166  1
  O  O13  1  0.286143  0.175736  0.417898  1
  O  O14  1  0.217316  0.179632  0.069864  1
  O  O15  1  0.715216  0.326561  0.567688  1
  O  O16  1  0.782151  0.329747  0.920895  1
  O  O17  1  0.752050  0.349969  0.245248  1
  O  O18  1  0.248819  0.651333  0.245258  1
  O  O19  1  0.218890  0.671468  0.920934  1
  O  O20  1  0.285101  0.674304  0.567632  1
  O  O21  1  0.783978  0.821722  0.070109  1
  O  O22  1  0.714365  0.825370  0.418042  1
  O  O23  1  0.745795  0.862454  0.741414  1
