# generated using pymatgen
data_Fe6O7F5
_symmetry_space_group_name_H-M   'P 1'
_cell_length_a   4.76224067
_cell_length_b   4.76224067
_cell_length_c   9.10017929
_cell_angle_alpha   90.00000000
_cell_angle_beta   90.00000000
_cell_angle_gamma   95.70256659
_symmetry_Int_Tables_number   1
_chemical_formula_structural   Fe6O7F5
_chemical_formula_sum   'Fe6 O7 F5'
_cell_volume   205.36102374
_cell_formula_units_Z   1
loop_
 _symmetry_equiv_pos_site_id
 _symmetry_equiv_pos_as_xyz
  1  'x, y, z'
loop_
 _atom_site_type_symbol
 _atom_site_label
 _atom_site_symmetry_multiplicity
 _atom_site_fract_x
 _atom_site_fract_y
 _atom_site_fract_z
 _atom_site_occupancy
  Fe  Fe0  1  0.010575  0.989425  0.007711  1
  Fe  Fe1  1  0.010575  0.989425  0.325623  1
  Fe  Fe2  1  0.999210  0.000790  0.666667  1
  Fe  Fe3  1  0.468821  0.531179  0.166667  1
  Fe  Fe4  1  0.503999  0.496001  0.834526  1
  Fe  Fe5  1  0.503999  0.496001  0.498807  1
  O  O6  1  0.188806  0.811194  0.166667  1
  O  O7  1  0.301546  0.306176  0.994634  1
  O  O8  1  0.301546  0.306176  0.338700  1
  O  O9  1  0.307207  0.300408  0.666667  1
  O  O10  1  0.693824  0.698454  0.994634  1
  O  O11  1  0.693824  0.698454  0.338700  1
  O  O12  1  0.699592  0.692793  0.666667  1
  F  F13  1  0.193097  0.806903  0.502804  1
  F  F14  1  0.193097  0.806903  0.830529  1
  F  F15  1  0.807370  0.192630  0.166667  1
  F  F16  1  0.811456  0.188544  0.833124  1
  F  F17  1  0.811456  0.188544  0.500209  1
