# generated using pymatgen
data_Na2TeH5SO10
_symmetry_space_group_name_H-M   'P 1'
_cell_length_a   5.47935451
_cell_length_b   5.87668618
_cell_length_c   15.36236288
_cell_angle_alpha   88.11483878
_cell_angle_beta   94.04636852
_cell_angle_gamma   117.78753872
_symmetry_Int_Tables_number   1
_chemical_formula_structural   Na2TeH5SO10
_chemical_formula_sum   'Na4 Te2 H10 S2 O20'
_cell_volume   436.53932322
_cell_formula_units_Z   2
loop_
 _symmetry_equiv_pos_site_id
 _symmetry_equiv_pos_as_xyz
  1  'x, y, z'
loop_
 _atom_site_type_symbol
 _atom_site_label
 _atom_site_symmetry_multiplicity
 _atom_site_fract_x
 _atom_site_fract_y
 _atom_site_fract_z
 _atom_site_occupancy
  Na  Na0  1  0.096597  0.514061  0.619297  1
  Na  Na1  1  0.387196  0.851859  0.810721  1
  Na  Na2  1  0.582537  0.485939  0.119297  1
  Na  Na3  1  0.535338  0.148141  0.310721  1
  Te  Te4  1  0.006674  0.021845  0.002197  1
  Te  Te5  1  0.984829  0.978155  0.502197  1
  H  H6  1  0.066033  0.766659  0.376387  1
  H  H7  1  0.062068  0.469812  0.008470  1
  H  H8  1  0.307182  0.929138  0.114194  1
  H  H9  1  0.156072  0.412669  0.432017  1
  H  H10  1  0.543296  0.983526  0.486083  1
  H  H11  1  0.299376  0.233341  0.876387  1
  H  H12  1  0.592256  0.530188  0.508470  1
  H  H13  1  0.378045  0.070862  0.614194  1
  H  H14  1  0.743403  0.587331  0.932017  1
  H  H15  1  0.559770  0.016474  0.986083  1
  S  S16  1  0.141301  0.507213  0.248386  1
  S  S17  1  0.634088  0.492787  0.748386  1
  O  O18  1  0.114588  0.948939  0.391062  1
  O  O19  1  0.310364  0.960753  0.560597  1
  O  O20  1  0.050817  0.496778  0.339962  1
  O  O21  1  0.271420  0.778553  0.218113  1
  O  O22  1  0.215741  0.357149  0.489082  1
  O  O23  1  0.165649  0.051061  0.891062  1
  O  O24  1  0.192119  0.395911  0.019814  1
  O  O25  1  0.533898  0.651344  0.693396  1
  O  O26  1  0.660046  0.976000  0.439636  1
  O  O27  1  0.337631  0.401907  0.246274  1
  O  O28  1  0.554038  0.503222  0.839962  1
  O  O29  1  0.492867  0.221447  0.718113  1
  O  O30  1  0.858591  0.642851  0.989082  1
  O  O31  1  0.349611  0.039247  0.060597  1
  O  O32  1  0.828925  0.935042  0.109813  1
  O  O33  1  0.796209  0.604089  0.519814  1
  O  O34  1  0.684046  0.024000  0.939636  1
  O  O35  1  0.935724  0.598093  0.746274  1
  O  O36  1  0.882553  0.348656  0.193396  1
  O  O37  1  0.893882  0.064958  0.609813  1
