# generated using pymatgen
data_RbBe2BO3F2
_symmetry_space_group_name_H-M   'P 1'
_cell_length_a   4.47228888
_cell_length_b   4.47242855
_cell_length_c   7.29177959
_cell_angle_alpha   107.81839624
_cell_angle_beta   90.00000000
_cell_angle_gamma   119.99896698
_symmetry_Int_Tables_number   1
_chemical_formula_structural   RbBe2BO3F2
_chemical_formula_sum   'Rb1 Be2 B1 O3 F2'
_cell_volume   118.16371398
_cell_formula_units_Z   1
loop_
 _symmetry_equiv_pos_site_id
 _symmetry_equiv_pos_as_xyz
  1  'x, y, z'
loop_
 _atom_site_type_symbol
 _atom_site_label
 _atom_site_symmetry_multiplicity
 _atom_site_fract_x
 _atom_site_fract_y
 _atom_site_fract_z
 _atom_site_occupancy
  Be  Be0  1  0.810581  0.611133  0.416668  1
  Be  Be1  1  0.199447  0.388867  0.583332  1
  B  B2  1  0.505204  0.000000  0.500000  1
  O  O3  1  0.813952  0.000000  0.500000  1
  O  O4  1  0.196388  0.690991  0.499583  1
  O  O5  1  0.505397  0.309009  0.500417  1
  F  F6  1  0.734127  0.459752  0.189815  1
  F  F7  1  0.274375  0.540248  0.810185  1
  Rb  Rb8  1  0.004530  0.000000  0.000000  1
