# generated using pymatgen
data_Sr6CoC2N7
_symmetry_space_group_name_H-M   'P 1'
_cell_length_a   9.89322869
_cell_length_b   14.69099311
_cell_length_c   3.86988082
_cell_angle_alpha   90.00000000
_cell_angle_beta   90.00000000
_cell_angle_gamma   90.00000000
_symmetry_Int_Tables_number   1
_chemical_formula_structural   Sr6CoC2N7
_chemical_formula_sum   'Sr12 Co2 C4 N14'
_cell_volume   562.45372021
_cell_formula_units_Z   2
loop_
 _symmetry_equiv_pos_site_id
 _symmetry_equiv_pos_as_xyz
  1  'x, y, z'
loop_
 _atom_site_type_symbol
 _atom_site_label
 _atom_site_symmetry_multiplicity
 _atom_site_fract_x
 _atom_site_fract_y
 _atom_site_fract_z
 _atom_site_occupancy
  Sr  Sr0  1  0.428453  0.889684  0.060132  1
  Sr  Sr1  1  0.571547  0.110316  0.060132  1
  Sr  Sr2  1  0.928453  0.610316  0.939868  1
  Sr  Sr3  1  0.071547  0.389684  0.939868  1
  Sr  Sr4  1  0.094980  0.836031  0.493837  1
  Sr  Sr5  1  0.905020  0.163969  0.493837  1
  Sr  Sr6  1  0.594980  0.663969  0.506163  1
  Sr  Sr7  1  0.405020  0.336031  0.506163  1
  Sr  Sr8  1  0.246311  0.558087  0.440844  1
  Sr  Sr9  1  0.753689  0.441913  0.440844  1
  Sr  Sr10  1  0.746311  0.941913  0.559156  1
  Sr  Sr11  1  0.253689  0.058087  0.559156  1
  Co  Co12  1  0.500000  0.500000  0.976609  1
  Co  Co13  1  0.000000  0.000000  0.023391  1
  C  C14  1  0.272139  0.720492  0.816333  1
  C  C15  1  0.727861  0.279508  0.816333  1
  C  C16  1  0.772139  0.779508  0.183667  1
  C  C17  1  0.227861  0.220492  0.183667  1
  N  N18  1  0.500000  0.000000  0.564172  1
  N  N19  1  0.000000  0.500000  0.435828  1
  N  N20  1  0.166635  0.946478  0.028648  1
  N  N21  1  0.833365  0.053522  0.028648  1
  N  N22  1  0.666635  0.553522  0.971352  1
  N  N23  1  0.333365  0.446478  0.971352  1
  N  N24  1  0.168825  0.693723  0.969564  1
  N  N25  1  0.831175  0.306277  0.969564  1
  N  N26  1  0.668825  0.806277  0.030436  1
  N  N27  1  0.331175  0.193723  0.030436  1
  N  N28  1  0.366306  0.748755  0.634779  1
  N  N29  1  0.633694  0.251245  0.634779  1
  N  N30  1  0.866306  0.751245  0.365221  1
  N  N31  1  0.133694  0.248755  0.365221  1
