# generated using pymatgen
data_Li4Cr3Fe3(SnO8)2
_symmetry_space_group_name_H-M   'P 1'
_cell_length_a   5.98626977
_cell_length_b   5.98624403
_cell_length_c   9.74699335
_cell_angle_alpha   89.90853589
_cell_angle_beta   90.47348228
_cell_angle_gamma   120.21729101
_symmetry_Int_Tables_number   1
_chemical_formula_structural   Li4Cr3Fe3(SnO8)2
_chemical_formula_sum   'Li4 Cr3 Fe3 Sn2 O16'
_cell_volume   301.81455227
_cell_formula_units_Z   1
loop_
 _symmetry_equiv_pos_site_id
 _symmetry_equiv_pos_as_xyz
  1  'x, y, z'
loop_
 _atom_site_type_symbol
 _atom_site_label
 _atom_site_symmetry_multiplicity
 _atom_site_fract_x
 _atom_site_fract_y
 _atom_site_fract_z
 _atom_site_occupancy
  Li  Li0  1  0.328912  0.660003  0.896155  1
  Li  Li1  1  0.002453  0.003238  0.993436  1
  Li  Li2  1  0.000273  0.000249  0.493516  1
  Li  Li3  1  0.667309  0.330661  0.394669  1
  Cr  Cr4  1  0.170060  0.831510  0.214517  1
  Cr  Cr5  1  0.176592  0.342993  0.217690  1
  Cr  Cr6  1  0.344400  0.167962  0.717100  1
  Fe  Fe7  1  0.663640  0.834581  0.212470  1
  Fe  Fe8  1  0.830302  0.660606  0.715074  1
  Fe  Fe9  1  0.836312  0.173348  0.713018  1
  Sn  Sn10  1  0.334803  0.670577  0.491683  1
  Sn  Sn11  1  0.666580  0.336603  0.993104  1
  O  O12  1  0.161485  0.839923  0.599700  1
  O  O13  1  0.035366  0.514307  0.337478  1
  O  O14  1  0.319997  0.649043  0.108595  1
  O  O15  1  0.010208  0.015190  0.306699  1
  O  O16  1  0.014651  0.008472  0.806312  1
  O  O17  1  0.168124  0.322263  0.599772  1
  O  O18  1  0.486774  0.964780  0.337354  1
  O  O19  1  0.473569  0.506738  0.336212  1
  O  O20  1  0.321186  0.163149  0.100849  1
  O  O21  1  0.679934  0.843015  0.599796  1
  O  O22  1  0.512759  0.478939  0.839296  1
  O  O23  1  0.502315  0.032307  0.837018  1
  O  O24  1  0.648897  0.325977  0.607236  1
  O  O25  1  0.837401  0.682081  0.099783  1
  O  O26  1  0.962285  0.476517  0.839850  1
  O  O27  1  0.843414  0.165269  0.099454  1
