# generated using pymatgen
data_Li4VP2O9
_symmetry_space_group_name_H-M   'P 1'
_cell_length_a   15.77035616
_cell_length_b   5.27753665
_cell_length_c   8.83091427
_cell_angle_alpha   90.00000000
_cell_angle_beta   90.00000000
_cell_angle_gamma   90.00000000
_symmetry_Int_Tables_number   1
_chemical_formula_structural   Li4VP2O9
_chemical_formula_sum   'Li16 V4 P8 O36'
_cell_volume   734.98491946
_cell_formula_units_Z   4
loop_
 _symmetry_equiv_pos_site_id
 _symmetry_equiv_pos_as_xyz
  1  'x, y, z'
loop_
 _atom_site_type_symbol
 _atom_site_label
 _atom_site_symmetry_multiplicity
 _atom_site_fract_x
 _atom_site_fract_y
 _atom_site_fract_z
 _atom_site_occupancy
  Li  Li0  1  0.101280  0.287072  0.478246  1
  Li  Li1  1  0.056381  0.698530  0.322393  1
  Li  Li2  1  0.198228  0.716305  0.876849  1
  Li  Li3  1  0.147428  0.190349  0.728548  1
  Li  Li4  1  0.352572  0.690349  0.228548  1
  Li  Li5  1  0.301772  0.216305  0.376849  1
  Li  Li6  1  0.443619  0.198530  0.822393  1
  Li  Li7  1  0.398720  0.787072  0.978246  1
  Li  Li8  1  0.601280  0.212928  0.478246  1
  Li  Li9  1  0.556381  0.801470  0.322393  1
  Li  Li10  1  0.698228  0.783695  0.876849  1
  Li  Li11  1  0.647428  0.309651  0.728548  1
  Li  Li12  1  0.852572  0.809651  0.228548  1
  Li  Li13  1  0.801772  0.283695  0.376849  1
  Li  Li14  1  0.943619  0.301470  0.822393  1
  Li  Li15  1  0.898720  0.712928  0.978246  1
  V  V16  1  0.122979  0.118601  0.099974  1
  V  V17  1  0.377021  0.618601  0.599974  1
  V  V18  1  0.622979  0.381399  0.099974  1
  V  V19  1  0.877021  0.881399  0.599974  1
  P  P20  1  0.028482  0.696023  0.685118  1
  P  P21  1  0.224308  0.797907  0.517800  1
  P  P22  1  0.275692  0.297907  0.017800  1
  P  P23  1  0.471518  0.196023  0.185118  1
  P  P24  1  0.528482  0.803977  0.685118  1
  P  P25  1  0.724308  0.702093  0.517800  1
  P  P26  1  0.775692  0.202092  0.017800  1
  P  P27  1  0.971518  0.303977  0.185118  1
  O  O28  1  0.005682  0.213167  0.025300  1
  O  O29  1  0.048288  0.410583  0.686250  1
  O  O30  1  0.098069  0.857808  0.754361  1
  O  O31  1  0.058673  0.259139  0.276094  1
  O  O32  1  0.124123  0.805880  0.101909  1
  O  O33  1  0.188200  0.266494  0.925968  1
  O  O34  1  0.157285  0.623562  0.451481  1
  O  O35  1  0.200484  0.080222  0.517235  1
  O  O36  1  0.239341  0.210157  0.176635  1
  O  O37  1  0.260659  0.710157  0.676635  1
  O  O38  1  0.299516  0.580222  0.017235  1
  O  O39  1  0.342715  0.123562  0.951481  1
  O  O40  1  0.311800  0.766494  0.425968  1
  O  O41  1  0.375877  0.305880  0.601909  1
  O  O42  1  0.441327  0.759139  0.776094  1
  O  O43  1  0.401931  0.357808  0.254361  1
  O  O44  1  0.451712  0.910583  0.186250  1
  O  O45  1  0.494318  0.713167  0.525300  1
  O  O46  1  0.505682  0.286833  0.025300  1
  O  O47  1  0.548288  0.089417  0.686250  1
  O  O48  1  0.598069  0.642192  0.754361  1
  O  O49  1  0.558673  0.240861  0.276094  1
  O  O50  1  0.624123  0.694120  0.101909  1
  O  O51  1  0.688200  0.233506  0.925968  1
  O  O52  1  0.657285  0.876438  0.451481  1
  O  O53  1  0.700484  0.419778  0.517235  1
  O  O54  1  0.739341  0.289843  0.176635  1
  O  O55  1  0.760659  0.789843  0.676635  1
  O  O56  1  0.799516  0.919778  0.017235  1
  O  O57  1  0.842715  0.376438  0.951481  1
  O  O58  1  0.811800  0.733506  0.425968  1
  O  O59  1  0.875877  0.194120  0.601909  1
  O  O60  1  0.941327  0.740861  0.776094  1
  O  O61  1  0.901931  0.142192  0.254361  1
  O  O62  1  0.951712  0.589417  0.186250  1
  O  O63  1  0.994318  0.786833  0.525300  1
