# generated using pymatgen
data_LiFe(PO3)3
_symmetry_space_group_name_H-M   'P 1'
_cell_length_a   8.62083074
_cell_length_b   8.49623171
_cell_length_c   8.97880974
_cell_angle_alpha   90.00000000
_cell_angle_beta   90.00000000
_cell_angle_gamma   90.00000000
_symmetry_Int_Tables_number   1
_chemical_formula_structural   LiFe(PO3)3
_chemical_formula_sum   'Li4 Fe4 P12 O36'
_cell_volume   657.64910790
_cell_formula_units_Z   4
loop_
 _symmetry_equiv_pos_site_id
 _symmetry_equiv_pos_as_xyz
  1  'x, y, z'
loop_
 _atom_site_type_symbol
 _atom_site_label
 _atom_site_symmetry_multiplicity
 _atom_site_fract_x
 _atom_site_fract_y
 _atom_site_fract_z
 _atom_site_occupancy
  Li  Li0  1  0.108008  0.879992  0.414589  1
  Li  Li1  1  0.391992  0.120008  0.914589  1
  Li  Li2  1  0.608008  0.620008  0.585411  1
  Li  Li3  1  0.891992  0.379992  0.085411  1
  Fe  Fe4  1  0.121388  0.097499  0.140123  1
  Fe  Fe5  1  0.378612  0.902501  0.640123  1
  Fe  Fe6  1  0.621388  0.402501  0.859877  1
  Fe  Fe7  1  0.878612  0.597499  0.359877  1
  P  P8  1  0.058172  0.949614  0.817316  1
  P  P9  1  0.066850  0.721309  0.068921  1
  P  P10  1  0.227812  0.561449  0.558609  1
  P  P11  1  0.272188  0.438551  0.058609  1
  P  P12  1  0.433150  0.278691  0.568921  1
  P  P13  1  0.441828  0.050386  0.317316  1
  P  P14  1  0.558172  0.550386  0.182684  1
  P  P15  1  0.566850  0.778691  0.931079  1
  P  P16  1  0.727812  0.938551  0.441391  1
  P  P17  1  0.772188  0.061449  0.941391  1
  P  P18  1  0.933150  0.221309  0.431079  1
  P  P19  1  0.941828  0.449614  0.682684  1
  O  O20  1  0.018202  0.789248  0.908723  1
  O  O21  1  0.062270  0.119505  0.371706  1
  O  O22  1  0.117141  0.907848  0.665220  1
  O  O23  1  0.114868  0.521570  0.698841  1
  O  O24  1  0.121814  0.853066  0.168158  1
  O  O25  1  0.138305  0.340474  0.114767  1
  O  O26  1  0.133085  0.622825  0.430605  1
  O  O27  1  0.157928  0.055949  0.911830  1
  O  O28  1  0.208990  0.611044  0.016740  1
  O  O29  1  0.291010  0.388956  0.516740  1
  O  O30  1  0.342072  0.944051  0.411830  1
  O  O31  1  0.366915  0.377175  0.930605  1
  O  O32  1  0.361695  0.659526  0.614767  1
  O  O33  1  0.378186  0.146934  0.668158  1
  O  O34  1  0.385132  0.478430  0.198841  1
  O  O35  1  0.382859  0.092152  0.165220  1
  O  O36  1  0.437730  0.880495  0.871706  1
  O  O37  1  0.481798  0.210752  0.408723  1
  O  O38  1  0.518202  0.710752  0.091277  1
  O  O39  1  0.562270  0.380495  0.628294  1
  O  O40  1  0.617141  0.592152  0.334780  1
  O  O41  1  0.614868  0.978430  0.301159  1
  O  O42  1  0.621814  0.646934  0.831842  1
  O  O43  1  0.638305  0.159526  0.885233  1
  O  O44  1  0.633085  0.877175  0.569395  1
  O  O45  1  0.657928  0.444051  0.088170  1
  O  O46  1  0.708990  0.888956  0.983260  1
  O  O47  1  0.791010  0.111044  0.483260  1
  O  O48  1  0.842072  0.555949  0.588170  1
  O  O49  1  0.866915  0.122825  0.069395  1
  O  O50  1  0.861695  0.840474  0.385233  1
  O  O51  1  0.878186  0.353066  0.331842  1
  O  O52  1  0.885132  0.021570  0.801159  1
  O  O53  1  0.882859  0.407848  0.834780  1
  O  O54  1  0.937730  0.619505  0.128293  1
  O  O55  1  0.981798  0.289248  0.591277  1
