# generated using pymatgen
data_SrNb3NO7
_symmetry_space_group_name_H-M   'P 1'
_cell_length_a   9.00618497
_cell_length_b   10.59758563
_cell_length_c   3.83407700
_cell_angle_alpha   79.68089629
_cell_angle_beta   89.98337783
_cell_angle_gamma   90.40867306
_symmetry_Int_Tables_number   1
_chemical_formula_structural   SrNb3NO7
_chemical_formula_sum   'Sr2 Nb6 N2 O14'
_cell_volume   360.01039818
_cell_formula_units_Z   2
loop_
 _symmetry_equiv_pos_site_id
 _symmetry_equiv_pos_as_xyz
  1  'x, y, z'
loop_
 _atom_site_type_symbol
 _atom_site_label
 _atom_site_symmetry_multiplicity
 _atom_site_fract_x
 _atom_site_fract_y
 _atom_site_fract_z
 _atom_site_occupancy
  Sr  Sr0  1  0.249138  0.961573  0.020441  1
  Sr  Sr1  1  0.750004  0.034615  0.987722  1
  Nb  Nb2  1  0.061559  0.253046  0.375320  1
  Nb  Nb3  1  0.249342  0.484235  0.759288  1
  Nb  Nb4  1  0.455786  0.268376  0.366858  1
  Nb  Nb5  1  0.562300  0.752422  0.626144  1
  Nb  Nb6  1  0.768659  0.532176  0.234183  1
  Nb  Nb7  1  0.935529  0.752098  0.625232  1
  N  N8  1  0.746262  0.854515  0.574491  1
  N  N9  1  0.906182  0.688870  0.156619  1
  O  O10  1  0.079856  0.879621  0.558751  1
  O  O11  1  0.087414  0.301407  0.849435  1
  O  O12  1  0.096368  0.596101  0.703481  1
  O  O13  1  0.250395  0.418641  0.291599  1
  O  O14  1  0.243790  0.149725  0.421069  1
  O  O15  1  0.407555  0.591727  0.705069  1
  O  O16  1  0.402517  0.295879  0.851994  1
  O  O17  1  0.415585  0.876190  0.565054  1
  O  O18  1  0.579323  0.129219  0.440332  1
  O  O19  1  0.585308  0.697556  0.153519  1
  O  O20  1  0.592646  0.405183  0.295768  1
  O  O21  1  0.734538  0.573605  0.713893  1
  O  O22  1  0.908022  0.403035  0.298579  1
  O  O23  1  0.921186  0.125838  0.443039  1
