# generated using pymatgen
data_Li3V2(PO4)3
_symmetry_space_group_name_H-M   'P 1'
_cell_length_a   8.84932851
_cell_length_b   8.73975709
_cell_length_c   8.84932790
_cell_angle_alpha   59.70100858
_cell_angle_beta   121.01128623
_cell_angle_gamma   120.29899245
_symmetry_Int_Tables_number   1
_chemical_formula_structural   Li3V2(PO4)3
_chemical_formula_sum   'Li6 V4 P6 O24'
_cell_volume   477.99975070
_cell_formula_units_Z   2
loop_
 _symmetry_equiv_pos_site_id
 _symmetry_equiv_pos_as_xyz
  1  'x, y, z'
loop_
 _atom_site_type_symbol
 _atom_site_label
 _atom_site_symmetry_multiplicity
 _atom_site_fract_x
 _atom_site_fract_y
 _atom_site_fract_z
 _atom_site_occupancy
  Li  Li0  1  0.349047  0.562080  0.963754  1
  Li  Li1  1  0.888748  0.833161  0.259537  1
  Li  Li2  1  0.036246  0.062080  0.650953  1
  Li  Li3  1  0.362824  0.230631  0.379831  1
  Li  Li4  1  0.620169  0.730631  0.637176  1
  Li  Li5  1  0.740463  0.333161  0.111252  1
  V  V6  1  0.356213  0.068434  0.146631  1
  V  V7  1  0.853369  0.568434  0.643787  1
  V  V8  1  0.643426  0.937193  0.846720  1
  V  V9  1  0.153280  0.437193  0.356574  1
  P  P10  1  0.473231  0.263373  0.750102  1
  P  P11  1  0.752613  0.237949  0.471082  1
  P  P12  1  0.249898  0.763373  0.526769  1
  P  P13  1  0.528918  0.737949  0.247387  1
  P  P14  1  0.951742  0.751124  0.955279  1
  P  P15  1  0.044721  0.251124  0.048258  1
  O  O16  1  0.477004  0.215679  0.944615  1
  O  O17  1  0.481096  0.884069  0.244923  1
  O  O18  1  0.890527  0.065983  0.018390  1
  O  O19  1  0.291761  0.963307  0.380810  1
  O  O20  1  0.055385  0.715679  0.522996  1
  O  O21  1  0.981610  0.565983  0.109473  1
  O  O22  1  0.240546  0.268488  0.071895  1
  O  O23  1  0.718910  0.040526  0.621852  1
  O  O24  1  0.933322  0.277312  0.450085  1
  O  O25  1  0.115143  0.930463  0.990904  1
  O  O26  1  0.596248  0.239937  0.275683  1
  O  O27  1  0.766764  0.744701  0.941442  1
  O  O28  1  0.619190  0.463307  0.708239  1
  O  O29  1  0.928105  0.768488  0.759454  1
  O  O30  1  0.724317  0.739937  0.403752  1
  O  O31  1  0.009096  0.430463  0.884857  1
  O  O32  1  0.398123  0.756499  0.726232  1
  O  O33  1  0.273768  0.256499  0.601877  1
  O  O34  1  0.263103  0.624547  0.479624  1
  O  O35  1  0.549915  0.777312  0.066678  1
  O  O36  1  0.755077  0.384069  0.518904  1
  O  O37  1  0.378148  0.540526  0.281090  1
  O  O38  1  0.058558  0.244701  0.233236  1
  O  O39  1  0.520376  0.124547  0.736897  1
