# generated using pymatgen
data_KY(H2N)4
_symmetry_space_group_name_H-M   'P 1'
_cell_length_a   6.82122644
_cell_length_b   9.18647434
_cell_length_c   6.03997120
_cell_angle_alpha   78.73071189
_cell_angle_beta   69.49619538
_cell_angle_gamma   104.27877196
_symmetry_Int_Tables_number   1
_chemical_formula_structural   KY(H2N)4
_chemical_formula_sum   'K2 Y2 H16 N8'
_cell_volume   326.57737071
_cell_formula_units_Z   2
loop_
 _symmetry_equiv_pos_site_id
 _symmetry_equiv_pos_as_xyz
  1  'x, y, z'
loop_
 _atom_site_type_symbol
 _atom_site_label
 _atom_site_symmetry_multiplicity
 _atom_site_fract_x
 _atom_site_fract_y
 _atom_site_fract_z
 _atom_site_occupancy
  K  K0  1  0.304195  0.609544  0.946037  1
  K  K1  1  0.695805  0.390456  0.053963  1
  Y  Y2  1  0.934410  0.869390  0.815095  1
  Y  Y3  1  0.065590  0.130610  0.184905  1
  H  H4  1  0.333945  0.953375  0.951176  1
  H  H5  1  0.210267  0.711721  0.523075  1
  H  H6  1  0.126146  0.831998  0.209499  1
  H  H7  1  0.621058  0.955541  0.594368  1
  H  H8  1  0.042179  0.390847  0.409651  1
  H  H9  1  0.345472  0.389827  0.702847  1
  H  H10  1  0.708407  0.832329  0.457052  1
  H  H11  1  0.496746  0.285855  0.738141  1
  H  H12  1  0.503254  0.714145  0.261859  1
  H  H13  1  0.291593  0.167671  0.542948  1
  H  H14  1  0.654528  0.610173  0.297153  1
  H  H15  1  0.957821  0.609153  0.590349  1
  H  H16  1  0.378942  0.044459  0.405632  1
  H  H17  1  0.873854  0.168002  0.790501  1
  H  H18  1  0.789733  0.288279  0.476925  1
  H  H19  1  0.666055  0.046625  0.048824  1
  N  N20  1  0.051683  0.672811  0.662590  1
  N  N21  1  0.163226  0.909409  0.040560  1
  N  N22  1  0.375331  0.324591  0.838402  1
  N  N23  1  0.749115  0.911663  0.546469  1
  N  N24  1  0.250885  0.088337  0.453531  1
  N  N25  1  0.624669  0.675409  0.161598  1
  N  N26  1  0.836774  0.090591  0.959440  1
  N  N27  1  0.948317  0.327189  0.337410  1
