# generated using pymatgen
data_LiCrPO5
_symmetry_space_group_name_H-M   'P 1'
_cell_length_a   5.24911309
_cell_length_b   10.46778808
_cell_length_c   7.13355781
_cell_angle_alpha   70.52736335
_cell_angle_beta   68.41279509
_cell_angle_gamma   75.47946672
_symmetry_Int_Tables_number   1
_chemical_formula_structural   LiCrPO5
_chemical_formula_sum   'Li4 Cr4 P4 O20'
_cell_volume   339.93732990
_cell_formula_units_Z   4
loop_
 _symmetry_equiv_pos_site_id
 _symmetry_equiv_pos_as_xyz
  1  'x, y, z'
loop_
 _atom_site_type_symbol
 _atom_site_label
 _atom_site_symmetry_multiplicity
 _atom_site_fract_x
 _atom_site_fract_y
 _atom_site_fract_z
 _atom_site_occupancy
  Li  Li0  1  0.503594  0.000000  0.500000  1
  Li  Li1  1  0.000000  0.250000  0.750000  1
  Li  Li2  1  0.496406  0.500000  0.000000  1
  Li  Li3  1  0.500000  0.750000  0.250000  1
  Cr  Cr4  1  0.500000  0.250000  0.750000  1
  Cr  Cr5  1  0.500000  0.250000  0.250000  1
  Cr  Cr6  1  0.500000  0.750000  0.750000  1
  Cr  Cr7  1  0.000000  0.750000  0.250000  1
  P  P8  1  0.125436  0.063892  0.186428  1
  P  P9  1  0.874564  0.436108  0.313572  1
  P  P10  1  0.124244  0.563892  0.686428  1
  P  P11  1  0.875756  0.936108  0.813572  1
  O  O12  1  0.814059  0.093014  0.772891  1
  O  O13  1  0.213287  0.139818  0.950467  1
  O  O14  1  0.284716  0.102419  0.298745  1
  O  O15  1  0.808307  0.102058  0.274381  1
  O  O16  1  0.578113  0.283372  0.962223  1
  O  O17  1  0.421887  0.216628  0.537777  1
  O  O18  1  0.185941  0.406986  0.727109  1
  O  O19  1  0.786713  0.360182  0.549533  1
  O  O20  1  0.814119  0.602419  0.798745  1
  O  O21  1  0.715284  0.397581  0.201255  1
  O  O22  1  0.315254  0.602058  0.774381  1
  O  O23  1  0.191693  0.397942  0.225619  1
  O  O24  1  0.820036  0.593014  0.272890  1
  O  O25  1  0.196428  0.639818  0.450467  1
  O  O26  1  0.185881  0.897581  0.701255  1
  O  O27  1  0.323709  0.716628  0.037777  1
  O  O28  1  0.676291  0.783372  0.462223  1
  O  O29  1  0.684746  0.897942  0.725619  1
  O  O30  1  0.179964  0.906986  0.227109  1
  O  O31  1  0.803572  0.860182  0.049533  1
