# generated using pymatgen
data_CoP2H18(NF2)6
_symmetry_space_group_name_H-M   'P 1'
_cell_length_a   8.30361165
_cell_length_b   8.39367432
_cell_length_c   8.50439656
_cell_angle_alpha   58.89480102
_cell_angle_beta   60.31672721
_cell_angle_gamma   61.18946088
_symmetry_Int_Tables_number   1
_chemical_formula_structural   CoP2H18(NF2)6
_chemical_formula_sum   'Co1 P2 H18 N6 F12'
_cell_volume   420.05757253
_cell_formula_units_Z   1
loop_
 _symmetry_equiv_pos_site_id
 _symmetry_equiv_pos_as_xyz
  1  'x, y, z'
loop_
 _atom_site_type_symbol
 _atom_site_label
 _atom_site_symmetry_multiplicity
 _atom_site_fract_x
 _atom_site_fract_y
 _atom_site_fract_z
 _atom_site_occupancy
  Co  Co0  1  0.991244  0.999191  0.998451  1
  P  P1  1  0.247592  0.250958  0.249302  1
  P  P2  1  0.747373  0.751366  0.748277  1
  H  H3  1  0.117182  0.305144  0.703426  1
  H  H4  1  0.306473  0.122284  0.754618  1
  H  H5  1  0.264270  0.676552  0.177111  1
  H  H6  1  0.171381  0.259599  0.886269  1
  H  H7  1  0.128257  0.810257  0.313121  1
  H  H8  1  0.306772  0.875536  0.116625  1
  H  H9  1  0.751116  0.278948  0.126894  1
  H  H10  1  0.155994  0.723098  0.866947  1
  H  H11  1  0.875489  0.117603  0.278159  1
  H  H12  1  0.269454  0.889557  0.711459  1
  H  H13  1  0.691091  0.155401  0.817930  1
  H  H14  1  0.684777  0.856580  0.173998  1
  H  H15  1  0.882058  0.685936  0.115038  1
  H  H16  1  0.050221  0.931549  0.723166  1
  H  H17  1  0.671246  0.319822  0.879978  1
  H  H18  1  0.703708  0.072281  0.280109  1
  H  H19  1  0.829379  0.299660  0.672966  1
  H  H20  1  0.825549  0.718867  0.310909  1
  N  N21  1  0.165288  0.194507  0.816241  1
  N  N22  1  0.198430  0.817164  0.172177  1
  N  N23  1  0.137352  0.869761  0.805621  1
  N  N24  1  0.814563  0.132812  0.190148  1
  N  N25  1  0.826978  0.792167  0.170002  1
  N  N26  1  0.770150  0.219856  0.815264  1
  F  F27  1  0.121030  0.392980  0.099388  1
  F  F28  1  0.102929  0.115843  0.378804  1
  F  F29  1  0.388411  0.114336  0.115942  1
  F  F30  1  0.107172  0.387075  0.382831  1
  F  F31  1  0.376215  0.108775  0.396618  1
  F  F32  1  0.391008  0.388117  0.119471  1
  F  F33  1  0.614253  0.604871  0.897440  1
  F  F34  1  0.597830  0.884743  0.621546  1
  F  F35  1  0.877302  0.619103  0.610527  1
  F  F36  1  0.617449  0.887020  0.882910  1
  F  F37  1  0.896424  0.618540  0.874406  1
  F  F38  1  0.880790  0.898940  0.599109  1
