# generated using pymatgen
data_Li4Mn7O9F7
_symmetry_space_group_name_H-M   'P 1'
_cell_length_a   6.08178133
_cell_length_b   6.07875229
_cell_length_c   10.63972196
_cell_angle_alpha   89.05700002
_cell_angle_beta   75.47912530
_cell_angle_gamma   122.38156885
_symmetry_Int_Tables_number   1
_chemical_formula_structural   Li4Mn7O9F7
_chemical_formula_sum   'Li4 Mn7 O9 F7'
_cell_volume   316.05671515
_cell_formula_units_Z   1
loop_
 _symmetry_equiv_pos_site_id
 _symmetry_equiv_pos_as_xyz
  1  'x, y, z'
loop_
 _atom_site_type_symbol
 _atom_site_label
 _atom_site_symmetry_multiplicity
 _atom_site_fract_x
 _atom_site_fract_y
 _atom_site_fract_z
 _atom_site_occupancy
  Li  Li0  1  0.981624  0.009782  0.010772  1
  Li  Li1  1  0.268298  0.612454  0.124480  1
  Li  Li2  1  0.264110  0.126403  0.612974  1
  Li  Li3  1  0.977314  0.512283  0.508020  1
  Mn  Mn4  1  0.636920  0.292575  0.073608  1
  Mn  Mn5  1  0.112754  0.062016  0.306822  1
  Mn  Mn6  1  0.627582  0.576516  0.307116  1
  Mn  Mn7  1  0.640794  0.065461  0.804378  1
  Mn  Mn8  1  0.630707  0.570179  0.804813  1
  Mn  Mn9  1  0.622463  0.808418  0.565891  1
  Mn  Mn10  1  0.135160  0.560493  0.805098  1
  O  O11  1  0.847834  0.440600  0.716586  1
  O  O12  1  0.839565  0.722602  0.433894  1
  O  O13  1  0.393798  0.408427  0.195714  1
  O  O14  1  0.867368  0.216025  0.919971  1
  O  O15  1  0.875656  0.917548  0.203638  1
  O  O16  1  0.853501  0.916436  0.673702  1
  O  O17  1  0.403091  0.472118  0.672685  1
  O  O18  1  0.403547  0.913046  0.688999  1
  O  O19  1  0.412907  0.692735  0.902099  1
  F  F20  1  0.849551  0.166366  0.459272  1
  F  F21  1  0.888034  0.449627  0.189992  1
  F  F22  1  0.362177  0.210856  0.422030  1
  F  F23  1  0.875437  0.691832  0.935718  1
  F  F24  1  0.371168  0.687139  0.460062  1
  F  F25  1  0.379239  0.204719  0.932997  1
  F  F26  1  0.362839  0.924754  0.191377  1
