# generated using pymatgen
data_Li2Cr2P2O9
_symmetry_space_group_name_H-M   'P 1'
_cell_length_a   8.38666069
_cell_length_b   5.59482224
_cell_length_c   14.38111981
_cell_angle_alpha   89.99995931
_cell_angle_beta   90.00009668
_cell_angle_gamma   89.99996735
_symmetry_Int_Tables_number   1
_chemical_formula_structural   Li2Cr2P2O9
_chemical_formula_sum   'Li8 Cr8 P8 O36'
_cell_volume   674.78911684
_cell_formula_units_Z   4
loop_
 _symmetry_equiv_pos_site_id
 _symmetry_equiv_pos_as_xyz
  1  'x, y, z'
loop_
 _atom_site_type_symbol
 _atom_site_label
 _atom_site_symmetry_multiplicity
 _atom_site_fract_x
 _atom_site_fract_y
 _atom_site_fract_z
 _atom_site_occupancy
  Li  Li0  1  0.028551  0.250000  0.742273  1
  Li  Li1  1  0.017183  0.250001  0.125992  1
  Li  Li2  1  0.482816  0.750000  0.625992  1
  Li  Li3  1  0.471448  0.750001  0.242273  1
  Li  Li4  1  0.528552  0.250000  0.757728  1
  Li  Li5  1  0.517187  0.249999  0.374008  1
  Li  Li6  1  0.982819  0.749999  0.874010  1
  Li  Li7  1  0.971446  0.750000  0.257728  1
  Cr  Cr8  1  0.999996  -0.000005  0.500003  1
  Cr  Cr9  1  0.000002  0.499999  0.500009  1
  Cr  Cr10  1  0.210465  0.249993  0.936029  1
  Cr  Cr11  1  0.289551  0.749998  0.436045  1
  Cr  Cr12  1  0.500005  0.000010  0.000002  1
  Cr  Cr13  1  0.499986  0.500008  -0.000000  1
  Cr  Cr14  1  0.710454  0.250001  0.563951  1
  Cr  Cr15  1  0.789540  0.750002  0.063960  1
  P  P16  1  0.170794  0.750000  0.068848  1
  P  P17  1  0.204745  0.249999  0.329396  1
  P  P18  1  0.295255  0.749997  0.829395  1
  P  P19  1  0.329205  0.249999  0.568848  1
  P  P20  1  0.670796  0.749999  0.431153  1
  P  P21  1  0.704748  0.250003  0.170603  1
  P  P22  1  0.795253  0.749999  0.670604  1
  P  P23  1  0.829206  0.250003  0.931152  1
  O  O24  1  0.988265  0.250000  0.985562  1
  O  O25  1  0.063435  0.250000  0.405412  1
  O  O26  1  0.060051  0.750002  0.412561  1
  O  O27  1  0.129777  0.249998  0.235870  1
  O  O28  1  0.150263  0.750001  0.172255  1
  O  O29  1  0.183514  0.527009  0.847149  1
  O  O30  1  0.183512  0.972986  0.847147  1
  O  O31  1  0.234593  0.016459  0.536476  1
  O  O32  1  0.234590  0.483539  0.536475  1
  O  O33  1  0.265410  0.516459  0.036473  1
  O  O34  1  0.265409  0.983537  0.036472  1
  O  O35  1  0.316488  0.027006  0.347150  1
  O  O36  1  0.316487  0.472990  0.347149  1
  O  O37  1  0.349737  0.250001  0.672255  1
  O  O38  1  0.370222  0.749997  0.735871  1
  O  O39  1  0.439950  0.249999  0.912555  1
  O  O40  1  0.436563  0.750003  0.905411  1
  O  O41  1  0.511739  0.750001  0.485563  1
  O  O42  1  0.488261  0.250002  0.514436  1
  O  O43  1  0.563437  0.250002  0.094588  1
  O  O44  1  0.560047  0.750001  0.087443  1
  O  O45  1  0.629779  0.250000  0.264128  1
  O  O46  1  0.650266  0.750000  0.327745  1
  O  O47  1  0.683513  0.527010  0.652849  1
  O  O48  1  0.683512  0.972990  0.652851  1
  O  O49  1  0.734588  0.016463  0.963527  1
  O  O50  1  0.734589  0.483542  0.963525  1
  O  O51  1  0.765411  0.516462  0.463528  1
  O  O52  1  0.765408  0.983540  0.463526  1
  O  O53  1  0.816486  0.027012  0.152850  1
  O  O54  1  0.816487  0.472992  0.152850  1
  O  O55  1  0.849735  0.250000  0.827745  1
  O  O56  1  0.870222  0.749997  0.764129  1
  O  O57  1  0.939946  0.250000  0.587446  1
  O  O58  1  0.936567  0.749999  0.594591  1
  O  O59  1  0.011737  0.749997  0.014436  1
