# generated using pymatgen
data_Mn3(PO4)2
_symmetry_space_group_name_H-M   'P 1'
_cell_length_a   9.00104873
_cell_length_b   11.62096409
_cell_length_c   6.34730704
_cell_angle_alpha   90.00000000
_cell_angle_beta   99.27635709
_cell_angle_gamma   90.00000000
_symmetry_Int_Tables_number   1
_chemical_formula_structural   Mn3(PO4)2
_chemical_formula_sum   'Mn12 P8 O32'
_cell_volume   655.25108528
_cell_formula_units_Z   4
loop_
 _symmetry_equiv_pos_site_id
 _symmetry_equiv_pos_as_xyz
  1  'x, y, z'
loop_
 _atom_site_type_symbol
 _atom_site_label
 _atom_site_symmetry_multiplicity
 _atom_site_fract_x
 _atom_site_fract_y
 _atom_site_fract_z
 _atom_site_occupancy
  Mn  Mn0  1  0.066811  0.616657  0.637461  1
  Mn  Mn1  1  0.066811  0.883343  0.137461  1
  Mn  Mn2  1  0.274393  0.923072  0.666528  1
  Mn  Mn3  1  0.274393  0.576928  0.166528  1
  Mn  Mn4  1  0.364393  0.306601  0.622367  1
  Mn  Mn5  1  0.364393  0.193399  0.122367  1
  Mn  Mn6  1  0.635607  0.806601  0.877633  1
  Mn  Mn7  1  0.635607  0.693399  0.377633  1
  Mn  Mn8  1  0.725607  0.423072  0.833472  1
  Mn  Mn9  1  0.725607  0.076928  0.333472  1
  Mn  Mn10  1  0.933189  0.116657  0.862539  1
  Mn  Mn11  1  0.933189  0.383343  0.362539  1
  P  P12  1  0.091595  0.363457  0.888236  1
  P  P13  1  0.091595  0.136543  0.388236  1
  P  P14  1  0.395475  0.587601  0.693251  1
  P  P15  1  0.395475  0.912399  0.193251  1
  P  P16  1  0.604525  0.087601  0.806749  1
  P  P17  1  0.604525  0.412399  0.306749  1
  P  P18  1  0.908405  0.863457  0.611764  1
  P  P19  1  0.908405  0.636543  0.111764  1
  O  O20  1  0.057691  0.796612  0.603337  1
  O  O21  1  0.072292  0.434469  0.675819  1
  O  O22  1  0.057691  0.703388  0.103337  1
  O  O23  1  0.072292  0.065531  0.175819  1
  O  O24  1  0.130020  0.063863  0.592600  1
  O  O25  1  0.130020  0.436137  0.092600  1
  O  O26  1  0.222567  0.277076  0.872436  1
  O  O27  1  0.275016  0.914054  0.986939  1
  O  O28  1  0.222567  0.222924  0.372436  1
  O  O29  1  0.301988  0.626166  0.866558  1
  O  O30  1  0.275016  0.585946  0.486939  1
  O  O31  1  0.301988  0.873834  0.366558  1
  O  O32  1  0.467574  0.466357  0.739579  1
  O  O33  1  0.480647  0.177827  0.828705  1
  O  O34  1  0.467574  0.033643  0.239579  1
  O  O35  1  0.519353  0.677827  0.671295  1
  O  O36  1  0.480647  0.322173  0.328705  1
  O  O37  1  0.532426  0.966357  0.760421  1
  O  O38  1  0.519353  0.822173  0.171295  1
  O  O39  1  0.532426  0.533643  0.260421  1
  O  O40  1  0.698012  0.126166  0.633442  1
  O  O41  1  0.724984  0.414054  0.513061  1
  O  O42  1  0.698012  0.373834  0.133442  1
  O  O43  1  0.777433  0.777076  0.627564  1
  O  O44  1  0.724984  0.085946  0.013061  1
  O  O45  1  0.777433  0.722924  0.127564  1
  O  O46  1  0.869980  0.563863  0.907400  1
  O  O47  1  0.869980  0.936137  0.407400  1
  O  O48  1  0.927708  0.934469  0.824181  1
  O  O49  1  0.942309  0.296612  0.896663  1
  O  O50  1  0.927708  0.565531  0.324181  1
  O  O51  1  0.942309  0.203388  0.396663  1
