# generated using pymatgen
data_Na3Mn2P2(CO7)2
_symmetry_space_group_name_H-M   'P 1'
_cell_length_a   8.99428439
_cell_length_b   6.57994484
_cell_length_c   10.40309468
_cell_angle_alpha   90.00000000
_cell_angle_beta   88.44739451
_cell_angle_gamma   90.00000000
_symmetry_Int_Tables_number   1
_chemical_formula_structural   Na3Mn2P2(CO7)2
_chemical_formula_sum   'Na6 Mn4 P4 C4 O28'
_cell_volume   615.44882594
_cell_formula_units_Z   2
loop_
 _symmetry_equiv_pos_site_id
 _symmetry_equiv_pos_as_xyz
  1  'x, y, z'
loop_
 _atom_site_type_symbol
 _atom_site_label
 _atom_site_symmetry_multiplicity
 _atom_site_fract_x
 _atom_site_fract_y
 _atom_site_fract_z
 _atom_site_occupancy
  Na  Na0  1  0.241656  0.011156  0.622873  1
  Na  Na1  1  0.239284  0.492530  0.621235  1
  Na  Na2  1  0.241662  0.473280  0.121304  1
  Na  Na3  1  0.758344  0.511156  0.877127  1
  Na  Na4  1  0.760716  0.992530  0.878765  1
  Na  Na5  1  0.758338  0.973280  0.378696  1
  Mn  Mn6  1  0.345556  0.759175  0.896077  1
  Mn  Mn7  1  0.348272  0.753921  0.388657  1
  Mn  Mn8  1  0.654444  0.259175  0.603923  1
  Mn  Mn9  1  0.651728  0.253921  0.111343  1
  P  P10  1  0.425494  0.253776  0.853867  1
  P  P11  1  0.428157  0.250851  0.359861  1
  P  P12  1  0.574506  0.753776  0.646133  1
  P  P13  1  0.571843  0.750851  0.140139  1
  C  C14  1  0.076948  0.748849  0.866124  1
  C  C15  1  0.078445  0.745762  0.365196  1
  C  C16  1  0.923052  0.248849  0.633876  1
  C  C17  1  0.921555  0.245762  0.134804  1
  O  O18  1  0.060199  0.249066  0.648661  1
  O  O19  1  0.058031  0.244868  0.145726  1
  O  O20  1  0.141438  0.746025  0.977211  1
  O  O21  1  0.146811  0.752962  0.477274  1
  O  O22  1  0.176030  0.752683  0.769145  1
  O  O23  1  0.176757  0.740393  0.268935  1
  O  O24  1  0.327658  0.066193  0.880596  1
  O  O25  1  0.329365  0.441366  0.888946  1
  O  O26  1  0.330473  0.064789  0.396380  1
  O  O27  1  0.332461  0.438864  0.396843  1
  O  O28  1  0.464232  0.259193  0.704919  1
  O  O29  1  0.426645  0.750815  0.572428  1
  O  O30  1  0.466825  0.257097  0.212936  1
  O  O31  1  0.423244  0.744286  0.068658  1
  O  O32  1  0.573355  0.250815  0.927572  1
  O  O33  1  0.535768  0.759193  0.795081  1
  O  O34  1  0.576756  0.244286  0.431341  1
  O  O35  1  0.533175  0.757097  0.287064  1
  O  O36  1  0.672342  0.566193  0.619404  1
  O  O37  1  0.670635  0.941366  0.611054  1
  O  O38  1  0.669527  0.564789  0.103620  1
  O  O39  1  0.667539  0.938864  0.103157  1
  O  O40  1  0.823970  0.252683  0.730855  1
  O  O41  1  0.823243  0.240393  0.231065  1
  O  O42  1  0.858562  0.246025  0.522789  1
  O  O43  1  0.853189  0.252962  0.022726  1
  O  O44  1  0.939801  0.749066  0.851339  1
  O  O45  1  0.941969  0.744868  0.354274  1
