# generated using pymatgen
data_Ge2N2O
_symmetry_space_group_name_H-M   'P 1'
_cell_length_a   5.86317519
_cell_length_b   13.14723507
_cell_length_c   5.86317519
_cell_angle_alpha   77.11579798
_cell_angle_beta   90.00000000
_cell_angle_gamma   102.88420202
_symmetry_Int_Tables_number   1
_chemical_formula_structural   Ge2N2O
_chemical_formula_sum   'Ge16 N16 O8'
_cell_volume   428.90012176
_cell_formula_units_Z   8
loop_
 _symmetry_equiv_pos_site_id
 _symmetry_equiv_pos_as_xyz
  1  'x, y, z'
loop_
 _atom_site_type_symbol
 _atom_site_label
 _atom_site_symmetry_multiplicity
 _atom_site_fract_x
 _atom_site_fract_y
 _atom_site_fract_z
 _atom_site_occupancy
  Ge  Ge0  1  0.500000  0.000000  0.000000  1
  Ge  Ge1  1  0.000000  0.000000  0.000000  1
  Ge  Ge2  1  0.000000  0.500000  0.000000  1
  Ge  Ge3  1  0.331751  0.163501  0.169503  1
  Ge  Ge4  1  0.544093  0.588186  0.205907  1
  Ge  Ge5  1  0.666996  0.336499  0.331751  1
  Ge  Ge6  1  0.794093  0.088186  0.455907  1
  Ge  Ge7  1  0.169503  0.336499  0.331751  1
  Ge  Ge8  1  0.331751  0.163501  0.666996  1
  Ge  Ge9  1  0.000000  0.500000  0.500000  1
  Ge  Ge10  1  0.668249  0.836499  0.333004  1
  Ge  Ge11  1  0.205907  0.911814  0.544093  1
  Ge  Ge12  1  0.455907  0.411814  0.794093  1
  Ge  Ge13  1  0.333004  0.663501  0.668249  1
  Ge  Ge14  1  0.830497  0.663501  0.668249  1
  Ge  Ge15  1  0.668249  0.836499  0.830497  1
  N  N16  1  0.250803  0.001608  0.234918  1
  N  N17  1  0.412384  0.324767  0.102448  1
  N  N18  1  0.102448  0.175233  0.412384  1
  N  N19  1  0.572784  0.175233  0.412384  1
  N  N20  1  0.763474  0.498392  0.250803  1
  N  N21  1  0.234918  0.498392  0.250803  1
  N  N22  1  0.412384  0.324767  0.572784  1
  N  N23  1  0.749197  0.998392  0.236526  1
  N  N24  1  0.250803  0.001608  0.763474  1
  N  N25  1  0.587616  0.675233  0.427216  1
  N  N26  1  0.236526  0.501608  0.749197  1
  N  N27  1  0.427216  0.824767  0.587616  1
  N  N28  1  0.897552  0.824767  0.587616  1
  N  N29  1  0.765082  0.501608  0.749197  1
  N  N30  1  0.587616  0.675233  0.897552  1
  N  N31  1  0.749197  0.998392  0.765082  1
  O  O32  1  0.923293  0.346587  0.110756  1
  O  O33  1  0.457342  0.846587  0.076707  1
  O  O34  1  0.889244  0.846587  0.076707  1
  O  O35  1  0.923293  0.346587  0.542658  1
  O  O36  1  0.076707  0.653413  0.457342  1
  O  O37  1  0.110756  0.153413  0.923293  1
  O  O38  1  0.542658  0.153413  0.923293  1
  O  O39  1  0.076707  0.653413  0.889244  1
