# generated using pymatgen
data_H3Ru3C10ClO9
_symmetry_space_group_name_H-M   'P 1'
_cell_length_a   17.59314437
_cell_length_b   14.61713066
_cell_length_c   6.70424469
_cell_angle_alpha   90.00000000
_cell_angle_beta   90.00000000
_cell_angle_gamma   90.00000000
_symmetry_Int_Tables_number   1
_chemical_formula_structural   H3Ru3C10ClO9
_chemical_formula_sum   'H12 Ru12 C40 Cl4 O36'
_cell_volume   1724.07221280
_cell_formula_units_Z   4
loop_
 _symmetry_equiv_pos_site_id
 _symmetry_equiv_pos_as_xyz
  1  'x, y, z'
loop_
 _atom_site_type_symbol
 _atom_site_label
 _atom_site_symmetry_multiplicity
 _atom_site_fract_x
 _atom_site_fract_y
 _atom_site_fract_z
 _atom_site_occupancy
  H  H0  1  0.573393  0.250000  0.067037  1
  H  H1  1  0.073393  0.250000  0.432963  1
  H  H2  1  0.426607  0.750000  0.932963  1
  H  H3  1  0.926607  0.750000  0.567037  1
  H  H4  1  0.697276  0.334672  0.053579  1
  H  H5  1  0.197276  0.165328  0.446421  1
  H  H6  1  0.302724  0.834672  0.946421  1
  H  H7  1  0.802724  0.665328  0.553579  1
  H  H8  1  0.302724  0.665328  0.946421  1
  H  H9  1  0.802724  0.834672  0.553579  1
  H  H10  1  0.697276  0.165328  0.053579  1
  H  H11  1  0.197276  0.334672  0.446421  1
  Ru  Ru12  1  0.609719  0.349232  0.195999  1
  Ru  Ru13  1  0.109719  0.150768  0.304001  1
  Ru  Ru14  1  0.390281  0.849232  0.804001  1
  Ru  Ru15  1  0.890281  0.650768  0.695999  1
  Ru  Ru16  1  0.390281  0.650768  0.804001  1
  Ru  Ru17  1  0.890281  0.849232  0.695999  1
  Ru  Ru18  1  0.609719  0.150768  0.195999  1
  Ru  Ru19  1  0.109719  0.349232  0.304001  1
  Ru  Ru20  1  0.752248  0.250000  0.191179  1
  Ru  Ru21  1  0.252248  0.250000  0.308821  1
  Ru  Ru22  1  0.247752  0.750000  0.808821  1
  Ru  Ru23  1  0.747752  0.750000  0.691179  1
  C  C24  1  0.813467  0.250000  0.941729  1
  C  C25  1  0.313467  0.250000  0.558271  1
  C  C26  1  0.186533  0.750000  0.058271  1
  C  C27  1  0.686533  0.750000  0.441729  1
  C  C28  1  0.807227  0.342384  0.330595  1
  C  C29  1  0.307227  0.157616  0.169405  1
  C  C30  1  0.192773  0.842384  0.669405  1
  C  C31  1  0.692773  0.657616  0.830595  1
  C  C32  1  0.192773  0.657616  0.669405  1
  C  C33  1  0.692773  0.842384  0.830595  1
  C  C34  1  0.807227  0.157616  0.330595  1
  C  C35  1  0.307227  0.342384  0.169405  1
  C  C36  1  0.651385  0.454258  0.325296  1
  C  C37  1  0.151385  0.045742  0.174704  1
  C  C38  1  0.348615  0.954258  0.674704  1
  C  C39  1  0.848615  0.545742  0.825296  1
  C  C40  1  0.348615  0.545742  0.674704  1
  C  C41  1  0.848615  0.954258  0.825296  1
  C  C42  1  0.651385  0.045742  0.325296  1
  C  C43  1  0.151385  0.454258  0.174704  1
  C  C44  1  0.517859  0.360398  0.344658  1
  C  C45  1  0.017859  0.139602  0.155342  1
  C  C46  1  0.482141  0.860398  0.655342  1
  C  C47  1  0.982141  0.639602  0.844658  1
  C  C48  1  0.482141  0.639602  0.655342  1
  C  C49  1  0.982141  0.860398  0.844658  1
  C  C50  1  0.517859  0.139602  0.344658  1
  C  C51  1  0.017859  0.360398  0.155342  1
  C  C52  1  0.573751  0.410935  0.950811  1
  C  C53  1  0.073751  0.089065  0.549189  1
  C  C54  1  0.426249  0.910935  0.049189  1
  C  C55  1  0.926249  0.589065  0.450811  1
  C  C56  1  0.426249  0.589065  0.049189  1
  C  C57  1  0.926249  0.910935  0.450811  1
  C  C58  1  0.573751  0.089065  0.950811  1
  C  C59  1  0.073751  0.410935  0.549189  1
  C  C60  1  0.658340  0.250000  0.383019  1
  C  C61  1  0.158340  0.250000  0.116981  1
  C  C62  1  0.341660  0.750000  0.616981  1
  C  C63  1  0.841660  0.750000  0.883019  1
  Cl  Cl64  1  0.658925  0.250000  0.642461  1
  Cl  Cl65  1  0.158925  0.250000  0.857539  1
  Cl  Cl66  1  0.341075  0.750000  0.357539  1
  Cl  Cl67  1  0.841075  0.750000  0.142461  1
  O  O68  1  0.848859  0.250000  0.796710  1
  O  O69  1  0.348859  0.250000  0.703290  1
  O  O70  1  0.151141  0.750000  0.203290  1
  O  O71  1  0.651141  0.750000  0.296710  1
  O  O72  1  0.839462  0.397359  0.422129  1
  O  O73  1  0.339462  0.102641  0.077871  1
  O  O74  1  0.160538  0.897359  0.577871  1
  O  O75  1  0.660538  0.602641  0.922129  1
  O  O76  1  0.160538  0.602641  0.577871  1
  O  O77  1  0.660538  0.897359  0.922129  1
  O  O78  1  0.839462  0.102641  0.422129  1
  O  O79  1  0.339462  0.397359  0.077871  1
  O  O80  1  0.677852  0.516331  0.407214  1
  O  O81  1  0.177852  0.983669  0.092786  1
  O  O82  1  0.322148  0.016331  0.592786  1
  O  O83  1  0.822148  0.483669  0.907214  1
  O  O84  1  0.322148  0.483669  0.592786  1
  O  O85  1  0.822148  0.016331  0.907214  1
  O  O86  1  0.677852  0.983669  0.407214  1
  O  O87  1  0.177852  0.516331  0.092786  1
  O  O88  1  0.462948  0.365810  0.439226  1
  O  O89  1  0.962948  0.134190  0.060774  1
  O  O90  1  0.537052  0.865810  0.560774  1
  O  O91  1  0.037052  0.634190  0.939226  1
  O  O92  1  0.537052  0.634190  0.560774  1
  O  O93  1  0.037052  0.865810  0.939226  1
  O  O94  1  0.462948  0.134190  0.439226  1
  O  O95  1  0.962948  0.365810  0.060774  1
  O  O96  1  0.550428  0.445618  0.808348  1
  O  O97  1  0.050428  0.054382  0.691652  1
  O  O98  1  0.449572  0.945618  0.191652  1
  O  O99  1  0.949572  0.554382  0.308348  1
  O  O100  1  0.449572  0.554382  0.191652  1
  O  O101  1  0.949572  0.945618  0.308348  1
  O  O102  1  0.550428  0.054382  0.808348  1
  O  O103  1  0.050428  0.445618  0.691652  1
