# generated using pymatgen
data_Li7Si2(NiO4)3
_symmetry_space_group_name_H-M   'P 1'
_cell_length_a   4.85658757
_cell_length_b   4.88386353
_cell_length_c   9.70767638
_cell_angle_alpha   94.98683458
_cell_angle_beta   100.06876479
_cell_angle_gamma   60.18456815
_symmetry_Int_Tables_number   1
_chemical_formula_structural   Li7Si2(NiO4)3
_chemical_formula_sum   'Li7 Si2 Ni3 O12'
_cell_volume   196.70011281
_cell_formula_units_Z   1
loop_
 _symmetry_equiv_pos_site_id
 _symmetry_equiv_pos_as_xyz
  1  'x, y, z'
loop_
 _atom_site_type_symbol
 _atom_site_label
 _atom_site_symmetry_multiplicity
 _atom_site_fract_x
 _atom_site_fract_y
 _atom_site_fract_z
 _atom_site_occupancy
  Li  Li0  1  0.673990  0.666667  0.997445  1
  Li  Li1  1  0.916667  0.666667  0.750000  1
  Li  Li2  1  0.836789  0.341254  0.503271  1
  Li  Li3  1  0.321958  0.341254  0.996729  1
  Li  Li4  1  0.159343  0.666667  0.502555  1
  Li  Li5  1  0.511376  0.992080  0.503271  1
  Li  Li6  1  0.996545  0.992080  0.996729  1
  Si  Si7  1  0.583340  0.333320  0.750000  1
  Si  Si8  1  0.249993  0.000013  0.750000  1
  Ni  Ni9  1  0.416667  0.666667  0.250000  1
  Ni  Ni10  1  0.750052  -0.000104  0.250000  1
  Ni  Ni11  1  0.083281  0.333437  0.250000  1
  O  O12  1  0.799144  0.666667  0.368637  1
  O  O13  1  0.732871  0.324283  0.136944  1
  O  O14  1  0.952051  0.293924  0.854101  1
  O  O15  1  0.508865  0.666667  0.645602  1
  O  O16  1  0.881282  0.039409  0.645899  1
  O  O17  1  0.442847  0.324283  0.363056  1
  O  O18  1  0.324468  0.666667  0.854398  1
  O  O19  1  0.034190  0.666667  0.131363  1
  O  O20  1  0.579310  0.039409  0.854101  1
  O  O21  1  0.390487  0.009050  0.136944  1
  O  O22  1  0.254023  0.293924  0.645899  1
  O  O23  1  0.100463  0.009050  0.363056  1
