# generated using pymatgen
data_Cs4GeO4
_symmetry_space_group_name_H-M   'P 1'
_cell_length_a   11.71162792
_cell_length_b   7.24124592
_cell_length_c   11.54442589
_cell_angle_alpha   90.00000000
_cell_angle_beta   111.84675105
_cell_angle_gamma   90.00000000
_symmetry_Int_Tables_number   1
_chemical_formula_structural   Cs4GeO4
_chemical_formula_sum   'Cs16 Ge4 O16'
_cell_volume   908.73295436
_cell_formula_units_Z   4
loop_
 _symmetry_equiv_pos_site_id
 _symmetry_equiv_pos_as_xyz
  1  'x, y, z'
loop_
 _atom_site_type_symbol
 _atom_site_label
 _atom_site_symmetry_multiplicity
 _atom_site_fract_x
 _atom_site_fract_y
 _atom_site_fract_z
 _atom_site_occupancy
  Cs  Cs0  1  0.063706  0.410260  0.702907  1
  Cs  Cs1  1  0.153980  0.883595  0.583040  1
  Cs  Cs2  1  0.063706  0.089740  0.202907  1
  Cs  Cs3  1  0.368720  0.662246  0.892469  1
  Cs  Cs4  1  0.153980  0.616405  0.083040  1
  Cs  Cs5  1  0.423312  0.172122  0.792248  1
  Cs  Cs6  1  0.368720  0.837754  0.392469  1
  Cs  Cs7  1  0.576688  0.672123  0.707752  1
  Cs  Cs8  1  0.423312  0.327878  0.292248  1
  Cs  Cs9  1  0.631280  0.162246  0.607531  1
  Cs  Cs10  1  0.576688  0.827877  0.207752  1
  Cs  Cs11  1  0.846020  0.383595  0.916960  1
  Cs  Cs12  1  0.631280  0.337754  0.107531  1
  Cs  Cs13  1  0.936294  0.910260  0.797093  1
  Cs  Cs14  1  0.846020  0.116405  0.416960  1
  Cs  Cs15  1  0.936294  0.589740  0.297093  1
  Ge  Ge16  1  0.242081  0.125654  0.991371  1
  Ge  Ge17  1  0.242081  0.374346  0.491371  1
  Ge  Ge18  1  0.757919  0.625654  0.508629  1
  Ge  Ge19  1  0.757919  0.874346  0.008629  1
  O  O20  1  0.096174  0.228152  0.976410  1
  O  O21  1  0.217842  0.995596  0.849993  1
  O  O22  1  0.096174  0.271848  0.476410  1
  O  O23  1  0.300624  0.521051  0.628206  1
  O  O24  1  0.217842  0.504404  0.349993  1
  O  O25  1  0.352823  0.190879  0.508355  1
  O  O26  1  0.300624  0.978949  0.128206  1
  O  O27  1  0.647177  0.690879  0.991645  1
  O  O28  1  0.352823  0.309121  0.008355  1
  O  O29  1  0.699376  0.021051  0.871794  1
  O  O30  1  0.647177  0.809121  0.491645  1
  O  O31  1  0.782158  0.495596  0.650007  1
  O  O32  1  0.699376  0.478949  0.371794  1
  O  O33  1  0.903826  0.728152  0.523590  1
  O  O34  1  0.782158  0.004404  0.150007  1
  O  O35  1  0.903826  0.771848  0.023590  1
