# generated using pymatgen
data_Cu3(TeO5)2
_symmetry_space_group_name_H-M   'P 1'
_cell_length_a   5.20733082
_cell_length_b   5.50715177
_cell_length_c   7.77722231
_cell_angle_alpha   108.47334415
_cell_angle_beta   97.50461285
_cell_angle_gamma   105.17910067
_symmetry_Int_Tables_number   1
_chemical_formula_structural   Cu3(TeO5)2
_chemical_formula_sum   'Cu3 Te2 O10'
_cell_volume   198.52446678
_cell_formula_units_Z   1
loop_
 _symmetry_equiv_pos_site_id
 _symmetry_equiv_pos_as_xyz
  1  'x, y, z'
loop_
 _atom_site_type_symbol
 _atom_site_label
 _atom_site_symmetry_multiplicity
 _atom_site_fract_x
 _atom_site_fract_y
 _atom_site_fract_z
 _atom_site_occupancy
  Cu  Cu0  1  0.000000  0.500000  0.000000  1
  Cu  Cu1  1  0.699128  0.883876  0.903928  1
  Cu  Cu2  1  0.300872  0.116124  0.096072  1
  Te  Te3  1  0.114286  0.707754  0.694802  1
  Te  Te4  1  0.885714  0.292246  0.305198  1
  O  O5  1  0.064046  0.047957  0.844817  1
  O  O6  1  0.313691  0.718804  0.943941  1
  O  O7  1  0.096215  0.328562  0.543447  1
  O  O8  1  0.197728  0.454408  0.205748  1
  O  O9  1  0.473027  0.869096  0.680320  1
  O  O10  1  0.526973  0.130904  0.319680  1
  O  O11  1  0.802272  0.545592  0.794251  1
  O  O12  1  0.903785  0.671438  0.456553  1
  O  O13  1  0.686309  0.281196  0.056059  1
  O  O14  1  0.935954  0.952043  0.155183  1
