# generated using pymatgen
data_LiCoPO4
_symmetry_space_group_name_H-M   'P 1'
_cell_length_a   9.70972616
_cell_length_b   9.70972584
_cell_length_c   23.02188706
_cell_angle_alpha   90.00000000
_cell_angle_beta   90.00000000
_cell_angle_gamma   120.00000366
_symmetry_Int_Tables_number   1
_chemical_formula_structural   LiCoPO4
_chemical_formula_sum   'Li24 Co24 P24 O96'
_cell_volume   1879.68676701
_cell_formula_units_Z   24
loop_
 _symmetry_equiv_pos_site_id
 _symmetry_equiv_pos_as_xyz
  1  'x, y, z'
loop_
 _atom_site_type_symbol
 _atom_site_label
 _atom_site_symmetry_multiplicity
 _atom_site_fract_x
 _atom_site_fract_y
 _atom_site_fract_z
 _atom_site_occupancy
  Li  Li0  1  0.094980  0.820906  0.274860  1
  Li  Li1  1  0.089325  0.754084  0.919478  1
  Li  Li2  1  0.128106  0.759552  0.594531  1
  Li  Li3  1  0.310900  0.668272  0.755555  1
  Li  Li4  1  0.331728  0.642628  0.088889  1
  Li  Li5  1  0.357372  0.689100  0.422222  1
  Li  Li6  1  0.179094  0.274075  0.608193  1
  Li  Li7  1  0.240448  0.368555  0.927864  1
  Li  Li8  1  0.245916  0.335241  0.252811  1
  Li  Li9  1  0.631445  0.871894  0.261197  1
  Li  Li10  1  0.664759  0.910675  0.586145  1
  Li  Li11  1  0.274075  0.094980  0.441526  1
  Li  Li12  1  0.725925  0.905020  0.941526  1
  Li  Li13  1  0.335241  0.089325  0.086145  1
  Li  Li14  1  0.368555  0.128106  0.761197  1
  Li  Li15  1  0.754084  0.664759  0.752811  1
  Li  Li16  1  0.759552  0.631445  0.427864  1
  Li  Li17  1  0.820906  0.725925  0.108193  1
  Li  Li18  1  0.642628  0.310900  0.922222  1
  Li  Li19  1  0.668272  0.357372  0.588889  1
  Li  Li20  1  0.689100  0.331728  0.255555  1
  Li  Li21  1  0.871894  0.240448  0.094531  1
  Li  Li22  1  0.910675  0.245916  0.419478  1
  Li  Li23  1  0.905020  0.179094  0.774860  1
  Co  Co24  1  0.997472  0.011682  0.704464  1
  Co  Co25  1  0.024469  0.571524  0.045985  1
  Co  Co26  1  0.062577  0.461621  0.194820  1
  Co  Co27  1  0.048070  0.487208  0.849406  1
  Co  Co28  1  0.399045  0.937423  0.861486  1
  Co  Co29  1  0.439138  0.951930  0.516072  1
  Co  Co30  1  0.988318  0.985790  0.037798  1
  Co  Co31  1  0.985790  0.997472  0.871131  1
  Co  Co32  1  0.547055  0.975531  0.712651  1
  Co  Co33  1  0.428476  0.452945  0.379318  1
  Co  Co34  1  0.512792  0.560862  0.182739  1
  Co  Co35  1  0.538379  0.600955  0.528153  1
  Co  Co36  1  0.461621  0.399045  0.028153  1
  Co  Co37  1  0.487208  0.439138  0.682739  1
  Co  Co38  1  0.571524  0.547055  0.879318  1
  Co  Co39  1  0.452945  0.024469  0.212651  1
  Co  Co40  1  0.014210  0.002528  0.371131  1
  Co  Co41  1  0.011682  0.014210  0.537798  1
  Co  Co42  1  0.560862  0.048070  0.016072  1
  Co  Co43  1  0.600955  0.062577  0.361486  1
  Co  Co44  1  0.951930  0.512792  0.349406  1
  Co  Co45  1  0.937423  0.538379  0.694820  1
  Co  Co46  1  0.975531  0.428476  0.545985  1
  Co  Co47  1  0.002528  0.988318  0.204464  1
  P  P48  1  0.087626  0.788129  0.788220  1
  P  P49  1  0.081268  0.746672  0.469368  1
  P  P50  1  0.137130  0.792781  0.138497  1
  P  P51  1  0.291235  0.656156  0.292916  1
  P  P52  1  0.364921  0.708765  0.959583  1
  P  P53  1  0.343844  0.635079  0.626249  1
  P  P54  1  0.207219  0.344349  0.471831  1
  P  P55  1  0.211871  0.299498  0.121554  1
  P  P56  1  0.253328  0.334595  0.802701  1
  P  P57  1  0.655651  0.862870  0.805164  1
  P  P58  1  0.665405  0.918732  0.136034  1
  P  P59  1  0.700502  0.912374  0.454887  1
  P  P60  1  0.299498  0.087626  0.954887  1
  P  P61  1  0.334595  0.081268  0.636034  1
  P  P62  1  0.344349  0.137130  0.305164  1
  P  P63  1  0.746672  0.665405  0.302701  1
  P  P64  1  0.788129  0.700502  0.621554  1
  P  P65  1  0.792781  0.655651  0.971831  1
  P  P66  1  0.656156  0.364921  0.126249  1
  P  P67  1  0.635079  0.291235  0.459583  1
  P  P68  1  0.708765  0.343844  0.792916  1
  P  P69  1  0.862870  0.207219  0.638497  1
  P  P70  1  0.918732  0.253328  0.969368  1
  P  P71  1  0.912374  0.211871  0.288220  1
  O  O72  1  0.049096  0.788607  0.081215  1
  O  O73  1  0.074934  0.906614  0.474701  1
  O  O74  1  0.015130  0.677479  0.841619  1
  O  O75  1  0.128653  0.970353  0.930671  1
  O  O76  1  0.035822  0.799910  0.189695  1
  O  O77  1  0.012649  0.649241  0.525161  1
  O  O78  1  0.240288  0.940050  0.807159  1
  O  O79  1  0.133082  0.658787  0.301407  1
  O  O80  1  0.119308  0.690891  0.741956  1
  O  O81  1  0.321293  0.975172  0.583205  1
  O  O82  1  0.310800  0.928929  0.139782  1
  O  O83  1  0.139754  0.632068  0.136912  1
  O  O84  1  0.257848  0.791445  0.461805  1
  O  O85  1  0.172823  0.593046  0.610931  1
  O  O86  1  0.071071  0.381871  0.473116  1
  O  O87  1  0.277106  0.734941  0.906716  1
  O  O88  1  0.024828  0.346120  0.916539  1
  O  O89  1  0.059950  0.300238  0.140492  1
  O  O90  1  0.029647  0.158301  0.264004  1
  O  O91  1  0.093386  0.168320  0.808035  1
  O  O92  1  0.258941  0.670669  0.013912  1
  O  O93  1  0.265059  0.542164  0.240050  1
  O  O94  1  0.329331  0.588272  0.347245  1
  O  O95  1  0.208555  0.466402  0.795139  1
  O  O96  1  0.411728  0.741059  0.680579  1
  O  O97  1  0.420223  0.827177  0.277597  1
  O  O98  1  0.492314  0.860246  0.803579  1
  O  O99  1  0.309109  0.428417  0.075289  1
  O  O100  1  0.341213  0.474296  0.634740  1
  O  O101  1  0.367932  0.507686  0.470246  1
  O  O102  1  0.200090  0.235912  0.523028  1
  O  O103  1  0.406954  0.579777  0.944264  1
  O  O104  1  0.457836  0.722894  0.573383  1
  O  O105  1  0.525704  0.866918  0.968073  1
  O  O106  1  0.571583  0.880692  0.408623  1
  O  O107  1  0.158301  0.128653  0.097337  1
  O  O108  1  0.211393  0.260488  0.414548  1
  O  O109  1  0.322521  0.337651  0.174953  1
  O  O110  1  0.168320  0.074934  0.641368  1
  O  O111  1  0.350759  0.363408  0.858494  1
  O  O112  1  0.533598  0.742152  0.128472  1
  O  O113  1  0.300238  0.240288  0.973826  1
  O  O114  1  0.636592  0.987351  0.191828  1
  O  O115  1  0.346120  0.321293  0.749872  1
  O  O116  1  0.381871  0.310800  0.306449  1
  O  O117  1  0.662349  0.984870  0.508286  1
  O  O118  1  0.764088  0.964178  0.856362  1
  O  O119  1  0.260488  0.049096  0.247881  1
  O  O120  1  0.739512  0.950904  0.747881  1
  O  O121  1  0.235912  0.035822  0.356362  1
  O  O122  1  0.337651  0.015130  0.008286  1
  O  O123  1  0.618129  0.689200  0.806449  1
  O  O124  1  0.653880  0.678707  0.249872  1
  O  O125  1  0.363408  0.012649  0.691828  1
  O  O126  1  0.699762  0.759712  0.473826  1
  O  O127  1  0.466402  0.257848  0.628472  1
  O  O128  1  0.649241  0.636592  0.358494  1
  O  O129  1  0.831680  0.925066  0.141368  1
  O  O130  1  0.677479  0.662349  0.674953  1
  O  O131  1  0.788607  0.739512  0.914548  1
  O  O132  1  0.841699  0.871347  0.597337  1
  O  O133  1  0.428417  0.119308  0.908623  1
  O  O134  1  0.474296  0.133082  0.468073  1
  O  O135  1  0.542164  0.277106  0.073383  1
  O  O136  1  0.593046  0.420223  0.444264  1
  O  O137  1  0.799910  0.764088  0.023028  1
  O  O138  1  0.632068  0.492314  0.970246  1
  O  O139  1  0.658787  0.525704  0.134740  1
  O  O140  1  0.690891  0.571583  0.575289  1
  O  O141  1  0.507686  0.139754  0.303579  1
  O  O142  1  0.579777  0.172823  0.777597  1
  O  O143  1  0.588272  0.258941  0.180579  1
  O  O144  1  0.791445  0.533598  0.295139  1
  O  O145  1  0.670669  0.411728  0.847245  1
  O  O146  1  0.734941  0.457836  0.740050  1
  O  O147  1  0.741059  0.329331  0.513912  1
  O  O148  1  0.906614  0.831680  0.308035  1
  O  O149  1  0.970353  0.841699  0.764004  1
  O  O150  1  0.940050  0.699762  0.640492  1
  O  O151  1  0.975172  0.653880  0.416539  1
  O  O152  1  0.722894  0.265059  0.406716  1
  O  O153  1  0.928929  0.618129  0.973116  1
  O  O154  1  0.827177  0.406954  0.110931  1
  O  O155  1  0.742152  0.208555  0.961805  1
  O  O156  1  0.860246  0.367932  0.636912  1
  O  O157  1  0.689200  0.071071  0.639782  1
  O  O158  1  0.678707  0.024828  0.083205  1
  O  O159  1  0.880692  0.309109  0.241956  1
  O  O160  1  0.866918  0.341213  0.801407  1
  O  O161  1  0.759712  0.059950  0.307159  1
  O  O162  1  0.987351  0.350759  0.025161  1
  O  O163  1  0.964178  0.200090  0.689695  1
  O  O164  1  0.871347  0.029647  0.430671  1
  O  O165  1  0.984870  0.322521  0.341619  1
  O  O166  1  0.925066  0.093386  0.974701  1
  O  O167  1  0.950904  0.211393  0.581215  1
