# generated using pymatgen
data_Sr2LaI7
_symmetry_space_group_name_H-M   'P 1'
_cell_length_a   7.90115087
_cell_length_b   17.59755963
_cell_length_c   11.95629582
_cell_angle_alpha   90.00000000
_cell_angle_beta   89.73832165
_cell_angle_gamma   90.00000000
_symmetry_Int_Tables_number   1
_chemical_formula_structural   Sr2LaI7
_chemical_formula_sum   'Sr8 La4 I28'
_cell_volume   1662.39767191
_cell_formula_units_Z   4
loop_
 _symmetry_equiv_pos_site_id
 _symmetry_equiv_pos_as_xyz
  1  'x, y, z'
loop_
 _atom_site_type_symbol
 _atom_site_label
 _atom_site_symmetry_multiplicity
 _atom_site_fract_x
 _atom_site_fract_y
 _atom_site_fract_z
 _atom_site_occupancy
  Sr  Sr0  1  0.283830  0.560209  0.676893  1
  Sr  Sr1  1  0.293816  0.217720  0.552614  1
  Sr  Sr2  1  0.283830  0.939791  0.176893  1
  Sr  Sr3  1  0.293816  0.282280  0.052614  1
  Sr  Sr4  1  0.706184  0.717720  0.947386  1
  Sr  Sr5  1  0.716170  0.060209  0.823107  1
  Sr  Sr6  1  0.706184  0.782280  0.447386  1
  Sr  Sr7  1  0.716170  0.439791  0.323107  1
  La  La8  1  0.215590  0.869487  0.723902  1
  La  La9  1  0.215590  0.630513  0.223902  1
  La  La10  1  0.784410  0.369487  0.776098  1
  La  La11  1  0.784410  0.130513  0.276098  1
  I  I12  1  0.000235  0.213607  0.776535  1
  I  I13  1  0.002450  0.397330  0.555863  1
  I  I14  1  0.000235  0.286393  0.276535  1
  I  I15  1  0.002450  0.102670  0.055863  1
  I  I16  1  0.147788  0.426356  0.877090  1
  I  I17  1  0.147788  0.073644  0.377090  1
  I  I18  1  0.307351  0.642057  0.963318  1
  I  I19  1  0.307351  0.857943  0.463318  1
  I  I20  1  0.319741  0.042984  0.709046  1
  I  I21  1  0.319741  0.457016  0.209046  1
  I  I22  1  0.501678  0.895053  0.927767  1
  I  I23  1  0.506408  0.738782  0.695754  1
  I  I24  1  0.501678  0.604947  0.427767  1
  I  I25  1  0.506408  0.761218  0.195754  1
  I  I26  1  0.493592  0.238782  0.804246  1
  I  I27  1  0.498322  0.395052  0.572233  1
  I  I28  1  0.493592  0.261218  0.304246  1
  I  I29  1  0.498322  0.104947  0.072233  1
  I  I30  1  0.680259  0.542984  0.790954  1
  I  I31  1  0.680259  0.957016  0.290954  1
  I  I32  1  0.692649  0.142057  0.536682  1
  I  I33  1  0.692649  0.357943  0.036682  1
  I  I34  1  0.852212  0.926356  0.622910  1
  I  I35  1  0.852212  0.573644  0.122910  1
  I  I36  1  0.997550  0.897330  0.944137  1
  I  I37  1  0.999765  0.713607  0.723465  1
  I  I38  1  0.997550  0.602670  0.444137  1
  I  I39  1  0.999765  0.786393  0.223465  1
