# generated using pymatgen
data_Li2V2Si2O9
_symmetry_space_group_name_H-M   'P 1'
_cell_length_a   14.17530631
_cell_length_b   8.41531121
_cell_length_c   5.26541970
_cell_angle_alpha   89.99999260
_cell_angle_beta   89.99736438
_cell_angle_gamma   90.00250504
_symmetry_Int_Tables_number   1
_chemical_formula_structural   Li2V2Si2O9
_chemical_formula_sum   'Li8 V8 Si8 O36'
_cell_volume   628.10988300
_cell_formula_units_Z   4
loop_
 _symmetry_equiv_pos_site_id
 _symmetry_equiv_pos_as_xyz
  1  'x, y, z'
loop_
 _atom_site_type_symbol
 _atom_site_label
 _atom_site_symmetry_multiplicity
 _atom_site_fract_x
 _atom_site_fract_y
 _atom_site_fract_z
 _atom_site_occupancy
  Li  Li0  1  0.156872  0.036557  0.598938  1
  Li  Li1  1  0.156901  0.463459  0.098997  1
  Li  Li2  1  0.343154  0.536740  0.099299  1
  Li  Li3  1  0.343170  0.963167  0.599339  1
  Li  Li4  1  0.656895  0.036637  0.400906  1
  Li  Li5  1  0.656891  0.463348  0.900916  1
  Li  Li6  1  0.843166  0.536719  0.900819  1
  Li  Li7  1  0.843151  0.963345  0.400831  1
  V  V8  1  0.172394  0.658518  0.624622  1
  V  V9  1  0.172389  0.841459  0.124632  1
  V  V10  1  0.327561  0.158468  0.124620  1
  V  V11  1  0.327564  0.341486  0.624632  1
  V  V12  1  0.672397  0.658502  0.375388  1
  V  V13  1  0.672364  0.841475  0.875383  1
  V  V14  1  0.827599  0.158494  0.875360  1
  V  V15  1  0.827594  0.341507  0.375348  1
  Si  Si16  1  0.027072  0.155223  0.214650  1
  Si  Si17  1  0.027054  0.344758  0.714638  1
  Si  Si18  1  0.472928  0.655177  0.714825  1
  Si  Si19  1  0.472943  0.844824  0.214810  1
  Si  Si20  1  0.526999  0.155185  0.785282  1
  Si  Si21  1  0.526986  0.344796  0.285288  1
  Si  Si22  1  0.972959  0.655210  0.285183  1
  Si  Si23  1  0.972996  0.844843  0.785195  1
  O  O24  1  0.067948  0.261737  0.454848  1
  O  O25  1  0.067947  0.238294  0.954814  1
  O  O26  1  0.076195  0.516215  0.758230  1
  O  O27  1  0.076203  0.983826  0.258212  1
  O  O28  1  0.088649  0.651683  0.288524  1
  O  O29  1  0.088646  0.848318  0.788549  1
  O  O30  1  0.228680  0.828460  0.455711  1
  O  O31  1  0.228690  0.671532  0.955686  1
  O  O32  1  0.249998  0.999937  0.989426  1
  O  O33  1  0.249984  0.500018  0.489430  1
  O  O34  1  0.271316  0.171499  0.455789  1
  O  O35  1  0.271321  0.328476  0.955803  1
  O  O36  1  0.411342  0.151646  0.788638  1
  O  O37  1  0.411353  0.348362  0.288630  1
  O  O38  1  0.423786  0.016207  0.258312  1
  O  O39  1  0.423802  0.483787  0.758327  1
  O  O40  1  0.432073  0.738318  0.455112  1
  O  O41  1  0.432071  0.761692  0.955078  1
  O  O42  1  0.567919  0.238335  0.045030  1
  O  O43  1  0.567910  0.261670  0.545013  1
  O  O44  1  0.576201  0.516204  0.241801  1
  O  O45  1  0.576175  0.983810  0.741788  1
  O  O46  1  0.588658  0.651670  0.711487  1
  O  O47  1  0.588650  0.848328  0.211466  1
  O  O48  1  0.728670  0.671528  0.044277  1
  O  O49  1  0.728663  0.828458  0.544294  1
  O  O50  1  0.750006  0.999954  0.010579  1
  O  O51  1  0.750010  0.500029  0.510603  1
  O  O52  1  0.771316  0.171555  0.544262  1
  O  O53  1  0.771325  0.328459  0.044228  1
  O  O54  1  0.911345  0.151677  0.211368  1
  O  O55  1  0.911349  0.348336  0.711363  1
  O  O56  1  0.923816  0.016239  0.741710  1
  O  O57  1  0.923808  0.483817  0.241715  1
  O  O58  1  0.932090  0.738332  0.544968  1
  O  O59  1  0.932085  0.761689  0.045031  1
