# generated using pymatgen
data_Na6Bi2C4SO16
_symmetry_space_group_name_H-M   'P 1'
_cell_length_a   10.29884132
_cell_length_b   10.29884132
_cell_length_c   10.29884154
_cell_angle_alpha   120.00000204
_cell_angle_beta   59.99999796
_cell_angle_gamma   120.00000268
_symmetry_Int_Tables_number   1
_chemical_formula_structural   Na6Bi2C4SO16
_chemical_formula_sum   'Na12 Bi4 C8 S2 O32'
_cell_volume   772.41391541
_cell_formula_units_Z   2
loop_
 _symmetry_equiv_pos_site_id
 _symmetry_equiv_pos_as_xyz
  1  'x, y, z'
loop_
 _atom_site_type_symbol
 _atom_site_label
 _atom_site_symmetry_multiplicity
 _atom_site_fract_x
 _atom_site_fract_y
 _atom_site_fract_z
 _atom_site_occupancy
  Na  Na0  1  0.329366  0.170634  0.920634  1
  Na  Na1  1  0.079366  0.420634  0.670634  1
  Na  Na2  1  0.329366  0.579366  0.329366  1
  Na  Na3  1  0.079366  0.829366  0.079366  1
  Na  Na4  1  0.329366  0.579366  0.920634  1
  Na  Na5  1  0.079366  0.829366  0.670634  1
  Na  Na6  1  0.920634  0.170634  0.920634  1
  Na  Na7  1  0.920634  0.170634  0.329366  1
  Na  Na8  1  0.670634  0.420634  0.079366  1
  Na  Na9  1  0.670634  0.420634  0.670634  1
  Na  Na10  1  0.920634  0.579366  0.329366  1
  Na  Na11  1  0.670634  0.829366  0.079366  1
  Bi  Bi12  1  0.000000  0.000000  0.500000  1
  Bi  Bi13  1  0.500000  0.000000  0.500000  1
  Bi  Bi14  1  0.500000  0.000000  0.000000  1
  Bi  Bi15  1  0.500000  0.500000  0.500000  1
  C  C16  1  0.266820  0.233180  0.699542  1
  C  C17  1  0.266820  0.233180  0.266820  1
  C  C18  1  0.699542  0.233180  0.266820  1
  C  C19  1  0.733180  0.199542  0.733180  1
  C  C20  1  0.300458  0.766820  0.733180  1
  C  C21  1  0.266820  0.800458  0.266820  1
  C  C22  1  0.733180  0.766820  0.733180  1
  C  C23  1  0.733180  0.766820  0.300458  1
  S  S24  1  0.125000  0.375000  0.125000  1
  S  S25  1  0.875000  0.625000  0.875000  1
  O  O26  1  0.138712  0.107652  0.698731  1
  O  O27  1  0.065686  0.197059  0.065686  1
  O  O28  1  0.138712  0.229791  0.392348  1
  O  O29  1  0.270209  0.107652  0.138712  1
  O  O30  1  0.065686  0.434314  0.065686  1
  O  O31  1  0.065686  0.434314  0.302941  1
  O  O32  1  0.392348  0.229791  0.698731  1
  O  O33  1  0.270209  0.361288  0.698731  1
  O  O34  1  0.302941  0.434314  0.065686  1
  O  O35  1  0.698731  0.107652  0.270209  1
  O  O36  1  0.607652  0.198731  0.861288  1
  O  O37  1  0.392348  0.361288  0.270209  1
  O  O38  1  0.698731  0.229791  0.138712  1
  O  O39  1  0.729791  0.198731  0.607652  1
  O  O40  1  0.138712  0.801269  0.270209  1
  O  O41  1  0.301269  0.638712  0.607652  1
  O  O42  1  0.861288  0.198731  0.729791  1
  O  O43  1  0.698731  0.361288  0.392348  1
  O  O44  1  0.270209  0.801269  0.392348  1
  O  O45  1  0.301269  0.770209  0.861288  1
  O  O46  1  0.607652  0.638712  0.729791  1
  O  O47  1  0.392348  0.801269  0.138712  1
  O  O48  1  0.301269  0.892348  0.729791  1
  O  O49  1  0.697059  0.565686  0.934314  1
  O  O50  1  0.729791  0.638712  0.301269  1
  O  O51  1  0.607652  0.770209  0.301269  1
  O  O52  1  0.934314  0.565686  0.934314  1
  O  O53  1  0.934314  0.565686  0.697059  1
  O  O54  1  0.729791  0.892348  0.861288  1
  O  O55  1  0.861288  0.770209  0.607652  1
  O  O56  1  0.934314  0.802941  0.934314  1
  O  O57  1  0.861288  0.892348  0.301269  1
