# generated using pymatgen
data_Na2LiMnPCO7
_symmetry_space_group_name_H-M   'P 1'
_cell_length_a   8.85783647
_cell_length_b   6.78351311
_cell_length_c   10.22579900
_cell_angle_alpha   90.05074463
_cell_angle_beta   89.31100259
_cell_angle_gamma   90.07583850
_symmetry_Int_Tables_number   1
_chemical_formula_structural   Na2LiMnPCO7
_chemical_formula_sum   'Na8 Li4 Mn4 P4 C4 O28'
_cell_volume   614.39494249
_cell_formula_units_Z   4
loop_
 _symmetry_equiv_pos_site_id
 _symmetry_equiv_pos_as_xyz
  1  'x, y, z'
loop_
 _atom_site_type_symbol
 _atom_site_label
 _atom_site_symmetry_multiplicity
 _atom_site_fract_x
 _atom_site_fract_y
 _atom_site_fract_z
 _atom_site_occupancy
  Na  Na0  1  0.082436  0.250930  0.878817  1
  Na  Na1  1  0.083553  0.253539  0.379509  1
  Na  Na2  1  0.254431  0.000500  0.625088  1
  Na  Na3  1  0.257707  0.999712  0.124286  1
  Na  Na4  1  0.257122  0.500889  0.124040  1
  Na  Na5  1  0.745665  0.502153  0.875397  1
  Na  Na6  1  0.743000  0.501565  0.376503  1
  Na  Na7  1  0.743765  0.999357  0.376680  1
  Li  Li8  1  0.271219  0.478015  0.616040  1
  Li  Li9  1  0.730772  0.980752  0.883332  1
  Li  Li10  1  0.914679  0.749251  0.627283  1
  Li  Li11  1  0.909003  0.753517  0.123131  1
  Mn  Mn12  1  0.359893  0.747434  0.884508  1
  Mn  Mn13  1  0.361739  0.747556  0.392446  1
  Mn  Mn14  1  0.643569  0.247716  0.615280  1
  Mn  Mn15  1  0.641193  0.247135  0.107947  1
  P  P16  1  0.411235  0.248506  0.848994  1
  P  P17  1  0.411103  0.249534  0.355253  1
  P  P18  1  0.594749  0.749449  0.651316  1
  P  P19  1  0.594721  0.749467  0.145346  1
  C  C20  1  0.045881  0.757194  0.866564  1
  C  C21  1  0.052260  0.749775  0.366095  1
  C  C22  1  0.945989  0.257448  0.632747  1
  C  C23  1  0.940731  0.249250  0.132061  1
  O  O24  1  0.092330  0.273984  0.642102  1
  O  O25  1  0.086836  0.249540  0.142780  1
  O  O26  1  0.089211  0.749844  0.987928  1
  O  O27  1  0.093327  0.751935  0.488007  1
  O  O28  1  0.145508  0.744905  0.771618  1
  O  O29  1  0.154352  0.747109  0.272733  1
  O  O30  1  0.314914  0.064721  0.887467  1
  O  O31  1  0.325483  0.432097  0.901822  1
  O  O32  1  0.318253  0.064036  0.396300  1
  O  O33  1  0.317077  0.431621  0.402233  1
  O  O34  1  0.421291  0.264293  0.696185  1
  O  O35  1  0.430948  0.733696  0.596209  1
  O  O36  1  0.427456  0.253056  0.202735  1
  O  O37  1  0.434892  0.751201  0.084798  1
  O  O38  1  0.574849  0.232823  0.902161  1
  O  O39  1  0.579948  0.764714  0.803764  1
  O  O40  1  0.570919  0.250816  0.413776  1
  O  O41  1  0.573914  0.753442  0.297262  1
  O  O42  1  0.693689  0.567871  0.614032  1
  O  O43  1  0.683018  0.931537  0.599913  1
  O  O44  1  0.689608  0.565530  0.105670  1
  O  O45  1  0.692351  0.929105  0.099623  1
  O  O46  1  0.861238  0.246993  0.737217  1
  O  O47  1  0.855128  0.247624  0.236333  1
  O  O48  1  0.882744  0.250501  0.518955  1
  O  O49  1  0.878819  0.250535  0.017855  1
  O  O50  1  0.904221  0.775812  0.837571  1
  O  O51  1  0.911266  0.750014  0.334288  1
