# generated using pymatgen
data_Na6MnO4
_symmetry_space_group_name_H-M   'P 1'
_cell_length_a   7.58982545
_cell_length_b   7.58984122
_cell_length_c   5.52013952
_cell_angle_alpha   90.00055746
_cell_angle_beta   89.99990395
_cell_angle_gamma   90.00052805
_symmetry_Int_Tables_number   1
_chemical_formula_structural   Na6MnO4
_chemical_formula_sum   'Na12 Mn2 O8'
_cell_volume   317.99078381
_cell_formula_units_Z   2
loop_
 _symmetry_equiv_pos_site_id
 _symmetry_equiv_pos_as_xyz
  1  'x, y, z'
loop_
 _atom_site_type_symbol
 _atom_site_label
 _atom_site_symmetry_multiplicity
 _atom_site_fract_x
 _atom_site_fract_y
 _atom_site_fract_z
 _atom_site_occupancy
  Na  Na0  1  0.037007  0.536993  0.750009  1
  Na  Na1  1  0.037006  0.963009  0.749980  1
  Na  Na2  1  0.250011  0.250017  0.667201  1
  Na  Na3  1  0.250006  0.250022  0.167201  1
  Na  Na4  1  0.463022  0.537018  0.749993  1
  Na  Na5  1  0.463004  0.963001  0.749994  1
  Na  Na6  1  0.537021  0.037008  0.249993  1
  Na  Na7  1  0.537009  0.463011  0.249991  1
  Na  Na8  1  0.750020  0.750002  0.332775  1
  Na  Na9  1  0.750012  0.750014  0.832774  1
  Na  Na10  1  0.963015  0.037020  0.249975  1
  Na  Na11  1  0.963001  0.463000  0.249996  1
  Mn  Mn12  1  0.250002  0.750007  0.250044  1
  Mn  Mn13  1  0.749996  0.249996  0.750019  1
  O  O14  1  0.998403  0.250005  0.936455  1
  O  O15  1  0.250012  0.998422  0.436457  1
  O  O16  1  0.250004  0.501607  0.436473  1
  O  O17  1  0.501594  0.250009  0.936457  1
  O  O18  1  0.498402  0.750003  0.063558  1
  O  O19  1  0.750010  0.001610  0.563545  1
  O  O20  1  0.750006  0.498396  0.563556  1
  O  O21  1  0.001617  0.750009  0.063553  1
