# generated using pymatgen
data_LuBO3
_symmetry_space_group_name_H-M   'P 1'
_cell_length_a   6.10764968
_cell_length_b   6.10764968
_cell_length_c   6.10764967
_cell_angle_alpha   47.54425104
_cell_angle_beta   47.54425100
_cell_angle_gamma   47.54425110
_symmetry_Int_Tables_number   1
_chemical_formula_structural   LuBO3
_chemical_formula_sum   'Lu2 B2 O6'
_cell_volume   113.50524789
_cell_formula_units_Z   2
loop_
 _symmetry_equiv_pos_site_id
 _symmetry_equiv_pos_as_xyz
  1  'x, y, z'
loop_
 _atom_site_type_symbol
 _atom_site_label
 _atom_site_symmetry_multiplicity
 _atom_site_fract_x
 _atom_site_fract_y
 _atom_site_fract_z
 _atom_site_occupancy
  B  B0  1  0.750000  0.750000  0.750000  1
  B  B1  1  0.250000  0.250000  0.250000  1
  O  O2  1  0.750000  0.031945  0.468055  1
  O  O3  1  0.468055  0.750000  0.031945  1
  O  O4  1  0.968055  0.531945  0.250000  1
  O  O5  1  0.250000  0.968055  0.531945  1
  O  O6  1  0.531945  0.250000  0.968055  1
  O  O7  1  0.031945  0.468055  0.750000  1
  Lu  Lu8  1  0.500000  0.500000  0.500000  1
  Lu  Lu9  1  0.000000  0.000000  0.000000  1
