# generated using pymatgen
data_LiSiBiO4
_symmetry_space_group_name_H-M   'P 1'
_cell_length_a   4.95600577
_cell_length_b   10.92207595
_cell_length_c   6.74430722
_cell_angle_alpha   90.00000000
_cell_angle_beta   90.00000000
_cell_angle_gamma   90.00000000
_symmetry_Int_Tables_number   1
_chemical_formula_structural   LiSiBiO4
_chemical_formula_sum   'Li4 Si4 Bi4 O16'
_cell_volume   365.06848269
_cell_formula_units_Z   4
loop_
 _symmetry_equiv_pos_site_id
 _symmetry_equiv_pos_as_xyz
  1  'x, y, z'
loop_
 _atom_site_type_symbol
 _atom_site_label
 _atom_site_symmetry_multiplicity
 _atom_site_fract_x
 _atom_site_fract_y
 _atom_site_fract_z
 _atom_site_occupancy
  Li  Li0  1  0.000000  0.000000  0.000000  1
  Li  Li1  1  0.000000  0.000000  0.500000  1
  Li  Li2  1  0.500000  0.500000  0.500000  1
  Li  Li3  1  0.500000  0.500000  0.000000  1
  Si  Si4  1  0.096468  0.579920  0.250000  1
  Si  Si5  1  0.403532  0.079920  0.250000  1
  Si  Si6  1  0.596467  0.920080  0.750000  1
  Si  Si7  1  0.903533  0.420080  0.750000  1
  Bi  Bi8  1  0.038786  0.722755  0.750000  1
  Bi  Bi9  1  0.461214  0.222755  0.750000  1
  Bi  Bi10  1  0.538786  0.777245  0.250000  1
  Bi  Bi11  1  0.961214  0.277245  0.250000  1
  O  O12  1  0.241682  0.443904  0.250000  1
  O  O13  1  0.235807  0.656634  0.060119  1
  O  O14  1  0.235807  0.656634  0.439881  1
  O  O15  1  0.270280  0.922492  0.750000  1
  O  O16  1  0.229720  0.422492  0.750000  1
  O  O17  1  0.264193  0.156634  0.439881  1
  O  O18  1  0.264193  0.156634  0.060119  1
  O  O19  1  0.258318  0.943904  0.250000  1
  O  O20  1  0.741682  0.056096  0.750000  1
  O  O21  1  0.735807  0.843366  0.560119  1
  O  O22  1  0.735807  0.843366  0.939881  1
  O  O23  1  0.770280  0.577508  0.250000  1
  O  O24  1  0.729720  0.077508  0.250000  1
  O  O25  1  0.764193  0.343366  0.939881  1
  O  O26  1  0.764193  0.343366  0.560119  1
  O  O27  1  0.758318  0.556096  0.750000  1
