# generated using pymatgen
data_Fe6O5F7
_symmetry_space_group_name_H-M   'P 1'
_cell_length_a   4.77820085
_cell_length_b   7.82525632
_cell_length_c   5.69610219
_cell_angle_alpha   94.54160680
_cell_angle_beta   92.10705511
_cell_angle_gamma   88.27199171
_symmetry_Int_Tables_number   1
_chemical_formula_structural   Fe6O5F7
_chemical_formula_sum   'Fe6 O5 F7'
_cell_volume   212.08929743
_cell_formula_units_Z   1
loop_
 _symmetry_equiv_pos_site_id
 _symmetry_equiv_pos_as_xyz
  1  'x, y, z'
loop_
 _atom_site_type_symbol
 _atom_site_label
 _atom_site_symmetry_multiplicity
 _atom_site_fract_x
 _atom_site_fract_y
 _atom_site_fract_z
 _atom_site_occupancy
  Fe  Fe0  1  0.526268  0.674289  0.148532  1
  Fe  Fe1  1  0.519406  0.000269  0.523429  1
  Fe  Fe2  1  0.470036  0.333190  0.812888  1
  Fe  Fe3  1  0.988648  0.667216  0.674153  1
  Fe  Fe4  1  0.018937  0.331086  0.339928  1
  Fe  Fe5  1  0.964120  0.995725  0.994154  1
  O  O6  1  0.806663  0.771594  0.956945  1
  O  O7  1  0.696369  0.110772  0.805850  1
  O  O8  1  0.695146  0.769099  0.455558  1
  O  O9  1  0.304723  0.564934  0.874007  1
  O  O10  1  0.318559  0.220079  0.532662  1
  F  F11  1  0.801092  0.438496  0.640216  1
  F  F12  1  0.804514  0.091763  0.298218  1
  F  F13  1  0.697419  0.431082  0.135305  1
  F  F14  1  0.297113  0.905508  0.199498  1
  F  F15  1  0.196541  0.218875  0.026897  1
  F  F16  1  0.198403  0.576302  0.374895  1
  F  F17  1  0.196044  0.899718  0.706868  1
