# generated using pymatgen
data_Li3Ti(Si2O5)3
_symmetry_space_group_name_H-M   'P 1'
_cell_length_a   9.88809233
_cell_length_b   7.93947510
_cell_length_c   15.01751303
_cell_angle_alpha   90.00000000
_cell_angle_beta   90.00000000
_cell_angle_gamma   90.00000000
_symmetry_Int_Tables_number   1
_chemical_formula_structural   Li3Ti(Si2O5)3
_chemical_formula_sum   'Li12 Ti4 Si24 O60'
_cell_volume   1178.96882514
_cell_formula_units_Z   4
loop_
 _symmetry_equiv_pos_site_id
 _symmetry_equiv_pos_as_xyz
  1  'x, y, z'
loop_
 _atom_site_type_symbol
 _atom_site_label
 _atom_site_symmetry_multiplicity
 _atom_site_fract_x
 _atom_site_fract_y
 _atom_site_fract_z
 _atom_site_occupancy
  Li  Li0  1  0.919957  0.250000  0.065290  1
  Li  Li1  1  0.580043  0.250000  0.565290  1
  Li  Li2  1  0.497959  0.998716  0.241814  1
  Li  Li3  1  0.497959  0.501284  0.241814  1
  Li  Li4  1  0.502041  0.001284  0.758186  1
  Li  Li5  1  0.502041  0.498716  0.758186  1
  Li  Li6  1  0.419957  0.750000  0.434710  1
  Li  Li7  1  0.080043  0.750000  0.934710  1
  Li  Li8  1  0.997959  0.001284  0.258186  1
  Li  Li9  1  0.997959  0.498716  0.258186  1
  Li  Li10  1  0.002041  0.501284  0.741814  1
  Li  Li11  1  0.002041  0.998716  0.741814  1
  Ti  Ti12  1  0.745540  0.250000  0.251448  1
  Ti  Ti13  1  0.754460  0.250000  0.751448  1
  Ti  Ti14  1  0.254460  0.750000  0.748552  1
  Ti  Ti15  1  0.245540  0.750000  0.248552  1
  Si  Si16  1  0.969123  0.750000  0.402632  1
  Si  Si17  1  0.971597  0.750000  0.598262  1
  Si  Si18  1  0.795635  0.560720  0.099260  1
  Si  Si19  1  0.795635  0.939280  0.099260  1
  Si  Si20  1  0.797935  0.941754  0.901201  1
  Si  Si21  1  0.797935  0.558246  0.901201  1
  Si  Si22  1  0.702065  0.941754  0.401201  1
  Si  Si23  1  0.704365  0.560720  0.599260  1
  Si  Si24  1  0.702065  0.558246  0.401201  1
  Si  Si25  1  0.704365  0.939280  0.599260  1
  Si  Si26  1  0.528403  0.750000  0.098262  1
  Si  Si27  1  0.530877  0.750000  0.902632  1
  Si  Si28  1  0.471597  0.250000  0.901738  1
  Si  Si29  1  0.469123  0.250000  0.097368  1
  Si  Si30  1  0.295635  0.439280  0.400740  1
  Si  Si31  1  0.295635  0.060720  0.400740  1
  Si  Si32  1  0.297935  0.058246  0.598799  1
  Si  Si33  1  0.297935  0.441754  0.598799  1
  Si  Si34  1  0.202065  0.058246  0.098798  1
  Si  Si35  1  0.204365  0.439280  0.900740  1
  Si  Si36  1  0.204365  0.060720  0.900740  1
  Si  Si37  1  0.202065  0.441754  0.098798  1
  Si  Si38  1  0.030877  0.250000  0.597368  1
  Si  Si39  1  0.028403  0.250000  0.401738  1
  O  O40  1  0.956608  0.250000  0.500017  1
  O  O41  1  0.928073  0.250000  0.318481  1
  O  O42  1  0.933787  0.250000  0.682275  1
  O  O43  1  0.866056  0.586210  0.397125  1
  O  O44  1  0.866056  0.913790  0.397125  1
  O  O45  1  0.868853  0.585255  0.605305  1
  O  O46  1  0.868853  0.914745  0.605305  1
  O  O47  1  0.864628  0.750000  0.105969  1
  O  O48  1  0.871019  0.750000  0.901171  1
  O  O49  1  0.850575  0.072148  0.171118  1
  O  O50  1  0.850575  0.427852  0.171118  1
  O  O51  1  0.846363  0.056881  0.820026  1
  O  O52  1  0.846363  0.443119  0.820026  1
  O  O53  1  0.837294  0.478061  0.000423  1
  O  O54  1  0.837294  0.021939  0.000423  1
  O  O55  1  0.662706  0.478061  0.500423  1
  O  O56  1  0.662706  0.021939  0.500423  1
  O  O57  1  0.649425  0.072148  0.671118  1
  O  O58  1  0.653637  0.056881  0.320026  1
  O  O59  1  0.653637  0.443119  0.320026  1
  O  O60  1  0.649425  0.427852  0.671118  1
  O  O61  1  0.628981  0.750000  0.401171  1
  O  O62  1  0.635372  0.750000  0.605969  1
  O  O63  1  0.631147  0.914745  0.105305  1
  O  O64  1  0.631147  0.585255  0.105305  1
  O  O65  1  0.633944  0.913790  0.897125  1
  O  O66  1  0.633944  0.586210  0.897125  1
  O  O67  1  0.566213  0.250000  0.182275  1
  O  O68  1  0.571927  0.250000  0.818481  1
  O  O69  1  0.543392  0.250000  0.000017  1
  O  O70  1  0.456608  0.750000  -0.000017  1
  O  O71  1  0.428073  0.750000  0.181519  1
  O  O72  1  0.433787  0.750000  0.817725  1
  O  O73  1  0.368853  0.085255  0.894695  1
  O  O74  1  0.368853  0.414745  0.894695  1
  O  O75  1  0.366056  0.086210  0.102875  1
  O  O76  1  0.366056  0.413790  0.102875  1
  O  O77  1  0.371019  0.250000  0.598829  1
  O  O78  1  0.364628  0.250000  0.394031  1
  O  O79  1  0.346363  0.556881  0.679974  1
  O  O80  1  0.346363  0.943119  0.679974  1
  O  O81  1  0.350575  0.572148  0.328882  1
  O  O82  1  0.350575  0.927852  0.328882  1
  O  O83  1  0.337294  0.978061  0.499577  1
  O  O84  1  0.337294  0.521939  0.499577  1
  O  O85  1  0.162706  0.978061  0.999577  1
  O  O86  1  0.162706  0.521939  0.999577  1
  O  O87  1  0.153637  0.556881  0.179974  1
  O  O88  1  0.153637  0.943119  0.179974  1
  O  O89  1  0.149425  0.572148  0.828882  1
  O  O90  1  0.149425  0.927852  0.828882  1
  O  O91  1  0.128981  0.250000  0.098829  1
  O  O92  1  0.135372  0.250000  0.894031  1
  O  O93  1  0.133944  0.413790  0.602875  1
  O  O94  1  0.131147  0.085255  0.394695  1
  O  O95  1  0.131147  0.414745  0.394695  1
  O  O96  1  0.133944  0.086210  0.602875  1
  O  O97  1  0.066213  0.750000  0.317725  1
  O  O98  1  0.071927  0.750000  0.681519  1
  O  O99  1  0.043392  0.750000  0.499983  1
