# generated using pymatgen
data_LiZr2(PO4)3
_symmetry_space_group_name_H-M   'P 1'
_cell_length_a   8.84141583
_cell_length_b   8.92477089
_cell_length_c   9.20023736
_cell_angle_alpha   61.02186348
_cell_angle_beta   118.61228422
_cell_angle_gamma   119.05317466
_symmetry_Int_Tables_number   1
_chemical_formula_structural   LiZr2(PO4)3
_chemical_formula_sum   'Li2 Zr4 P6 O24'
_cell_volume   526.24623440
_cell_formula_units_Z   2
loop_
 _symmetry_equiv_pos_site_id
 _symmetry_equiv_pos_as_xyz
  1  'x, y, z'
loop_
 _atom_site_type_symbol
 _atom_site_label
 _atom_site_symmetry_multiplicity
 _atom_site_fract_x
 _atom_site_fract_y
 _atom_site_fract_z
 _atom_site_occupancy
  Li  Li0  1  0.860186  0.380938  0.482670  1
  Li  Li1  1  0.596118  0.209281  0.257011  1
  Zr  Zr2  1  0.133897  0.355869  0.929663  1
  Zr  Zr3  1  0.636510  0.839712  0.434931  1
  Zr  Zr4  1  0.353637  0.137482  0.572535  1
  Zr  Zr5  1  0.862680  0.648482  0.059911  1
  P  P6  1  0.044210  0.748106  0.758373  1
  P  P7  1  0.239369  0.953084  0.259396  1
  P  P8  1  0.463815  0.469774  0.748493  1
  P  P9  1  0.534001  0.515191  0.254928  1
  P  P10  1  0.747373  0.046528  0.729884  1
  P  P11  1  0.950789  0.244555  0.247128  1
  O  O12  1  0.032191  0.695317  0.939945  1
  O  O13  1  0.195346  0.933565  0.725501  1
  O  O14  1  0.085283  0.600776  0.755964  1
  O  O15  1  0.264628  0.967815  0.429590  1
  O  O16  1  0.085452  0.776389  0.234509  1
  O  O17  1  0.422617  0.958859  0.266507  1
  O  O18  1  0.804269  0.883798  0.880656  1
  O  O19  1  0.287431  0.406146  0.787155  1
  O  O20  1  0.484186  0.656478  0.601840  1
  O  O21  1  0.629765  0.487717  0.916222  1
  O  O22  1  0.134174  0.236073  0.392476  1
  O  O23  1  0.455512  0.329893  0.689826  1
  O  O24  1  0.543810  0.653879  0.315145  1
  O  O25  1  0.860091  0.762988  0.614821  1
  O  O26  1  0.369758  0.496220  0.090089  1
  O  O27  1  0.526488  0.325815  0.400242  1
  O  O28  1  0.716095  0.576357  0.223982  1
  O  O29  1  0.195667  0.118995  0.101081  1
  O  O30  1  0.575151  0.043198  0.736049  1
  O  O31  1  0.901865  0.230917  0.743716  1
  O  O32  1  0.717582  0.047104  0.548526  1
  O  O33  1  0.890195  0.381094  0.252855  1
  O  O34  1  0.793743  0.060723  0.277150  1
  O  O35  1  0.968768  0.302892  0.067568  1
