# generated using pymatgen
data_Co6O7F5
_symmetry_space_group_name_H-M   'P 1'
_cell_length_a   4.63322724
_cell_length_b   4.63322724
_cell_length_c   8.74889484
_cell_angle_alpha   90.00000000
_cell_angle_beta   90.00000000
_cell_angle_gamma   97.51406268
_symmetry_Int_Tables_number   1
_chemical_formula_structural   Co6O7F5
_chemical_formula_sum   'Co6 O7 F5'
_cell_volume   186.19795961
_cell_formula_units_Z   1
loop_
 _symmetry_equiv_pos_site_id
 _symmetry_equiv_pos_as_xyz
  1  'x, y, z'
loop_
 _atom_site_type_symbol
 _atom_site_label
 _atom_site_symmetry_multiplicity
 _atom_site_fract_x
 _atom_site_fract_y
 _atom_site_fract_z
 _atom_site_occupancy
  Co  Co0  1  0.008609  0.991391  0.009066  1
  Co  Co1  1  0.008609  0.991391  0.324267  1
  Co  Co2  1  0.000199  -0.000199  0.666667  1
  Co  Co3  1  0.463345  0.536655  0.166667  1
  Co  Co4  1  0.506579  0.493421  0.835507  1
  Co  Co5  1  0.506579  0.493421  0.497826  1
  O  O6  1  0.180123  0.819877  0.166667  1
  O  O7  1  0.303092  0.308582  0.328548  1
  O  O8  1  0.303092  0.308582  0.004785  1
  O  O9  1  0.314265  0.308928  0.666667  1
  O  O10  1  0.691072  0.685735  0.666667  1
  O  O11  1  0.691418  0.696908  0.004785  1
  O  O12  1  0.691418  0.696908  0.328548  1
  F  F13  1  0.188366  0.811634  0.847985  1
  F  F14  1  0.188366  0.811634  0.485348  1
  F  F15  1  0.823901  0.176099  0.166667  1
  F  F16  1  0.815484  0.184516  0.846354  1
  F  F17  1  0.815484  0.184516  0.486979  1
