# generated using pymatgen
data_CaPbI6
_symmetry_space_group_name_H-M   'P 1'
_cell_length_a   13.45508064
_cell_length_b   12.41755655
_cell_length_c   12.41755655
_cell_angle_alpha   116.24129148
_cell_angle_beta   75.08321162
_cell_angle_gamma   75.08321162
_symmetry_Int_Tables_number   1
_chemical_formula_structural   CaPbI6
_chemical_formula_sum   'Ca4 Pb4 I24'
_cell_volume   1624.88616451
_cell_formula_units_Z   4
loop_
 _symmetry_equiv_pos_site_id
 _symmetry_equiv_pos_as_xyz
  1  'x, y, z'
loop_
 _atom_site_type_symbol
 _atom_site_label
 _atom_site_symmetry_multiplicity
 _atom_site_fract_x
 _atom_site_fract_y
 _atom_site_fract_z
 _atom_site_occupancy
  Ca  Ca0  1  0.780785  0.914377  0.632369  1
  Ca  Ca1  1  0.280785  0.382369  0.164377  1
  Ca  Ca2  1  0.719215  0.445162  0.663154  1
  Ca  Ca3  1  0.219215  0.413154  0.695162  1
  Pb  Pb4  1  0.872213  0.735577  0.910948  1
  Pb  Pb5  1  0.372213  0.660948  0.985577  1
  Pb  Pb6  1  0.627787  0.357789  0.033161  1
  Pb  Pb7  1  0.127787  0.783161  0.607789  1
  I  I8  1  0.792261  0.809892  0.206153  1
  I  I9  1  0.382695  0.589733  0.238172  1
  I  I10  1  0.026559  0.768267  0.408405  1
  I  I11  1  0.630075  0.643527  0.422515  1
  I  I12  1  0.055344  0.362014  0.175839  1
  I  I13  1  0.804878  0.660114  0.654505  1
  I  I14  1  0.292261  0.956153  0.059892  1
  I  I15  1  0.707739  0.352153  0.248414  1
  I  I16  1  0.195122  0.459383  0.464992  1
  I  I17  1  0.117305  0.722429  0.870868  1
  I  I18  1  0.473441  0.544826  0.684964  1
  I  I19  1  0.944656  0.231183  0.417358  1
  I  I20  1  0.369925  0.052591  0.273602  1
  I  I21  1  0.869925  0.023602  0.302591  1
  I  I22  1  0.444656  0.167358  0.481183  1
  I  I23  1  0.973441  0.434964  0.794826  1
  I  I24  1  0.617305  0.620868  0.972429  1
  I  I25  1  0.695122  0.214992  0.709383  1
  I  I26  1  0.207739  0.998414  0.602153  1
  I  I27  1  0.304878  0.404505  0.910114  1
  I  I28  1  0.555344  0.925839  0.612014  1
  I  I29  1  0.130075  0.172515  0.893527  1
  I  I30  1  0.526559  0.158405  0.018267  1
  I  I31  1  0.882695  0.988172  0.839733  1
