# generated using pymatgen
data_Cr4OF11
_symmetry_space_group_name_H-M   'P 1'
_cell_length_a   5.07584883
_cell_length_b   5.34354254
_cell_length_c   16.90306107
_cell_angle_alpha   92.11045451
_cell_angle_beta   98.95202601
_cell_angle_gamma   61.40329213
_symmetry_Int_Tables_number   1
_chemical_formula_structural   Cr4OF11
_chemical_formula_sum   'Cr8 O2 F22'
_cell_volume   397.25621955
_cell_formula_units_Z   2
loop_
 _symmetry_equiv_pos_site_id
 _symmetry_equiv_pos_as_xyz
  1  'x, y, z'
loop_
 _atom_site_type_symbol
 _atom_site_label
 _atom_site_symmetry_multiplicity
 _atom_site_fract_x
 _atom_site_fract_y
 _atom_site_fract_z
 _atom_site_occupancy
  Cr  Cr0  1  0.744952  0.643380  0.128831  1
  Cr  Cr1  1  0.773248  0.113058  0.627949  1
  Cr  Cr2  1  0.478653  0.760555  0.745753  1
  Cr  Cr3  1  0.509789  0.231466  0.246371  1
  Cr  Cr4  1  0.252319  0.868853  0.374410  1
  Cr  Cr5  1  0.242414  0.380537  0.874759  1
  Cr  Cr6  1  0.005828  0.495413  0.500914  1
  Cr  Cr7  1  0.994648  0.006449  0.000662  1
  O  O8  1  0.749046  0.936898  0.187751  1
  O  O9  1  0.186882  0.906021  0.656500  1
  F  F10  1  0.811709  0.785094  0.033260  1
  F  F11  1  0.755717  0.812310  0.563209  1
  F  F12  1  0.755554  0.320658  0.064195  1
  F  F13  1  0.683605  0.968166  0.718512  1
  F  F14  1  0.689411  0.654493  0.407366  1
  F  F15  1  0.683996  0.466943  0.217591  1
  F  F16  1  0.807002  0.597379  0.839774  1
  F  F17  1  0.812927  0.091047  0.342457  1
  F  F18  1  0.816336  0.282010  0.533689  1
  F  F19  1  0.310525  0.844104  0.094168  1
  F  F20  1  0.746603  0.437836  0.688073  1
  F  F21  1  0.261262  0.556133  0.310343  1
  F  F22  1  0.681583  0.159698  0.906862  1
  F  F23  1  0.184459  0.406803  0.156723  1
  F  F24  1  0.186446  0.716489  0.467828  1
  F  F25  1  0.313119  0.532302  0.781551  1
  F  F26  1  0.326086  0.336962  0.593326  1
  F  F27  1  0.311960  0.031662  0.281377  1
  F  F28  1  0.244014  0.690466  0.938105  1
  F  F29  1  0.248692  0.183599  0.437259  1
  F  F30  1  0.246572  0.063770  0.812517  1
  F  F31  1  0.184640  0.219448  0.967915  1
