# generated using pymatgen
data_Li3V3P8O29
_symmetry_space_group_name_H-M   'P 1'
_cell_length_a   9.79790869
_cell_length_b   9.76049543
_cell_length_c   14.38868049
_cell_angle_alpha   89.98030851
_cell_angle_beta   90.35035233
_cell_angle_gamma   59.98703306
_symmetry_Int_Tables_number   1
_chemical_formula_structural   Li3V3P8O29
_chemical_formula_sum   'Li6 V6 P16 O58'
_cell_volume   1191.48510595
_cell_formula_units_Z   2
loop_
 _symmetry_equiv_pos_site_id
 _symmetry_equiv_pos_as_xyz
  1  'x, y, z'
loop_
 _atom_site_type_symbol
 _atom_site_label
 _atom_site_symmetry_multiplicity
 _atom_site_fract_x
 _atom_site_fract_y
 _atom_site_fract_z
 _atom_site_occupancy
  Li  Li0  1  0.678206  0.663334  0.392366  1
  Li  Li1  1  0.303263  0.775556  0.550743  1
  Li  Li2  1  0.699094  0.081191  0.946426  1
  Li  Li3  1  0.214967  0.708323  0.952878  1
  Li  Li4  1  0.081084  0.217034  0.948085  1
  Li  Li5  1  0.935774  0.052717  0.478848  1
  V  V6  1  0.571419  0.424593  0.249820  1
  V  V7  1  0.438002  0.560945  0.748923  1
  V  V8  1  0.565843  0.995627  0.745172  1
  V  V9  1  0.427304  0.006020  0.250287  1
  V  V10  1  0.006095  0.567639  0.252092  1
  V  V11  1  0.998491  0.438112  0.742173  1
  P  P12  1  0.915070  0.770646  0.837907  1
  P  P13  1  0.780809  0.910437  0.339234  1
  P  P14  1  0.912893  0.305277  0.340628  1
  P  P15  1  0.666603  0.666879  0.135846  1
  P  P16  1  0.662486  0.666933  0.630285  1
  P  P17  1  0.775657  0.314219  0.838045  1
  P  P18  1  0.692819  0.222533  0.657459  1
  P  P19  1  0.318029  0.911820  0.841528  1
  P  P20  1  0.684960  0.083013  0.159066  1
  P  P21  1  0.320149  0.774545  0.341126  1
  P  P22  1  0.230288  0.684472  0.163439  1
  P  P23  1  0.336256  0.333180  0.370207  1
  P  P24  1  0.333192  0.330841  0.863757  1
  P  P25  1  0.083659  0.695523  0.656209  1
  P  P26  1  0.224010  0.082205  0.659997  1
  P  P27  1  0.083380  0.231537  0.160478  1
  O  O28  1  0.009655  0.784093  0.570349  1
  O  O29  1  0.917061  0.733410  0.335040  1
  O  O30  1  0.750498  0.011616  0.067704  1
  O  O31  1  0.744802  0.914866  0.836239  1
  O  O32  1  0.906857  0.617830  0.816793  1
  O  O33  1  0.818854  0.653665  0.182535  1
  O  O34  1  0.907426  0.466650  0.337035  1
  O  O35  1  0.011337  0.236686  0.068878  1
  O  O36  1  0.919083  0.340561  0.836350  1
  O  O37  1  0.667748  0.812814  0.673650  1
  O  O38  1  0.625902  0.904472  0.334479  1
  O  O39  1  0.811031  0.516807  0.672057  1
  O  O40  1  0.664707  0.669184  0.033053  1
  O  O41  1  0.657265  0.670891  0.526860  1
  O  O42  1  0.655642  0.523909  0.178995  1
  O  O43  1  0.477947  0.903446  0.820717  1
  O  O44  1  0.526454  0.819370  0.181462  1
  O  O45  1  0.736742  0.345225  0.333067  1
  O  O46  1  0.798796  0.209131  0.746563  1
  O  O47  1  0.778016  0.206960  0.570944  1
  O  O48  1  0.764493  0.231630  0.921384  1
  O  O49  1  0.621438  0.476889  0.818878  1
  O  O50  1  0.510402  0.672730  0.670231  1
  O  O51  1  0.661127  0.252962  0.170236  1
  O  O52  1  0.482775  0.622975  0.330863  1
  O  O53  1  0.349193  0.917526  0.333396  1
  O  O54  1  0.801382  0.983273  0.242105  1
  O  O55  1  0.803504  0.993970  0.417844  1
  O  O56  1  0.217578  0.995854  0.577278  1
  O  O57  1  0.653159  0.087957  0.673358  1
  O  O58  1  0.535027  0.382892  0.672918  1
  O  O59  1  0.342538  0.741146  0.838030  1
  O  O60  1  0.479900  0.338458  0.325466  1
  O  O61  1  0.380823  0.524196  0.182299  1
  O  O62  1  0.232243  0.758711  0.074055  1
  O  O63  1  0.233475  0.785032  0.427729  1
  O  O64  1  0.212895  0.794780  0.250772  1
  O  O65  1  0.258560  0.658797  0.666510  1
  O  O66  1  0.480132  0.179710  0.824704  1
  O  O67  1  0.525078  0.094461  0.181356  1
  O  O68  1  0.339847  0.477726  0.818849  1
  O  O69  1  0.331711  0.340924  0.966609  1
  O  O70  1  0.336718  0.334090  0.472928  1
  O  O71  1  0.185401  0.478463  0.325649  1
  O  O72  1  0.382912  0.082989  0.673097  1
  O  O73  1  0.339836  0.184081  0.325296  1
  O  O74  1  0.084457  0.660532  0.172077  1
  O  O75  1  0.997999  0.795721  0.747726  1
  O  O76  1  0.007340  0.760086  0.922053  1
  O  O77  1  0.082604  0.535284  0.671066  1
  O  O78  1  0.182379  0.337441  0.820665  1
  O  O79  1  0.093049  0.381486  0.182825  1
  O  O80  1  0.253976  0.086470  0.171336  1
  O  O81  1  0.236796  0.001899  0.925819  1
  O  O82  1  0.207320  0.998380  0.751945  1
  O  O83  1  0.087672  0.256289  0.667451  1
  O  O84  1  0.992027  0.196816  0.419873  1
  O  O85  1  0.986817  0.212675  0.243581  1
