# generated using pymatgen
data_BaTa6O16
_symmetry_space_group_name_H-M   'P 1'
_cell_length_a   3.91802921
_cell_length_b   9.23290147
_cell_length_c   9.23290147
_cell_angle_alpha   68.57845098
_cell_angle_beta   90.00000000
_cell_angle_gamma   90.00000000
_symmetry_Int_Tables_number   1
_chemical_formula_structural   BaTa6O16
_chemical_formula_sum   'Ba1 Ta6 O16'
_cell_volume   310.92507077
_cell_formula_units_Z   1
loop_
 _symmetry_equiv_pos_site_id
 _symmetry_equiv_pos_as_xyz
  1  'x, y, z'
loop_
 _atom_site_type_symbol
 _atom_site_label
 _atom_site_symmetry_multiplicity
 _atom_site_fract_x
 _atom_site_fract_y
 _atom_site_fract_z
 _atom_site_occupancy
  Ba  Ba0  1  0.500000  0.400219  0.400219  1
  Ta  Ta1  1  0.000000  0.992111  0.992111  1
  Ta  Ta2  1  0.000000  0.999237  0.630605  1
  Ta  Ta3  1  0.000000  0.205260  0.205260  1
  Ta  Ta4  1  0.000000  0.380169  0.752224  1
  Ta  Ta5  1  0.000000  0.630605  0.999237  1
  Ta  Ta6  1  0.000000  0.752224  0.380169  1
  O  O7  1  0.000000  0.175894  0.431845  1
  O  O8  1  0.000000  0.148959  0.753448  1
  O  O9  1  0.000000  0.227543  0.982462  1
  O  O10  1  0.000000  0.431845  0.175894  1
  O  O11  1  0.000000  0.522752  0.522752  1
  O  O12  1  0.000000  0.538265  0.837137  1
  O  O13  1  0.000000  0.753448  0.148959  1
  O  O14  1  0.000000  0.837137  0.538265  1
  O  O15  1  0.000000  0.856827  0.856827  1
  O  O16  1  0.000000  0.982462  0.227543  1
  O  O17  1  0.500000  0.369075  0.725111  1
  O  O18  1  0.500000  0.002921  0.628146  1
  O  O19  1  0.500000  0.996478  0.996478  1
  O  O20  1  0.500000  0.213312  0.213312  1
  O  O21  1  0.500000  0.628146  0.002921  1
  O  O22  1  0.500000  0.725111  0.369075  1
