# generated using pymatgen
data_V3O5F
_symmetry_space_group_name_H-M   'P 1'
_cell_length_a   4.69111994
_cell_length_b   7.50442193
_cell_length_c   5.55330649
_cell_angle_alpha   96.10259906
_cell_angle_beta   90.29246621
_cell_angle_gamma   90.26773492
_symmetry_Int_Tables_number   1
_chemical_formula_structural   V3O5F
_chemical_formula_sum   'V6 O10 F2'
_cell_volume   194.38632012
_cell_formula_units_Z   2
loop_
 _symmetry_equiv_pos_site_id
 _symmetry_equiv_pos_as_xyz
  1  'x, y, z'
loop_
 _atom_site_type_symbol
 _atom_site_label
 _atom_site_symmetry_multiplicity
 _atom_site_fract_x
 _atom_site_fract_y
 _atom_site_fract_z
 _atom_site_occupancy
  V  V0  1  0.531695  0.655352  0.151848  1
  V  V1  1  0.502586  0.004817  0.516983  1
  V  V2  1  0.497694  0.337227  0.833121  1
  V  V3  1  0.991882  0.673033  0.681051  1
  V  V4  1  0.992563  0.314227  0.326462  1
  V  V5  1  0.982940  0.008673  0.991767  1
  O  O6  1  0.820676  0.443180  0.627368  1
  O  O7  1  0.794738  0.101141  0.308303  1
  O  O8  1  0.799061  0.765045  0.964560  1
  O  O9  1  0.696499  0.098755  0.798732  1
  O  O10  1  0.680837  0.770129  0.457609  1
  O  O11  1  0.711130  0.434967  0.139315  1
  O  O12  1  0.302845  0.580018  0.882286  1
  O  O13  1  0.300027  0.219258  0.523687  1
  O  O14  1  0.201851  0.241527  0.040957  1
  O  O15  1  0.191106  0.890411  0.691754  1
  F  F16  1  0.296766  0.897285  0.197905  1
  F  F17  1  0.205103  0.564951  0.366292  1
