# generated using pymatgen
data_Li6V2O5F2
_symmetry_space_group_name_H-M   'P 1'
_cell_length_a   5.87935952
_cell_length_b   5.87825278
_cell_length_c   9.87122519
_cell_angle_alpha   80.87426448
_cell_angle_beta   90.32969649
_cell_angle_gamma   60.65876895
_symmetry_Int_Tables_number   1
_chemical_formula_structural   Li6V2O5F2
_chemical_formula_sum   'Li12 V4 O10 F4'
_cell_volume   292.24067296
_cell_formula_units_Z   2
loop_
 _symmetry_equiv_pos_site_id
 _symmetry_equiv_pos_as_xyz
  1  'x, y, z'
loop_
 _atom_site_type_symbol
 _atom_site_label
 _atom_site_symmetry_multiplicity
 _atom_site_fract_x
 _atom_site_fract_y
 _atom_site_fract_z
 _atom_site_occupancy
  Li  Li0  1  0.482366  0.861732  0.610579  1
  Li  Li1  1  0.902823  0.878392  0.592818  1
  Li  Li2  1  0.665778  0.862280  0.103820  1
  Li  Li3  1  0.216906  0.860760  0.099593  1
  Li  Li4  1  0.329723  0.608191  0.879428  1
  Li  Li5  1  0.080364  0.578730  0.392985  1
  Li  Li6  1  0.921337  0.415455  0.611292  1
  Li  Li7  1  0.656347  0.420615  0.107277  1
  Li  Li8  1  0.817837  0.117037  0.903284  1
  Li  Li9  1  0.312334  0.132819  0.890009  1
  Li  Li10  1  0.074123  0.143506  0.410030  1
  Li  Li11  1  0.524728  0.138893  0.390674  1
  V  V12  1  0.824839  0.605012  0.874801  1
  V  V13  1  0.551319  0.637324  0.368807  1
  V  V14  1  0.437588  0.373982  0.634654  1
  V  V15  1  0.190852  0.367606  0.131439  1
  O  O16  1  0.508244  0.755930  0.974747  1
  O  O17  1  0.742291  0.755439  0.473039  1
  O  O18  1  0.137573  0.501267  0.755401  1
  O  O19  1  0.634143  0.495619  0.746979  1
  O  O20  1  0.003897  0.726788  0.004761  1
  O  O21  1  0.004305  0.251805  0.006704  1
  O  O22  1  0.365290  0.500643  0.249711  1
  O  O23  1  0.720356  0.280085  0.497911  1
  O  O24  1  0.260170  0.241359  0.528226  1
  O  O25  1  0.353841  0.004265  0.248845  1
  F  F26  1  0.238554  0.760292  0.501564  1
  F  F27  1  0.865886  0.493560  0.247775  1
  F  F28  1  0.663151  0.993532  0.749125  1
  F  F29  1  0.513038  0.237079  0.013722  1
