# generated using pymatgen
data_Li5Fe2P2(CO7)2
_symmetry_space_group_name_H-M   'P 1'
_cell_length_a   9.41754661
_cell_length_b   10.09763998
_cell_length_c   6.49010902
_cell_angle_alpha   90.16545948
_cell_angle_beta   91.05526035
_cell_angle_gamma   62.96688940
_symmetry_Int_Tables_number   1
_chemical_formula_structural   Li5Fe2P2(CO7)2
_chemical_formula_sum   'Li10 Fe4 P4 C4 O28'
_cell_volume   549.64296561
_cell_formula_units_Z   2
loop_
 _symmetry_equiv_pos_site_id
 _symmetry_equiv_pos_as_xyz
  1  'x, y, z'
loop_
 _atom_site_type_symbol
 _atom_site_label
 _atom_site_symmetry_multiplicity
 _atom_site_fract_x
 _atom_site_fract_y
 _atom_site_fract_z
 _atom_site_occupancy
  Li  Li0  1  0.892976  0.440134  0.746300  1
  Li  Li1  1  0.911424  0.924551  0.740740  1
  Li  Li2  1  0.722413  0.270159  0.961175  1
  Li  Li3  1  0.729148  0.758822  0.515598  1
  Li  Li4  1  0.729614  0.759088  0.988708  1
  Li  Li5  1  0.270852  0.241178  0.484402  1
  Li  Li6  1  0.270386  0.240912  0.011292  1
  Li  Li7  1  0.277587  0.729841  0.038825  1
  Li  Li8  1  0.088576  0.075449  0.259260  1
  Li  Li9  1  0.107024  0.559866  0.253700  1
  Fe  Fe10  1  0.669488  0.070299  0.255483  1
  Fe  Fe11  1  0.668606  0.552881  0.254993  1
  Fe  Fe12  1  0.331394  0.447119  0.745007  1
  Fe  Fe13  1  0.330512  0.929701  0.744517  1
  P  P14  1  0.583320  0.064046  0.752137  1
  P  P15  1  0.585227  0.574013  0.761664  1
  P  P16  1  0.414773  0.425987  0.238337  1
  P  P17  1  0.416680  0.935954  0.247863  1
  C  C18  1  0.969612  0.366953  0.244878  1
  C  C19  1  0.954799  0.867409  0.236532  1
  C  C20  1  0.045201  0.132591  0.763468  1
  C  C21  1  0.030388  0.633047  0.755122  1
  O  O22  1  0.920161  0.008561  0.247406  1
  O  O23  1  0.933574  0.507111  0.261005  1
  O  O24  1  0.905801  0.236835  0.781502  1
  O  O25  1  0.856096  0.328721  0.227555  1
  O  O26  1  0.882335  0.736146  0.751395  1
  O  O27  1  0.829532  0.841477  0.245538  1
  O  O28  1  0.693767  0.061423  0.935489  1
  O  O29  1  0.688515  0.042919  0.560948  1
  O  O30  1  0.697194  0.574975  0.940859  1
  O  O31  1  0.679502  0.574648  0.567929  1
  O  O32  1  0.579822  0.285691  0.229090  1
  O  O33  1  0.559621  0.434380  0.777309  1
  O  O34  1  0.576757  0.795761  0.255833  1
  O  O35  1  0.548830  0.925393  0.768444  1
  O  O36  1  0.451170  0.074607  0.231556  1
  O  O37  1  0.423243  0.204239  0.744167  1
  O  O38  1  0.440379  0.565620  0.222691  1
  O  O39  1  0.420178  0.714309  0.770910  1
  O  O40  1  0.320498  0.425352  0.432071  1
  O  O41  1  0.302806  0.425025  0.059141  1
  O  O42  1  0.306233  0.938577  0.064511  1
  O  O43  1  0.311485  0.957081  0.439052  1
  O  O44  1  0.170468  0.158523  0.754462  1
  O  O45  1  0.117665  0.263854  0.248605  1
  O  O46  1  0.143904  0.671279  0.772445  1
  O  O47  1  0.094199  0.763165  0.218498  1
  O  O48  1  0.066426  0.492889  0.738995  1
  O  O49  1  0.079839  0.991439  0.752594  1
