# generated using pymatgen
data_Li4FeSb(TeO6)2
_symmetry_space_group_name_H-M   'P 1'
_cell_length_a   5.42808486
_cell_length_b   10.85040393
_cell_length_c   9.54663144
_cell_angle_alpha   28.50105577
_cell_angle_beta   51.75377524
_cell_angle_gamma   57.07538996
_symmetry_Int_Tables_number   1
_chemical_formula_structural   Li4FeSb(TeO6)2
_chemical_formula_sum   'Li4 Fe1 Sb1 Te2 O12'
_cell_volume   210.71113481
_cell_formula_units_Z   1
loop_
 _symmetry_equiv_pos_site_id
 _symmetry_equiv_pos_as_xyz
  1  'x, y, z'
loop_
 _atom_site_type_symbol
 _atom_site_label
 _atom_site_symmetry_multiplicity
 _atom_site_fract_x
 _atom_site_fract_y
 _atom_site_fract_z
 _atom_site_occupancy
  Li  Li0  1  0.255787  0.996431  0.304873  1
  Li  Li1  1  0.312082  0.503241  0.261471  1
  Li  Li2  1  0.777110  0.003844  0.748621  1
  Li  Li3  1  0.785590  0.496922  0.809546  1
  Fe  Fe4  1  0.014244  0.498915  0.003479  1
  Sb  Sb5  1  0.996397  0.000365  0.002805  1
  Te  Te6  1  0.501011  -0.000401  0.501187  1
  Te  Te7  1  0.501187  0.499688  0.501373  1
  O  O8  1  0.382154  0.295094  0.135533  1
  O  O9  1  0.230885  0.132382  0.618918  1
  O  O10  1  0.113775  0.326159  0.738340  1
  O  O11  1  0.859021  0.192364  0.245692  1
  O  O12  1  0.385122  0.804355  0.116743  1
  O  O13  1  0.714183  0.378275  0.383205  1
  O  O14  1  0.247361  0.625712  0.612973  1
  O  O15  1  0.607748  0.178698  0.885763  1
  O  O16  1  0.138330  0.827570  0.720356  1
  O  O17  1  0.884190  0.686495  0.235793  1
  O  O18  1  0.736629  0.862853  0.386740  1
  O  O19  1  0.628392  0.691036  0.857787  1
