# generated using pymatgen
data_Li3V3CrO8
_symmetry_space_group_name_H-M   'P 1'
_cell_length_a   4.09630444
_cell_length_b   6.50375043
_cell_length_c   6.51353707
_cell_angle_alpha   74.10404298
_cell_angle_beta   89.94961798
_cell_angle_gamma   71.70061531
_symmetry_Int_Tables_number   1
_chemical_formula_structural   Li3V3CrO8
_chemical_formula_sum   'Li3 V3 Cr1 O8'
_cell_volume   157.76378630
_cell_formula_units_Z   1
loop_
 _symmetry_equiv_pos_site_id
 _symmetry_equiv_pos_as_xyz
  1  'x, y, z'
loop_
 _atom_site_type_symbol
 _atom_site_label
 _atom_site_symmetry_multiplicity
 _atom_site_fract_x
 _atom_site_fract_y
 _atom_site_fract_z
 _atom_site_occupancy
  Li  Li0  1  0.943285  0.117037  0.637172  1
  Li  Li1  1  0.820480  0.363271  0.993122  1
  Li  Li2  1  0.063155  0.878418  0.362751  1
  V  V3  1  0.394982  0.214689  0.295673  1
  V  V4  1  0.711153  0.584125  0.303616  1
  V  V5  1  0.606596  0.791388  0.711922  1
  Cr  Cr6  1  0.282899  0.438114  0.683489  1
  O  O7  1  0.348304  0.306828  0.008505  1
  O  O8  1  0.437238  0.132295  0.630003  1
  O  O9  1  0.884262  0.235818  0.308838  1
  O  O10  1  0.236489  0.532986  0.356745  1
  O  O11  1  0.769180  0.464533  0.663822  1
  O  O12  1  0.120500  0.763244  0.678818  1
  O  O13  1  0.557941  0.893427  0.365431  1
  O  O14  1  0.660457  0.684989  0.007755  1
