# generated using pymatgen
data_LiFeF4
_symmetry_space_group_name_H-M   'P 1'
_cell_length_a   9.84756663
_cell_length_b   8.45545674
_cell_length_c   7.63416130
_cell_angle_alpha   90.00000000
_cell_angle_beta   90.00000000
_cell_angle_gamma   90.00000000
_symmetry_Int_Tables_number   1
_chemical_formula_structural   LiFeF4
_chemical_formula_sum   'Li8 Fe8 F32'
_cell_volume   635.66358328
_cell_formula_units_Z   8
loop_
 _symmetry_equiv_pos_site_id
 _symmetry_equiv_pos_as_xyz
  1  'x, y, z'
loop_
 _atom_site_type_symbol
 _atom_site_label
 _atom_site_symmetry_multiplicity
 _atom_site_fract_x
 _atom_site_fract_y
 _atom_site_fract_z
 _atom_site_occupancy
  Li  Li0  1  0.243337  0.530895  0.109680  1
  Li  Li1  1  0.243337  0.969105  0.109680  1
  Li  Li2  1  0.256663  0.030895  0.609680  1
  Li  Li3  1  0.256663  0.469105  0.609680  1
  Li  Li4  1  0.743337  0.969105  0.390320  1
  Li  Li5  1  0.743337  0.530895  0.390320  1
  Li  Li6  1  0.756663  0.469105  0.890320  1
  Li  Li7  1  0.756663  0.030895  0.890320  1
  Fe  Fe8  1  0.031046  0.750000  0.359004  1
  Fe  Fe9  1  0.092684  0.750000  0.778544  1
  Fe  Fe10  1  0.407316  0.250000  0.278544  1
  Fe  Fe11  1  0.468954  0.250000  0.859004  1
  Fe  Fe12  1  0.531046  0.750000  0.140996  1
  Fe  Fe13  1  0.592684  0.750000  0.721456  1
  Fe  Fe14  1  0.907316  0.250000  0.221456  1
  Fe  Fe15  1  0.968954  0.250000  0.640996  1
  F  F16  1  0.073995  0.911132  0.204919  1
  F  F17  1  0.073995  0.588868  0.204919  1
  F  F18  1  0.093854  0.609078  0.558448  1
  F  F19  1  0.093854  0.890922  0.558448  1
  F  F20  1  0.079811  0.250000  0.136167  1
  F  F21  1  0.159280  0.250000  0.637568  1
  F  F22  1  0.198178  0.580214  0.863875  1
  F  F23  1  0.198178  0.919786  0.863875  1
  F  F24  1  0.301822  0.080214  0.363875  1
  F  F25  1  0.301822  0.419786  0.363875  1
  F  F26  1  0.340720  0.750000  0.137568  1
  F  F27  1  0.420189  0.750000  0.636167  1
  F  F28  1  0.406146  0.109078  0.058448  1
  F  F29  1  0.406146  0.390922  0.058448  1
  F  F30  1  0.426005  0.088868  0.704919  1
  F  F31  1  0.426005  0.411132  0.704919  1
  F  F32  1  0.573995  0.588868  0.295081  1
  F  F33  1  0.573995  0.911132  0.295081  1
  F  F34  1  0.593854  0.609078  0.941552  1
  F  F35  1  0.593854  0.890922  0.941552  1
  F  F36  1  0.579811  0.250000  0.363833  1
  F  F37  1  0.659280  0.250000  0.862432  1
  F  F38  1  0.698178  0.580214  0.636125  1
  F  F39  1  0.698178  0.919786  0.636125  1
  F  F40  1  0.801822  0.080214  0.136125  1
  F  F41  1  0.801822  0.419786  0.136125  1
  F  F42  1  0.840720  0.750000  0.362432  1
  F  F43  1  0.920189  0.750000  0.863833  1
  F  F44  1  0.906146  0.109078  0.441552  1
  F  F45  1  0.906146  0.390922  0.441552  1
  F  F46  1  0.926005  0.088868  0.795081  1
  F  F47  1  0.926005  0.411132  0.795081  1
