# generated using pymatgen
data_Na5LiMn2P2(CO7)2
_symmetry_space_group_name_H-M   'P 1'
_cell_length_a   8.98329959
_cell_length_b   6.76701077
_cell_length_c   10.37511040
_cell_angle_alpha   90.34279779
_cell_angle_beta   89.96713102
_cell_angle_gamma   89.35944438
_symmetry_Int_Tables_number   1
_chemical_formula_structural   Na5LiMn2P2(CO7)2
_chemical_formula_sum   'Na10 Li2 Mn4 P4 C4 O28'
_cell_volume   630.65301232
_cell_formula_units_Z   2
loop_
 _symmetry_equiv_pos_site_id
 _symmetry_equiv_pos_as_xyz
  1  'x, y, z'
loop_
 _atom_site_type_symbol
 _atom_site_label
 _atom_site_symmetry_multiplicity
 _atom_site_fract_x
 _atom_site_fract_y
 _atom_site_fract_z
 _atom_site_occupancy
  Na  Na0  1  0.082569  0.243941  0.879037  1
  Na  Na1  1  0.083618  0.247942  0.380504  1
  Na  Na2  1  0.257786  0.498365  0.623705  1
  Na  Na3  1  0.258358  0.000929  0.123718  1
  Na  Na4  1  0.259144  0.499028  0.123314  1
  Na  Na5  1  0.742214  0.501635  0.876295  1
  Na  Na6  1  0.740855  0.500972  0.376686  1
  Na  Na7  1  0.741642  0.999071  0.376282  1
  Na  Na8  1  0.917431  0.756059  0.620963  1
  Na  Na9  1  0.916382  0.752058  0.119496  1
  Li  Li10  1  0.270109  0.012129  0.618914  1
  Li  Li11  1  0.729891  0.987871  0.881086  1
  Mn  Mn12  1  0.361184  0.750188  0.886843  1
  Mn  Mn13  1  0.361936  0.752768  0.391821  1
  Mn  Mn14  1  0.638816  0.249812  0.613157  1
  Mn  Mn15  1  0.638064  0.247232  0.108179  1
  P  P16  1  0.412568  0.241630  0.848553  1
  P  P17  1  0.411709  0.250561  0.353176  1
  P  P18  1  0.587432  0.758370  0.651447  1
  P  P19  1  0.588291  0.749439  0.146824  1
  C  C20  1  0.055916  0.757907  0.867257  1
  C  C21  1  0.060646  0.751000  0.368398  1
  C  C22  1  0.944084  0.242093  0.632743  1
  C  C23  1  0.939354  0.249000  0.131602  1
  O  O24  1  0.088459  0.230799  0.642392  1
  O  O25  1  0.083424  0.252468  0.142566  1
  O  O26  1  0.119249  0.750562  0.980331  1
  O  O27  1  0.122761  0.752796  0.481443  1
  O  O28  1  0.139711  0.752798  0.764708  1
  O  O29  1  0.144316  0.752930  0.265603  1
  O  O30  1  0.318484  0.064862  0.895246  1
  O  O31  1  0.326782  0.432470  0.890341  1
  O  O32  1  0.319784  0.069128  0.397517  1
  O  O33  1  0.319432  0.436921  0.393127  1
  O  O34  1  0.422661  0.234361  0.697697  1
  O  O35  1  0.425968  0.765803  0.596003  1
  O  O36  1  0.428877  0.246217  0.203031  1
  O  O37  1  0.430651  0.749039  0.086468  1
  O  O38  1  0.574032  0.234197  0.903997  1
  O  O39  1  0.577339  0.765639  0.802303  1
  O  O40  1  0.569349  0.250961  0.413532  1
  O  O41  1  0.571123  0.753783  0.296969  1
  O  O42  1  0.673219  0.567530  0.609659  1
  O  O43  1  0.681516  0.935138  0.604754  1
  O  O44  1  0.680568  0.563079  0.106873  1
  O  O45  1  0.680216  0.930872  0.102483  1
  O  O46  1  0.860289  0.247202  0.735292  1
  O  O47  1  0.855684  0.247070  0.234397  1
  O  O48  1  0.880751  0.249438  0.519669  1
  O  O49  1  0.877239  0.247204  0.018557  1
  O  O50  1  0.911541  0.769201  0.857608  1
  O  O51  1  0.916576  0.747532  0.357434  1
