# generated using pymatgen
data_PtO3
_symmetry_space_group_name_H-M   'P 1'
_cell_length_a   5.02747828
_cell_length_b   7.21006471
_cell_length_c   7.03956862
_cell_angle_alpha   90.00874708
_cell_angle_beta   135.56237643
_cell_angle_gamma   89.94749970
_symmetry_Int_Tables_number   1
_chemical_formula_structural   PtO3
_chemical_formula_sum   'Pt4 O12'
_cell_volume   178.65503694
_cell_formula_units_Z   4
loop_
 _symmetry_equiv_pos_site_id
 _symmetry_equiv_pos_as_xyz
  1  'x, y, z'
loop_
 _atom_site_type_symbol
 _atom_site_label
 _atom_site_symmetry_multiplicity
 _atom_site_fract_x
 _atom_site_fract_y
 _atom_site_fract_z
 _atom_site_occupancy
  Pt  Pt0  1  0.500089  0.498944  0.000536  1
  Pt  Pt1  1  0.500407  0.998838  0.000521  1
  Pt  Pt2  1  0.500053  0.498547  0.500477  1
  Pt  Pt3  1  0.500769  0.998385  0.500702  1
  O  O4  1  0.003273  0.577331  0.851424  1
  O  O5  1  0.997026  0.075640  0.149338  1
  O  O6  1  0.296385  0.249037  0.841507  1
  O  O7  1  0.298457  0.575856  0.647816  1
  O  O8  1  0.382989  0.748477  0.340359  1
  O  O9  1  0.299992  0.921339  0.648513  1
  O  O10  1  0.700144  0.421264  0.352367  1
  O  O11  1  0.704214  0.748669  0.159589  1
  O  O12  1  0.617558  0.248498  0.660650  1
  O  O13  1  0.701753  0.075448  0.353130  1
  O  O14  1  0.996640  0.421706  0.148981  1
  O  O15  1  0.004466  0.921094  0.852455  1
