# generated using pymatgen
data_Li3MgNiO4
_symmetry_space_group_name_H-M   'P 1'
_cell_length_a   10.20167426
_cell_length_b   10.20167426
_cell_length_c   10.20167426
_cell_angle_alpha   119.14771509
_cell_angle_beta   119.14771509
_cell_angle_gamma   91.48265062
_symmetry_Int_Tables_number   1
_chemical_formula_structural   Li3MgNiO4
_chemical_formula_sum   'Li24 Mg8 Ni8 O32'
_cell_volume   760.15297556
_cell_formula_units_Z   8
loop_
 _symmetry_equiv_pos_site_id
 _symmetry_equiv_pos_as_xyz
  1  'x, y, z'
loop_
 _atom_site_type_symbol
 _atom_site_label
 _atom_site_symmetry_multiplicity
 _atom_site_fract_x
 _atom_site_fract_y
 _atom_site_fract_z
 _atom_site_occupancy
  Li  Li0  1  0.929936  0.512894  0.074338  1
  Li  Li1  1  0.436804  0.034558  0.086493  1
  Li  Li2  1  0.644404  0.570064  0.082958  1
  Li  Li3  1  0.149689  0.063196  0.097753  1
  Li  Li4  1  0.406277  0.320634  0.096359  1
  Li  Li5  1  0.724275  0.309918  0.403641  1
  Li  Li6  1  0.465442  0.051935  0.402247  1
  Li  Li7  1  0.987106  0.561446  0.417042  1
  Li  Li8  1  0.190082  0.093723  0.414357  1
  Li  Li9  1  0.820634  0.224275  0.914357  1
  Li  Li10  1  0.448065  0.350311  0.413507  1
  Li  Li11  1  0.938554  0.855596  0.425662  1
  Li  Li12  1  0.061446  0.144403  0.574338  1
  Li  Li13  1  0.551935  0.649689  0.586493  1
  Li  Li14  1  0.809918  0.906277  0.585643  1
  Li  Li15  1  0.179366  0.775725  0.085643  1
  Li  Li16  1  0.012894  0.438555  0.582958  1
  Li  Li17  1  0.534558  0.948065  0.597753  1
  Li  Li18  1  0.275725  0.690082  0.596359  1
  Li  Li19  1  0.593723  0.679366  0.903641  1
  Li  Li20  1  0.850311  0.936804  0.902247  1
  Li  Li21  1  0.355596  0.429936  0.917042  1
  Li  Li22  1  0.563196  0.965442  0.913507  1
  Li  Li23  1  0.070064  0.487106  0.925662  1
  Mg  Mg24  1  0.678337  0.273822  0.074172  1
  Mg  Mg25  1  0.895834  0.821663  0.095486  1
  Mg  Mg26  1  0.773822  0.199651  0.595486  1
  Mg  Mg27  1  0.699651  0.604166  0.425828  1
  Mg  Mg28  1  0.300349  0.395834  0.574171  1
  Mg  Mg29  1  0.104166  0.178337  0.904514  1
  Mg  Mg30  1  0.226178  0.800349  0.404514  1
  Mg  Mg31  1  0.321663  0.726178  0.925829  1
  Ni  Ni32  1  0.934505  0.187591  0.247116  1
  Ni  Ni33  1  0.812611  0.565495  0.753086  1
  Ni  Ni34  1  0.687591  0.940476  0.253086  1
  Ni  Ni35  1  0.559524  0.312611  0.747116  1
  Ni  Ni36  1  0.440476  0.687389  0.252884  1
  Ni  Ni37  1  0.312409  0.059524  0.746914  1
  Ni  Ni38  1  0.187389  0.434505  0.246914  1
  Ni  Ni39  1  0.065495  0.812409  0.752884  1
  O  O40  1  0.776445  0.105973  0.005940  1
  O  O41  1  0.717838  0.393940  0.987747  1
  O  O42  1  0.854547  0.028843  0.504637  1
  O  O43  1  0.476131  0.146965  0.994198  1
  O  O44  1  0.849909  0.354547  0.325704  1
  O  O45  1  0.605973  0.100033  0.329528  1
  O  O46  1  0.981933  0.976131  0.829166  1
  O  O47  1  0.646965  0.152767  0.670834  1
  O  O48  1  0.769909  0.782162  0.176102  1
  O  O49  1  0.893940  0.406193  0.676102  1
  O  O50  1  0.270505  0.276445  0.170472  1
  O  O51  1  0.528843  0.524205  0.174296  1
  O  O52  1  0.652767  0.481933  0.505802  1
  O  O53  1  0.024205  0.349909  0.995363  1
  O  O54  1  0.906193  0.730091  0.512253  1
  O  O55  1  0.399967  0.229495  0.505940  1
  O  O56  1  0.600033  0.770505  0.494060  1
  O  O57  1  0.093807  0.269909  0.487747  1
  O  O58  1  0.975795  0.650091  0.004637  1
  O  O59  1  0.347233  0.518067  0.494198  1
  O  O60  1  0.471157  0.475795  0.825704  1
  O  O61  1  0.729495  0.723555  0.829528  1
  O  O62  1  0.230091  0.217838  0.823898  1
  O  O63  1  0.106060  0.593807  0.323898  1
  O  O64  1  0.353035  0.847233  0.329166  1
  O  O65  1  0.018067  0.023869  0.170834  1
  O  O66  1  0.394027  0.899967  0.670472  1
  O  O67  1  0.150091  0.645453  0.674296  1
  O  O68  1  0.523869  0.853035  0.005802  1
  O  O69  1  0.145453  0.971157  0.495363  1
  O  O70  1  0.282162  0.606060  0.012253  1
  O  O71  1  0.223555  0.894027  0.994060  1
