# generated using pymatgen
data_CuH6Se2NClO6
_symmetry_space_group_name_H-M   'P 1'
_cell_length_a   9.06481915
_cell_length_b   12.27747844
_cell_length_c   7.42493707
_cell_angle_alpha   90.00000000
_cell_angle_beta   90.00000000
_cell_angle_gamma   90.00000000
_symmetry_Int_Tables_number   1
_chemical_formula_structural   CuH6Se2NClO6
_chemical_formula_sum   'Cu4 H24 Se8 N4 Cl4 O24'
_cell_volume   826.34442477
_cell_formula_units_Z   4
loop_
 _symmetry_equiv_pos_site_id
 _symmetry_equiv_pos_as_xyz
  1  'x, y, z'
loop_
 _atom_site_type_symbol
 _atom_site_label
 _atom_site_symmetry_multiplicity
 _atom_site_fract_x
 _atom_site_fract_y
 _atom_site_fract_z
 _atom_site_occupancy
  Cu  Cu0  1  0.500000  0.000000  0.500000  1
  Cu  Cu1  1  0.000000  0.500000  0.000000  1
  Cu  Cu2  1  0.500000  0.500000  0.500000  1
  Cu  Cu3  1  0.000000  0.000000  0.000000  1
  H  H4  1  0.946404  0.074592  0.389326  1
  H  H5  1  0.446404  0.425408  0.110674  1
  H  H6  1  0.053596  0.574592  0.610674  1
  H  H7  1  0.553596  0.925408  0.889326  1
  H  H8  1  0.053596  0.925408  0.610674  1
  H  H9  1  0.553596  0.574592  0.889326  1
  H  H10  1  0.946404  0.425408  0.389326  1
  H  H11  1  0.446404  0.074592  0.110674  1
  H  H12  1  0.718697  0.250000  0.312473  1
  H  H13  1  0.218697  0.250000  0.187527  1
  H  H14  1  0.281303  0.750000  0.687527  1
  H  H15  1  0.781303  0.750000  0.812473  1
  H  H16  1  0.572171  0.250000  0.178464  1
  H  H17  1  0.072171  0.250000  0.321536  1
  H  H18  1  0.427829  0.750000  0.821536  1
  H  H19  1  0.927829  0.750000  0.678464  1
  H  H20  1  0.726918  0.319234  0.120011  1
  H  H21  1  0.226918  0.180765  0.379989  1
  H  H22  1  0.273082  0.819234  0.879989  1
  H  H23  1  0.773082  0.680766  0.620011  1
  H  H24  1  0.273082  0.680766  0.879989  1
  H  H25  1  0.773082  0.819234  0.620011  1
  H  H26  1  0.726918  0.180765  0.120011  1
  H  H27  1  0.226918  0.319234  0.379989  1
  Se  Se28  1  0.808425  0.076330  0.657414  1
  Se  Se29  1  0.308425  0.423670  0.842586  1
  Se  Se30  1  0.191575  0.576330  0.342586  1
  Se  Se31  1  0.691575  0.923670  0.157414  1
  Se  Se32  1  0.191575  0.923670  0.342586  1
  Se  Se33  1  0.691575  0.576330  0.157414  1
  Se  Se34  1  0.808425  0.423670  0.657414  1
  Se  Se35  1  0.308425  0.076330  0.842586  1
  N  N36  1  0.685916  0.250000  0.180149  1
  N  N37  1  0.185916  0.250000  0.319851  1
  N  N38  1  0.314084  0.750000  0.819851  1
  N  N39  1  0.814084  0.750000  0.680149  1
  Cl  Cl40  1  0.520408  0.250000  0.549352  1
  Cl  Cl41  1  0.020408  0.250000  0.950648  1
  Cl  Cl42  1  0.479592  0.750000  0.450648  1
  Cl  Cl43  1  0.979592  0.750000  0.049352  1
  O  O44  1  0.709318  0.971405  0.559222  1
  O  O45  1  0.209318  0.528595  0.940778  1
  O  O46  1  0.290682  0.471405  0.440778  1
  O  O47  1  0.790682  0.028595  0.059222  1
  O  O48  1  0.290682  0.028595  0.440778  1
  O  O49  1  0.790682  0.471405  0.059222  1
  O  O50  1  0.709318  0.528595  0.559222  1
  O  O51  1  0.209318  0.971405  0.940778  1
  O  O52  1  0.956569  0.000693  0.737860  1
  O  O53  1  0.456569  0.499307  0.762140  1
  O  O54  1  0.043431  0.500693  0.262140  1
  O  O55  1  0.543431  0.999307  0.237860  1
  O  O56  1  0.043431  0.999307  0.262140  1
  O  O57  1  0.543431  0.500693  0.237860  1
  O  O58  1  0.956569  0.499307  0.737860  1
  O  O59  1  0.456569  0.000693  0.762140  1
  O  O60  1  0.893015  0.133615  0.461935  1
  O  O61  1  0.393015  0.366385  0.038065  1
  O  O62  1  0.106985  0.633615  0.538065  1
  O  O63  1  0.606985  0.866385  0.961935  1
  O  O64  1  0.106985  0.866385  0.538065  1
  O  O65  1  0.606985  0.633615  0.961935  1
  O  O66  1  0.893015  0.366385  0.461935  1
  O  O67  1  0.393015  0.133615  0.038065  1
