# generated using pymatgen
data_Li4TiCrO6
_symmetry_space_group_name_H-M   'P 1'
_cell_length_a   5.09227995
_cell_length_b   5.04449144
_cell_length_c   19.62065184
_cell_angle_alpha   85.75421674
_cell_angle_beta   95.62111951
_cell_angle_gamma   59.83371779
_symmetry_Int_Tables_number   1
_chemical_formula_structural   Li4TiCrO6
_chemical_formula_sum   'Li16 Ti4 Cr4 O24'
_cell_volume   429.18815099
_cell_formula_units_Z   4
loop_
 _symmetry_equiv_pos_site_id
 _symmetry_equiv_pos_as_xyz
  1  'x, y, z'
loop_
 _atom_site_type_symbol
 _atom_site_label
 _atom_site_symmetry_multiplicity
 _atom_site_fract_x
 _atom_site_fract_y
 _atom_site_fract_z
 _atom_site_occupancy
  Li  Li0  1  0.000000  0.500000  0.500000  1
  Li  Li1  1  0.251815  0.246677  0.875032  1
  Li  Li2  1  0.159917  0.659680  0.749604  1
  Li  Li3  1  0.000000  0.500000  0.000000  1
  Li  Li4  1  0.248181  0.252924  0.374974  1
  Li  Li5  1  0.501135  0.006673  0.750045  1
  Li  Li6  1  0.159396  0.665462  0.249426  1
  Li  Li7  1  0.498865  0.993327  0.249955  1
  Li  Li8  1  0.331436  0.849165  0.999913  1
  Li  Li9  1  0.655792  0.168949  0.499665  1
  Li  Li10  1  0.344208  0.831051  0.500335  1
  Li  Li11  1  0.668564  0.150835  0.000087  1
  Li  Li12  1  0.840604  0.334538  0.750574  1
  Li  Li13  1  0.751819  0.747076  0.625026  1
  Li  Li14  1  0.840082  0.340320  0.250396  1
  Li  Li15  1  0.748185  0.753323  0.124968  1
  Ti  Ti16  1  0.080556  0.087404  0.624720  1
  Ti  Ti17  1  0.420761  0.411517  0.125215  1
  Ti  Ti18  1  0.579239  0.588483  0.874785  1
  Ti  Ti19  1  0.919444  0.912596  0.375280  1
  Cr  Cr20  1  0.080416  0.087086  0.124871  1
  Cr  Cr21  1  0.419468  0.413416  0.625246  1
  Cr  Cr22  1  0.580532  0.586584  0.374754  1
  Cr  Cr23  1  0.919584  0.912914  0.875129  1
  O  O24  1  0.142977  0.355540  0.683178  1
  O  O25  1  0.356690  0.149601  0.567821  1
  O  O26  1  0.143147  0.349931  0.182232  1
  O  O27  1  0.278659  0.575860  0.931108  1
  O  O28  1  0.072350  0.781782  0.568762  1
  O  O29  1  0.357073  0.145042  0.066758  1
  O  O30  1  0.214308  0.931077  0.817680  1
  O  O31  1  0.285328  0.568107  0.431790  1
  O  O32  1  0.067623  0.791633  0.069071  1
  O  O33  1  0.572226  0.281306  0.819063  1
  O  O34  1  0.432284  0.708001  0.681234  1
  O  O35  1  0.221240  0.925286  0.319117  1
  O  O36  1  0.778760  0.074714  0.680883  1
  O  O37  1  0.567716  0.291999  0.318766  1
  O  O38  1  0.427774  0.718694  0.180937  1
  O  O39  1  0.932377  0.208367  0.930929  1
  O  O40  1  0.714672  0.431893  0.568210  1
  O  O41  1  0.785692  0.068923  0.182320  1
  O  O42  1  0.642927  0.854958  0.933242  1
  O  O43  1  0.927650  0.218218  0.431238  1
  O  O44  1  0.721341  0.424140  0.068892  1
  O  O45  1  0.856853  0.650069  0.817768  1
  O  O46  1  0.643310  0.850399  0.432179  1
  O  O47  1  0.857023  0.644460  0.316822  1
