# generated using pymatgen
data_Na3SnPCO7
_symmetry_space_group_name_H-M   'P 1'
_cell_length_a   9.43083458
_cell_length_b   7.17056756
_cell_length_c   5.29637560
_cell_angle_alpha   90.00000000
_cell_angle_beta   92.06095313
_cell_angle_gamma   90.00000000
_symmetry_Int_Tables_number   1
_chemical_formula_structural   Na3SnPCO7
_chemical_formula_sum   'Na6 Sn2 P2 C2 O14'
_cell_volume   357.93273131
_cell_formula_units_Z   2
loop_
 _symmetry_equiv_pos_site_id
 _symmetry_equiv_pos_as_xyz
  1  'x, y, z'
loop_
 _atom_site_type_symbol
 _atom_site_label
 _atom_site_symmetry_multiplicity
 _atom_site_fract_x
 _atom_site_fract_y
 _atom_site_fract_z
 _atom_site_occupancy
  Na  Na0  1  0.082840  0.250000  0.777705  1
  Na  Na1  1  0.249750  0.004308  0.240181  1
  Na  Na2  1  0.249750  0.495692  0.240181  1
  Na  Na3  1  0.750250  0.504308  0.759818  1
  Na  Na4  1  0.750250  0.995692  0.759818  1
  Na  Na5  1  0.917160  0.750000  0.222295  1
  Sn  Sn6  1  0.371106  0.750000  0.764174  1
  Sn  Sn7  1  0.628894  0.250000  0.235826  1
  P  P8  1  0.394987  0.250000  0.723337  1
  P  P9  1  0.605013  0.750000  0.276663  1
  C  C10  1  0.054471  0.750000  0.732541  1
  C  C11  1  0.945529  0.250000  0.267459  1
  O  O12  1  0.081699  0.250000  0.257232  1
  O  O13  1  0.131978  0.750000  0.944628  1
  O  O14  1  0.115763  0.750000  0.515232  1
  O  O15  1  0.315867  0.077150  0.829893  1
  O  O16  1  0.315867  0.422850  0.829893  1
  O  O17  1  0.383230  0.250000  0.431677  1
  O  O18  1  0.442571  0.750000  0.190941  1
  O  O19  1  0.557429  0.250000  0.809059  1
  O  O20  1  0.616770  0.750000  0.568323  1
  O  O21  1  0.684133  0.577150  0.170107  1
  O  O22  1  0.684133  0.922850  0.170107  1
  O  O23  1  0.884237  0.250000  0.484768  1
  O  O24  1  0.868022  0.250000  0.055372  1
  O  O25  1  0.918301  0.750000  0.742768  1
