# generated using pymatgen
data_LiP5WO15
_symmetry_space_group_name_H-M   'P 1'
_cell_length_a   10.70076056
_cell_length_b   13.85346036
_cell_length_c   9.50386402
_cell_angle_alpha   90.00000000
_cell_angle_beta   68.08307267
_cell_angle_gamma   90.00000000
_symmetry_Int_Tables_number   1
_chemical_formula_structural   LiP5WO15
_chemical_formula_sum   'Li4 P20 W4 O60'
_cell_volume   1307.05199231
_cell_formula_units_Z   4
loop_
 _symmetry_equiv_pos_site_id
 _symmetry_equiv_pos_as_xyz
  1  'x, y, z'
loop_
 _atom_site_type_symbol
 _atom_site_label
 _atom_site_symmetry_multiplicity
 _atom_site_fract_x
 _atom_site_fract_y
 _atom_site_fract_z
 _atom_site_occupancy
  Li  Li0  1  0.015194  0.632751  0.928418  1
  Li  Li1  1  0.484806  0.367249  0.071582  1
  Li  Li2  1  0.515194  0.867249  0.928418  1
  Li  Li3  1  0.984806  0.132751  0.071582  1
  P  P4  1  0.262953  0.251793  0.015585  1
  P  P5  1  0.245202  0.575108  0.182589  1
  P  P6  1  0.234151  0.912360  0.175830  1
  P  P7  1  0.260357  0.641669  0.475575  1
  P  P8  1  0.257601  0.856160  0.472306  1
  P  P9  1  0.242398  0.143840  0.527694  1
  P  P10  1  0.239643  0.358331  0.524425  1
  P  P11  1  0.265849  0.087640  0.824170  1
  P  P12  1  0.254798  0.424892  0.817411  1
  P  P13  1  0.237047  0.748207  0.984415  1
  P  P14  1  0.762953  0.248207  0.015585  1
  P  P15  1  0.745202  0.924892  0.182589  1
  P  P16  1  0.734151  0.587640  0.175830  1
  P  P17  1  0.760357  0.858331  0.475575  1
  P  P18  1  0.757602  0.643840  0.472306  1
  P  P19  1  0.739643  0.141669  0.524425  1
  P  P20  1  0.742398  0.356160  0.527694  1
  P  P21  1  0.754798  0.075108  0.817411  1
  P  P22  1  0.765849  0.412360  0.824170  1
  P  P23  1  0.737047  0.751793  0.984415  1
  W  W24  1  0.002016  0.000903  0.497706  1
  W  W25  1  0.997984  0.500903  0.502294  1
  W  W26  1  0.497984  0.999097  0.502294  1
  W  W27  1  0.502016  0.499097  0.497706  1
  O  O28  1  0.116315  0.233321  0.070901  1
  O  O29  1  0.191613  0.655615  0.104037  1
  O  O30  1  0.159726  0.833124  0.115126  1
  O  O31  1  0.114736  0.523124  0.284376  1
  O  O32  1  0.120160  0.979162  0.276093  1
  O  O33  1  0.111254  0.122362  0.505981  1
  O  O34  1  0.109143  0.378818  0.500837  1
  O  O35  1  0.141302  0.578907  0.564275  1
  O  O36  1  0.141345  0.920852  0.559978  1
  O  O37  1  0.217403  0.748961  0.532002  1
  O  O38  1  0.289682  0.642942  0.301364  1
  O  O39  1  0.280048  0.849773  0.299610  1
  O  O40  1  0.340467  0.267184  0.114318  1
  O  O41  1  0.357882  0.513631  0.091628  1
  O  O42  1  0.357062  0.955370  0.064949  1
  O  O43  1  0.142118  0.486369  0.908372  1
  O  O44  1  0.142938  0.044630  0.935051  1
  O  O45  1  0.159533  0.732816  0.885682  1
  O  O46  1  0.219952  0.150227  0.700390  1
  O  O47  1  0.210318  0.357058  0.698636  1
  O  O48  1  0.282597  0.251039  0.467998  1
  O  O49  1  0.358655  0.079148  0.440022  1
  O  O50  1  0.358698  0.421093  0.435725  1
  O  O51  1  0.388746  0.877638  0.494019  1
  O  O52  1  0.390857  0.621182  0.499163  1
  O  O53  1  0.379840  0.020838  0.723907  1
  O  O54  1  0.385264  0.476876  0.715624  1
  O  O55  1  0.340274  0.166876  0.884874  1
  O  O56  1  0.308387  0.344385  0.895963  1
  O  O57  1  0.616315  0.266679  0.070901  1
  O  O58  1  0.383685  0.766679  0.929099  1
  O  O59  1  0.691613  0.844385  0.104037  1
  O  O60  1  0.659726  0.666876  0.115126  1
  O  O61  1  0.620160  0.520838  0.276093  1
  O  O62  1  0.614736  0.976876  0.284376  1
  O  O63  1  0.609143  0.121182  0.500837  1
  O  O64  1  0.611254  0.377638  0.505981  1
  O  O65  1  0.641302  0.921093  0.564275  1
  O  O66  1  0.641345  0.579148  0.559978  1
  O  O67  1  0.717403  0.751039  0.532002  1
  O  O68  1  0.780048  0.650227  0.299610  1
  O  O69  1  0.789682  0.857058  0.301364  1
  O  O70  1  0.840467  0.232816  0.114318  1
  O  O71  1  0.857062  0.544630  0.064949  1
  O  O72  1  0.857882  0.986369  0.091628  1
  O  O73  1  0.642118  0.013631  0.908372  1
  O  O74  1  0.642938  0.455370  0.935051  1
  O  O75  1  0.659533  0.767184  0.885682  1
  O  O76  1  0.710318  0.142942  0.698636  1
  O  O77  1  0.719952  0.349773  0.700390  1
  O  O78  1  0.782597  0.248961  0.467998  1
  O  O79  1  0.858698  0.078907  0.435725  1
  O  O80  1  0.858655  0.420852  0.440022  1
  O  O81  1  0.888746  0.622362  0.494019  1
  O  O82  1  0.890857  0.878818  0.499163  1
  O  O83  1  0.885264  0.023124  0.715624  1
  O  O84  1  0.879840  0.479162  0.723907  1
  O  O85  1  0.808387  0.155615  0.895963  1
  O  O86  1  0.840274  0.333124  0.884874  1
  O  O87  1  0.883685  0.733321  0.929099  1
