# generated using pymatgen
data_Ba3(Mo9O14)2
_symmetry_space_group_name_H-M   'P 1'
_cell_length_a   9.78302046
_cell_length_b   10.60237285
_cell_length_c   14.68081459
_cell_angle_alpha   100.27038095
_cell_angle_beta   90.00000000
_cell_angle_gamma   90.00000000
_symmetry_Int_Tables_number   1
_chemical_formula_structural   Ba3(Mo9O14)2
_chemical_formula_sum   'Ba6 Mo36 O56'
_cell_volume   1498.34314403
_cell_formula_units_Z   2
loop_
 _symmetry_equiv_pos_site_id
 _symmetry_equiv_pos_as_xyz
  1  'x, y, z'
loop_
 _atom_site_type_symbol
 _atom_site_label
 _atom_site_symmetry_multiplicity
 _atom_site_fract_x
 _atom_site_fract_y
 _atom_site_fract_z
 _atom_site_occupancy
  Ba  Ba0  1  0.018637  0.939068  0.638016  1
  Ba  Ba1  1  0.483361  0.448038  0.671504  1
  Ba  Ba2  1  0.498557  0.510749  0.053071  1
  Ba  Ba3  1  0.518637  0.560932  0.361984  1
  Ba  Ba4  1  0.983361  0.051962  0.328496  1
  Ba  Ba5  1  0.998557  0.989251  0.946929  1
  Mo  Mo6  1  0.131192  0.404352  0.997660  1
  Mo  Mo7  1  0.125412  0.291765  0.550949  1
  Mo  Mo8  1  0.132321  0.351759  0.773304  1
  Mo  Mo9  1  0.134888  0.457711  0.219513  1
  Mo  Mo10  1  0.130120  0.592675  0.664807  1
  Mo  Mo11  1  0.142796  0.525919  0.442617  1
  Mo  Mo12  1  0.142872  0.643369  0.887358  1
  Mo  Mo13  1  0.143595  0.704714  0.112233  1
  Mo  Mo14  1  0.143622  0.751878  0.335186  1
  Mo  Mo15  1  0.352222  0.252363  0.336793  1
  Mo  Mo16  1  0.356402  0.198748  0.113032  1
  Mo  Mo17  1  0.361355  0.146978  0.886417  1
  Mo  Mo18  1  0.356485  0.024504  0.441766  1
  Mo  Mo19  1  0.368851  0.091481  0.664050  1
  Mo  Mo20  1  0.365187  0.958243  0.222204  1
  Mo  Mo21  1  0.365705  0.851884  0.774884  1
  Mo  Mo22  1  0.374274  0.787095  0.550995  1
  Mo  Mo23  1  0.369488  0.906482  0.995512  1
  Mo  Mo24  1  0.631192  0.095648  0.002340  1
  Mo  Mo25  1  0.625412  0.208235  0.449051  1
  Mo  Mo26  1  0.632321  0.148241  0.226696  1
  Mo  Mo27  1  0.634888  0.042289  0.780487  1
  Mo  Mo28  1  0.630120  0.907325  0.335193  1
  Mo  Mo29  1  0.642796  0.974081  0.557383  1
  Mo  Mo30  1  0.642872  0.856631  0.112642  1
  Mo  Mo31  1  0.643595  0.795286  0.887767  1
  Mo  Mo32  1  0.643622  0.748122  0.664814  1
  Mo  Mo33  1  0.852222  0.247637  0.663207  1
  Mo  Mo34  1  0.856402  0.301252  0.886968  1
  Mo  Mo35  1  0.861355  0.353022  0.113583  1
  Mo  Mo36  1  0.856485  0.475496  0.558234  1
  Mo  Mo37  1  0.868851  0.408519  0.335950  1
  Mo  Mo38  1  0.865187  0.541757  0.777796  1
  Mo  Mo39  1  0.865705  0.648116  0.225116  1
  Mo  Mo40  1  0.874274  0.712905  0.449005  1
  Mo  Mo41  1  0.869488  0.593518  0.004488  1
  O  O42  1  0.016928  0.795648  0.224900  1
  O  O43  1  0.013848  0.688217  0.777687  1
  O  O44  1  0.000137  0.630679  0.546108  1
  O  O45  1  0.009533  0.845470  0.442390  1
  O  O46  1  0.021438  0.740652  0.003885  1
  O  O47  1  0.257196  0.136537  0.229982  1
  O  O48  1  0.233801  0.461945  0.555905  1
  O  O49  1  0.256692  0.025929  0.770227  1
  O  O50  1  0.252996  0.370010  0.107961  1
  O  O51  1  0.242230  0.310200  0.885036  1
  O  O52  1  0.231960  0.189088  0.435506  1
  O  O53  1  0.257594  0.425221  0.331420  1
  O  O54  1  0.242852  0.253450  0.655743  1
  O  O55  1  0.245008  0.580887  0.002757  1
  O  O56  1  0.255912  0.078241  0.998713  1
  O  O57  1  0.255618  0.754119  0.656973  1
  O  O58  1  0.240499  0.926183  0.331140  1
  O  O59  1  0.273397  0.682887  0.435956  1
  O  O60  1  0.245554  0.818469  0.886535  1
  O  O61  1  0.261778  0.855100  0.107726  1
  O  O62  1  0.243255  0.525177  0.769535  1
  O  O63  1  0.266407  0.961592  0.554344  1
  O  O64  1  0.242454  0.635604  0.216411  1
  O  O65  1  0.481494  0.241857  0.002603  1
  O  O66  1  0.488594  0.341575  0.434013  1
  O  O67  1  0.487777  0.188476  0.774246  1
  O  O68  1  0.498260  0.130503  0.544344  1
  O  O69  1  0.478344  0.292870  0.232365  1
  O  O70  1  0.516928  0.704352  0.775100  1
  O  O71  1  0.500137  0.869321  0.453892  1
  O  O72  1  0.513848  0.811783  0.222313  1
  O  O73  1  0.509533  0.654530  0.557610  1
  O  O74  1  0.521438  0.759348  0.996115  1
  O  O75  1  0.757196  0.363463  0.770018  1
  O  O76  1  0.733801  0.038055  0.444095  1
  O  O77  1  0.756692  0.474071  0.229773  1
  O  O78  1  0.742230  0.189800  0.114964  1
  O  O79  1  0.731960  0.310912  0.564494  1
  O  O80  1  0.752996  0.129990  0.892039  1
  O  O81  1  0.757594  0.074779  0.668580  1
  O  O82  1  0.742852  0.246550  0.344257  1
  O  O83  1  0.745008  0.919113  0.997243  1
  O  O84  1  0.755912  0.421759  0.001287  1
  O  O85  1  0.755618  0.745881  0.343027  1
  O  O86  1  0.740499  0.573817  0.668860  1
  O  O87  1  0.773397  0.817113  0.564044  1
  O  O88  1  0.745554  0.681531  0.113465  1
  O  O89  1  0.761778  0.644900  0.892274  1
  O  O90  1  0.743255  0.974823  0.230465  1
  O  O91  1  0.766407  0.538408  0.445656  1
  O  O92  1  0.742454  0.864396  0.783589  1
  O  O93  1  0.981494  0.258143  0.997397  1
  O  O94  1  0.988594  0.158425  0.565987  1
  O  O95  1  0.998260  0.369497  0.455656  1
  O  O96  1  0.987777  0.311524  0.225754  1
  O  O97  1  0.978344  0.207130  0.767635  1
