# generated using pymatgen
data_LiCr4(PO4)3
_symmetry_space_group_name_H-M   'P 1'
_cell_length_a   6.86538628
_cell_length_b   10.72749344
_cell_length_c   6.86538628
_cell_angle_alpha   71.33766851
_cell_angle_beta   90.00000000
_cell_angle_gamma   108.66233149
_symmetry_Int_Tables_number   1
_chemical_formula_structural   LiCr4(PO4)3
_chemical_formula_sum   'Li2 Cr8 P6 O24'
_cell_volume   450.88919517
_cell_formula_units_Z   2
loop_
 _symmetry_equiv_pos_site_id
 _symmetry_equiv_pos_as_xyz
  1  'x, y, z'
loop_
 _atom_site_type_symbol
 _atom_site_label
 _atom_site_symmetry_multiplicity
 _atom_site_fract_x
 _atom_site_fract_y
 _atom_site_fract_z
 _atom_site_occupancy
  Li  Li0  1  0.250000  0.500000  0.250000  1
  Li  Li1  1  0.500000  0.000000  0.500000  1
  Cr  Cr2  1  0.375000  0.250000  0.122417  1
  Cr  Cr3  1  0.775298  0.550597  0.224702  1
  Cr  Cr4  1  0.627583  0.750000  0.375000  1
  Cr  Cr5  1  0.875000  0.250000  0.627583  1
  Cr  Cr6  1  0.224702  0.449403  0.775298  1
  Cr  Cr7  1  0.525298  0.050597  0.974702  1
  Cr  Cr8  1  0.974702  0.949403  0.525298  1
  Cr  Cr9  1  0.122417  0.750000  0.875000  1
  P  P10  1  0.000000  0.000000  0.000000  1
  P  P11  1  0.875000  0.250000  0.230867  1
  P  P12  1  0.375000  0.250000  0.519133  1
  P  P13  1  0.230867  0.750000  0.375000  1
  P  P14  1  0.750000  0.500000  0.750000  1
  P  P15  1  0.519133  0.750000  0.875000  1
  O  O16  1  0.231264  0.083665  0.009234  1
  O  O17  1  0.674852  0.209932  0.131948  1
  O  O18  1  0.075148  0.290068  0.091880  1
  O  O19  1  0.618052  0.709932  0.075148  1
  O  O20  1  0.278748  0.122882  0.436974  1
  O  O21  1  0.471252  0.377118  0.309855  1
  O  O22  1  0.905865  0.377118  0.313026  1
  O  O23  1  0.844135  0.122882  0.440145  1
  O  O24  1  0.091880  0.709932  0.214920  1
  O  O25  1  0.907102  0.916335  0.231264  1
  O  O26  1  0.440145  0.877118  0.278748  1
  O  O27  1  0.214920  0.290068  0.618052  1
  O  O28  1  0.535080  0.209932  0.658120  1
  O  O29  1  0.313026  0.622882  0.471252  1
  O  O30  1  0.740766  0.583665  0.518736  1
  O  O31  1  0.897601  0.416335  0.740766  1
  O  O32  1  0.852399  0.083665  0.907102  1
  O  O33  1  0.131948  0.790068  0.535080  1
  O  O34  1  0.658120  0.790068  0.674852  1
  O  O35  1  0.518736  0.416335  0.842898  1
  O  O36  1  0.842898  0.583665  0.897601  1
  O  O37  1  0.309855  0.622882  0.905865  1
  O  O38  1  0.436974  0.877118  0.844135  1
  O  O39  1  0.009234  0.916335  0.852399  1
