# generated using pymatgen
data_LiFeSi3O8
_symmetry_space_group_name_H-M   'P 1'
_cell_length_a   7.78626662
_cell_length_b   7.78626662
_cell_length_c   14.60299381
_cell_angle_alpha   76.07128110
_cell_angle_beta   103.92871890
_cell_angle_gamma   61.65250341
_symmetry_Int_Tables_number   1
_chemical_formula_structural   LiFeSi3O8
_chemical_formula_sum   'Li4 Fe4 Si12 O32'
_cell_volume   687.84074050
_cell_formula_units_Z   4
loop_
 _symmetry_equiv_pos_site_id
 _symmetry_equiv_pos_as_xyz
  1  'x, y, z'
loop_
 _atom_site_type_symbol
 _atom_site_label
 _atom_site_symmetry_multiplicity
 _atom_site_fract_x
 _atom_site_fract_y
 _atom_site_fract_z
 _atom_site_occupancy
  Li  Li0  1  0.267629  0.734898  0.572340  1
  Li  Li1  1  0.734898  0.267629  0.927660  1
  Li  Li2  1  0.265102  0.732371  0.072340  1
  Li  Li3  1  0.732371  0.265102  0.427660  1
  Fe  Fe4  1  0.223423  0.556910  0.833752  1
  Fe  Fe5  1  0.443090  0.776577  0.333752  1
  Fe  Fe6  1  0.556910  0.223423  0.666248  1
  Fe  Fe7  1  0.776577  0.443090  0.166248  1
  Si  Si8  1  0.448788  0.791911  0.836873  1
  Si  Si9  1  0.826983  0.849534  0.896712  1
  Si  Si10  1  0.167155  0.171091  0.885841  1
  Si  Si11  1  0.171091  0.167155  0.614159  1
  Si  Si12  1  0.849534  0.826983  0.603288  1
  Si  Si13  1  0.208089  0.551212  0.336873  1
  Si  Si14  1  0.791911  0.448788  0.663127  1
  Si  Si15  1  0.828909  0.832845  0.385841  1
  Si  Si16  1  0.150466  0.173017  0.396712  1
  Si  Si17  1  0.173017  0.150466  0.103288  1
  Si  Si18  1  0.832845  0.828909  0.114159  1
  Si  Si19  1  0.551212  0.208089  0.163127  1
  O  O20  1  0.058246  0.695666  0.898012  1
  O  O21  1  0.295773  0.931968  0.886374  1
  O  O22  1  0.096345  0.693388  0.687907  1
  O  O23  1  0.330527  0.926265  0.710185  1
  O  O24  1  0.476545  0.561065  0.868289  1
  O  O25  1  0.305829  0.272255  0.883092  1
  O  O26  1  0.686303  0.746476  0.882196  1
  O  O27  1  0.068032  0.704227  0.386374  1
  O  O28  1  0.304334  0.941754  0.398012  1
  O  O29  1  0.746476  0.686303  0.617804  1
  O  O30  1  0.272255  0.305829  0.616908  1
  O  O31  1  0.306612  0.903655  0.187907  1
  O  O32  1  0.073735  0.669473  0.210185  1
  O  O33  1  0.561065  0.476545  0.631711  1
  O  O34  1  0.131997  0.117261  0.510205  1
  O  O35  1  0.868003  0.882739  0.489795  1
  O  O36  1  0.438935  0.523455  0.368289  1
  O  O37  1  0.693388  0.096345  0.812093  1
  O  O38  1  0.926265  0.330527  0.789815  1
  O  O39  1  0.253524  0.313697  0.382196  1
  O  O40  1  0.727745  0.694171  0.383092  1
  O  O41  1  0.695666  0.058246  0.601988  1
  O  O42  1  0.931968  0.295773  0.613626  1
  O  O43  1  0.694171  0.727745  0.116908  1
  O  O44  1  0.313697  0.253524  0.117804  1
  O  O45  1  0.523455  0.438935  0.131711  1
  O  O46  1  0.117261  0.131997  0.989795  1
  O  O47  1  0.882739  0.868003  0.010205  1
  O  O48  1  0.903655  0.306612  0.312093  1
  O  O49  1  0.669473  0.073735  0.289815  1
  O  O50  1  0.704227  0.068032  0.113626  1
  O  O51  1  0.941754  0.304334  0.101988  1
