# generated using pymatgen
data_FeP4O11
_symmetry_space_group_name_H-M   'P 1'
_cell_length_a   5.47641783
_cell_length_b   22.64198975
_cell_length_c   7.56354046
_cell_angle_alpha   90.00000000
_cell_angle_beta   109.42571288
_cell_angle_gamma   90.00000000
_symmetry_Int_Tables_number   1
_chemical_formula_structural   FeP4O11
_chemical_formula_sum   'Fe4 P16 O44'
_cell_volume   884.46742031
_cell_formula_units_Z   4
loop_
 _symmetry_equiv_pos_site_id
 _symmetry_equiv_pos_as_xyz
  1  'x, y, z'
loop_
 _atom_site_type_symbol
 _atom_site_label
 _atom_site_symmetry_multiplicity
 _atom_site_fract_x
 _atom_site_fract_y
 _atom_site_fract_z
 _atom_site_occupancy
  Fe  Fe0  1  0.002507  0.113095  0.872031  1
  Fe  Fe1  1  0.002507  0.386905  0.372031  1
  Fe  Fe2  1  0.997493  0.613095  0.627969  1
  Fe  Fe3  1  0.997493  0.886905  0.127969  1
  P  P4  1  0.310021  0.427684  0.818230  1
  P  P5  1  0.403071  0.804158  0.965010  1
  P  P6  1  0.331956  0.821291  0.552617  1
  P  P7  1  0.405262  0.033567  0.708971  1
  P  P8  1  0.310021  0.072316  0.318230  1
  P  P9  1  0.403071  0.695842  0.465010  1
  P  P10  1  0.594738  0.533567  0.791029  1
  P  P11  1  0.668044  0.321291  0.947383  1
  P  P12  1  0.331956  0.678709  0.052617  1
  P  P13  1  0.405262  0.466433  0.208971  1
  P  P14  1  0.596929  0.304158  0.534990  1
  P  P15  1  0.689979  0.927684  0.681770  1
  P  P16  1  0.594738  0.966433  0.291029  1
  P  P17  1  0.668044  0.178709  0.447383  1
  P  P18  1  0.596929  0.195842  0.034990  1
  P  P19  1  0.689979  0.572316  0.181770  1
  O  O20  1  0.099362  0.655420  0.907012  1
  O  O21  1  0.080823  0.424886  0.647757  1
  O  O22  1  0.236641  0.454379  0.986225  1
  O  O23  1  0.224668  0.043174  0.815030  1
  O  O24  1  0.347008  0.164084  0.981780  1
  O  O25  1  0.099362  0.844580  0.407012  1
  O  O26  1  0.269766  0.804984  0.735228  1
  O  O27  1  0.194555  0.682302  0.543934  1
  O  O28  1  0.338180  0.562422  0.747339  1
  O  O29  1  0.469311  0.733493  0.995920  1
  O  O30  1  0.422125  0.363691  0.887295  1
  O  O31  1  0.080823  0.075114  0.147757  1
  O  O32  1  0.236641  0.045621  0.486225  1
  O  O33  1  0.224668  0.456826  0.315030  1
  O  O34  1  0.443231  0.961476  0.696505  1
  O  O35  1  0.347008  0.335916  0.481780  1
  O  O36  1  0.269766  0.695016  0.235228  1
  O  O37  1  0.194555  0.817698  0.043934  1
  O  O38  1  0.556769  0.461476  0.803495  1
  O  O39  1  0.338180  0.937578  0.247339  1
  O  O40  1  0.469311  0.766507  0.495920  1
  O  O41  1  0.422125  0.136309  0.387295  1
  O  O42  1  0.577875  0.863691  0.612705  1
  O  O43  1  0.530689  0.233493  0.504080  1
  O  O44  1  0.661820  0.062422  0.752661  1
  O  O45  1  0.443231  0.538524  0.196505  1
  O  O46  1  0.805445  0.182302  0.956066  1
  O  O47  1  0.730234  0.304984  0.764772  1
  O  O48  1  0.652992  0.664084  0.518220  1
  O  O49  1  0.556769  0.038524  0.303495  1
  O  O50  1  0.775332  0.543174  0.684970  1
  O  O51  1  0.763359  0.954379  0.513775  1
  O  O52  1  0.919177  0.924886  0.852243  1
  O  O53  1  0.577875  0.636309  0.112705  1
  O  O54  1  0.530689  0.266507  0.004080  1
  O  O55  1  0.661820  0.437578  0.252661  1
  O  O56  1  0.805445  0.317698  0.456066  1
  O  O57  1  0.730234  0.195016  0.264772  1
  O  O58  1  0.900638  0.155420  0.592988  1
  O  O59  1  0.652992  0.835916  0.018220  1
  O  O60  1  0.775332  0.956826  0.184970  1
  O  O61  1  0.763359  0.545621  0.013775  1
  O  O62  1  0.919177  0.575114  0.352243  1
  O  O63  1  0.900638  0.344580  0.092988  1
