# generated using pymatgen
data_Cr4OF11
_symmetry_space_group_name_H-M   'P 1'
_cell_length_a   5.06940169
_cell_length_b   5.34797176
_cell_length_c   16.92883948
_cell_angle_alpha   91.46320489
_cell_angle_beta   98.71765266
_cell_angle_gamma   61.83810142
_symmetry_Int_Tables_number   1
_chemical_formula_structural   Cr4OF11
_chemical_formula_sum   'Cr8 O2 F22'
_cell_volume   399.39334279
_cell_formula_units_Z   2
loop_
 _symmetry_equiv_pos_site_id
 _symmetry_equiv_pos_as_xyz
  1  'x, y, z'
loop_
 _atom_site_type_symbol
 _atom_site_label
 _atom_site_symmetry_multiplicity
 _atom_site_fract_x
 _atom_site_fract_y
 _atom_site_fract_z
 _atom_site_occupancy
  Cr  Cr0  1  0.735796  0.620191  0.128581  1
  Cr  Cr1  1  0.749121  0.126202  0.624693  1
  Cr  Cr2  1  0.502599  0.749613  0.750920  1
  Cr  Cr3  1  0.503340  0.264816  0.246503  1
  Cr  Cr4  1  0.246916  0.882332  0.373576  1
  Cr  Cr5  1  0.270324  0.364334  0.878430  1
  Cr  Cr6  1  0.998003  0.504088  0.499442  1
  Cr  Cr7  1  0.975695  0.007761  0.996233  1
  O  O8  1  0.682786  0.470738  0.217406  1
  O  O9  1  0.683801  0.157916  0.907451  1
  F  F10  1  0.812746  0.780838  0.034333  1
  F  F11  1  0.738730  0.941318  0.186109  1
  F  F12  1  0.751018  0.815537  0.561671  1
  F  F13  1  0.746430  0.314584  0.062080  1
  F  F14  1  0.684203  0.970321  0.717854  1
  F  F15  1  0.681873  0.660384  0.406463  1
  F  F16  1  0.825484  0.586961  0.842515  1
  F  F17  1  0.809581  0.098304  0.341400  1
  F  F18  1  0.812459  0.284368  0.531560  1
  F  F19  1  0.308897  0.845518  0.089998  1
  F  F20  1  0.741378  0.439178  0.687453  1
  F  F21  1  0.251390  0.568449  0.310219  1
  F  F22  1  0.185768  0.908039  0.657516  1
  F  F23  1  0.177061  0.409673  0.155907  1
  F  F24  1  0.183062  0.724956  0.467391  1
  F  F25  1  0.314063  0.535546  0.784562  1
  F  F26  1  0.312034  0.341423  0.592615  1
  F  F27  1  0.318071  0.039372  0.281295  1
  F  F28  1  0.239612  0.689665  0.937985  1
  F  F29  1  0.243214  0.193898  0.436409  1
  F  F30  1  0.256483  0.065125  0.813054  1
  F  F31  1  0.184050  0.214782  0.969030  1
