# generated using pymatgen
data_SrBi5O9
_symmetry_space_group_name_H-M   'P 1'
_cell_length_a   3.90348913
_cell_length_b   10.70225417
_cell_length_c   7.00828356
_cell_angle_alpha   82.89992672
_cell_angle_beta   90.13271728
_cell_angle_gamma   99.68495458
_symmetry_Int_Tables_number   1
_chemical_formula_structural   SrBi5O9
_chemical_formula_sum   'Sr1 Bi5 O9'
_cell_volume   286.34201051
_cell_formula_units_Z   1
loop_
 _symmetry_equiv_pos_site_id
 _symmetry_equiv_pos_as_xyz
  1  'x, y, z'
loop_
 _atom_site_type_symbol
 _atom_site_label
 _atom_site_symmetry_multiplicity
 _atom_site_fract_x
 _atom_site_fract_y
 _atom_site_fract_z
 _atom_site_occupancy
  Sr  Sr0  1  0.007020  0.007866  0.002648  1
  Bi  Bi1  1  0.650572  0.314223  0.106431  1
  Bi  Bi2  1  0.857434  0.696030  0.386803  1
  Bi  Bi3  1  0.494083  0.976792  0.506182  1
  Bi  Bi4  1  0.368431  0.694615  0.874684  1
  Bi  Bi5  1  0.144646  0.298087  0.607026  1
  O  O6  1  0.831430  0.613563  0.840137  1
  O  O7  1  0.557779  0.115409  0.154374  1
  O  O8  1  0.961116  0.899458  0.347567  1
  O  O9  1  0.644644  0.295170  0.776209  1
  O  O10  1  0.395668  0.750512  0.549693  1
  O  O11  1  0.373960  0.700891  0.183886  1
  O  O12  1  0.051400  0.097870  0.634153  1
  O  O13  1  0.154666  0.324781  0.275415  1
  O  O14  1  0.456178  0.899434  0.842923  1
