# generated using pymatgen
data_RbAgF3
_symmetry_space_group_name_H-M   'P 1'
_cell_length_a   6.27551663
_cell_length_b   6.27551663
_cell_length_c   6.27551663
_cell_angle_alpha   90.31122138
_cell_angle_beta   119.82047919
_cell_angle_gamma   119.82047923
_symmetry_Int_Tables_number   1
_chemical_formula_structural   RbAgF3
_chemical_formula_sum   'Rb2 Ag2 F6'
_cell_volume   175.22794208
_cell_formula_units_Z   2
loop_
 _symmetry_equiv_pos_site_id
 _symmetry_equiv_pos_as_xyz
  1  'x, y, z'
loop_
 _atom_site_type_symbol
 _atom_site_label
 _atom_site_symmetry_multiplicity
 _atom_site_fract_x
 _atom_site_fract_y
 _atom_site_fract_z
 _atom_site_occupancy
  F  F0  1  0.014525  0.257262  0.757262  1
  F  F1  1  0.500000  0.757262  0.742738  1
  F  F2  1  0.500000  0.242738  0.257262  1
  F  F3  1  0.985475  0.742738  0.242738  1
  F  F4  1  0.500000  0.750000  0.250000  1
  F  F5  1  0.500000  0.250000  0.750000  1
  Rb  Rb6  1  0.000000  0.250000  0.250000  1
  Rb  Rb7  1  0.000000  0.750000  0.750000  1
  Ag  Ag8  1  0.500000  0.500000  0.000000  1
  Ag  Ag9  1  0.500000  0.000000  0.500000  1
