# generated using pymatgen
data_Li3Mn4(BO3)4
_symmetry_space_group_name_H-M   'P 1'
_cell_length_a   7.85392672
_cell_length_b   9.19671064
_cell_length_c   8.28848554
_cell_angle_alpha   113.14767840
_cell_angle_beta   99.74288846
_cell_angle_gamma   66.12750873
_symmetry_Int_Tables_number   1
_chemical_formula_structural   Li3Mn4(BO3)4
_chemical_formula_sum   'Li6 Mn8 B8 O24'
_cell_volume   503.35153908
_cell_formula_units_Z   2
loop_
 _symmetry_equiv_pos_site_id
 _symmetry_equiv_pos_as_xyz
  1  'x, y, z'
loop_
 _atom_site_type_symbol
 _atom_site_label
 _atom_site_symmetry_multiplicity
 _atom_site_fract_x
 _atom_site_fract_y
 _atom_site_fract_z
 _atom_site_occupancy
  Li  Li0  1  0.113355  0.153549  0.802317  1
  Li  Li1  1  0.388829  0.849249  0.705747  1
  Li  Li2  1  0.118120  0.362336  0.461004  1
  Li  Li3  1  0.364487  0.651950  0.047523  1
  Li  Li4  1  0.634691  0.354732  0.952441  1
  Li  Li5  1  0.863913  0.863288  0.207935  1
  Mn  Mn6  1  0.062386  0.510783  0.828318  1
  Mn  Mn7  1  0.170047  0.999526  0.421889  1
  Mn  Mn8  1  0.679845  0.013751  0.929360  1
  Mn  Mn9  1  0.425781  0.496054  0.666457  1
  Mn  Mn10  1  0.586052  0.486320  0.335509  1
  Mn  Mn11  1  0.332384  0.008858  0.091839  1
  Mn  Mn12  1  0.816836  0.988923  0.572941  1
  Mn  Mn13  1  0.929169  0.507655  0.181376  1
  B  B14  1  0.078923  0.842403  0.836201  1
  B  B15  1  0.177648  0.664095  0.423253  1
  B  B16  1  0.669622  0.672878  0.930723  1
  B  B17  1  0.411836  0.170969  0.682923  1
  B  B18  1  0.576217  0.818694  0.307140  1
  B  B19  1  0.333919  0.331342  0.059458  1
  B  B20  1  0.829668  0.323385  0.575477  1
  B  B21  1  0.924608  0.168235  0.178173  1
  O  O22  1  0.161592  0.956692  0.864949  1
  O  O23  1  0.065432  0.812558  0.391861  1
  O  O24  1  0.179214  0.686521  0.855662  1
  O  O25  1  0.149462  0.357288  0.996273  1
  O  O26  1  0.120933  0.530390  0.378599  1
  O  O27  1  0.351581  0.652470  0.508585  1
  O  O28  1  0.094039  0.156579  0.267225  1
  O  O29  1  0.575189  0.823844  0.897854  1
  O  O30  1  0.311791  0.321933  0.652629  1
  O  O31  1  0.395826  0.848068  0.234869  1
  O  O32  1  0.593118  0.552570  0.892630  1
  O  O33  1  0.340870  0.047676  0.644309  1
  O  O34  1  0.650784  0.939031  0.355958  1
  O  O35  1  0.407562  0.453009  0.104446  1
  O  O36  1  0.588123  0.151369  0.766239  1
  O  O37  1  0.677387  0.655947  0.313170  1
  O  O38  1  0.443154  0.167461  0.062160  1
  O  O39  1  0.893566  0.877573  0.771306  1
  O  O40  1  0.654714  0.348031  0.495151  1
  O  O41  1  0.906462  0.441851  0.611675  1
  O  O42  1  0.843504  0.652326  0.016994  1
  O  O43  1  0.818202  0.316643  0.144384  1
  O  O44  1  0.927264  0.173007  0.609833  1
  O  O45  1  0.862939  0.035668  0.129241  1
