# generated using pymatgen
data_Na(WO3)10
_symmetry_space_group_name_H-M   'P 1'
_cell_length_a   13.98225531
_cell_length_b   6.70542257
_cell_length_c   6.70542257
_cell_angle_alpha   70.36981951
_cell_angle_beta   99.44037583
_cell_angle_gamma   99.44037583
_symmetry_Int_Tables_number   1
_chemical_formula_structural   Na(WO3)10
_chemical_formula_sum   'Na1 W10 O30'
_cell_volume   580.09443551
_cell_formula_units_Z   1
loop_
 _symmetry_equiv_pos_site_id
 _symmetry_equiv_pos_as_xyz
  1  'x, y, z'
loop_
 _atom_site_type_symbol
 _atom_site_label
 _atom_site_symmetry_multiplicity
 _atom_site_fract_x
 _atom_site_fract_y
 _atom_site_fract_z
 _atom_site_occupancy
  Na  Na0  1  0.200000  0.300564  0.299436  1
  W  W1  1  0.605715  0.396022  0.895250  1
  W  W2  1  0.804085  0.195591  0.694756  1
  W  W3  1  0.195555  0.308490  0.799256  1
  W  W4  1  0.398112  0.101310  0.609607  1
  W  W5  1  0.794286  0.704750  0.203978  1
  W  W6  1  0.993363  0.502317  0.006028  1
  W  W7  1  0.595915  0.905244  0.404409  1
  W  W8  1  0.406637  0.593972  0.097683  1
  W  W9  1  0.001888  0.990393  0.498690  1
  W  W10  1  0.204445  0.800744  0.291510  1
  O  O11  1  0.900054  0.350053  0.850883  1
  O  O12  1  0.800234  0.949915  0.950103  1
  O  O13  1  0.501124  0.497406  0.998781  1
  O  O14  1  0.701505  0.298412  0.798799  1
  O  O15  1  0.901910  0.099110  0.599235  1
  O  O16  1  0.298706  0.448119  0.953757  1
  O  O17  1  0.500121  0.249077  0.750365  1
  O  O18  1  0.800127  0.450013  0.450248  1
  O  O19  1  0.899879  0.849635  0.350923  1
  O  O20  1  0.700000  0.049848  0.550152  1
  O  O21  1  0.599766  0.649897  0.650085  1
  O  O22  1  0.399347  0.848437  0.850824  1
  O  O23  1  0.297958  0.203026  0.696156  1
  O  O24  1  0.698495  0.801201  0.301588  1
  O  O25  1  0.898876  0.601219  0.102594  1
  O  O26  1  0.498090  0.000765  0.500890  1
  O  O27  1  0.100031  0.400316  0.904785  1
  O  O28  1  0.599873  0.149752  0.149987  1
  O  O29  1  0.101410  0.153063  0.644685  1
  O  O30  1  0.499946  0.749117  0.249947  1
  O  O31  1  0.397557  0.348869  0.350341  1
  O  O32  1  0.700000  0.549643  0.050357  1
  O  O33  1  0.000653  0.749176  0.751563  1
  O  O34  1  0.298590  0.955315  0.446937  1
  O  O35  1  0.200264  0.550265  0.546004  1
  O  O36  1  0.299969  0.695215  0.199684  1
  O  O37  1  0.102042  0.903844  0.396974  1
  O  O38  1  0.199736  0.053996  0.049735  1
  O  O39  1  0.002443  0.249659  0.251131  1
  O  O40  1  0.101294  0.646243  0.151881  1
