# generated using pymatgen
data_CaGd2O4
_symmetry_space_group_name_H-M   'P 1'
_cell_length_a   10.05990395
_cell_length_b   11.93909027
_cell_length_c   3.43029543
_cell_angle_alpha   89.99996025
_cell_angle_beta   89.99968011
_cell_angle_gamma   89.98040267
_symmetry_Int_Tables_number   1
_chemical_formula_structural   CaGd2O4
_chemical_formula_sum   'Ca4 Gd8 O16'
_cell_volume   411.99938657
_cell_formula_units_Z   4
loop_
 _symmetry_equiv_pos_site_id
 _symmetry_equiv_pos_as_xyz
  1  'x, y, z'
loop_
 _atom_site_type_symbol
 _atom_site_label
 _atom_site_symmetry_multiplicity
 _atom_site_fract_x
 _atom_site_fract_y
 _atom_site_fract_z
 _atom_site_occupancy
  Ca  Ca0  1  0.249794  0.351587  0.750002  1
  Ca  Ca1  1  0.250131  0.851531  0.250001  1
  Ca  Ca2  1  0.749869  0.148390  0.750004  1
  Ca  Ca3  1  0.750247  0.648421  0.250003  1
  Gd  Gd4  1  0.079194  0.612088  0.750000  1
  Gd  Gd5  1  0.079101  0.113808  0.749996  1
  Gd  Gd6  1  0.420946  0.613765  0.250000  1
  Gd  Gd7  1  0.420776  0.112198  0.250002  1
  Gd  Gd8  1  0.579272  0.887817  0.749998  1
  Gd  Gd9  1  0.579053  0.386242  0.750000  1
  Gd  Gd10  1  0.920946  0.886179  0.250001  1
  Gd  Gd11  1  0.920765  0.387945  0.250001  1
  O  O12  1  0.022806  0.718828  0.249999  1
  O  O13  1  0.079278  0.920216  0.750001  1
  O  O14  1  0.133520  0.476267  0.249998  1
  O  O15  1  0.210702  0.191619  0.249997  1
  O  O16  1  0.289457  0.691310  0.750000  1
  O  O17  1  0.366418  0.976249  0.750000  1
  O  O18  1  0.420809  0.420495  0.249998  1
  O  O19  1  0.477235  0.218880  0.749998  1
  O  O20  1  0.522779  0.781077  0.250002  1
  O  O21  1  0.579206  0.579506  0.749998  1
  O  O22  1  0.633515  0.023771  0.249997  1
  O  O23  1  0.710511  0.308681  0.250002  1
  O  O24  1  0.789526  0.808546  0.750003  1
  O  O25  1  0.866505  0.523823  0.750002  1
  O  O26  1  0.920495  0.079557  0.249997  1
  O  O27  1  0.977145  0.281206  0.750000  1
