# generated using pymatgen
data_Li4Mn3NbO8
_symmetry_space_group_name_H-M   'P 1'
_cell_length_a   10.49048896
_cell_length_b   10.48576824
_cell_length_c   14.77651755
_cell_angle_alpha   20.03401415
_cell_angle_beta   20.02948555
_cell_angle_gamma   34.52137898
_symmetry_Int_Tables_number   1
_chemical_formula_structural   Li4Mn3NbO8
_chemical_formula_sum   'Li4 Mn3 Nb1 O8'
_cell_volume   165.08821422
_cell_formula_units_Z   1
loop_
 _symmetry_equiv_pos_site_id
 _symmetry_equiv_pos_as_xyz
  1  'x, y, z'
loop_
 _atom_site_type_symbol
 _atom_site_label
 _atom_site_symmetry_multiplicity
 _atom_site_fract_x
 _atom_site_fract_y
 _atom_site_fract_z
 _atom_site_occupancy
  Li  Li0  1  0.987093  0.992593  0.511776  1
  Li  Li1  1  0.995176  0.489174  0.509915  1
  Li  Li2  1  0.490942  0.997100  0.507932  1
  Li  Li3  1  0.496361  0.492616  0.508490  1
  Mn  Mn4  1  0.997400  0.503437  0.998145  1
  Mn  Mn5  1  0.496404  0.000293  0.001925  1
  Mn  Mn6  1  0.496856  0.500777  -0.000149  1
  Nb  Nb7  1  0.996656  0.001252  0.002153  1
  O  O8  1  0.004855  0.008206  0.255279  1
  O  O9  1  0.993079  0.536473  0.233669  1
  O  O10  1  0.535635  0.001869  0.228143  1
  O  O11  1  0.992384  0.997624  0.741268  1
  O  O12  1  0.460762  0.464134  0.302786  1
  O  O13  1  0.998404  0.466451  0.769877  1
  O  O14  1  0.462619  0.001583  0.769744  1
  O  O15  1  0.531682  0.537933  0.700209  1
