# generated using pymatgen
data_Li4Ti2Cr3Sn3O16
_symmetry_space_group_name_H-M   'P 1'
_cell_length_a   6.10715022
_cell_length_b   6.12252826
_cell_length_c   9.65523254
_cell_angle_alpha   89.96010634
_cell_angle_beta   89.40884636
_cell_angle_gamma   120.07131413
_symmetry_Int_Tables_number   1
_chemical_formula_structural   Li4Ti2Cr3Sn3O16
_chemical_formula_sum   'Li4 Ti2 Cr3 Sn3 O16'
_cell_volume   312.40439791
_cell_formula_units_Z   1
loop_
 _symmetry_equiv_pos_site_id
 _symmetry_equiv_pos_as_xyz
  1  'x, y, z'
loop_
 _atom_site_type_symbol
 _atom_site_label
 _atom_site_symmetry_multiplicity
 _atom_site_fract_x
 _atom_site_fract_y
 _atom_site_fract_z
 _atom_site_occupancy
  Li  Li0  1  0.341957  0.670948  0.889392  1
  Li  Li1  1  0.977135  0.988575  0.990995  1
  Li  Li2  1  0.984082  0.991946  0.500609  1
  Li  Li3  1  0.668841  0.334417  0.398871  1
  Ti  Ti4  1  0.350690  0.675473  0.499935  1
  Ti  Ti5  1  0.686045  0.343101  0.983261  1
  Cr  Cr6  1  0.658071  0.828970  0.214287  1
  Cr  Cr7  1  0.831857  0.659706  0.713873  1
  Cr  Cr8  1  0.831424  0.172057  0.713942  1
  Sn  Sn9  1  0.168304  0.830237  0.214370  1
  Sn  Sn10  1  0.168733  0.338315  0.214518  1
  Sn  Sn11  1  0.340809  0.170388  0.713948  1
  O  O12  1  0.164674  0.830773  0.593686  1
  O  O13  1  0.033965  0.516921  0.345782  1
  O  O14  1  0.341167  0.670753  0.098088  1
  O  O15  1  0.987724  0.993800  0.315178  1
  O  O16  1  0.991541  0.995582  0.806894  1
  O  O17  1  0.164870  0.334134  0.593738  1
  O  O18  1  0.483260  0.957704  0.343921  1
  O  O19  1  0.483371  0.525397  0.344170  1
  O  O20  1  0.325022  0.162814  0.092649  1
  O  O21  1  0.659122  0.829438  0.599803  1
  O  O22  1  0.528599  0.485675  0.844638  1
  O  O23  1  0.528755  0.043012  0.844806  1
  O  O24  1  0.677215  0.338819  0.604257  1
  O  O25  1  0.831563  0.666967  0.096489  1
  O  O26  1  0.959413  0.479570  0.839354  1
  O  O27  1  0.831789  0.164806  0.096385  1
