# generated using pymatgen
data_Sn2N2O
_symmetry_space_group_name_H-M   'P 1'
_cell_length_a   8.84809382
_cell_length_b   8.85839222
_cell_length_c   8.87024964
_cell_angle_alpha   109.59676064
_cell_angle_beta   109.54555089
_cell_angle_gamma   109.29541497
_symmetry_Int_Tables_number   1
_chemical_formula_structural   Sn2N2O
_chemical_formula_sum   'Sn16 N16 O8'
_cell_volume   535.04086148
_cell_formula_units_Z   8
loop_
 _symmetry_equiv_pos_site_id
 _symmetry_equiv_pos_as_xyz
  1  'x, y, z'
loop_
 _atom_site_type_symbol
 _atom_site_label
 _atom_site_symmetry_multiplicity
 _atom_site_fract_x
 _atom_site_fract_y
 _atom_site_fract_z
 _atom_site_occupancy
  Sn  Sn0  1  0.499422  0.993872  0.991503  1
  Sn  Sn1  1  0.757983  0.290919  0.542668  1
  Sn  Sn2  1  0.216314  0.954493  0.250371  1
  Sn  Sn3  1  0.716604  0.463595  0.249603  1
  Sn  Sn4  1  0.250157  0.216688  0.958074  1
  Sn  Sn5  1  0.466921  0.249478  0.723642  1
  Sn  Sn6  1  0.992812  0.504639  0.996934  1
  Sn  Sn7  1  0.969380  0.255704  0.218652  1
  Sn  Sn8  1  0.011093  0.003782  0.512137  1
  Sn  Sn9  1  0.503817  0.508684  0.508637  1
  Sn  Sn10  1  0.025898  0.743105  0.774719  1
  Sn  Sn11  1  0.526028  0.752430  0.280449  1
  Sn  Sn12  1  0.744945  0.784990  0.022794  1
  Sn  Sn13  1  0.779799  0.028113  0.750978  1
  Sn  Sn14  1  0.282279  0.532659  0.748402  1
  Sn  Sn15  1  0.248078  0.713714  0.463340  1
  N  N16  1  0.742495  0.007495  0.967345  1
  N  N17  1  0.506929  0.233807  0.974220  1
  N  N18  1  0.759183  0.531434  0.522382  1
  N  N19  1  0.722703  0.254100  0.761163  1
  N  N20  1  0.235696  0.964945  0.503979  1
  N  N21  1  0.505556  0.771808  0.045511  1
  N  N22  1  0.265731  0.725682  0.222059  1
  N  N23  1  0.951464  0.497607  0.227050  1
  N  N24  1  0.228960  0.450996  0.453955  1
  N  N25  1  0.544582  0.531971  0.768617  1
  N  N26  1  0.958536  0.743019  0.999000  1
  N  N27  1  0.543585  0.774653  0.538170  1
  N  N28  1  0.994556  0.960321  0.736698  1
  N  N29  1  0.227699  0.274542  0.736351  1
  N  N30  1  0.036343  0.495277  0.766861  1
  N  N31  1  0.264398  0.772633  0.727646  1
  O  O32  1  0.280255  0.013796  0.057054  1
  O  O33  1  0.772240  0.040491  0.486644  1
  O  O34  1  0.733938  0.217232  0.279432  1
  O  O35  1  0.997282  0.045497  0.282737  1
  O  O36  1  0.449021  0.464548  0.218272  1
  O  O37  1  0.774361  0.730864  0.278711  1
  O  O38  1  0.455773  0.219734  0.440150  1
  O  O39  1  0.057191  0.280682  0.013090  1
