# generated using pymatgen
data_Li5Nb2Cu5O12
_symmetry_space_group_name_H-M   'P 1'
_cell_length_a   5.19232925
_cell_length_b   5.19232972
_cell_length_c   9.87790888
_cell_angle_alpha   88.84441214
_cell_angle_beta   91.15558896
_cell_angle_gamma   65.74689508
_symmetry_Int_Tables_number   1
_chemical_formula_structural   Li5Nb2Cu5O12
_chemical_formula_sum   'Li5 Nb2 Cu5 O12'
_cell_volume   242.63889701
_cell_formula_units_Z   1
loop_
 _symmetry_equiv_pos_site_id
 _symmetry_equiv_pos_as_xyz
  1  'x, y, z'
loop_
 _atom_site_type_symbol
 _atom_site_label
 _atom_site_symmetry_multiplicity
 _atom_site_fract_x
 _atom_site_fract_y
 _atom_site_fract_z
 _atom_site_occupancy
  Li  Li0  1  0.159171  0.683628  0.502766  1
  Li  Li1  1  0.315925  0.848245  0.990788  1
  Li  Li2  1  0.683628  0.159171  0.997234  1
  Li  Li3  1  0.848245  0.315925  0.509212  1
  Li  Li4  1  0.911224  0.911224  0.750000  1
  Nb  Nb5  1  0.246778  0.246778  0.750000  1
  Nb  Nb6  1  0.740735  0.740735  0.250000  1
  Cu  Cu7  1  0.077584  0.077584  0.250000  1
  Cu  Cu8  1  0.998949  0.510333  0.996911  1
  Cu  Cu9  1  0.510333  0.998949  0.503089  1
  Cu  Cu10  1  0.410984  0.410984  0.250000  1
  Cu  Cu11  1  0.589716  0.589716  0.750000  1
  O  O12  1  0.991482  0.201902  0.884006  1
  O  O13  1  0.201902  0.991482  0.615994  1
  O  O14  1  0.074342  0.417847  0.350275  1
  O  O15  1  0.417847  0.074342  0.149725  1
  O  O16  1  0.307774  0.539382  0.869930  1
  O  O17  1  0.539382  0.307774  0.630070  1
  O  O18  1  0.472943  0.688194  0.378456  1
  O  O19  1  0.688194  0.472943  0.121544  1
  O  O20  1  0.575165  0.922085  0.851327  1
  O  O21  1  0.922085  0.575165  0.648673  1
  O  O22  1  0.809026  0.006583  0.382369  1
  O  O23  1  0.006583  0.809026  0.117631  1
