# generated using pymatgen
data_TeH5O6
_symmetry_space_group_name_H-M   'P 1'
_cell_length_a   6.52801173
_cell_length_b   9.39801437
_cell_length_c   11.43649090
_cell_angle_alpha   90.00000000
_cell_angle_beta   133.70666892
_cell_angle_gamma   90.00000000
_symmetry_Int_Tables_number   1
_chemical_formula_structural   TeH5O6
_chemical_formula_sum   'Te4 H20 O24'
_cell_volume   507.20096341
_cell_formula_units_Z   4
loop_
 _symmetry_equiv_pos_site_id
 _symmetry_equiv_pos_as_xyz
  1  'x, y, z'
loop_
 _atom_site_type_symbol
 _atom_site_label
 _atom_site_symmetry_multiplicity
 _atom_site_fract_x
 _atom_site_fract_y
 _atom_site_fract_z
 _atom_site_occupancy
  Te  Te0  1  0.500000  0.500000  0.500000  1
  Te  Te1  1  0.000000  0.000000  0.000000  1
  Te  Te2  1  0.500000  0.500000  0.000000  1
  Te  Te3  1  0.000000  0.000000  0.500000  1
  H  H4  1  0.268031  0.788975  0.034145  1
  H  H5  1  0.768031  0.711025  0.534145  1
  H  H6  1  0.731969  0.211025  0.965855  1
  H  H7  1  0.231969  0.288975  0.465855  1
  H  H8  1  0.197401  0.610089  0.224253  1
  H  H9  1  0.697401  0.889911  0.724253  1
  H  H10  1  0.802599  0.389911  0.775747  1
  H  H11  1  0.302599  0.110089  0.275747  1
  H  H12  1  0.027512  0.590340  0.374841  1
  H  H13  1  0.527512  0.909660  0.874841  1
  H  H14  1  0.972488  0.409660  0.625159  1
  H  H15  1  0.472488  0.090340  0.125159  1
  H  H16  1  0.551554  0.546076  0.237713  1
  H  H17  1  0.051554  0.953924  0.737713  1
  H  H18  1  0.448446  0.453924  0.762287  1
  H  H19  1  0.948446  0.046076  0.262287  1
  H  H20  1  0.588820  0.835770  0.297475  1
  H  H21  1  0.088820  0.664230  0.797475  1
  H  H22  1  0.411180  0.164230  0.702525  1
  H  H23  1  0.911180  0.335770  0.202525  1
  O  O24  1  0.776014  0.656488  0.612481  1
  O  O25  1  0.276014  0.843512  0.112481  1
  O  O26  1  0.223986  0.343512  0.387519  1
  O  O27  1  0.723986  0.156488  0.887519  1
  O  O28  1  0.377418  0.556742  0.294483  1
  O  O29  1  0.877418  0.943258  0.794483  1
  O  O30  1  0.622582  0.443258  0.705517  1
  O  O31  1  0.122582  0.056742  0.205517  1
  O  O32  1  0.726172  0.877012  0.967172  1
  O  O33  1  0.226172  0.622988  0.467172  1
  O  O34  1  0.273828  0.122988  0.032828  1
  O  O35  1  0.773828  0.377012  0.532828  1
  O  O36  1  0.810464  0.593556  0.040962  1
  O  O37  1  0.310464  0.906444  0.540962  1
  O  O38  1  0.189536  0.406444  0.959038  1
  O  O39  1  0.689536  0.093556  0.459038  1
  O  O40  1  0.177888  0.942386  0.717029  1
  O  O41  1  0.677888  0.557614  0.217029  1
  O  O42  1  0.822112  0.057614  0.282971  1
  O  O43  1  0.322112  0.442386  0.782971  1
  O  O44  1  0.768330  0.826915  0.416402  1
  O  O45  1  0.268330  0.673085  0.916402  1
  O  O46  1  0.231670  0.173085  0.583598  1
  O  O47  1  0.731670  0.326915  0.083598  1
