# generated using pymatgen
data_Mn3Fe(PO4)6
_symmetry_space_group_name_H-M   'P 1'
_cell_length_a   8.78523751
_cell_length_b   8.78523811
_cell_length_c   8.78523807
_cell_angle_alpha   58.15645790
_cell_angle_beta   58.15646533
_cell_angle_gamma   58.15646357
_symmetry_Int_Tables_number   1
_chemical_formula_structural   Mn3Fe(PO4)6
_chemical_formula_sum   'Mn3 Fe1 P6 O24'
_cell_volume   459.19429334
_cell_formula_units_Z   1
loop_
 _symmetry_equiv_pos_site_id
 _symmetry_equiv_pos_as_xyz
  1  'x, y, z'
loop_
 _atom_site_type_symbol
 _atom_site_label
 _atom_site_symmetry_multiplicity
 _atom_site_fract_x
 _atom_site_fract_y
 _atom_site_fract_z
 _atom_site_occupancy
  Mn  Mn0  1  0.144914  0.144914  0.144914  1
  Mn  Mn1  1  0.355351  0.355351  0.355351  1
  Mn  Mn2  1  0.645801  0.645801  0.645801  1
  Fe  Fe3  1  0.857366  0.857366  0.857366  1
  P  P4  1  0.035536  0.750424  0.463208  1
  P  P5  1  0.463208  0.035536  0.750424  1
  P  P6  1  0.750424  0.463208  0.035536  1
  P  P7  1  0.254488  0.531920  0.966087  1
  P  P8  1  0.531920  0.966087  0.254488  1
  P  P9  1  0.966087  0.254488  0.531920  1
  O  O10  1  0.139778  0.278056  0.508808  1
  O  O11  1  0.278056  0.508808  0.139778  1
  O  O12  1  0.060375  0.926141  0.278021  1
  O  O13  1  0.508808  0.139778  0.278056  1
  O  O14  1  0.221026  0.576311  0.433454  1
  O  O15  1  0.013410  0.772747  0.634264  1
  O  O16  1  0.278021  0.060375  0.926141  1
  O  O17  1  0.433454  0.221026  0.576311  1
  O  O18  1  0.576311  0.433454  0.221026  1
  O  O19  1  0.228833  0.359048  0.988446  1
  O  O20  1  0.081704  0.713333  0.940683  1
  O  O21  1  0.359048  0.988446  0.228833  1
  O  O22  1  0.634264  0.013410  0.772747  1
  O  O23  1  0.926141  0.278021  0.060375  1
  O  O24  1  0.772747  0.634264  0.013410  1
  O  O25  1  0.430158  0.555952  0.781533  1
  O  O26  1  0.555952  0.781533  0.430158  1
  O  O27  1  0.713333  0.940683  0.081704  1
  O  O28  1  0.988446  0.228833  0.359048  1
  O  O29  1  0.781533  0.430158  0.555952  1
  O  O30  1  0.484872  0.862252  0.725697  1
  O  O31  1  0.940683  0.081704  0.713333  1
  O  O32  1  0.725697  0.484872  0.862252  1
  O  O33  1  0.862252  0.725697  0.484872  1
