# generated using pymatgen
data_Fe5O7F3
_symmetry_space_group_name_H-M   'P 1'
_cell_length_a   4.65786833
_cell_length_b   4.66366956
_cell_length_c   15.28141225
_cell_angle_alpha   89.81745380
_cell_angle_beta   90.29120374
_cell_angle_gamma   91.60146675
_symmetry_Int_Tables_number   1
_chemical_formula_structural   Fe5O7F3
_chemical_formula_sum   'Fe10 O14 F6'
_cell_volume   331.81894590
_cell_formula_units_Z   2
loop_
 _symmetry_equiv_pos_site_id
 _symmetry_equiv_pos_as_xyz
  1  'x, y, z'
loop_
 _atom_site_type_symbol
 _atom_site_label
 _atom_site_symmetry_multiplicity
 _atom_site_fract_x
 _atom_site_fract_y
 _atom_site_fract_z
 _atom_site_occupancy
  Fe  Fe0  1  0.997917  0.993954  -0.000082  1
  Fe  Fe1  1  0.013662  0.022934  0.203518  1
  Fe  Fe2  1  0.026650  0.010317  0.394495  1
  Fe  Fe3  1  0.011303  0.979407  0.600057  1
  Fe  Fe4  1  0.012489  0.984242  0.800199  1
  Fe  Fe5  1  0.522522  0.460056  0.092966  1
  Fe  Fe6  1  0.469365  0.512397  0.506669  1
  Fe  Fe7  1  0.484550  0.482774  0.299426  1
  Fe  Fe8  1  0.482545  0.513507  0.701789  1
  Fe  Fe9  1  0.476142  0.520629  0.899691  1
  O  O10  1  0.204820  0.804863  0.297337  1
  O  O11  1  0.187554  0.816643  0.497999  1
  O  O12  1  0.184545  0.807176  0.702148  1
  O  O13  1  0.180765  0.812802  0.903561  1
  O  O14  1  0.299994  0.296715  0.995723  1
  O  O15  1  0.325066  0.305187  0.195101  1
  O  O16  1  0.308879  0.319540  0.403803  1
  O  O17  1  0.296985  0.303921  0.605347  1
  O  O18  1  0.302037  0.309070  0.800969  1
  O  O19  1  0.696664  0.691214  0.997374  1
  O  O20  1  0.687744  0.694383  0.603179  1
  O  O21  1  0.686688  0.694147  0.800818  1
  O  O22  1  0.824140  0.176872  0.096923  1
  O  O23  1  0.808288  0.201751  0.301094  1
  F  F24  1  0.207253  0.793039  0.099217  1
  F  F25  1  0.709267  0.693296  0.196811  1
  F  F26  1  0.698931  0.704970  0.402513  1
  F  F27  1  0.797824  0.202595  0.501339  1
  F  F28  1  0.796248  0.196743  0.898854  1
  F  F29  1  0.799165  0.194855  0.701158  1
