# generated using pymatgen
data_Mo3H9Br3(ClO)4
_symmetry_space_group_name_H-M   'P 1'
_cell_length_a   18.23086612
_cell_length_b   10.25244381
_cell_length_c   9.87623591
_cell_angle_alpha   90.00000000
_cell_angle_beta   100.63409397
_cell_angle_gamma   90.00000000
_symmetry_Int_Tables_number   1
_chemical_formula_structural   Mo3H9Br3(ClO)4
_chemical_formula_sum   'Mo12 H36 Br12 Cl16 O16'
_cell_volume   1814.27311786
_cell_formula_units_Z   4
loop_
 _symmetry_equiv_pos_site_id
 _symmetry_equiv_pos_as_xyz
  1  'x, y, z'
loop_
 _atom_site_type_symbol
 _atom_site_label
 _atom_site_symmetry_multiplicity
 _atom_site_fract_x
 _atom_site_fract_y
 _atom_site_fract_z
 _atom_site_occupancy
  Mo  Mo0  1  0.502975  0.790446  0.891880  1
  Mo  Mo1  1  0.997025  0.290446  0.108120  1
  Mo  Mo2  1  0.497025  0.209554  0.108120  1
  Mo  Mo3  1  0.002975  0.709554  0.891880  1
  Mo  Mo4  1  0.498410  0.106589  0.789423  1
  Mo  Mo5  1  0.001590  0.606589  0.210577  1
  Mo  Mo6  1  0.501590  0.893411  0.210577  1
  Mo  Mo7  1  0.998410  0.393411  0.789423  1
  Mo  Mo8  1  0.637820  0.003528  0.046649  1
  Mo  Mo9  1  0.862180  0.503528  0.953351  1
  Mo  Mo10  1  0.362180  0.996472  0.953351  1
  Mo  Mo11  1  0.137820  0.496472  0.046649  1
  H  H12  1  0.354805  0.754044  0.365939  1
  H  H13  1  0.145195  0.254044  0.634061  1
  H  H14  1  0.645195  0.245956  0.634061  1
  H  H15  1  0.854805  0.745956  0.365939  1
  H  H16  1  0.708383  0.322347  0.734506  1
  H  H17  1  0.791617  0.822347  0.265494  1
  H  H18  1  0.291617  0.677653  0.265494  1
  H  H19  1  0.208383  0.177653  0.734506  1
  H  H20  1  0.244701  0.164522  0.390336  1
  H  H21  1  0.255299  0.664522  0.609664  1
  H  H22  1  0.755299  0.835478  0.609664  1
  H  H23  1  0.744701  0.335478  0.390336  1
  H  H24  1  0.303617  0.291770  0.454989  1
  H  H25  1  0.196383  0.791770  0.545011  1
  H  H26  1  0.696383  0.708230  0.545011  1
  H  H27  1  0.803617  0.208230  0.454989  1
  H  H28  1  0.259857  0.727079  0.447102  1
  H  H29  1  0.240143  0.227079  0.552898  1
  H  H30  1  0.740143  0.272921  0.552898  1
  H  H31  1  0.759857  0.772921  0.447102  1
  H  H32  1  0.854264  0.928941  0.749492  1
  H  H33  1  0.645736  0.428941  0.250508  1
  H  H34  1  0.145736  0.071059  0.250508  1
  H  H35  1  0.354264  0.571059  0.749492  1
  H  H36  1  0.781675  0.951709  0.811355  1
  H  H37  1  0.718325  0.451709  0.188645  1
  H  H38  1  0.218325  0.048291  0.188645  1
  H  H39  1  0.281675  0.548291  0.811355  1
  H  H40  1  0.623256  0.586251  0.644165  1
  H  H41  1  0.876744  0.086251  0.355835  1
  H  H42  1  0.376744  0.413749  0.355835  1
  H  H43  1  0.123256  0.913749  0.644165  1
  H  H44  1  0.604238  0.580292  0.484288  1
  H  H45  1  0.895762  0.080292  0.515712  1
  H  H46  1  0.395762  0.419708  0.515712  1
  H  H47  1  0.104238  0.919708  0.484288  1
  Br  Br48  1  0.493775  0.561534  0.765400  1
  Br  Br49  1  0.006225  0.061534  0.234600  1
  Br  Br50  1  0.506225  0.438466  0.234600  1
  Br  Br51  1  0.993775  0.938466  0.765400  1
  Br  Br52  1  0.517038  0.228123  0.563711  1
  Br  Br53  1  0.982962  0.728123  0.436289  1
  Br  Br54  1  0.482962  0.771877  0.436289  1
  Br  Br55  1  0.017038  0.271877  0.563711  1
  Br  Br56  1  0.781632  0.008926  0.084900  1
  Br  Br57  1  0.718368  0.508926  0.915100  1
  Br  Br58  1  0.218368  0.991074  0.915100  1
  Br  Br59  1  0.281632  0.491074  0.084900  1
  Cl  Cl60  1  0.599153  0.924123  0.782457  1
  Cl  Cl61  1  0.900847  0.424123  0.217543  1
  Cl  Cl62  1  0.400847  0.075877  0.217543  1
  Cl  Cl63  1  0.099153  0.575877  0.782457  1
  Cl  Cl64  1  0.598313  0.750903  0.116973  1
  Cl  Cl65  1  0.901687  0.250903  0.883027  1
  Cl  Cl66  1  0.401687  0.249097  0.883027  1
  Cl  Cl67  1  0.098313  0.749097  0.116973  1
  Cl  Cl68  1  0.402936  0.919998  0.717757  1
  Cl  Cl69  1  0.097064  0.419998  0.282243  1
  Cl  Cl70  1  0.597064  0.080002  0.282243  1
  Cl  Cl71  1  0.902936  0.580002  0.717757  1
  Cl  Cl72  1  0.408744  0.747323  0.051452  1
  Cl  Cl73  1  0.091256  0.247323  0.948548  1
  Cl  Cl74  1  0.591256  0.252677  0.948548  1
  Cl  Cl75  1  0.908744  0.752677  0.051452  1
  O  O76  1  0.300135  0.746478  0.335654  1
  O  O77  1  0.199865  0.246478  0.664346  1
  O  O78  1  0.699865  0.253522  0.664346  1
  O  O79  1  0.800135  0.753522  0.335654  1
  O  O80  1  0.227270  0.712199  0.524856  1
  O  O81  1  0.272730  0.212199  0.475144  1
  O  O82  1  0.772730  0.287801  0.475144  1
  O  O83  1  0.727270  0.787801  0.524856  1
  O  O84  1  0.299839  0.579231  0.730159  1
  O  O85  1  0.200161  0.079231  0.269841  1
  O  O86  1  0.700161  0.420769  0.269841  1
  O  O87  1  0.799839  0.920769  0.730159  1
  O  O88  1  0.146220  0.910802  0.561929  1
  O  O89  1  0.353780  0.410802  0.438071  1
  O  O90  1  0.853780  0.089198  0.438071  1
  O  O91  1  0.646220  0.589198  0.561929  1
