# generated using pymatgen
data_Rb2PrO3
_symmetry_space_group_name_H-M   'P 1'
_cell_length_a   6.79889055
_cell_length_b   6.79889055
_cell_length_c   12.20921918
_cell_angle_alpha   78.90767081
_cell_angle_beta   101.09232919
_cell_angle_gamma   71.47600589
_symmetry_Int_Tables_number   1
_chemical_formula_structural   Rb2PrO3
_chemical_formula_sum   'Rb8 Pr4 O12'
_cell_volume   505.26677152
_cell_formula_units_Z   4
loop_
 _symmetry_equiv_pos_site_id
 _symmetry_equiv_pos_as_xyz
  1  'x, y, z'
loop_
 _atom_site_type_symbol
 _atom_site_label
 _atom_site_symmetry_multiplicity
 _atom_site_fract_x
 _atom_site_fract_y
 _atom_site_fract_z
 _atom_site_occupancy
  Rb  Rb0  1  0.120052  0.633401  0.742711  1
  Rb  Rb1  1  0.366599  0.879948  0.242711  1
  Rb  Rb2  1  0.050043  0.206168  0.594741  1
  Rb  Rb3  1  0.206168  0.050043  0.905259  1
  Rb  Rb4  1  0.793832  0.949957  0.094741  1
  Rb  Rb5  1  0.949957  0.793832  0.405259  1
  Rb  Rb6  1  0.633401  0.120052  0.757289  1
  Rb  Rb7  1  0.879948  0.366599  0.257289  1
  Pr  Pr8  1  0.711239  0.538490  0.922190  1
  Pr  Pr9  1  0.538490  0.711239  0.577810  1
  Pr  Pr10  1  0.461510  0.288761  0.422190  1
  Pr  Pr11  1  0.288761  0.461510  0.077810  1
  O  O12  1  0.447967  0.804751  0.750148  1
  O  O13  1  0.726471  0.962716  0.553883  1
  O  O14  1  0.481779  0.328143  0.945445  1
  O  O15  1  0.328143  0.481779  0.554555  1
  O  O16  1  0.962716  0.726471  0.946117  1
  O  O17  1  0.195249  0.552033  0.250148  1
  O  O18  1  0.804751  0.447967  0.749852  1
  O  O19  1  0.037284  0.273529  0.053883  1
  O  O20  1  0.671857  0.518221  0.445445  1
  O  O21  1  0.518221  0.671857  0.054555  1
  O  O22  1  0.273529  0.037284  0.446117  1
  O  O23  1  0.552033  0.195249  0.249852  1
