# generated using pymatgen
data_Ba2YCl7
_symmetry_space_group_name_H-M   'P 1'
_cell_length_a   13.29102459
_cell_length_b   11.16274003
_cell_length_c   14.74555729
_cell_angle_alpha   90.00000000
_cell_angle_beta   143.86434134
_cell_angle_gamma   90.00000000
_symmetry_Int_Tables_number   1
_chemical_formula_structural   Ba2YCl7
_chemical_formula_sum   'Ba8 Y4 Cl28'
_cell_volume   1290.09273995
_cell_formula_units_Z   4
loop_
 _symmetry_equiv_pos_site_id
 _symmetry_equiv_pos_as_xyz
  1  'x, y, z'
loop_
 _atom_site_type_symbol
 _atom_site_label
 _atom_site_symmetry_multiplicity
 _atom_site_fract_x
 _atom_site_fract_y
 _atom_site_fract_z
 _atom_site_occupancy
  Ba  Ba0  1  0.233757  0.205743  0.764760  1
  Ba  Ba1  1  0.634110  0.283340  0.837855  1
  Ba  Ba2  1  0.365890  0.783340  0.662145  1
  Ba  Ba3  1  0.233757  0.294257  0.264760  1
  Ba  Ba4  1  0.766243  0.705743  0.735240  1
  Ba  Ba5  1  0.634110  0.216660  0.337855  1
  Ba  Ba6  1  0.365890  0.716660  0.162145  1
  Ba  Ba7  1  0.766243  0.794257  0.235240  1
  Y  Y8  1  0.045962  0.589083  0.677631  1
  Y  Y9  1  0.045962  0.910917  0.177631  1
  Y  Y10  1  0.954038  0.089083  0.822369  1
  Y  Y11  1  0.954038  0.410917  0.322369  1
  Cl  Cl12  1  0.066455  0.557316  0.875237  1
  Cl  Cl13  1  0.058697  0.866281  0.865938  1
  Cl  Cl14  1  0.251279  0.199418  0.991136  1
  Cl  Cl15  1  0.211215  0.467370  0.660697  1
  Cl  Cl16  1  0.066455  0.942684  0.375237  1
  Cl  Cl17  1  0.453377  0.054825  0.799593  1
  Cl  Cl18  1  0.075839  0.789006  0.599179  1
  Cl  Cl19  1  0.622793  0.341212  0.042349  1
  Cl  Cl20  1  0.058697  0.633719  0.365938  1
  Cl  Cl21  1  0.251279  0.300582  0.491136  1
  Cl  Cl22  1  0.377207  0.841212  0.457651  1
  Cl  Cl23  1  0.924161  0.289006  0.900821  1
  Cl  Cl24  1  0.546623  0.554825  0.700407  1
  Cl  Cl25  1  0.211215  0.032630  0.160697  1
  Cl  Cl26  1  0.788785  0.967370  0.839303  1
  Cl  Cl27  1  0.453377  0.445175  0.299593  1
  Cl  Cl28  1  0.075839  0.710994  0.099179  1
  Cl  Cl29  1  0.622793  0.158788  0.542349  1
  Cl  Cl30  1  0.748721  0.699418  0.508864  1
  Cl  Cl31  1  0.941303  0.366281  0.634062  1
  Cl  Cl32  1  0.377207  0.658788  0.957651  1
  Cl  Cl33  1  0.924161  0.210994  0.400821  1
  Cl  Cl34  1  0.546623  0.945175  0.200407  1
  Cl  Cl35  1  0.933545  0.057316  0.624763  1
  Cl  Cl36  1  0.788785  0.532630  0.339303  1
  Cl  Cl37  1  0.748721  0.800582  0.008864  1
  Cl  Cl38  1  0.941303  0.133719  0.134062  1
  Cl  Cl39  1  0.933545  0.442684  0.124763  1
