# generated using pymatgen
data_P(H3C)3
_symmetry_space_group_name_H-M   'P 1'
_cell_length_a   21.97809140
_cell_length_b   9.28288744
_cell_length_c   5.32588282
_cell_angle_alpha   90.00000000
_cell_angle_beta   90.00000000
_cell_angle_gamma   90.00000000
_symmetry_Int_Tables_number   1
_chemical_formula_structural   P(H3C)3
_chemical_formula_sum   'P8 H72 C24'
_cell_volume   1086.58740443
_cell_formula_units_Z   8
loop_
 _symmetry_equiv_pos_site_id
 _symmetry_equiv_pos_as_xyz
  1  'x, y, z'
loop_
 _atom_site_type_symbol
 _atom_site_label
 _atom_site_symmetry_multiplicity
 _atom_site_fract_x
 _atom_site_fract_y
 _atom_site_fract_z
 _atom_site_occupancy
  P  P0  1  0.023091  0.250000  0.594194  1
  P  P1  1  0.229040  0.250000  0.426726  1
  P  P2  1  0.270960  0.750000  0.926726  1
  P  P3  1  0.476909  0.750000  0.094194  1
  P  P4  1  0.523091  0.250000  0.905806  1
  P  P5  1  0.729040  0.250000  0.073274  1
  P  P6  1  0.770960  0.750000  0.573274  1
  P  P7  1  0.976909  0.750000  0.405806  1
  H  H8  1  0.039132  0.995903  0.707675  1
  H  H9  1  0.039132  0.504097  0.707675  1
  H  H10  1  0.051721  0.112255  0.971153  1
  H  H11  1  0.051721  0.387745  0.971153  1
  H  H12  1  0.051110  0.750000  0.051683  1
  H  H13  1  0.078847  0.654182  0.318964  1
  H  H14  1  0.078847  0.845818  0.318964  1
  H  H15  1  0.107919  0.097063  0.730721  1
  H  H16  1  0.107919  0.402937  0.730721  1
  H  H17  1  0.146901  0.088180  0.292824  1
  H  H18  1  0.146901  0.411820  0.292824  1
  H  H19  1  0.168959  0.654397  0.847704  1
  H  H20  1  0.168959  0.845603  0.847704  1
  H  H21  1  0.196871  0.750000  0.578428  1
  H  H22  1  0.202209  0.107699  0.048282  1
  H  H23  1  0.202209  0.392301  0.048282  1
  H  H24  1  0.217697  0.503711  0.314695  1
  H  H25  1  0.217697  0.996289  0.314695  1
  H  H26  1  0.282303  0.003711  0.814695  1
  H  H27  1  0.282303  0.496289  0.814695  1
  H  H28  1  0.297791  0.607699  0.548282  1
  H  H29  1  0.297791  0.892301  0.548282  1
  H  H30  1  0.303129  0.250000  0.078428  1
  H  H31  1  0.331041  0.154397  0.347704  1
  H  H32  1  0.331041  0.345603  0.347704  1
  H  H33  1  0.353099  0.588180  0.792824  1
  H  H34  1  0.353099  0.911820  0.792824  1
  H  H35  1  0.392081  0.597063  0.230721  1
  H  H36  1  0.392081  0.902937  0.230721  1
  H  H37  1  0.421153  0.154182  0.818964  1
  H  H38  1  0.421153  0.345818  0.818964  1
  H  H39  1  0.448890  0.250000  0.551683  1
  H  H40  1  0.448279  0.612255  0.471153  1
  H  H41  1  0.448279  0.887745  0.471153  1
  H  H42  1  0.460868  0.495903  0.207675  1
  H  H43  1  0.460868  0.004097  0.207675  1
  H  H44  1  0.539132  0.995903  0.792325  1
  H  H45  1  0.539132  0.504097  0.792325  1
  H  H46  1  0.551721  0.112255  0.528847  1
  H  H47  1  0.551721  0.387745  0.528847  1
  H  H48  1  0.551110  0.750000  0.448317  1
  H  H49  1  0.578847  0.654182  0.181036  1
  H  H50  1  0.578847  0.845818  0.181036  1
  H  H51  1  0.607919  0.097063  0.769279  1
  H  H52  1  0.607919  0.402937  0.769279  1
  H  H53  1  0.646901  0.088180  0.207176  1
  H  H54  1  0.646901  0.411820  0.207176  1
  H  H55  1  0.668959  0.654397  0.652296  1
  H  H56  1  0.668959  0.845603  0.652296  1
  H  H57  1  0.696871  0.750000  0.921572  1
  H  H58  1  0.702209  0.107699  0.451718  1
  H  H59  1  0.702209  0.392301  0.451718  1
  H  H60  1  0.717697  0.503711  0.185305  1
  H  H61  1  0.717697  0.996289  0.185305  1
  H  H62  1  0.782303  0.003711  0.685305  1
  H  H63  1  0.782303  0.496289  0.685305  1
  H  H64  1  0.797791  0.607699  0.951718  1
  H  H65  1  0.797791  0.892301  0.951718  1
  H  H66  1  0.803129  0.250000  0.421572  1
  H  H67  1  0.831041  0.154397  0.152296  1
  H  H68  1  0.831041  0.345603  0.152296  1
  H  H69  1  0.853099  0.588180  0.707176  1
  H  H70  1  0.853099  0.911820  0.707176  1
  H  H71  1  0.892081  0.597063  0.269279  1
  H  H72  1  0.892081  0.902937  0.269279  1
  H  H73  1  0.921153  0.154182  0.681036  1
  H  H74  1  0.921153  0.345818  0.681036  1
  H  H75  1  0.948890  0.250000  0.948317  1
  H  H76  1  0.948279  0.612255  0.028847  1
  H  H77  1  0.948279  0.887745  0.028847  1
  H  H78  1  0.960868  0.495903  0.292325  1
  H  H79  1  0.960868  0.004097  0.292325  1
  C  C80  1  0.053362  0.750000  0.257983  1
  C  C81  1  0.058634  0.099286  0.767966  1
  C  C82  1  0.058634  0.400714  0.767966  1
  C  C83  1  0.195801  0.096699  0.252078  1
  C  C84  1  0.195801  0.403301  0.252078  1
  C  C85  1  0.194220  0.750000  0.784699  1
  C  C86  1  0.305780  0.250000  0.284699  1
  C  C87  1  0.304199  0.596699  0.752078  1
  C  C88  1  0.304199  0.903301  0.752078  1
  C  C89  1  0.441366  0.599286  0.267966  1
  C  C90  1  0.441366  0.900714  0.267966  1
  C  C91  1  0.446638  0.250000  0.757983  1
  C  C92  1  0.553362  0.750000  0.242017  1
  C  C93  1  0.558634  0.099286  0.732034  1
  C  C94  1  0.558634  0.400714  0.732034  1
  C  C95  1  0.695801  0.096699  0.247922  1
  C  C96  1  0.695801  0.403301  0.247922  1
  C  C97  1  0.694220  0.750000  0.715301  1
  C  C98  1  0.805780  0.250000  0.215301  1
  C  C99  1  0.804199  0.596699  0.747922  1
  C  C100  1  0.804199  0.903301  0.747922  1
  C  C101  1  0.941366  0.599286  0.232034  1
  C  C102  1  0.941366  0.900714  0.232034  1
  C  C103  1  0.946638  0.250000  0.742017  1
