# generated using pymatgen
data_Li12MnNi3P4(CO7)4
_symmetry_space_group_name_H-M   'P 1'
_cell_length_a   8.37387714
_cell_length_b   9.98027934
_cell_length_c   6.46179125
_cell_angle_alpha   90.00000000
_cell_angle_beta   90.00000000
_cell_angle_gamma   85.24840660
_symmetry_Int_Tables_number   1
_chemical_formula_structural   Li12MnNi3P4(CO7)4
_chemical_formula_sum   'Li12 Mn1 Ni3 P4 C4 O28'
_cell_volume   538.17937614
_cell_formula_units_Z   1
loop_
 _symmetry_equiv_pos_site_id
 _symmetry_equiv_pos_as_xyz
  1  'x, y, z'
loop_
 _atom_site_type_symbol
 _atom_site_label
 _atom_site_symmetry_multiplicity
 _atom_site_fract_x
 _atom_site_fract_y
 _atom_site_fract_z
 _atom_site_occupancy
  Li  Li0  1  0.099166  0.382542  0.250000  1
  Li  Li1  1  0.092403  0.881394  0.250000  1
  Li  Li2  1  0.276704  0.123682  0.021302  1
  Li  Li3  1  0.276704  0.123682  0.478698  1
  Li  Li4  1  0.274890  0.622771  0.021255  1
  Li  Li5  1  0.274890  0.622771  0.478745  1
  Li  Li6  1  0.723071  0.374330  0.521685  1
  Li  Li7  1  0.723071  0.374330  0.978315  1
  Li  Li8  1  0.724467  0.878862  0.522319  1
  Li  Li9  1  0.724467  0.878862  0.977681  1
  Li  Li10  1  0.902892  0.117447  0.750000  1
  Li  Li11  1  0.902430  0.616567  0.750000  1
  Mn  Mn12  1  0.659286  0.611243  0.250000  1
  Ni  Ni13  1  0.332570  0.395577  0.750000  1
  Ni  Ni14  1  0.331924  0.897165  0.750000  1
  Ni  Ni15  1  0.666903  0.102876  0.250000  1
  P  P16  1  0.414778  0.356822  0.250000  1
  P  P17  1  0.409869  0.864564  0.250000  1
  P  P18  1  0.584515  0.138988  0.750000  1
  P  P19  1  0.585129  0.638191  0.750000  1
  C  C20  1  0.039813  0.351398  0.750000  1
  C  C21  1  0.039483  0.851641  0.750000  1
  C  C22  1  0.959852  0.148989  0.250000  1
  C  C23  1  0.969010  0.649000  0.250000  1
  O  O24  1  0.076530  0.475016  0.750000  1
  O  O25  1  0.106998  0.179630  0.250000  1
  O  O26  1  0.075540  0.975320  0.750000  1
  O  O27  1  0.156814  0.257003  0.750000  1
  O  O28  1  0.117039  0.678641  0.250000  1
  O  O29  1  0.157061  0.757591  0.750000  1
  O  O30  1  0.310402  0.409405  0.063283  1
  O  O31  1  0.310402  0.409405  0.436717  1
  O  O32  1  0.307506  0.917301  0.062515  1
  O  O33  1  0.307506  0.917301  0.437485  1
  O  O34  1  0.417769  0.084270  0.750000  1
  O  O35  1  0.435771  0.199627  0.250000  1
  O  O36  1  0.418344  0.583212  0.750000  1
  O  O37  1  0.426288  0.707966  0.250000  1
  O  O38  1  0.561188  0.295809  0.750000  1
  O  O39  1  0.582543  0.409398  0.250000  1
  O  O40  1  0.561076  0.795112  0.750000  1
  O  O41  1  0.581423  0.912204  0.250000  1
  O  O42  1  0.690191  0.088068  0.936698  1
  O  O43  1  0.690191  0.088068  0.563302  1
  O  O44  1  0.691538  0.586938  0.565454  1
  O  O45  1  0.691538  0.586938  0.934546  1
  O  O46  1  0.842651  0.243176  0.250000  1
  O  O47  1  0.892495  0.320465  0.750000  1
  O  O48  1  0.855653  0.746614  0.250000  1
  O  O49  1  0.922630  0.025458  0.250000  1
  O  O50  1  0.892285  0.820360  0.750000  1
  O  O51  1  0.932341  0.526006  0.250000  1
