# generated using pymatgen
data_LiBi(PO3)4
_symmetry_space_group_name_H-M   'P 1'
_cell_length_a   7.31411741
_cell_length_b   7.31411741
_cell_length_c   10.58125617
_cell_angle_alpha   78.23651232
_cell_angle_beta   101.76348768
_cell_angle_gamma   67.00320862
_symmetry_Int_Tables_number   1
_chemical_formula_structural   LiBi(PO3)4
_chemical_formula_sum   'Li2 Bi2 P8 O24'
_cell_volume   484.22478506
_cell_formula_units_Z   2
loop_
 _symmetry_equiv_pos_site_id
 _symmetry_equiv_pos_as_xyz
  1  'x, y, z'
loop_
 _atom_site_type_symbol
 _atom_site_label
 _atom_site_symmetry_multiplicity
 _atom_site_fract_x
 _atom_site_fract_y
 _atom_site_fract_z
 _atom_site_occupancy
  Li  Li0  1  0.135555  0.135555  0.750000  1
  Li  Li1  1  0.864445  0.864445  0.250000  1
  Bi  Bi2  1  0.872628  0.872628  0.750000  1
  Bi  Bi3  1  0.127372  0.127372  0.250000  1
  P  P4  1  0.242521  0.689046  0.549054  1
  P  P5  1  0.726659  0.621146  0.010443  1
  P  P6  1  0.621146  0.726659  0.489557  1
  P  P7  1  0.310954  0.757479  0.049054  1
  P  P8  1  0.689046  0.242521  0.950946  1
  P  P9  1  0.378854  0.273341  0.510443  1
  P  P10  1  0.273341  0.378854  0.989557  1
  P  P11  1  0.757479  0.310954  0.450946  1
  O  O12  1  0.190306  0.895289  0.903352  1
  O  O13  1  0.069081  0.503326  0.876168  1
  O  O14  1  0.184717  0.761908  0.663313  1
  O  O15  1  0.104711  0.809694  0.403352  1
  O  O16  1  0.700783  0.806951  0.902516  1
  O  O17  1  0.496674  0.930919  0.376168  1
  O  O18  1  0.657897  0.479027  0.935665  1
  O  O19  1  0.285415  0.447992  0.582622  1
  O  O20  1  0.238092  0.815283  0.163313  1
  O  O21  1  0.447992  0.285415  0.917378  1
  O  O22  1  0.479027  0.657897  0.564335  1
  O  O23  1  0.193049  0.299217  0.402516  1
  O  O24  1  0.806951  0.700783  0.597484  1
  O  O25  1  0.520973  0.342103  0.435665  1
  O  O26  1  0.552008  0.714585  0.082622  1
  O  O27  1  0.761908  0.184717  0.836687  1
  O  O28  1  0.714585  0.552008  0.417378  1
  O  O29  1  0.342103  0.520973  0.064335  1
  O  O30  1  0.503326  0.069081  0.623832  1
  O  O31  1  0.299217  0.193049  0.097484  1
  O  O32  1  0.895289  0.190306  0.596648  1
  O  O33  1  0.815283  0.238092  0.336687  1
  O  O34  1  0.930919  0.496674  0.123832  1
  O  O35  1  0.809694  0.104711  0.096648  1
