# generated using pymatgen
data_Li4Fe2Cu3Sb3O16
_symmetry_space_group_name_H-M   'P 1'
_cell_length_a   6.14257448
_cell_length_b   6.03978913
_cell_length_c   9.70462824
_cell_angle_alpha   90.00821797
_cell_angle_beta   88.31582344
_cell_angle_gamma   119.39527117
_symmetry_Int_Tables_number   1
_chemical_formula_structural   Li4Fe2Cu3Sb3O16
_chemical_formula_sum   'Li4 Fe2 Cu3 Sb3 O16'
_cell_volume   313.50898907
_cell_formula_units_Z   1
loop_
 _symmetry_equiv_pos_site_id
 _symmetry_equiv_pos_as_xyz
  1  'x, y, z'
loop_
 _atom_site_type_symbol
 _atom_site_label
 _atom_site_symmetry_multiplicity
 _atom_site_fract_x
 _atom_site_fract_y
 _atom_site_fract_z
 _atom_site_occupancy
  Li  Li0  1  0.342060  0.671060  0.898668  1
  Li  Li1  1  0.017802  0.008533  0.006469  1
  Li  Li2  1  0.040261  0.020192  0.485321  1
  Li  Li3  1  0.673734  0.336725  0.383522  1
  Fe  Fe4  1  0.297730  0.649026  0.476500  1
  Fe  Fe5  1  0.643554  0.321526  0.005032  1
  Cu  Cu6  1  0.166162  0.829507  0.211395  1
  Cu  Cu7  1  0.166028  0.336724  0.211611  1
  Cu  Cu8  1  0.339049  0.169731  0.717626  1
  Sb  Sb9  1  0.653705  0.826836  0.216574  1
  Sb  Sb10  1  0.831185  0.661953  0.714477  1
  Sb  Sb11  1  0.831266  0.169347  0.714421  1
  O  O12  1  0.154027  0.832993  0.602315  1
  O  O13  1  0.040532  0.520558  0.338957  1
  O  O14  1  0.337048  0.669037  0.108255  1
  O  O15  1  0.991247  0.995183  0.301842  1
  O  O16  1  0.970205  0.985087  0.822487  1
  O  O17  1  0.154147  0.320994  0.602343  1
  O  O18  1  0.494605  0.966225  0.350046  1
  O  O19  1  0.492867  0.527034  0.349407  1
  O  O20  1  0.326253  0.162818  0.098545  1
  O  O21  1  0.693486  0.846799  0.600171  1
  O  O22  1  0.524375  0.484412  0.835482  1
  O  O23  1  0.524410  0.040166  0.835488  1
  O  O24  1  0.703620  0.351869  0.595236  1
  O  O25  1  0.810031  0.664179  0.094396  1
  O  O26  1  0.969396  0.484655  0.836320  1
  O  O27  1  0.811218  0.147128  0.094937  1
