# generated using pymatgen
data_Li5SbS4
_symmetry_space_group_name_H-M   'P 1'
_cell_length_a   15.08927331
_cell_length_b   6.20361827
_cell_length_c   17.61006042
_cell_angle_alpha   90.00000000
_cell_angle_beta   90.00000000
_cell_angle_gamma   90.00000000
_symmetry_Int_Tables_number   1
_chemical_formula_structural   Li5SbS4
_chemical_formula_sum   'Li40 Sb8 S32'
_cell_volume   1648.44414865
_cell_formula_units_Z   8
loop_
 _symmetry_equiv_pos_site_id
 _symmetry_equiv_pos_as_xyz
  1  'x, y, z'
loop_
 _atom_site_type_symbol
 _atom_site_label
 _atom_site_symmetry_multiplicity
 _atom_site_fract_x
 _atom_site_fract_y
 _atom_site_fract_z
 _atom_site_occupancy
  Li  Li0  1  0.080187  0.108284  0.413444  1
  Li  Li1  1  0.080187  0.391716  0.913444  1
  Li  Li2  1  0.143880  0.670619  0.740052  1
  Li  Li3  1  0.143880  0.829381  0.240052  1
  Li  Li4  1  0.168128  0.658319  0.496421  1
  Li  Li5  1  0.168128  0.841681  0.996421  1
  Li  Li6  1  0.221778  0.468339  0.334445  1
  Li  Li7  1  0.221778  0.031661  0.834445  1
  Li  Li8  1  0.217035  0.530272  0.123082  1
  Li  Li9  1  0.217035  0.969728  0.623082  1
  Li  Li10  1  0.282965  0.030272  0.123082  1
  Li  Li11  1  0.282965  0.469728  0.623082  1
  Li  Li12  1  0.278222  0.968339  0.334445  1
  Li  Li13  1  0.278222  0.531661  0.834445  1
  Li  Li14  1  0.331872  0.158320  0.496421  1
  Li  Li15  1  0.331872  0.341680  0.996421  1
  Li  Li16  1  0.356120  0.329381  0.240052  1
  Li  Li17  1  0.356120  0.170619  0.740052  1
  Li  Li18  1  0.419813  0.891716  0.913444  1
  Li  Li19  1  0.419813  0.608284  0.413444  1
  Li  Li20  1  0.580187  0.108284  0.086556  1
  Li  Li21  1  0.580187  0.391716  0.586556  1
  Li  Li22  1  0.643880  0.829381  0.259948  1
  Li  Li23  1  0.643880  0.670619  0.759948  1
  Li  Li24  1  0.668128  0.658319  0.003579  1
  Li  Li25  1  0.668128  0.841681  0.503579  1
  Li  Li26  1  0.721778  0.468339  0.165555  1
  Li  Li27  1  0.721778  0.031661  0.665555  1
  Li  Li28  1  0.717035  0.530272  0.376918  1
  Li  Li29  1  0.717035  0.969728  0.876918  1
  Li  Li30  1  0.782965  0.030272  0.376918  1
  Li  Li31  1  0.782965  0.469728  0.876918  1
  Li  Li32  1  0.778222  0.531661  0.665555  1
  Li  Li33  1  0.778222  0.968339  0.165555  1
  Li  Li34  1  0.831872  0.158320  0.003579  1
  Li  Li35  1  0.831872  0.341680  0.503579  1
  Li  Li36  1  0.856120  0.329381  0.259948  1
  Li  Li37  1  0.856120  0.170619  0.759948  1
  Li  Li38  1  0.919813  0.891716  0.586556  1
  Li  Li39  1  0.919813  0.608284  0.086556  1
  Sb  Sb40  1  0.065183  0.162934  0.124763  1
  Sb  Sb41  1  0.065183  0.337066  0.624763  1
  Sb  Sb42  1  0.434817  0.662934  0.124763  1
  Sb  Sb43  1  0.434817  0.837066  0.624763  1
  Sb  Sb44  1  0.565183  0.337066  0.875237  1
  Sb  Sb45  1  0.565183  0.162934  0.375237  1
  Sb  Sb46  1  0.934817  0.662934  0.375237  1
  Sb  Sb47  1  0.934817  0.837066  0.875237  1
  S  S48  1  0.073591  0.756882  0.116007  1
  S  S49  1  0.073591  0.743118  0.616007  1
  S  S50  1  0.170006  0.262191  0.518796  1
  S  S51  1  0.170006  0.237809  0.018796  1
  S  S52  1  0.185067  0.218514  0.222101  1
  S  S53  1  0.185067  0.281486  0.722101  1
  S  S54  1  0.145913  0.779804  0.371720  1
  S  S55  1  0.145913  0.720196  0.871720  1
  S  S56  1  0.354087  0.220196  0.871720  1
  S  S57  1  0.354087  0.279804  0.371720  1
  S  S58  1  0.314933  0.718514  0.222101  1
  S  S59  1  0.314933  0.781486  0.722101  1
  S  S60  1  0.329994  0.737809  0.018796  1
  S  S61  1  0.329994  0.762191  0.518796  1
  S  S62  1  0.426409  0.256882  0.116007  1
  S  S63  1  0.426409  0.243118  0.616007  1
  S  S64  1  0.573591  0.743118  0.883993  1
  S  S65  1  0.573591  0.756882  0.383993  1
  S  S66  1  0.670006  0.262191  0.981204  1
  S  S67  1  0.670006  0.237809  0.481204  1
  S  S68  1  0.685067  0.218514  0.277899  1
  S  S69  1  0.685067  0.281486  0.777899  1
  S  S70  1  0.645913  0.779804  0.128280  1
  S  S71  1  0.645913  0.720196  0.628280  1
  S  S72  1  0.854087  0.220196  0.628280  1
  S  S73  1  0.854087  0.279804  0.128280  1
  S  S74  1  0.814933  0.718514  0.277899  1
  S  S75  1  0.814933  0.781486  0.777899  1
  S  S76  1  0.829994  0.737809  0.481204  1
  S  S77  1  0.829994  0.762191  0.981204  1
  S  S78  1  0.926409  0.256882  0.383993  1
  S  S79  1  0.926409  0.243118  0.883993  1
