# generated using pymatgen
data_K2B4H8O11
_symmetry_space_group_name_H-M   'P 1'
_cell_length_a   13.06382874
_cell_length_b   11.78642226
_cell_length_c   6.95675235
_cell_angle_alpha   90.00000000
_cell_angle_beta   90.00000000
_cell_angle_gamma   90.00000000
_symmetry_Int_Tables_number   1
_chemical_formula_structural   K2B4H8O11
_chemical_formula_sum   'K8 B16 H32 O44'
_cell_volume   1071.17152145
_cell_formula_units_Z   4
loop_
 _symmetry_equiv_pos_site_id
 _symmetry_equiv_pos_as_xyz
  1  'x, y, z'
loop_
 _atom_site_type_symbol
 _atom_site_label
 _atom_site_symmetry_multiplicity
 _atom_site_fract_x
 _atom_site_fract_y
 _atom_site_fract_z
 _atom_site_occupancy
  K  K0  1  0.134082  0.672654  0.719000  1
  K  K1  1  0.211177  0.096721  0.464993  1
  K  K2  1  0.288823  0.903279  0.964993  1
  K  K3  1  0.365918  0.327346  0.219000  1
  K  K4  1  0.634082  0.827346  0.281000  1
  K  K5  1  0.711177  0.403279  0.535007  1
  K  K6  1  0.788823  0.596721  0.035007  1
  K  K7  1  0.865918  0.172654  0.781000  1
  B  B8  1  0.042049  0.914477  0.113422  1
  B  B9  1  0.049520  0.706644  0.150013  1
  B  B10  1  0.094775  0.317598  0.213055  1
  B  B11  1  0.131678  0.401885  0.531901  1
  B  B12  1  0.368322  0.598115  0.031901  1
  B  B13  1  0.405225  0.682402  0.713055  1
  B  B14  1  0.450480  0.293356  0.650013  1
  B  B15  1  0.457951  0.085523  0.613422  1
  B  B16  1  0.542049  0.585523  0.886578  1
  B  B17  1  0.549520  0.793356  0.849987  1
  B  B18  1  0.594775  0.182402  0.786945  1
  B  B19  1  0.631678  0.098115  0.468099  1
  B  B20  1  0.868322  0.901885  0.968099  1
  B  B21  1  0.905225  0.817598  0.286946  1
  B  B22  1  0.950480  0.206644  0.349987  1
  B  B23  1  0.957951  0.414477  0.386578  1
  H  H24  1  0.047036  0.918413  0.727297  1
  H  H25  1  0.065753  0.532729  0.154573  1
  H  H26  1  0.054956  0.903956  0.502837  1
  H  H27  1  0.089967  0.075625  0.150672  1
  H  H28  1  0.105796  0.219817  0.856529  1
  H  H29  1  0.089411  0.090833  0.834413  1
  H  H30  1  0.165663  0.374543  0.964191  1
  H  H31  1  0.229215  0.586433  0.150194  1
  H  H32  1  0.270785  0.413567  0.650194  1
  H  H33  1  0.334337  0.625457  0.464191  1
  H  H34  1  0.410589  0.909167  0.334413  1
  H  H35  1  0.394204  0.780183  0.356529  1
  H  H36  1  0.410033  0.924375  0.650672  1
  H  H37  1  0.445044  0.096044  0.002837  1
  H  H38  1  0.434247  0.467271  0.654573  1
  H  H39  1  0.452964  0.081587  0.227297  1
  H  H40  1  0.547036  0.581587  0.272703  1
  H  H41  1  0.554956  0.596044  0.497163  1
  H  H42  1  0.565753  0.967271  0.845427  1
  H  H43  1  0.589967  0.424375  0.849328  1
  H  H44  1  0.605796  0.280183  0.143471  1
  H  H45  1  0.589411  0.409167  0.165587  1
  H  H46  1  0.665663  0.125457  0.035809  1
  H  H47  1  0.729215  0.913567  0.849806  1
  H  H48  1  0.770785  0.086433  0.349806  1
  H  H49  1  0.834337  0.874543  0.535809  1
  H  H50  1  0.910589  0.590833  0.665587  1
  H  H51  1  0.894204  0.719817  0.643471  1
  H  H52  1  0.910033  0.575625  0.349328  1
  H  H53  1  0.934247  0.032729  0.345427  1
  H  H54  1  0.945044  0.403956  0.997163  1
  H  H55  1  0.952964  0.418413  0.772703  1
  O  O56  1  0.018105  0.409508  0.204335  1
  O  O57  1  0.031624  0.438128  0.549006  1
  O  O58  1  0.040968  0.206170  0.247721  1
  O  O59  1  0.082218  0.161660  0.761695  1
  O  O60  1  0.093403  0.803527  0.078414  1
  O  O61  1  0.101215  0.605686  0.114250  1
  O  O62  1  0.097035  0.905377  0.623075  1
  O  O63  1  0.120952  0.001404  0.118719  1
  O  O64  1  0.153969  0.304389  0.036065  1
  O  O65  1  0.165916  0.338268  0.378825  1
  O  O66  1  0.198425  0.436435  0.675588  1
  O  O67  1  0.301575  0.563565  0.175588  1
  O  O68  1  0.334084  0.661732  0.878825  1
  O  O69  1  0.346031  0.695611  0.536065  1
  O  O70  1  0.379048  0.998596  0.618719  1
  O  O71  1  0.402965  0.094623  0.123075  1
  O  O72  1  0.398785  0.394314  0.614250  1
  O  O73  1  0.406597  0.196473  0.578414  1
  O  O74  1  0.417782  0.838340  0.261695  1
  O  O75  1  0.459032  0.793830  0.747721  1
  O  O76  1  0.468376  0.561872  0.049006  1
  O  O77  1  0.481895  0.590492  0.704335  1
  O  O78  1  0.518105  0.090492  0.795665  1
  O  O79  1  0.531624  0.061872  0.450994  1
  O  O80  1  0.540968  0.293830  0.752279  1
  O  O81  1  0.582218  0.338340  0.238305  1
  O  O82  1  0.593403  0.696473  0.921586  1
  O  O83  1  0.601215  0.894314  0.885750  1
  O  O84  1  0.597035  0.594623  0.376925  1
  O  O85  1  0.620952  0.498596  0.881281  1
  O  O86  1  0.653969  0.195611  0.963935  1
  O  O87  1  0.665916  0.161732  0.621175  1
  O  O88  1  0.698425  0.063565  0.324412  1
  O  O89  1  0.801575  0.936435  0.824412  1
  O  O90  1  0.834084  0.838268  0.121175  1
  O  O91  1  0.846031  0.804389  0.463935  1
  O  O92  1  0.879048  0.501404  0.381281  1
  O  O93  1  0.902965  0.405376  0.876925  1
  O  O94  1  0.898785  0.105686  0.385750  1
  O  O95  1  0.906597  0.303527  0.421586  1
  O  O96  1  0.917782  0.661660  0.738305  1
  O  O97  1  0.959032  0.706170  0.252279  1
  O  O98  1  0.968376  0.938128  0.950994  1
  O  O99  1  0.981895  0.909508  0.295665  1
