# generated using pymatgen
data_Li2Cr(CO3)2
_symmetry_space_group_name_H-M   'P 1'
_cell_length_a   5.25310467
_cell_length_b   6.85305240
_cell_length_c   7.84752423
_cell_angle_alpha   89.99905622
_cell_angle_beta   89.99922884
_cell_angle_gamma   71.12623697
_symmetry_Int_Tables_number   1
_chemical_formula_structural   Li2Cr(CO3)2
_chemical_formula_sum   'Li4 Cr2 C4 O12'
_cell_volume   267.31980307
_cell_formula_units_Z   2
loop_
 _symmetry_equiv_pos_site_id
 _symmetry_equiv_pos_as_xyz
  1  'x, y, z'
loop_
 _atom_site_type_symbol
 _atom_site_label
 _atom_site_symmetry_multiplicity
 _atom_site_fract_x
 _atom_site_fract_y
 _atom_site_fract_z
 _atom_site_occupancy
  Li  Li0  1  0.632740  0.769996  0.928051  1
  Li  Li1  1  0.867222  0.730004  0.428053  1
  Li  Li2  1  0.132770  0.269986  0.571931  1
  Li  Li3  1  0.367201  0.230017  0.071944  1
  Cr  Cr4  1  0.499956  0.500078  0.500044  1
  Cr  Cr5  1  0.000015  -0.000090  0.999908  1
  C  C6  1  0.306288  0.849046  0.271206  1
  C  C7  1  0.194010  0.650954  0.771231  1
  C  C8  1  0.806398  0.349028  0.228749  1
  C  C9  1  0.693978  0.150965  0.728718  1
  O  O10  1  0.385118  0.908496  0.126297  1
  O  O11  1  0.023249  0.715304  0.894784  1
  O  O12  1  0.476713  0.784722  0.394777  1
  O  O13  1  0.114863  0.591481  0.626278  1
  O  O14  1  0.058740  0.858979  0.284277  1
  O  O15  1  0.441037  0.641023  0.784245  1
  O  O16  1  0.558642  0.358985  0.215733  1
  O  O17  1  0.941096  0.141023  0.715746  1
  O  O18  1  0.885125  0.408515  0.373745  1
  O  O19  1  0.523311  0.215241  0.605256  1
  O  O20  1  0.976644  0.284785  0.105268  1
  O  O21  1  0.614878  0.091468  0.873760  1
