# generated using pymatgen
data_MnOF
_symmetry_space_group_name_H-M   'P 1'
_cell_length_a   4.81381341
_cell_length_b   18.96361720
_cell_length_c   3.08853016
_cell_angle_alpha   90.00000000
_cell_angle_beta   90.00000000
_cell_angle_gamma   92.63743766
_symmetry_Int_Tables_number   1
_chemical_formula_structural   MnOF
_chemical_formula_sum   'Mn8 O8 F8'
_cell_volume   281.64496672
_cell_formula_units_Z   8
loop_
 _symmetry_equiv_pos_site_id
 _symmetry_equiv_pos_as_xyz
  1  'x, y, z'
loop_
 _atom_site_type_symbol
 _atom_site_label
 _atom_site_symmetry_multiplicity
 _atom_site_fract_x
 _atom_site_fract_y
 _atom_site_fract_z
 _atom_site_occupancy
  Mn  Mn0  1  0.958193  0.999934  0.000000  1
  Mn  Mn1  1  0.132211  0.249198  0.000000  1
  Mn  Mn2  1  0.020822  0.499458  0.000000  1
  Mn  Mn3  1  0.917183  0.749430  0.000000  1
  Mn  Mn4  1  0.554093  0.126078  0.500000  1
  Mn  Mn5  1  0.574752  0.374717  0.500000  1
  Mn  Mn6  1  0.471849  0.623571  0.500000  1
  Mn  Mn7  1  0.369166  0.873716  0.500000  1
  O  O8  1  0.294345  0.202000  0.500000  1
  O  O9  1  0.122322  0.951820  0.500000  1
  O  O10  1  0.297532  0.574572  0.000000  1
  O  O11  1  0.393212  0.325999  0.000000  1
  O  O12  1  0.198735  0.825341  0.000000  1
  O  O13  1  0.742783  0.424952  0.000000  1
  O  O14  1  0.644712  0.673621  0.000000  1
  O  O15  1  0.804340  0.050412  0.500000  1
  F  F16  1  0.220532  0.451223  0.500000  1
  F  F17  1  0.124349  0.704333  0.500000  1
  F  F18  1  0.334432  0.080586  0.000000  1
  F  F19  1  0.787151  0.176617  0.000000  1
  F  F20  1  0.597198  0.920452  0.000000  1
  F  F21  1  0.913602  0.295096  0.500000  1
  F  F22  1  0.819447  0.547126  0.500000  1
  F  F23  1  0.707040  0.799752  0.500000  1
