# generated using pymatgen
data_Li3Fe4(BO3)4
_symmetry_space_group_name_H-M   'P 1'
_cell_length_a   5.25396062
_cell_length_b   5.24686335
_cell_length_c   20.27961697
_cell_angle_alpha   88.60893981
_cell_angle_beta   89.98070411
_cell_angle_gamma   60.16279188
_symmetry_Int_Tables_number   1
_chemical_formula_structural   Li3Fe4(BO3)4
_chemical_formula_sum   'Li6 Fe8 B8 O24'
_cell_volume   484.75154932
_cell_formula_units_Z   2
loop_
 _symmetry_equiv_pos_site_id
 _symmetry_equiv_pos_as_xyz
  1  'x, y, z'
loop_
 _atom_site_type_symbol
 _atom_site_label
 _atom_site_symmetry_multiplicity
 _atom_site_fract_x
 _atom_site_fract_y
 _atom_site_fract_z
 _atom_site_occupancy
  Li  Li0  1  0.343430  0.675101  0.918871  1
  Li  Li1  1  0.326082  0.652837  0.169621  1
  Li  Li2  1  0.352051  0.670272  0.418785  1
  Li  Li3  1  0.649502  0.341604  0.790267  1
  Li  Li4  1  0.661608  0.341052  0.546440  1
  Li  Li5  1  0.668495  0.343141  0.047695  1
  Fe  Fe6  1  0.998472  0.676538  0.808981  1
  Fe  Fe7  1  0.987973  0.675079  0.308403  1
  Fe  Fe8  1  0.673744  0.007666  0.935122  1
  Fe  Fe9  1  0.683717  0.003833  0.434559  1
  Fe  Fe10  1  0.323792  0.989372  0.560841  1
  Fe  Fe11  1  0.324322  0.006214  0.059536  1
  Fe  Fe12  1  0.007538  0.329780  0.682375  1
  Fe  Fe13  1  0.991354  0.321011  0.186834  1
  B  B14  1  0.000943  0.337607  0.936404  1
  B  B15  1  0.007828  0.333024  0.436201  1
  B  B16  1  0.333166  0.004624  0.810185  1
  B  B17  1  0.328334  0.007124  0.312727  1
  B  B18  1  0.666813  -0.000644  0.685882  1
  B  B19  1  0.658273  0.000082  0.185955  1
  B  B20  1  0.995289  0.667096  0.560949  1
  B  B21  1  0.996867  0.671396  0.061568  1
  O  O22  1  0.073034  0.253565  0.787378  1
  O  O23  1  0.097224  0.275180  0.291017  1
  O  O24  1  0.254506  0.069611  0.950823  1
  O  O25  1  0.019122  0.584708  0.916633  1
  O  O26  1  0.262721  0.071163  0.452540  1
  O  O27  1  0.026534  0.578333  0.413477  1
  O  O28  1  0.577385  0.031504  0.825495  1
  O  O29  1  0.265240  0.644007  0.557673  1
  O  O30  1  0.597616  0.981819  0.328967  1
  O  O31  1  0.266711  0.657359  0.067614  1
  O  O32  1  0.346491  0.735570  0.818493  1
  O  O33  1  0.292456  0.766181  0.320494  1
  O  O34  1  0.695221  0.245384  0.690184  1
  O  O35  1  0.647488  0.265345  0.181473  1
  O  O36  1  0.727746  0.358621  0.942820  1
  O  O37  1  0.402377  0.023155  0.666480  1
  O  O38  1  0.736062  0.355153  0.444588  1
  O  O39  1  0.416607  0.972476  0.169092  1
  O  O40  1  0.969193  0.419412  0.581605  1
  O  O41  1  0.978641  0.420529  0.077238  1
  O  O42  1  0.740920  0.926657  0.542804  1
  O  O43  1  0.746532  0.931934  0.041965  1
  O  O44  1  0.901454  0.725421  0.703954  1
  O  O45  1  0.923739  0.746055  0.207471  1
