# generated using pymatgen
data_CsVH24(SO10)2
_symmetry_space_group_name_H-M   'P 1'
_cell_length_a   12.52485478
_cell_length_b   12.52485478
_cell_length_c   12.52485478
_cell_angle_alpha   90.00000000
_cell_angle_beta   90.00000000
_cell_angle_gamma   90.00000000
_symmetry_Int_Tables_number   1
_chemical_formula_structural   CsVH24(SO10)2
_chemical_formula_sum   'Cs4 V4 H96 S8 O80'
_cell_volume   1964.79885948
_cell_formula_units_Z   4
loop_
 _symmetry_equiv_pos_site_id
 _symmetry_equiv_pos_as_xyz
  1  'x, y, z'
loop_
 _atom_site_type_symbol
 _atom_site_label
 _atom_site_symmetry_multiplicity
 _atom_site_fract_x
 _atom_site_fract_y
 _atom_site_fract_z
 _atom_site_occupancy
  Cs  Cs0  1  0.000000  0.000000  0.500000  1
  Cs  Cs1  1  0.000000  0.500000  0.000000  1
  Cs  Cs2  1  0.500000  0.000000  0.000000  1
  Cs  Cs3  1  0.500000  0.500000  0.500000  1
  V  V4  1  0.500000  0.500000  0.000000  1
  V  V5  1  0.500000  0.000000  0.500000  1
  V  V6  1  0.000000  0.500000  0.500000  1
  V  V7  1  0.000000  0.000000  0.000000  1
  H  H8  1  0.219716  0.507663  0.231273  1
  H  H9  1  0.780284  0.007663  0.268727  1
  H  H10  1  0.280284  0.492337  0.731273  1
  H  H11  1  0.719716  0.992337  0.768727  1
  H  H12  1  0.231273  0.219716  0.507663  1
  H  H13  1  0.268727  0.780284  0.007663  1
  H  H14  1  0.731273  0.280284  0.492337  1
  H  H15  1  0.768727  0.719716  0.992337  1
  H  H16  1  0.507663  0.231273  0.219716  1
  H  H17  1  0.007663  0.268727  0.780284  1
  H  H18  1  0.492337  0.731273  0.280284  1
  H  H19  1  0.992337  0.768727  0.719716  1
  H  H20  1  0.780284  0.492337  0.768727  1
  H  H21  1  0.219716  0.992337  0.731273  1
  H  H22  1  0.719716  0.507663  0.268727  1
  H  H23  1  0.280284  0.007663  0.231273  1
  H  H24  1  0.768727  0.780284  0.492337  1
  H  H25  1  0.731273  0.219716  0.992337  1
  H  H26  1  0.268727  0.719716  0.507663  1
  H  H27  1  0.231273  0.280284  0.007663  1
  H  H28  1  0.492337  0.768727  0.780284  1
  H  H29  1  0.992337  0.731273  0.219716  1
  H  H30  1  0.507663  0.268727  0.719716  1
  H  H31  1  0.007663  0.231273  0.280284  1
  H  H32  1  0.181056  0.625901  0.222507  1
  H  H33  1  0.818944  0.125901  0.277493  1
  H  H34  1  0.318944  0.374099  0.722507  1
  H  H35  1  0.681056  0.874099  0.777493  1
  H  H36  1  0.222507  0.181056  0.625901  1
  H  H37  1  0.277493  0.818944  0.125901  1
  H  H38  1  0.722507  0.318944  0.374099  1
  H  H39  1  0.777493  0.681056  0.874099  1
  H  H40  1  0.625901  0.222507  0.181056  1
  H  H41  1  0.125901  0.277493  0.818944  1
  H  H42  1  0.374099  0.722507  0.318944  1
  H  H43  1  0.874099  0.777493  0.681056  1
  H  H44  1  0.818944  0.374099  0.777493  1
  H  H45  1  0.181056  0.874099  0.722507  1
  H  H46  1  0.681056  0.625901  0.277493  1
  H  H47  1  0.318944  0.125901  0.222507  1
  H  H48  1  0.777493  0.818944  0.374099  1
  H  H49  1  0.722507  0.181056  0.874099  1
  H  H50  1  0.277493  0.681056  0.625901  1
  H  H51  1  0.222507  0.318944  0.125901  1
  H  H52  1  0.374099  0.777493  0.818944  1
  H  H53  1  0.874099  0.722507  0.181056  1
  H  H54  1  0.625901  0.277493  0.681056  1
  H  H55  1  0.125901  0.222507  0.318944  1
  H  H56  1  0.478930  0.708981  0.936859  1
  H  H57  1  0.521070  0.208981  0.563141  1
  H  H58  1  0.021070  0.291019  0.436859  1
  H  H59  1  0.978930  0.791019  0.063141  1
  H  H60  1  0.936859  0.478930  0.708981  1
  H  H61  1  0.563141  0.521070  0.208981  1
  H  H62  1  0.436859  0.021070  0.291019  1
  H  H63  1  0.063141  0.978930  0.791019  1
  H  H64  1  0.708981  0.936859  0.478930  1
  H  H65  1  0.208981  0.563141  0.521070  1
  H  H66  1  0.291019  0.436859  0.021070  1
  H  H67  1  0.791019  0.063141  0.978930  1
  H  H68  1  0.521070  0.291019  0.063141  1
  H  H69  1  0.478930  0.791019  0.436859  1
  H  H70  1  0.978930  0.708981  0.563141  1
  H  H71  1  0.021070  0.208981  0.936859  1
  H  H72  1  0.063141  0.521070  0.291019  1
  H  H73  1  0.436859  0.478930  0.791019  1
  H  H74  1  0.563141  0.978930  0.708981  1
  H  H75  1  0.936859  0.021070  0.208981  1
  H  H76  1  0.291019  0.063141  0.521070  1
  H  H77  1  0.791019  0.436859  0.478930  1
  H  H78  1  0.708981  0.563141  0.978930  1
  H  H79  1  0.208981  0.936859  0.021070  1
  H  H80  1  0.525741  0.705443  0.061075  1
  H  H81  1  0.474259  0.205443  0.438925  1
  H  H82  1  0.974259  0.294557  0.561075  1
  H  H83  1  0.025741  0.794557  0.938925  1
  H  H84  1  0.061075  0.525741  0.705443  1
  H  H85  1  0.438925  0.474259  0.205443  1
  H  H86  1  0.561075  0.974259  0.294557  1
  H  H87  1  0.938925  0.025741  0.794557  1
  H  H88  1  0.705443  0.061075  0.525741  1
  H  H89  1  0.205443  0.438925  0.474259  1
  H  H90  1  0.294557  0.561075  0.974259  1
  H  H91  1  0.794557  0.938925  0.025741  1
  H  H92  1  0.474259  0.294557  0.938925  1
  H  H93  1  0.525741  0.794557  0.561075  1
  H  H94  1  0.025741  0.705443  0.438925  1
  H  H95  1  0.974259  0.205443  0.061075  1
  H  H96  1  0.938925  0.474259  0.294557  1
  H  H97  1  0.561075  0.525741  0.794557  1
  H  H98  1  0.438925  0.025741  0.705443  1
  H  H99  1  0.061075  0.974259  0.205443  1
  H  H100  1  0.294557  0.938925  0.474259  1
  H  H101  1  0.794557  0.561075  0.525741  1
  H  H102  1  0.705443  0.438925  0.025741  1
  H  H103  1  0.205443  0.061075  0.974259  1
  S  S104  1  0.172852  0.827148  0.327148  1
  S  S105  1  0.827148  0.327148  0.172852  1
  S  S106  1  0.327148  0.172852  0.827148  1
  S  S107  1  0.672852  0.672852  0.672852  1
  S  S108  1  0.827148  0.172852  0.672852  1
  S  S109  1  0.172852  0.672852  0.827148  1
  S  S110  1  0.672852  0.827148  0.172852  1
  S  S111  1  0.327148  0.327148  0.327148  1
  O  O112  1  0.242021  0.757979  0.257979  1
  O  O113  1  0.757979  0.257979  0.242021  1
  O  O114  1  0.257979  0.242021  0.757979  1
  O  O115  1  0.742021  0.742021  0.742021  1
  O  O116  1  0.757979  0.242021  0.742021  1
  O  O117  1  0.242021  0.742021  0.757979  1
  O  O118  1  0.742021  0.757979  0.242021  1
  O  O119  1  0.257979  0.257979  0.257979  1
  O  O120  1  0.064118  0.778837  0.336622  1
  O  O121  1  0.935882  0.278837  0.163378  1
  O  O122  1  0.435882  0.221163  0.836622  1
  O  O123  1  0.564118  0.721163  0.663378  1
  O  O124  1  0.336622  0.064118  0.778837  1
  O  O125  1  0.163378  0.935882  0.278837  1
  O  O126  1  0.836622  0.435882  0.221163  1
  O  O127  1  0.663378  0.564118  0.721163  1
  O  O128  1  0.778837  0.336622  0.064118  1
  O  O129  1  0.278837  0.163378  0.935882  1
  O  O130  1  0.221163  0.836622  0.435882  1
  O  O131  1  0.721163  0.663378  0.564118  1
  O  O132  1  0.935882  0.221163  0.663378  1
  O  O133  1  0.064118  0.721163  0.836622  1
  O  O134  1  0.564118  0.778837  0.163378  1
  O  O135  1  0.435882  0.278837  0.336622  1
  O  O136  1  0.663378  0.935882  0.221163  1
  O  O137  1  0.836622  0.064118  0.721163  1
  O  O138  1  0.163378  0.564118  0.778837  1
  O  O139  1  0.336622  0.435882  0.278837  1
  O  O140  1  0.221163  0.663378  0.935882  1
  O  O141  1  0.721163  0.836622  0.064118  1
  O  O142  1  0.778837  0.163378  0.564118  1
  O  O143  1  0.278837  0.336622  0.435882  1
  O  O144  1  0.157176  0.551316  0.211071  1
  O  O145  1  0.842824  0.051316  0.288929  1
  O  O146  1  0.342824  0.448684  0.711071  1
  O  O147  1  0.657176  0.948684  0.788929  1
  O  O148  1  0.211071  0.157176  0.551316  1
  O  O149  1  0.288929  0.842824  0.051316  1
  O  O150  1  0.711071  0.342824  0.448684  1
  O  O151  1  0.788929  0.657176  0.948684  1
  O  O152  1  0.551316  0.211071  0.157176  1
  O  O153  1  0.051316  0.288929  0.842824  1
  O  O154  1  0.448684  0.711071  0.342824  1
  O  O155  1  0.948684  0.788929  0.657176  1
  O  O156  1  0.842824  0.448684  0.788929  1
  O  O157  1  0.157176  0.948684  0.711071  1
  O  O158  1  0.657176  0.551316  0.288929  1
  O  O159  1  0.342824  0.051316  0.211071  1
  O  O160  1  0.788929  0.842824  0.448684  1
  O  O161  1  0.711071  0.157176  0.948684  1
  O  O162  1  0.288929  0.657176  0.551316  1
  O  O163  1  0.211071  0.342824  0.051316  1
  O  O164  1  0.448684  0.788929  0.842824  1
  O  O165  1  0.948684  0.711071  0.157176  1
  O  O166  1  0.551316  0.288929  0.657176  1
  O  O167  1  0.051316  0.211071  0.342824  1
  O  O168  1  0.501192  0.661421  0.999056  1
  O  O169  1  0.498808  0.161421  0.500944  1
  O  O170  1  0.998808  0.338579  0.499056  1
  O  O171  1  0.001192  0.838579  0.000944  1
  O  O172  1  0.999056  0.501192  0.661421  1
  O  O173  1  0.500944  0.498808  0.161421  1
  O  O174  1  0.499056  0.998808  0.338579  1
  O  O175  1  0.000944  0.001192  0.838579  1
  O  O176  1  0.661421  0.999056  0.501192  1
  O  O177  1  0.161421  0.500944  0.498808  1
  O  O178  1  0.338579  0.499056  0.998808  1
  O  O179  1  0.838579  0.000944  0.001192  1
  O  O180  1  0.498808  0.338579  0.000944  1
  O  O181  1  0.501192  0.838579  0.499056  1
  O  O182  1  0.001192  0.661421  0.500944  1
  O  O183  1  0.998808  0.161421  0.999056  1
  O  O184  1  0.000944  0.498808  0.338579  1
  O  O185  1  0.499056  0.501192  0.838579  1
  O  O186  1  0.500944  0.001192  0.661421  1
  O  O187  1  0.999056  0.998808  0.161421  1
  O  O188  1  0.338579  0.000944  0.498808  1
  O  O189  1  0.838579  0.499056  0.501192  1
  O  O190  1  0.661421  0.500944  0.001192  1
  O  O191  1  0.161421  0.999056  0.998808  1
