# generated using pymatgen
data_Ti5PO11
_symmetry_space_group_name_H-M   'P 1'
_cell_length_a   7.74413256
_cell_length_b   13.98367833
_cell_length_c   7.61551138
_cell_angle_alpha   90.00000000
_cell_angle_beta   99.50053130
_cell_angle_gamma   90.00000000
_symmetry_Int_Tables_number   1
_chemical_formula_structural   Ti5PO11
_chemical_formula_sum   'Ti20 P4 O44'
_cell_volume   813.38337960
_cell_formula_units_Z   4
loop_
 _symmetry_equiv_pos_site_id
 _symmetry_equiv_pos_as_xyz
  1  'x, y, z'
loop_
 _atom_site_type_symbol
 _atom_site_label
 _atom_site_symmetry_multiplicity
 _atom_site_fract_x
 _atom_site_fract_y
 _atom_site_fract_z
 _atom_site_occupancy
  Ti  Ti0  1  0.046985  0.673685  0.788168  1
  Ti  Ti1  1  0.083120  0.168679  0.558833  1
  Ti  Ti2  1  0.189396  0.326965  0.934624  1
  Ti  Ti3  1  0.209048  0.995638  0.766004  1
  Ti  Ti4  1  0.159926  0.844358  0.138814  1
  Ti  Ti5  1  0.290952  0.495638  0.733996  1
  Ti  Ti6  1  0.310604  0.826965  0.565376  1
  Ti  Ti7  1  0.340074  0.344358  0.361186  1
  Ti  Ti8  1  0.416880  0.668679  0.941167  1
  Ti  Ti9  1  0.453015  0.173685  0.711832  1
  Ti  Ti10  1  0.546985  0.826315  0.288168  1
  Ti  Ti11  1  0.583121  0.331321  0.058833  1
  Ti  Ti12  1  0.659926  0.655642  0.638814  1
  Ti  Ti13  1  0.689396  0.173035  0.434624  1
  Ti  Ti14  1  0.709048  0.504362  0.266004  1
  Ti  Ti15  1  0.840074  0.155642  0.861186  1
  Ti  Ti16  1  0.790952  0.004362  0.233996  1
  Ti  Ti17  1  0.810604  0.673035  0.065376  1
  Ti  Ti18  1  0.916879  0.831321  0.441167  1
  Ti  Ti19  1  0.953015  0.326315  0.211832  1
  P  P20  1  0.364284  0.119861  0.124273  1
  P  P21  1  0.135716  0.619861  0.375727  1
  P  P22  1  0.864284  0.380139  0.624273  1
  P  P23  1  0.635716  0.880139  0.875727  1
  O  O24  1  0.013138  0.743987  0.005728  1
  O  O25  1  0.029348  0.090718  0.769067  1
  O  O26  1  0.056147  0.406497  0.748657  1
  O  O27  1  0.096315  0.905740  0.595767  1
  O  O28  1  0.103992  0.589476  0.573919  1
  O  O29  1  0.181814  0.927418  0.970139  1
  O  O30  1  0.125748  0.259142  0.383639  1
  O  O31  1  0.121539  0.741524  0.385051  1
  O  O32  1  0.217444  0.583328  0.915806  1
  O  O33  1  0.246617  0.243418  0.748521  1
  O  O34  1  0.167686  0.390275  0.159691  1
  O  O35  1  0.253383  0.743418  0.751479  1
  O  O36  1  0.282556  0.083328  0.584194  1
  O  O37  1  0.318186  0.427418  0.529861  1
  O  O38  1  0.396008  0.089476  0.926081  1
  O  O39  1  0.403685  0.405740  0.904233  1
  O  O40  1  0.332314  0.890275  0.340309  1
  O  O41  1  0.443853  0.906497  0.751343  1
  O  O42  1  0.378461  0.241524  0.114949  1
  O  O43  1  0.374252  0.759142  0.116361  1
  O  O44  1  0.470652  0.590718  0.730933  1
  O  O45  1  0.486862  0.243987  0.494272  1
  O  O46  1  0.513138  0.756013  0.505728  1
  O  O47  1  0.529348  0.409282  0.269067  1
  O  O48  1  0.625748  0.240858  0.883639  1
  O  O49  1  0.621539  0.758476  0.885051  1
  O  O50  1  0.556147  0.093503  0.248657  1
  O  O51  1  0.667686  0.109725  0.659691  1
  O  O52  1  0.596315  0.594260  0.095767  1
  O  O53  1  0.603992  0.910524  0.073919  1
  O  O54  1  0.681814  0.572582  0.470139  1
  O  O55  1  0.717444  0.916672  0.415806  1
  O  O56  1  0.746617  0.256582  0.248521  1
  O  O57  1  0.832314  0.609725  0.840309  1
  O  O58  1  0.753383  0.756582  0.251479  1
  O  O59  1  0.782556  0.416672  0.084194  1
  O  O60  1  0.878461  0.258476  0.614949  1
  O  O61  1  0.874252  0.740858  0.616361  1
  O  O62  1  0.818186  0.072582  0.029861  1
  O  O63  1  0.896008  0.410524  0.426081  1
  O  O64  1  0.903685  0.094260  0.404233  1
  O  O65  1  0.943853  0.593503  0.251343  1
  O  O66  1  0.970652  0.909282  0.230933  1
  O  O67  1  0.986862  0.256013  0.994272  1
