# generated using pymatgen
data_LiTaWO6
_symmetry_space_group_name_H-M   'P 1'
_cell_length_a   7.37454644
_cell_length_b   7.34087698
_cell_length_c   7.37454644
_cell_angle_alpha   119.84908253
_cell_angle_beta   119.59896973
_cell_angle_gamma   60.15091747
_symmetry_Int_Tables_number   1
_chemical_formula_structural   LiTaWO6
_chemical_formula_sum   'Li2 Ta2 W2 O12'
_cell_volume   283.78896340
_cell_formula_units_Z   2
loop_
 _symmetry_equiv_pos_site_id
 _symmetry_equiv_pos_as_xyz
  1  'x, y, z'
loop_
 _atom_site_type_symbol
 _atom_site_label
 _atom_site_symmetry_multiplicity
 _atom_site_fract_x
 _atom_site_fract_y
 _atom_site_fract_z
 _atom_site_occupancy
  Li  Li0  1  0.125000  0.625000  0.375000  1
  Li  Li1  1  0.625000  0.625000  0.875000  1
  Ta  Ta2  1  0.125000  0.625000  0.875000  1
  Ta  Ta3  1  0.125000  0.125000  0.875000  1
  W  W4  1  0.125000  0.125000  0.375000  1
  W  W5  1  0.625000  0.125000  0.875000  1
  O  O6  1  0.441685  0.434873  0.935425  1
  O  O7  1  0.441685  0.058867  0.935425  1
  O  O8  1  0.185425  0.815127  0.191685  1
  O  O9  1  0.185425  0.191133  0.191685  1
  O  O10  1  0.431687  0.068313  0.568313  1
  O  O11  1  0.050700  0.449300  0.949300  1
  O  O12  1  0.818313  0.181687  0.181687  1
  O  O13  1  0.199300  0.800700  0.800700  1
  O  O14  1  0.064575  0.434873  0.558315  1
  O  O15  1  0.808315  0.191133  0.814575  1
  O  O16  1  0.808315  0.815127  0.814575  1
  O  O17  1  0.064575  0.058867  0.558315  1
