# generated using pymatgen
data_SrSm2O4
_symmetry_space_group_name_H-M   'P 1'
_cell_length_a   7.10186778
_cell_length_b   7.13726912
_cell_length_c   7.10186778
_cell_angle_alpha   60.16393797
_cell_angle_beta   90.00000000
_cell_angle_gamma   119.83606203
_symmetry_Int_Tables_number   1
_chemical_formula_structural   SrSm2O4
_chemical_formula_sum   'Sr2 Sm4 O8'
_cell_volume   255.79992133
_cell_formula_units_Z   2
loop_
 _symmetry_equiv_pos_site_id
 _symmetry_equiv_pos_as_xyz
  1  'x, y, z'
loop_
 _atom_site_type_symbol
 _atom_site_label
 _atom_site_symmetry_multiplicity
 _atom_site_fract_x
 _atom_site_fract_y
 _atom_site_fract_z
 _atom_site_occupancy
  Sr  Sr0  1  0.625000  0.750000  0.125000  1
  Sr  Sr1  1  0.375000  0.250000  0.875000  1
  Sm  Sm2  1  0.000000  0.500000  0.000000  1
  Sm  Sm3  1  0.500000  0.000000  0.500000  1
  Sm  Sm4  1  0.000000  0.000000  0.500000  1
  Sm  Sm5  1  0.000000  0.500000  0.500000  1
  O  O6  1  0.766976  0.033920  0.262225  1
  O  O7  1  0.762225  0.466080  0.266945  1
  O  O8  1  0.203854  0.466080  0.266976  1
  O  O9  1  0.233055  0.966080  0.296146  1
  O  O10  1  0.766945  0.033920  0.703854  1
  O  O11  1  0.796146  0.533920  0.733024  1
  O  O12  1  0.237775  0.533920  0.733055  1
  O  O13  1  0.233024  0.966080  0.737775  1
