# generated using pymatgen
data_Li9TiMn3(PO4)6
_symmetry_space_group_name_H-M   'P 1'
_cell_length_a   8.53923957
_cell_length_b   9.31199709
_cell_length_c   8.68890558
_cell_angle_alpha   117.84014311
_cell_angle_beta   59.62801310
_cell_angle_gamma   116.86311112
_symmetry_Int_Tables_number   1
_chemical_formula_structural   Li9TiMn3(PO4)6
_chemical_formula_sum   'Li9 Ti1 Mn3 P6 O24'
_cell_volume   505.58744291
_cell_formula_units_Z   1
loop_
 _symmetry_equiv_pos_site_id
 _symmetry_equiv_pos_as_xyz
  1  'x, y, z'
loop_
 _atom_site_type_symbol
 _atom_site_label
 _atom_site_symmetry_multiplicity
 _atom_site_fract_x
 _atom_site_fract_y
 _atom_site_fract_z
 _atom_site_occupancy
  Li  Li0  1  0.937070  0.859600  0.256469  1
  Li  Li1  1  0.259682  0.825225  0.642149  1
  Li  Li2  1  0.720519  0.913623  0.949562  1
  Li  Li3  1  0.422222  0.401636  0.243962  1
  Li  Li4  1  0.143298  0.352251  0.771369  1
  Li  Li5  1  0.669549  0.336769  0.349505  1
  Li  Li6  1  0.536898  0.602009  0.817018  1
  Li  Li7  1  0.339421  0.098798  0.044421  1
  Li  Li8  1  0.795656  0.334673  0.525261  1
  Ti  Ti9  1  0.660561  0.950806  0.635254  1
  Mn  Mn10  1  0.139392  0.423814  0.145663  1
  Mn  Mn11  1  0.325111  0.006312  0.363003  1
  Mn  Mn12  1  0.869008  0.566901  0.851881  1
  P  P13  1  0.066628  0.236495  0.440497  1
  P  P14  1  0.550258  0.746224  0.246407  1
  P  P15  1  0.270315  0.747016  0.935913  1
  P  P16  1  0.770838  0.245728  0.009149  1
  P  P17  1  0.453988  0.239227  0.736730  1
  P  P18  1  0.925232  0.718400  0.536973  1
  O  O19  1  0.224871  0.892887  0.126617  1
  O  O20  1  0.241820  0.581450  0.960714  1
  O  O21  1  0.901035  0.528746  0.410824  1
  O  O22  1  0.135821  0.819640  0.504232  1
  O  O23  1  0.176883  0.245236  0.234578  1
  O  O24  1  0.534822  0.870342  0.185799  1
  O  O25  1  0.150215  0.725773  0.836858  1
  O  O26  1  0.397001  0.575146  0.216814  1
  O  O27  1  0.192964  0.207683  0.497800  1
  O  O28  1  0.518217  0.820327  0.461577  1
  O  O29  1  0.750915  0.721832  0.135391  1
  O  O30  1  0.484587  0.795094  0.807890  1
  O  O31  1  0.564468  0.252940  0.150276  1
  O  O32  1  0.255088  0.262131  0.848398  1
  O  O33  1  0.515534  0.195475  0.519754  1
  O  O34  1  0.839350  0.800252  0.487935  1
  O  O35  1  0.606720  0.407889  0.785853  1
  O  O36  1  0.865607  0.241071  0.118083  1
  O  O37  1  0.460809  0.096060  0.779532  1
  O  O38  1  0.817882  0.724110  0.747266  1
  O  O39  1  0.877147  0.090995  0.449192  1
  O  O40  1  0.019130  0.405062  0.570188  1
  O  O41  1  0.884453  0.395927  0.932872  1
  O  O42  1  0.763915  0.078621  0.840971  1
