# generated using pymatgen
data_Li3Mn(BO3)2
_symmetry_space_group_name_H-M   'P 1'
_cell_length_a   6.91847851
_cell_length_b   5.20630344
_cell_length_c   8.00076379
_cell_angle_alpha   90.61753272
_cell_angle_beta   66.33237483
_cell_angle_gamma   89.34327526
_symmetry_Int_Tables_number   1
_chemical_formula_structural   Li3Mn(BO3)2
_chemical_formula_sum   'Li6 Mn2 B4 O12'
_cell_volume   263.89117363
_cell_formula_units_Z   2
loop_
 _symmetry_equiv_pos_site_id
 _symmetry_equiv_pos_as_xyz
  1  'x, y, z'
loop_
 _atom_site_type_symbol
 _atom_site_label
 _atom_site_symmetry_multiplicity
 _atom_site_fract_x
 _atom_site_fract_y
 _atom_site_fract_z
 _atom_site_occupancy
  Li  Li0  1  0.272282  0.898188  0.129119  1
  Li  Li1  1  0.426410  0.664293  0.411570  1
  Li  Li2  1  0.458156  0.834187  0.723974  1
  Li  Li3  1  0.541844  0.165813  0.276026  1
  Li  Li4  1  0.573590  0.335707  0.588430  1
  Li  Li5  1  0.727718  0.101812  0.870881  1
  Mn  Mn6  1  0.068233  0.598629  0.754280  1
  Mn  Mn7  1  0.931767  0.401371  0.245720  1
  B  B8  1  0.182144  0.150204  0.617077  1
  B  B9  1  0.676021  0.668636  0.065883  1
  B  B10  1  0.323979  0.331364  0.934117  1
  B  B11  1  0.817856  0.849796  0.382923  1
  O  O12  1  0.007452  0.748737  0.254814  1
  O  O13  1  0.210200  0.261660  0.115900  1
  O  O14  1  0.220371  0.888741  0.613643  1
  O  O15  1  0.326942  0.318066  0.507461  1
  O  O16  1  0.520288  0.833041  0.175350  1
  O  O17  1  0.278024  0.561253  0.869814  1
  O  O18  1  0.721976  0.438747  0.130186  1
  O  O19  1  0.479712  0.166959  0.824650  1
  O  O20  1  0.673058  0.681934  0.492539  1
  O  O21  1  0.779629  0.111259  0.386357  1
  O  O22  1  0.789800  0.738340  0.884100  1
  O  O23  1  0.992548  0.251263  0.745186  1
