# generated using pymatgen
data_Na2B5H5O12
_symmetry_space_group_name_H-M   'P 1'
_cell_length_a   8.62914814
_cell_length_b   9.64737523
_cell_length_c   6.62941526
_cell_angle_alpha   103.14670910
_cell_angle_beta   107.95159983
_cell_angle_gamma   71.71634608
_symmetry_Int_Tables_number   1
_chemical_formula_structural   Na2B5H5O12
_chemical_formula_sum   'Na4 B10 H10 O24'
_cell_volume   493.26616299
_cell_formula_units_Z   2
loop_
 _symmetry_equiv_pos_site_id
 _symmetry_equiv_pos_as_xyz
  1  'x, y, z'
loop_
 _atom_site_type_symbol
 _atom_site_label
 _atom_site_symmetry_multiplicity
 _atom_site_fract_x
 _atom_site_fract_y
 _atom_site_fract_z
 _atom_site_occupancy
  Na  Na0  1  0.096394  0.634105  0.960768  1
  Na  Na1  1  0.903606  0.365895  0.039232  1
  Na  Na2  1  0.414073  0.844610  0.433693  1
  Na  Na3  1  0.585927  0.155390  0.566307  1
  B  B4  1  0.665705  0.839000  0.854197  1
  B  B5  1  0.334294  0.161000  0.145803  1
  B  B6  1  0.743585  0.714678  0.181477  1
  B  B7  1  0.256415  0.285322  0.818523  1
  B  B8  1  0.537222  0.640281  0.846357  1
  B  B9  1  0.462778  0.359719  0.153643  1
  B  B10  1  0.046690  0.628734  0.374181  1
  B  B11  1  0.953310  0.371266  0.625819  1
  B  B12  1  0.842134  0.736764  0.581853  1
  B  B13  1  0.157866  0.263236  0.418147  1
  H  H14  1  0.487399  0.042186  0.841035  1
  H  H15  1  0.512601  0.957814  0.158965  1
  H  H16  1  0.416379  0.484803  0.814350  1
  H  H17  1  0.583621  0.515197  0.185650  1
  H  H18  1  0.296621  0.576239  0.495909  1
  H  H19  1  0.703379  0.423761  0.504091  1
  H  H20  1  0.196628  0.023615  0.718662  1
  H  H21  1  0.803372  0.976385  0.281338  1
  H  H22  1  0.246721  0.930289  0.078900  1
  H  H23  1  0.753279  0.069711  0.921100  1
  O  O24  1  0.823027  0.775886  0.785692  1
  O  O25  1  0.176973  0.224114  0.214308  1
  O  O26  1  0.590708  0.987662  0.790589  1
  O  O27  1  0.409292  0.012338  0.209411  1
  O  O28  1  0.698423  0.849996  0.088195  1
  O  O29  1  0.301577  0.150004  0.911805  1
  O  O30  1  0.544584  0.746704  0.747329  1
  O  O31  1  0.455416  0.253296  0.252671  1
  O  O32  1  0.427735  0.555263  0.733818  1
  O  O33  1  0.572265  0.444737  0.266182  1
  O  O34  1  0.633673  0.615318  0.051103  1
  O  O35  1  0.366327  0.384682  0.948897  1
  O  O36  1  0.921053  0.631022  0.186676  1
  O  O37  1  0.078947  0.368978  0.813324  1
  O  O38  1  0.714516  0.754545  0.398367  1
  O  O39  1  0.285484  0.245455  0.601633  1
  O  O40  1  0.208528  0.585013  0.355309  1
  O  O41  1  0.791472  0.414987  0.644691  1
  O  O42  1  0.011224  0.669147  0.574219  1
  O  O43  1  0.988776  0.330853  0.425781  1
  O  O44  1  0.171082  0.946400  0.589392  1
  O  O45  1  0.828918  0.053600  0.410608  1
  O  O46  1  0.187947  0.848413  0.027992  1
  O  O47  1  0.812053  0.151587  0.972008  1
