# generated using pymatgen
data_Na2MnBSO7
_symmetry_space_group_name_H-M   'P 1'
_cell_length_a   9.03296867
_cell_length_b   7.06486461
_cell_length_c   5.30407610
_cell_angle_alpha   90.00000000
_cell_angle_beta   87.96811705
_cell_angle_gamma   90.00000000
_symmetry_Int_Tables_number   1
_chemical_formula_structural   Na2MnBSO7
_chemical_formula_sum   'Na4 Mn2 B2 S2 O14'
_cell_volume   338.27581253
_cell_formula_units_Z   2
loop_
 _symmetry_equiv_pos_site_id
 _symmetry_equiv_pos_as_xyz
  1  'x, y, z'
loop_
 _atom_site_type_symbol
 _atom_site_label
 _atom_site_symmetry_multiplicity
 _atom_site_fract_x
 _atom_site_fract_y
 _atom_site_fract_z
 _atom_site_occupancy
  Na  Na0  1  0.207063  0.504472  0.237596  1
  Na  Na1  1  0.207063  0.995528  0.237596  1
  Na  Na2  1  0.792937  0.495528  0.762404  1
  Na  Na3  1  0.792937  0.004472  0.762404  1
  Mn  Mn4  1  0.343953  0.750000  0.774740  1
  Mn  Mn5  1  0.656047  0.250000  0.225260  1
  B  B6  1  0.077482  0.750000  0.726172  1
  B  B7  1  0.922518  0.250000  0.273828  1
  S  S8  1  0.426533  0.250000  0.727808  1
  S  S9  1  0.573467  0.750000  0.272191  1
  O  O10  1  0.066563  0.250000  0.299263  1
  O  O11  1  0.152983  0.750000  0.955703  1
  O  O12  1  0.189173  0.750000  0.530031  1
  O  O13  1  0.340469  0.078174  0.793504  1
  O  O14  1  0.340469  0.421826  0.793504  1
  O  O15  1  0.429594  0.750000  0.137897  1
  O  O16  1  0.463648  0.250000  0.447056  1
  O  O17  1  0.536352  0.750000  0.552944  1
  O  O18  1  0.570406  0.250000  0.862103  1
  O  O19  1  0.659531  0.578174  0.206496  1
  O  O20  1  0.659531  0.921826  0.206496  1
  O  O21  1  0.810827  0.250000  0.469969  1
  O  O22  1  0.847017  0.250000  0.044297  1
  O  O23  1  0.933437  0.750000  0.700737  1
