# generated using pymatgen
data_LiTi2(PO4)3
_symmetry_space_group_name_H-M   'P 1'
_cell_length_a   11.99911939
_cell_length_b   8.63991431
_cell_length_c   8.71758359
_cell_angle_alpha   90.08910259
_cell_angle_beta   90.05258458
_cell_angle_gamma   89.94654206
_symmetry_Int_Tables_number   1
_chemical_formula_structural   LiTi2(PO4)3
_chemical_formula_sum   'Li4 Ti8 P12 O48'
_cell_volume   903.76191078
_cell_formula_units_Z   4
loop_
 _symmetry_equiv_pos_site_id
 _symmetry_equiv_pos_as_xyz
  1  'x, y, z'
loop_
 _atom_site_type_symbol
 _atom_site_label
 _atom_site_symmetry_multiplicity
 _atom_site_fract_x
 _atom_site_fract_y
 _atom_site_fract_z
 _atom_site_occupancy
  Li  Li0  1  0.182403  0.713696  0.728140  1
  Li  Li1  1  0.316637  0.211533  0.731234  1
  Li  Li2  1  0.683710  0.788884  0.270123  1
  Li  Li3  1  0.816554  0.288433  0.270835  1
  Ti  Ti4  1  0.116059  0.246978  0.531267  1
  Ti  Ti5  1  0.120998  0.751762  0.048047  1
  Ti  Ti6  1  0.379035  0.252431  0.048914  1
  Ti  Ti7  1  0.384194  0.747155  0.530946  1
  Ti  Ti8  1  0.621119  0.748058  0.951710  1
  Ti  Ti9  1  0.616314  0.252033  0.469378  1
  Ti  Ti10  1  0.884282  0.752711  0.469224  1
  Ti  Ti11  1  0.878865  0.248552  0.952238  1
  P  P12  1  0.001669  0.961461  0.751584  1
  P  P13  1  0.144775  0.602797  0.395230  1
  P  P14  1  0.144592  0.392749  0.894029  1
  P  P15  1  0.355099  0.892721  0.894552  1
  P  P16  1  0.355648  0.103328  0.397168  1
  P  P17  1  0.498749  0.460601  0.751119  1
  P  P18  1  0.502727  0.539439  0.249040  1
  P  P19  1  0.644740  0.107299  0.105465  1
  P  P20  1  0.644761  0.895699  0.603878  1
  P  P21  1  0.855752  0.396483  0.603912  1
  P  P22  1  0.855523  0.607300  0.105188  1
  P  P23  1  0.997631  0.038944  0.250024  1
  O  O24  1  0.025264  0.657959  0.432875  1
  O  O25  1  0.025951  0.338349  0.932285  1
  O  O26  1  0.072655  0.937726  0.146872  1
  O  O27  1  0.075418  0.064467  0.650066  1
  O  O28  1  0.078774  0.852756  0.843211  1
  O  O29  1  0.075403  0.139193  0.351293  1
  O  O30  1  0.154132  0.571313  0.900480  1
  O  O31  1  0.155662  0.426823  0.410025  1
  O  O32  1  0.173944  0.651974  0.230011  1
  O  O33  1  0.177154  0.338696  0.730038  1
  O  O34  1  0.223081  0.679555  0.514791  1
  O  O35  1  0.228448  0.321543  0.008940  1
  O  O36  1  0.277385  0.179567  0.517139  1
  O  O37  1  0.272009  0.820106  0.009478  1
  O  O38  1  0.322210  0.840609  0.729838  1
  O  O39  1  0.326930  0.155138  0.232356  1
  O  O40  1  0.343723  0.927337  0.410069  1
  O  O41  1  0.344653  0.071238  0.903640  1
  O  O42  1  0.425598  0.640782  0.350559  1
  O  O43  1  0.422273  0.350257  0.841551  1
  O  O44  1  0.424897  0.564255  0.649660  1
  O  O45  1  0.427213  0.440594  0.144139  1
  O  O46  1  0.474263  0.839514  0.931376  1
  O  O47  1  0.475417  0.156143  0.435508  1
  O  O48  1  0.525606  0.160742  0.068085  1
  O  O49  1  0.524865  0.843610  0.566060  1
  O  O50  1  0.574100  0.559923  0.855356  1
  O  O51  1  0.575969  0.435081  0.350598  1
  O  O52  1  0.579637  0.649072  0.158919  1
  O  O53  1  0.576238  0.359705  0.649518  1
  O  O54  1  0.654903  0.928990  0.097650  1
  O  O55  1  0.657349  0.071659  0.589232  1
  O  O56  1  0.677269  0.160059  0.270097  1
  O  O57  1  0.673948  0.845546  0.768682  1
  O  O58  1  0.722583  0.817744  0.484144  1
  O  O59  1  0.728037  0.179394  0.990678  1
  O  O60  1  0.777442  0.319359  0.484636  1
  O  O61  1  0.772386  0.679077  0.990194  1
  O  O62  1  0.827091  0.346671  0.769059  1
  O  O63  1  0.823501  0.661126  0.269645  1
  O  O64  1  0.844229  0.572631  0.589320  1
  O  O65  1  0.845054  0.428739  0.098442  1
  O  O66  1  0.925411  0.858543  0.650198  1
  O  O67  1  0.922948  0.936857  0.351702  1
  O  O68  1  0.921831  0.149341  0.158590  1
  O  O69  1  0.925371  0.060516  0.854714  1
  O  O70  1  0.975376  0.343550  0.565797  1
  O  O71  1  0.974890  0.658989  0.067476  1
