# generated using pymatgen
data_K2VPCO7
_symmetry_space_group_name_H-M   'P 1'
_cell_length_a   9.72771957
_cell_length_b   6.71282125
_cell_length_c   5.62904440
_cell_angle_alpha   90.00000000
_cell_angle_beta   91.09468778
_cell_angle_gamma   90.00000000
_symmetry_Int_Tables_number   1
_chemical_formula_structural   K2VPCO7
_chemical_formula_sum   'K4 V2 P2 C2 O14'
_cell_volume   367.51200330
_cell_formula_units_Z   2
loop_
 _symmetry_equiv_pos_site_id
 _symmetry_equiv_pos_as_xyz
  1  'x, y, z'
loop_
 _atom_site_type_symbol
 _atom_site_label
 _atom_site_symmetry_multiplicity
 _atom_site_fract_x
 _atom_site_fract_y
 _atom_site_fract_z
 _atom_site_occupancy
  K  K0  1  0.242719  0.479057  0.245282  1
  K  K1  1  0.242719  0.020943  0.245282  1
  K  K2  1  0.757281  0.520943  0.754718  1
  K  K3  1  0.757281  0.979057  0.754718  1
  V  V4  1  0.354363  0.750000  0.770430  1
  V  V5  1  0.645637  0.250000  0.229570  1
  P  P6  1  0.431980  0.250000  0.715266  1
  P  P7  1  0.568020  0.750000  0.284734  1
  C  C8  1  0.097820  0.750000  0.729301  1
  C  C9  1  0.902180  0.250000  0.270699  1
  O  O10  1  0.030357  0.250000  0.287712  1
  O  O11  1  0.167466  0.750000  0.934275  1
  O  O12  1  0.181158  0.750000  0.546239  1
  O  O13  1  0.342947  0.060351  0.755052  1
  O  O14  1  0.342947  0.439649  0.755052  1
  O  O15  1  0.442584  0.750000  0.109089  1
  O  O16  1  0.479258  0.250000  0.451652  1
  O  O17  1  0.520742  0.750000  0.548348  1
  O  O18  1  0.557416  0.250000  0.890911  1
  O  O19  1  0.657053  0.560351  0.244948  1
  O  O20  1  0.657053  0.939649  0.244948  1
  O  O21  1  0.818842  0.250000  0.453761  1
  O  O22  1  0.832534  0.250000  0.065725  1
  O  O23  1  0.969643  0.750000  0.712288  1
