# generated using pymatgen
data_LiFe2(BO3)2
_symmetry_space_group_name_H-M   'P 1'
_cell_length_a   5.25805048
_cell_length_b   5.27766265
_cell_length_c   20.12262996
_cell_angle_alpha   88.88963410
_cell_angle_beta   90.64206253
_cell_angle_gamma   61.25614409
_symmetry_Int_Tables_number   1
_chemical_formula_structural   LiFe2(BO3)2
_chemical_formula_sum   'Li4 Fe8 B8 O24'
_cell_volume   489.37332555
_cell_formula_units_Z   4
loop_
 _symmetry_equiv_pos_site_id
 _symmetry_equiv_pos_as_xyz
  1  'x, y, z'
loop_
 _atom_site_type_symbol
 _atom_site_label
 _atom_site_symmetry_multiplicity
 _atom_site_fract_x
 _atom_site_fract_y
 _atom_site_fract_z
 _atom_site_occupancy
  Li  Li0  1  0.353282  0.669628  0.922879  1
  Li  Li1  1  0.334690  0.642235  0.173198  1
  Li  Li2  1  0.649818  0.345395  0.789420  1
  Li  Li3  1  0.652489  0.351895  0.544440  1
  Fe  Fe4  1  0.984799  0.675629  0.808156  1
  Fe  Fe5  1  -0.007934  0.674934  0.310686  1
  Fe  Fe6  1  0.685264  0.006184  0.936834  1
  Fe  Fe7  1  0.679109  -0.013595  0.435410  1
  Fe  Fe8  1  0.323682  0.990360  0.561896  1
  Fe  Fe9  1  0.321429  0.024244  0.061845  1
  Fe  Fe10  1  0.020241  0.331894  0.679311  1
  Fe  Fe11  1  0.991004  0.316991  0.188269  1
  B  B12  1  0.002723  0.342060  0.933625  1
  B  B13  1  0.008461  0.331681  0.435677  1
  B  B14  1  0.331254  0.007136  0.813057  1
  B  B15  1  0.335549  0.006802  0.311288  1
  B  B16  1  0.658361  0.005296  0.690007  1
  B  B17  1  0.661393  0.993578  0.184961  1
  B  B18  1  -0.000076  0.657414  0.558566  1
  B  B19  1  0.986536  0.674331  0.063134  1
  O  O20  1  0.089369  0.266963  0.796052  1
  O  O21  1  0.120538  0.276898  0.289460  1
  O  O22  1  0.252169  0.092602  0.956925  1
  O  O23  1  0.027230  0.586925  0.913196  1
  O  O24  1  0.279936  0.114888  0.454984  1
  O  O25  1  0.981011  0.595990  0.412198  1
  O  O26  1  0.595202  0.001332  0.829128  1
  O  O27  1  0.261694  0.649848  0.559230  1
  O  O28  1  0.602626  0.980177  0.332953  1
  O  O29  1  0.210372  0.733525  0.071348  1
  O  O30  1  0.313735  0.753846  0.819023  1
  O  O31  1  0.288038  0.776733  0.308961  1
  O  O32  1  0.694335  0.240100  0.698276  1
  O  O33  1  0.650965  0.254972  0.183151  1
  O  O34  1  0.739868  0.349770  0.929624  1
  O  O35  1  0.413990  0.013797  0.663339  1
  O  O36  1  0.769823  0.294099  0.442085  1
  O  O37  1  0.418081  0.969474  0.163296  1
  O  O38  1  0.970988  0.415181  0.577072  1
  O  O39  1  0.024696  0.404611  0.081493  1
  O  O40  1  0.746851  0.907550  0.536002  1
  O  O41  1  0.719459  0.881433  0.037392  1
  O  O42  1  0.881329  0.731414  0.715151  1
  O  O43  1  0.908472  0.740924  0.207756  1
