# generated using pymatgen
data_VOF3
_symmetry_space_group_name_H-M   'P 1'
_cell_length_a   5.56106562
_cell_length_b   5.34303499
_cell_length_c   9.63472496
_cell_angle_alpha   92.26279410
_cell_angle_beta   88.77500834
_cell_angle_gamma   91.33527239
_symmetry_Int_Tables_number   1
_chemical_formula_structural   VOF3
_chemical_formula_sum   'V4 O4 F12'
_cell_volume   285.91539456
_cell_formula_units_Z   4
loop_
 _symmetry_equiv_pos_site_id
 _symmetry_equiv_pos_as_xyz
  1  'x, y, z'
loop_
 _atom_site_type_symbol
 _atom_site_label
 _atom_site_symmetry_multiplicity
 _atom_site_fract_x
 _atom_site_fract_y
 _atom_site_fract_z
 _atom_site_occupancy
  V  V0  1  0.781318  0.521056  0.773400  1
  V  V1  1  0.533971  0.964298  0.527218  1
  V  V2  1  0.263090  0.456914  0.276460  1
  V  V3  1  0.035584  0.978945  0.020327  1
  O  O4  1  0.949041  0.715993  0.871531  1
  O  O5  1  0.695071  0.788636  0.625353  1
  O  O6  1  0.293531  0.218939  0.371192  1
  O  O7  1  0.192786  0.803523  0.113012  1
  F  F8  1  0.994333  0.598557  0.339109  1
  F  F9  1  0.789964  0.236085  0.865520  1
  F  F10  1  0.742252  0.069440  0.399320  1
  F  F11  1  0.735459  0.943862  0.082879  1
  F  F12  1  0.538810  0.265480  0.620575  1
  F  F13  1  0.502328  0.436031  0.151959  1
  F  F14  1  0.484632  0.585405  0.830698  1
  F  F15  1  0.450422  0.702692  0.377286  1
  F  F16  1  0.241289  0.110528  0.898527  1
  F  F17  1  0.234378  0.900609  0.583581  1
  F  F18  1  0.058714  0.288657  0.131021  1
  F  F19  1  0.983029  0.414353  0.641034  1
