# generated using pymatgen
data_DyP5O14
_symmetry_space_group_name_H-M   'P 1'
_cell_length_a   8.82140046
_cell_length_b   12.89497329
_cell_length_c   9.04379404
_cell_angle_alpha   90.00000000
_cell_angle_beta   90.00000000
_cell_angle_gamma   90.00000000
_symmetry_Int_Tables_number   1
_chemical_formula_structural   DyP5O14
_chemical_formula_sum   'Dy4 P20 O56'
_cell_volume   1028.74715733
_cell_formula_units_Z   4
loop_
 _symmetry_equiv_pos_site_id
 _symmetry_equiv_pos_as_xyz
  1  'x, y, z'
loop_
 _atom_site_type_symbol
 _atom_site_label
 _atom_site_symmetry_multiplicity
 _atom_site_fract_x
 _atom_site_fract_y
 _atom_site_fract_z
 _atom_site_occupancy
  Dy  Dy0  1  0.020558  0.250000  0.060512  1
  Dy  Dy1  1  0.479442  0.750000  0.560512  1
  Dy  Dy2  1  0.520558  0.250000  0.439488  1
  Dy  Dy3  1  0.979442  0.750000  0.939488  1
  P  P4  1  0.005247  0.583385  0.298670  1
  P  P5  1  0.005247  0.916615  0.298670  1
  P  P6  1  0.068146  0.750000  0.511854  1
  P  P7  1  0.254231  0.066512  0.274761  1
  P  P8  1  0.254231  0.433488  0.274761  1
  P  P9  1  0.245769  0.566512  0.774761  1
  P  P10  1  0.245769  0.933488  0.774761  1
  P  P11  1  0.431854  0.250000  0.011854  1
  P  P12  1  0.494753  0.416615  0.798670  1
  P  P13  1  0.494753  0.083385  0.798670  1
  P  P14  1  0.505247  0.916615  0.201330  1
  P  P15  1  0.505247  0.583385  0.201330  1
  P  P16  1  0.568146  0.750000  0.988146  1
  P  P17  1  0.754231  0.066512  0.225239  1
  P  P18  1  0.754231  0.433488  0.225239  1
  P  P19  1  0.745769  0.566512  0.725239  1
  P  P20  1  0.745769  0.933488  0.725239  1
  P  P21  1  0.931854  0.250000  0.488146  1
  P  P22  1  0.994753  0.083385  0.701330  1
  P  P23  1  0.994753  0.416615  0.701330  1
  O  O24  1  0.997135  0.136554  0.845960  1
  O  O25  1  0.997135  0.363446  0.845960  1
  O  O26  1  0.031940  0.750000  0.671861  1
  O  O27  1  0.027470  0.153724  0.562133  1
  O  O28  1  0.027470  0.346276  0.562133  1
  O  O29  1  0.117473  0.504015  0.679703  1
  O  O30  1  0.117473  0.995985  0.679703  1
  O  O31  1  0.154750  0.117290  0.163307  1
  O  O32  1  0.154750  0.382710  0.163307  1
  O  O33  1  0.160684  0.530603  0.345449  1
  O  O34  1  0.160684  0.969397  0.345449  1
  O  O35  1  0.173151  0.624998  0.897549  1
  O  O36  1  0.173151  0.875002  0.897549  1
  O  O37  1  0.225964  0.750000  0.452375  1
  O  O38  1  0.274036  0.250000  0.952375  1
  O  O39  1  0.326849  0.124998  0.397549  1
  O  O40  1  0.326849  0.375002  0.397549  1
  O  O41  1  0.339316  0.030603  0.845449  1
  O  O42  1  0.339316  0.469397  0.845449  1
  O  O43  1  0.345250  0.617290  0.663307  1
  O  O44  1  0.345250  0.882710  0.663307  1
  O  O45  1  0.382527  0.004016  0.179703  1
  O  O46  1  0.382527  0.495985  0.179703  1
  O  O47  1  0.472530  0.653724  0.062133  1
  O  O48  1  0.472530  0.846276  0.062133  1
  O  O49  1  0.468060  0.250000  0.171861  1
  O  O50  1  0.502865  0.636554  0.345960  1
  O  O51  1  0.502865  0.863446  0.345960  1
  O  O52  1  0.497135  0.136554  0.654040  1
  O  O53  1  0.497135  0.363446  0.654040  1
  O  O54  1  0.531940  0.750000  0.828139  1
  O  O55  1  0.527470  0.153724  0.937867  1
  O  O56  1  0.527470  0.346276  0.937867  1
  O  O57  1  0.617473  0.504015  0.820297  1
  O  O58  1  0.617473  0.995985  0.820297  1
  O  O59  1  0.654750  0.117290  0.336693  1
  O  O60  1  0.654750  0.382710  0.336693  1
  O  O61  1  0.660684  0.530603  0.154551  1
  O  O62  1  0.660684  0.969397  0.154551  1
  O  O63  1  0.673151  0.624998  0.602451  1
  O  O64  1  0.673151  0.875002  0.602451  1
  O  O65  1  0.725964  0.750000  0.047625  1
  O  O66  1  0.774036  0.250000  0.547625  1
  O  O67  1  0.826849  0.124998  0.102451  1
  O  O68  1  0.826849  0.375002  0.102451  1
  O  O69  1  0.839316  0.030603  0.654551  1
  O  O70  1  0.839316  0.469397  0.654551  1
  O  O71  1  0.845250  0.882710  0.836693  1
  O  O72  1  0.845250  0.617290  0.836693  1
  O  O73  1  0.882527  0.004016  0.320297  1
  O  O74  1  0.882527  0.495985  0.320297  1
  O  O75  1  0.972530  0.653724  0.437867  1
  O  O76  1  0.972530  0.846276  0.437867  1
  O  O77  1  0.968060  0.250000  0.328139  1
  O  O78  1  0.002865  0.636554  0.154040  1
  O  O79  1  0.002865  0.863446  0.154040  1
