# generated using pymatgen
data_Li3Si2BiO7
_symmetry_space_group_name_H-M   'P 1'
_cell_length_a   9.05569805
_cell_length_b   9.05602713
_cell_length_c   13.86474068
_cell_angle_alpha   89.99980770
_cell_angle_beta   89.99977421
_cell_angle_gamma   120.00165946
_symmetry_Int_Tables_number   1
_chemical_formula_structural   Li3Si2BiO7
_chemical_formula_sum   'Li18 Si12 Bi6 O42'
_cell_volume   984.67920989
_cell_formula_units_Z   6
loop_
 _symmetry_equiv_pos_site_id
 _symmetry_equiv_pos_as_xyz
  1  'x, y, z'
loop_
 _atom_site_type_symbol
 _atom_site_label
 _atom_site_symmetry_multiplicity
 _atom_site_fract_x
 _atom_site_fract_y
 _atom_site_fract_z
 _atom_site_occupancy
  Li  Li0  1  0.313487  0.985715  0.087992  1
  Li  Li1  1  0.313049  0.984340  0.413286  1
  Li  Li2  1  0.014291  0.327726  0.088016  1
  Li  Li3  1  0.015661  0.328670  0.413263  1
  Li  Li4  1  0.000006  0.999994  0.499597  1
  Li  Li5  1  0.999993  0.999989  0.999596  1
  Li  Li6  1  0.333406  0.666700  0.251720  1
  Li  Li7  1  0.333384  0.666702  0.762227  1
  Li  Li8  1  0.327740  0.313450  0.588009  1
  Li  Li9  1  0.328676  0.313016  0.913267  1
  Li  Li10  1  0.672261  0.686556  0.088009  1
  Li  Li11  1  0.671327  0.686986  0.413262  1
  Li  Li12  1  0.666686  0.333300  0.262228  1
  Li  Li13  1  0.666690  0.333291  0.751720  1
  Li  Li14  1  0.984329  0.671330  0.913259  1
  Li  Li15  1  0.985706  0.672271  0.588020  1
  Li  Li16  1  0.686517  0.014283  0.587991  1
  Li  Li17  1  0.686939  0.015649  0.913287  1
  Si  Si18  1  0.325631  0.980380  0.859096  1
  Si  Si19  1  0.325343  0.979989  0.641174  1
  Si  Si20  1  0.020012  0.345411  0.641162  1
  Si  Si21  1  0.019622  0.345299  0.859115  1
  Si  Si22  1  0.345281  0.325642  0.359105  1
  Si  Si23  1  0.345381  0.325364  0.141170  1
  Si  Si24  1  0.654625  0.674641  0.641169  1
  Si  Si25  1  0.654704  0.674342  0.859106  1
  Si  Si26  1  0.980377  0.654701  0.359116  1
  Si  Si27  1  0.979993  0.654590  0.141162  1
  Si  Si28  1  0.674354  0.019627  0.359091  1
  Si  Si29  1  0.674669  0.020018  0.141167  1
  Bi  Bi30  1  0.333330  0.666673  0.022084  1
  Bi  Bi31  1  0.000099  0.999952  0.250165  1
  Bi  Bi32  1  0.999926  0.000073  0.750161  1
  Bi  Bi33  1  0.333347  0.666680  0.480583  1
  Bi  Bi34  1  0.666654  0.333321  0.522086  1
  Bi  Bi35  1  0.666650  0.333321  0.980583  1
  O  O36  1  0.087468  0.863039  0.136341  1
  O  O37  1  0.086483  0.863148  0.364691  1
  O  O38  1  0.099956  0.567241  0.128953  1
  O  O39  1  0.101624  0.568886  0.371622  1
  O  O40  1  0.233774  0.825729  0.561841  1
  O  O41  1  0.234724  0.822747  0.936453  1
  O  O42  1  0.292585  0.881230  0.750148  1
  O  O43  1  0.118738  0.411331  0.750152  1
  O  O44  1  0.174278  0.408057  0.561846  1
  O  O45  1  0.177264  0.411999  0.936447  1
  O  O46  1  0.467330  0.900027  0.128953  1
  O  O47  1  0.467311  0.898383  0.371606  1
  O  O48  1  0.136945  0.224339  0.136372  1
  O  O49  1  0.136829  0.223254  0.364657  1
  O  O50  1  0.432733  0.532694  0.128953  1
  O  O51  1  0.431096  0.532705  0.371615  1
  O  O52  1  0.223245  0.086446  0.864643  1
  O  O53  1  0.224324  0.087409  0.636370  1
  O  O54  1  0.591958  0.766239  0.561842  1
  O  O55  1  0.587983  0.765263  0.936440  1
  O  O56  1  0.588640  0.707404  0.750148  1
  O  O57  1  0.411356  0.292584  0.250149  1
  O  O58  1  0.408044  0.233768  0.061842  1
  O  O59  1  0.411990  0.234724  0.436450  1
  O  O60  1  0.775694  0.912599  0.136367  1
  O  O61  1  0.776754  0.913552  0.364639  1
  O  O62  1  0.567267  0.467316  0.628945  1
  O  O63  1  0.568902  0.467294  0.871620  1
  O  O64  1  0.863065  0.775675  0.636372  1
  O  O65  1  0.863172  0.776755  0.864656  1
  O  O66  1  0.532685  0.101616  0.871607  1
  O  O67  1  0.532674  0.099964  0.628959  1
  O  O68  1  0.822732  0.587996  0.436448  1
  O  O69  1  0.825721  0.591949  0.061843  1
  O  O70  1  0.881267  0.588667  0.250151  1
  O  O71  1  0.707406  0.118763  0.250141  1
  O  O72  1  0.765262  0.177264  0.436438  1
  O  O73  1  0.766227  0.174274  0.061838  1
  O  O74  1  0.900028  0.432745  0.628960  1
  O  O75  1  0.898373  0.431113  0.871613  1
  O  O76  1  0.912536  0.136963  0.636337  1
  O  O77  1  0.913508  0.136852  0.864687  1
