# generated using pymatgen
data_Mn2PO5
_symmetry_space_group_name_H-M   'P 1'
_cell_length_a   8.70570479
_cell_length_b   6.42874089
_cell_length_c   6.45080549
_cell_angle_alpha   90.00000000
_cell_angle_beta   103.08872725
_cell_angle_gamma   90.00000000
_symmetry_Int_Tables_number   1
_chemical_formula_structural   Mn2PO5
_chemical_formula_sum   'Mn8 P4 O20'
_cell_volume   351.65105206
_cell_formula_units_Z   4
loop_
 _symmetry_equiv_pos_site_id
 _symmetry_equiv_pos_as_xyz
  1  'x, y, z'
loop_
 _atom_site_type_symbol
 _atom_site_label
 _atom_site_symmetry_multiplicity
 _atom_site_fract_x
 _atom_site_fract_y
 _atom_site_fract_z
 _atom_site_occupancy
  Mn  Mn0  1  0.154602  0.381648  0.990173  1
  Mn  Mn1  1  0.154602  0.118352  0.490173  1
  Mn  Mn2  1  0.491064  0.353199  0.779523  1
  Mn  Mn3  1  0.508936  0.853199  0.720477  1
  Mn  Mn4  1  0.491064  0.146801  0.279523  1
  Mn  Mn5  1  0.508936  0.646801  0.220477  1
  Mn  Mn6  1  0.845398  0.881648  0.509827  1
  Mn  Mn7  1  0.845398  0.618352  0.009827  1
  P  P8  1  0.209038  0.911167  0.994284  1
  P  P9  1  0.209038  0.588833  0.494284  1
  P  P10  1  0.790962  0.411167  0.505716  1
  P  P11  1  0.790962  0.088833  0.005716  1
  O  O12  1  0.105182  0.721152  0.005189  1
  O  O13  1  0.134824  0.073806  0.825230  1
  O  O14  1  0.105182  0.778848  0.505189  1
  O  O15  1  0.253705  0.463300  0.709576  1
  O  O16  1  0.134824  0.426194  0.325230  1
  O  O17  1  0.253705  0.036700  0.209576  1
  O  O18  1  0.403629  0.108611  0.620819  1
  O  O19  1  0.375178  0.663798  0.464466  1
  O  O20  1  0.403629  0.391389  0.120819  1
  O  O21  1  0.375178  0.836202  0.964466  1
  O  O22  1  0.624822  0.163798  0.035534  1
  O  O23  1  0.596371  0.608611  0.879181  1
  O  O24  1  0.624822  0.336202  0.535534  1
  O  O25  1  0.596371  0.891389  0.379181  1
  O  O26  1  0.746295  0.963300  0.790424  1
  O  O27  1  0.865176  0.573806  0.674770  1
  O  O28  1  0.746295  0.536700  0.290424  1
  O  O29  1  0.894818  0.221152  0.494811  1
  O  O30  1  0.865176  0.926194  0.174770  1
  O  O31  1  0.894818  0.278848  0.994811  1
