# generated using pymatgen
data_H5CSN2ClO4
_symmetry_space_group_name_H-M   'P 1'
_cell_length_a   5.61965766
_cell_length_b   9.11767773
_cell_length_c   7.55627234
_cell_angle_alpha   99.53685596
_cell_angle_beta   94.11509457
_cell_angle_gamma   104.95719880
_symmetry_Int_Tables_number   1
_chemical_formula_structural   H5CSN2ClO4
_chemical_formula_sum   'H10 C2 S2 N4 Cl2 O8'
_cell_volume   366.20806429
_cell_formula_units_Z   2
loop_
 _symmetry_equiv_pos_site_id
 _symmetry_equiv_pos_as_xyz
  1  'x, y, z'
loop_
 _atom_site_type_symbol
 _atom_site_label
 _atom_site_symmetry_multiplicity
 _atom_site_fract_x
 _atom_site_fract_y
 _atom_site_fract_z
 _atom_site_occupancy
  H  H0  1  0.774528  0.091069  0.618533  1
  H  H1  1  0.225472  0.908931  0.381467  1
  H  H2  1  0.519989  0.236180  0.576975  1
  H  H3  1  0.480011  0.763820  0.423025  1
  H  H4  1  0.712691  0.085599  0.829235  1
  H  H5  1  0.287309  0.914401  0.170765  1
  H  H6  1  0.431082  0.271232  0.087330  1
  H  H7  1  0.568918  0.728768  0.912670  1
  H  H8  1  0.214175  0.382317  0.563137  1
  H  H9  1  0.785825  0.617683  0.436863  1
  C  C10  1  0.419068  0.257578  0.831146  1
  C  C11  1  0.580932  0.742422  0.168854  1
  S  S12  1  0.247867  0.384497  0.820091  1
  S  S13  1  0.752133  0.615503  0.179909  1
  N  N14  1  0.530842  0.202216  0.698299  1
  N  N15  1  0.469158  0.797784  0.301701  1
  N  N16  1  0.635507  0.078195  0.700574  1
  N  N17  1  0.364493  0.921805  0.299426  1
  Cl  Cl18  1  0.973540  0.246302  0.303873  1
  Cl  Cl19  1  0.026460  0.753698  0.696127  1
  O  O20  1  0.986892  0.099922  0.356592  1
  O  O21  1  0.013108  0.900078  0.643408  1
  O  O22  1  0.453823  0.199566  0.982280  1
  O  O23  1  0.546177  0.800434  0.017720  1
  O  O24  1  0.217175  0.381080  0.421189  1
  O  O25  1  0.782825  0.618920  0.578811  1
  O  O26  1  0.752244  0.288785  0.359438  1
  O  O27  1  0.247756  0.711215  0.640562  1
