# generated using pymatgen
data_Li4Mn3Fe(BO3)4
_symmetry_space_group_name_H-M   'P 1'
_cell_length_a   5.24608464
_cell_length_b   5.24863069
_cell_length_c   20.97367541
_cell_angle_alpha   89.36534612
_cell_angle_beta   90.99490376
_cell_angle_gamma   60.20276876
_symmetry_Int_Tables_number   1
_chemical_formula_structural   Li4Mn3Fe(BO3)4
_chemical_formula_sum   'Li8 Mn6 Fe2 B8 O24'
_cell_volume   500.94808647
_cell_formula_units_Z   2
loop_
 _symmetry_equiv_pos_site_id
 _symmetry_equiv_pos_as_xyz
  1  'x, y, z'
loop_
 _atom_site_type_symbol
 _atom_site_label
 _atom_site_symmetry_multiplicity
 _atom_site_fract_x
 _atom_site_fract_y
 _atom_site_fract_z
 _atom_site_occupancy
  Li  Li0  1  0.321189  0.651017  0.666715  1
  Li  Li1  1  0.347617  0.675855  0.915630  1
  Li  Li2  1  0.320961  0.651648  0.165683  1
  Li  Li3  1  0.349066  0.678564  0.415973  1
  Li  Li4  1  0.648008  0.341162  0.791521  1
  Li  Li5  1  0.662333  0.348360  0.541237  1
  Li  Li6  1  0.652100  0.337743  0.291104  1
  Li  Li7  1  0.663198  0.344763  0.040873  1
  Mn  Mn8  1  0.329807  0.003440  0.558422  1
  Mn  Mn9  1  0.332682  0.003334  0.056775  1
  Mn  Mn10  1  0.676884  0.003105  0.433270  1
  Mn  Mn11  1  0.997364  0.325513  0.683764  1
  Mn  Mn12  1  0.997038  0.322544  0.182800  1
  Mn  Mn13  1  0.996555  0.670849  0.308093  1
  Fe  Fe14  1  0.684430  0.997788  0.931793  1
  Fe  Fe15  1  0.989071  0.670392  0.810211  1
  B  B16  1  0.004886  0.334779  0.936146  1
  B  B17  1  0.002570  0.342030  0.437216  1
  B  B18  1  0.330605  0.009289  0.813072  1
  B  B19  1  0.334106  0.004751  0.312150  1
  B  B20  1  0.660528  0.996574  0.688438  1
  B  B21  1  0.658125  0.997611  0.187059  1
  B  B22  1  0.995328  0.665947  0.562327  1
  B  B23  1  0.996859  0.665875  0.061209  1
  O  O24  1  0.068565  0.260834  0.793803  1
  O  O25  1  0.070590  0.247144  0.290930  1
  O  O26  1  0.261544  0.069309  0.949873  1
  O  O27  1  0.022384  0.582236  0.917914  1
  O  O28  1  0.253747  0.071198  0.452148  1
  O  O29  1  0.032414  0.579448  0.416489  1
  O  O30  1  0.582159  0.032161  0.826774  1
  O  O31  1  0.268603  0.642998  0.569792  1
  O  O32  1  0.578306  0.036979  0.327240  1
  O  O33  1  0.270087  0.643313  0.068781  1
  O  O34  1  0.342538  0.741722  0.819798  1
  O  O35  1  0.357375  0.731485  0.319728  1
  O  O36  1  0.632782  0.272036  0.695504  1
  O  O37  1  0.629675  0.272805  0.194489  1
  O  O38  1  0.731947  0.353567  0.942498  1
  O  O39  1  0.421220  0.968736  0.667494  1
  O  O40  1  0.727667  0.370636  0.444717  1
  O  O41  1  0.420477  0.967839  0.166167  1
  O  O42  1  0.963420  0.422129  0.577643  1
  O  O43  1  0.965182  0.421356  0.076291  1
  O  O44  1  0.752489  0.929185  0.541098  1
  O  O45  1  0.754368  0.928665  0.040075  1
  O  O46  1  0.930853  0.746129  0.703502  1
  O  O47  1  0.929096  0.746353  0.201972  1
