# generated using pymatgen
data_LiMn2O3F
_symmetry_space_group_name_H-M   'P 1'
_cell_length_a   5.99130517
_cell_length_b   6.03095748
_cell_length_c   6.03083024
_cell_angle_alpha   121.74688006
_cell_angle_beta   61.81806645
_cell_angle_gamma   118.18481508
_symmetry_Int_Tables_number   1
_chemical_formula_structural   LiMn2O3F
_chemical_formula_sum   'Li2 Mn4 O6 F2'
_cell_volume   155.88976166
_cell_formula_units_Z   2
loop_
 _symmetry_equiv_pos_site_id
 _symmetry_equiv_pos_as_xyz
  1  'x, y, z'
loop_
 _atom_site_type_symbol
 _atom_site_label
 _atom_site_symmetry_multiplicity
 _atom_site_fract_x
 _atom_site_fract_y
 _atom_site_fract_z
 _atom_site_occupancy
  Li  Li0  1  0.490010  0.993800  0.506233  1
  Li  Li1  1  0.909108  0.641841  0.858157  1
  Mn  Mn2  1  0.096793  0.363053  0.136942  1
  Mn  Mn3  1  0.013462  0.998363  0.501653  1
  Mn  Mn4  1  0.492440  0.496556  0.514214  1
  Mn  Mn5  1  0.492422  0.985764  0.003453  1
  O  O6  1  0.234648  0.771668  0.269564  1
  O  O7  1  0.303326  0.759299  0.740672  1
  O  O8  1  0.243783  0.224759  0.275175  1
  O  O9  1  0.234700  0.230515  0.728341  1
  O  O10  1  0.697695  0.240773  0.259238  1
  O  O11  1  0.757577  0.778888  0.721181  1
  F  F12  1  0.766977  0.774516  0.259804  1
  F  F13  1  0.767059  0.240205  0.725372  1
