# generated using pymatgen
data_Li2FeO2F
_symmetry_space_group_name_H-M   'P 1'
_cell_length_a   5.14627236
_cell_length_b   5.21250723
_cell_length_c   9.96206543
_cell_angle_alpha   84.46101883
_cell_angle_beta   29.44364038
_cell_angle_gamma   98.89386471
_symmetry_Int_Tables_number   1
_chemical_formula_structural   Li2FeO2F
_chemical_formula_sum   'Li4 Fe2 O4 F2'
_cell_volume   114.13918116
_cell_formula_units_Z   2
loop_
 _symmetry_equiv_pos_site_id
 _symmetry_equiv_pos_as_xyz
  1  'x, y, z'
loop_
 _atom_site_type_symbol
 _atom_site_label
 _atom_site_symmetry_multiplicity
 _atom_site_fract_x
 _atom_site_fract_y
 _atom_site_fract_z
 _atom_site_occupancy
  Li  Li0  1  0.497030  0.499784  0.501610  1
  Li  Li1  1  0.994420  0.498411  0.002660  1
  Li  Li2  1  0.146968  0.148320  0.176842  1
  Li  Li3  1  0.846275  0.851255  0.827154  1
  Fe  Fe4  1  0.370001  0.873810  0.315588  1
  Fe  Fe5  1  0.619430  0.123020  0.690451  1
  O  O6  1  0.617972  0.838544  0.575272  1
  O  O7  1  0.052452  0.838654  0.090229  1
  O  O8  1  0.371704  0.158382  0.430549  1
  O  O9  1  0.937072  0.158185  0.915781  1
  F  F10  1  0.224293  0.498192  0.265552  1
  F  F11  1  0.764656  0.498081  0.740733  1
