# generated using pymatgen
data_LiV(OF)2
_symmetry_space_group_name_H-M   'P 1'
_cell_length_a   6.71040985
_cell_length_b   5.08604953
_cell_length_c   8.46496406
_cell_angle_alpha   90.00218700
_cell_angle_beta   90.00233016
_cell_angle_gamma   90.00055908
_symmetry_Int_Tables_number   1
_chemical_formula_structural   LiV(OF)2
_chemical_formula_sum   'Li4 V4 O8 F8'
_cell_volume   288.90479481
_cell_formula_units_Z   4
loop_
 _symmetry_equiv_pos_site_id
 _symmetry_equiv_pos_as_xyz
  1  'x, y, z'
loop_
 _atom_site_type_symbol
 _atom_site_label
 _atom_site_symmetry_multiplicity
 _atom_site_fract_x
 _atom_site_fract_y
 _atom_site_fract_z
 _atom_site_occupancy
  Li  Li0  1  0.247067  0.528685  0.726869  1
  Li  Li1  1  0.253026  0.528704  0.226883  1
  Li  Li2  1  0.746977  0.471203  0.726866  1
  Li  Li3  1  0.753084  0.471219  0.226883  1
  V  V4  1  0.989740  0.045836  0.021658  1
  V  V5  1  0.510166  0.045913  0.521629  1
  V  V6  1  0.489770  0.954134  0.021693  1
  V  V7  1  0.010127  0.954206  0.521523  1
  O  O8  1  0.036590  0.815723  0.696284  1
  O  O9  1  0.246205  0.108242  0.968563  1
  O  O10  1  0.253826  0.108276  0.468597  1
  O  O11  1  0.463400  0.815841  0.196176  1
  O  O12  1  0.536551  0.184275  0.696227  1
  O  O13  1  0.746179  0.891753  0.968570  1
  O  O14  1  0.753765  0.891760  0.468599  1
  O  O15  1  0.963416  0.184155  0.196156  1
  F  F16  1  0.085363  0.678794  0.388444  1
  F  F17  1  0.063476  0.703110  0.080022  1
  F  F18  1  0.436539  0.703182  0.580045  1
  F  F19  1  0.414666  0.678799  0.888429  1
  F  F20  1  0.585359  0.321198  0.388446  1
  F  F21  1  0.563495  0.296889  0.080033  1
  F  F22  1  0.936528  0.296902  0.580042  1
  F  F23  1  0.914686  0.321201  0.888417  1
