# generated using pymatgen
data_Na4Bi2P(CO4)4
_symmetry_space_group_name_H-M   'P 1'
_cell_length_a   10.53701012
_cell_length_b   10.22585321
_cell_length_c   10.53700933
_cell_angle_alpha   61.69402277
_cell_angle_beta   94.56814597
_cell_angle_gamma   61.69401670
_symmetry_Int_Tables_number   1
_chemical_formula_structural   Na4Bi2P(CO4)4
_chemical_formula_sum   'Na8 Bi4 P2 C8 O32'
_cell_volume   809.33661135
_cell_formula_units_Z   2
loop_
 _symmetry_equiv_pos_site_id
 _symmetry_equiv_pos_as_xyz
  1  'x, y, z'
loop_
 _atom_site_type_symbol
 _atom_site_label
 _atom_site_symmetry_multiplicity
 _atom_site_fract_x
 _atom_site_fract_y
 _atom_site_fract_z
 _atom_site_occupancy
  Na  Na0  1  0.076607  0.846784  0.826607  1
  Na  Na1  1  0.077718  0.250000  0.827718  1
  Na  Na2  1  0.327718  0.750000  0.577718  1
  Na  Na3  1  0.326607  0.346784  0.576607  1
  Na  Na4  1  0.673393  0.653216  0.423393  1
  Na  Na5  1  0.672282  0.250000  0.422282  1
  Na  Na6  1  0.922282  0.750000  0.172282  1
  Na  Na7  1  0.923393  0.153216  0.173393  1
  Bi  Bi8  1  0.000000  0.500000  0.000000  1
  Bi  Bi9  1  0.500000  0.000000  0.500000  1
  Bi  Bi10  1  0.500000  0.500000  0.000000  1
  Bi  Bi11  1  0.500000  0.000000  0.000000  1
  P  P12  1  0.125000  0.750000  0.375000  1
  P  P13  1  0.875000  0.250000  0.625000  1
  C  C14  1  0.338382  0.943852  0.767866  1
  C  C15  1  0.267866  0.443852  0.838382  1
  C  C16  1  0.717765  0.943852  0.788283  1
  C  C17  1  0.711717  0.556148  0.782235  1
  C  C18  1  0.288283  0.443852  0.217765  1
  C  C19  1  0.282235  0.056148  0.211717  1
  C  C20  1  0.732134  0.556148  0.161618  1
  C  C21  1  0.661618  0.056148  0.232134  1
  O  O22  1  0.330443  0.821429  0.880517  1
  O  O23  1  0.068219  0.877172  0.429589  1
  O  O24  1  0.350949  0.941791  0.647733  1
  O  O25  1  0.147733  0.441791  0.850949  1
  O  O26  1  0.707259  0.941791  0.910476  1
  O  O27  1  0.276927  0.569648  0.833083  1
  O  O28  1  0.054609  0.877172  0.193239  1
  O  O29  1  0.070411  0.622828  0.431781  1
  O  O30  1  0.402731  0.930352  0.346575  1
  O  O31  1  0.589524  0.558209  0.792741  1
  O  O32  1  0.380517  0.321429  0.830443  1
  O  O33  1  0.306761  0.622828  0.445391  1
  O  O34  1  0.848128  0.821429  0.798054  1
  O  O35  1  0.701946  0.678571  0.651872  1
  O  O36  1  0.333083  0.069648  0.776927  1
  O  O37  1  0.153425  0.569648  0.097269  1
  O  O38  1  0.846575  0.430352  0.902731  1
  O  O39  1  0.666917  0.930352  0.223073  1
  O  O40  1  0.298054  0.321429  0.348128  1
  O  O41  1  0.151872  0.178571  0.201946  1
  O  O42  1  0.693239  0.377172  0.554609  1
  O  O43  1  0.619483  0.678571  0.169557  1
  O  O44  1  0.410476  0.441791  0.207259  1
  O  O45  1  0.597269  0.069648  0.653425  1
  O  O46  1  0.929589  0.377172  0.568219  1
  O  O47  1  0.945391  0.122828  0.806761  1
  O  O48  1  0.723073  0.430352  0.166917  1
  O  O49  1  0.292741  0.058209  0.089524  1
  O  O50  1  0.852267  0.558209  0.149051  1
  O  O51  1  0.649051  0.058209  0.352267  1
  O  O52  1  0.931781  0.122828  0.570411  1
  O  O53  1  0.669557  0.178571  0.119483  1
