# generated using pymatgen
data_Li4Cr3Co3(SnO8)2
_symmetry_space_group_name_H-M   'P 1'
_cell_length_a   5.85325636
_cell_length_b   5.85952765
_cell_length_c   9.63616924
_cell_angle_alpha   89.91295669
_cell_angle_beta   89.24799410
_cell_angle_gamma   119.68701560
_symmetry_Int_Tables_number   1
_chemical_formula_structural   Li4Cr3Co3(SnO8)2
_chemical_formula_sum   'Li4 Cr3 Co3 Sn2 O16'
_cell_volume   287.07829803
_cell_formula_units_Z   1
loop_
 _symmetry_equiv_pos_site_id
 _symmetry_equiv_pos_as_xyz
  1  'x, y, z'
loop_
 _atom_site_type_symbol
 _atom_site_label
 _atom_site_symmetry_multiplicity
 _atom_site_fract_x
 _atom_site_fract_y
 _atom_site_fract_z
 _atom_site_occupancy
  Li  Li0  1  0.339648  0.667263  0.891002  1
  Li  Li1  1  0.989695  0.996419  0.994495  1
  Li  Li2  1  0.994299  0.995305  0.495115  1
  Li  Li3  1  0.667511  0.334389  0.393338  1
  Cr  Cr4  1  0.167678  0.823931  0.217488  1
  Cr  Cr5  1  0.168134  0.339678  0.214553  1
  Cr  Cr6  1  0.338766  0.168178  0.715247  1
  Co  Co7  1  0.659475  0.830936  0.214813  1
  Co  Co8  1  0.831003  0.660394  0.715227  1
  Co  Co9  1  0.829021  0.168635  0.715038  1
  Sn  Sn10  1  0.336066  0.669903  0.494939  1
  Sn  Sn11  1  0.668275  0.335802  0.991276  1
  O  O12  1  0.154886  0.839957  0.600176  1
  O  O13  1  0.031930  0.525712  0.338433  1
  O  O14  1  0.339378  0.680250  0.107962  1
  O  O15  1  0.993359  0.988290  0.306245  1
  O  O16  1  0.983798  0.995045  0.807354  1
  O  O17  1  0.149696  0.314581  0.601960  1
  O  O18  1  0.486337  0.967827  0.334605  1
  O  O19  1  0.488832  0.523537  0.336687  1
  O  O20  1  0.315513  0.151359  0.099770  1
  O  O21  1  0.684062  0.844803  0.606984  1
  O  O22  1  0.523866  0.488075  0.836654  1
  O  O23  1  0.529043  0.032294  0.834339  1
  O  O24  1  0.683533  0.338276  0.612406  1
  O  O25  1  0.841275  0.680754  0.102773  1
  O  O26  1  0.967791  0.481151  0.827567  1
  O  O27  1  0.837128  0.157553  0.101393  1
