# generated using pymatgen
data_CoOF
_symmetry_space_group_name_H-M   'P 1'
_cell_length_a   4.68315851
_cell_length_b   18.39379292
_cell_length_c   2.92075473
_cell_angle_alpha   90.00000000
_cell_angle_beta   90.00000000
_cell_angle_gamma   91.78588283
_symmetry_Int_Tables_number   1
_chemical_formula_structural   CoOF
_chemical_formula_sum   'Co8 O8 F8'
_cell_volume   251.47466450
_cell_formula_units_Z   8
loop_
 _symmetry_equiv_pos_site_id
 _symmetry_equiv_pos_as_xyz
  1  'x, y, z'
loop_
 _atom_site_type_symbol
 _atom_site_label
 _atom_site_symmetry_multiplicity
 _atom_site_fract_x
 _atom_site_fract_y
 _atom_site_fract_z
 _atom_site_occupancy
  Co  Co0  1  0.969211  0.999473  0.000000  1
  Co  Co1  1  0.133331  0.248061  0.000000  1
  Co  Co2  1  0.020415  0.499515  0.000000  1
  Co  Co3  1  0.916330  0.753351  0.000000  1
  Co  Co4  1  0.554370  0.127064  0.500000  1
  Co  Co5  1  0.568340  0.371701  0.500000  1
  Co  Co6  1  0.468953  0.625615  0.500000  1
  Co  Co7  1  0.373958  0.875684  0.500000  1
  O  O8  1  0.290300  0.201093  0.500000  1
  O  O9  1  0.114458  0.948485  0.500000  1
  O  O10  1  0.300127  0.577269  0.000000  1
  O  O11  1  0.204789  0.829796  0.000000  1
  O  O12  1  0.405567  0.321549  0.000000  1
  O  O13  1  0.740182  0.421403  0.000000  1
  O  O14  1  0.637326  0.674803  0.000000  1
  O  O15  1  0.805288  0.048196  0.500000  1
  F  F16  1  0.231109  0.449960  0.500000  1
  F  F17  1  0.125903  0.703880  0.500000  1
  F  F18  1  0.328189  0.075856  0.000000  1
  F  F19  1  0.797920  0.176555  0.000000  1
  F  F20  1  0.584125  0.923108  0.000000  1
  F  F21  1  0.933081  0.295993  0.500000  1
  F  F22  1  0.810229  0.548144  0.500000  1
  F  F23  1  0.686499  0.803449  0.500000  1
