# generated using pymatgen
data_Zr2N2O
_symmetry_space_group_name_H-M   'P 1'
_cell_length_a   8.88208304
_cell_length_b   8.86510835
_cell_length_c   8.87993581
_cell_angle_alpha   109.51957562
_cell_angle_beta   109.42971406
_cell_angle_gamma   109.43299717
_symmetry_Int_Tables_number   1
_chemical_formula_structural   Zr2N2O
_chemical_formula_sum   'Zr16 N16 O8'
_cell_volume   538.46143480
_cell_formula_units_Z   8
loop_
 _symmetry_equiv_pos_site_id
 _symmetry_equiv_pos_as_xyz
  1  'x, y, z'
loop_
 _atom_site_type_symbol
 _atom_site_label
 _atom_site_symmetry_multiplicity
 _atom_site_fract_x
 _atom_site_fract_y
 _atom_site_fract_z
 _atom_site_occupancy
  Zr  Zr0  1  0.498926  0.996463  0.998610  1
  Zr  Zr1  1  0.955823  0.247544  0.216816  1
  Zr  Zr2  1  0.780093  0.031847  0.753516  1
  Zr  Zr3  1  0.708396  0.468427  0.252312  1
  Zr  Zr4  1  0.756850  0.287856  0.540029  1
  Zr  Zr5  1  0.750141  0.780076  0.031630  1
  Zr  Zr6  1  0.464459  0.250412  0.711941  1
  Zr  Zr7  1  0.010425  0.998938  0.510126  1
  Zr  Zr8  1  0.490749  0.505867  0.502087  1
  Zr  Zr9  1  0.997975  0.505378  0.988948  1
  Zr  Zr10  1  0.532212  0.742039  0.286461  1
  Zr  Zr11  1  0.254589  0.718241  0.466000  1
  Zr  Zr12  1  0.246295  0.214208  0.963401  1
  Zr  Zr13  1  0.213393  0.954051  0.243090  1
  Zr  Zr14  1  0.282112  0.530796  0.741540  1
  Zr  Zr15  1  0.046442  0.761755  0.792964  1
  N  N16  1  0.740360  0.230445  0.274534  1
  N  N17  1  0.278288  0.015665  0.049337  1
  N  N18  1  0.773795  0.726823  0.260481  1
  N  N19  1  0.455929  0.463964  0.227560  1
  N  N20  1  0.726300  0.258694  0.773407  1
  N  N21  1  0.225509  0.450557  0.461809  1
  N  N22  1  0.272342  0.735630  0.222519  1
  N  N23  1  0.983224  0.952037  0.724285  1
  N  N24  1  0.957602  0.729965  0.993286  1
  N  N25  1  0.545090  0.534976  0.771597  1
  N  N26  1  0.534385  0.772539  0.543204  1
  N  N27  1  0.227784  0.271922  0.742453  1
  N  N28  1  0.029767  0.486106  0.757524  1
  N  N29  1  0.730120  0.988868  0.957782  1
  N  N30  1  0.238510  0.968880  0.508618  1
  N  N31  1  0.265964  0.776075  0.730176  1
  O  O32  1  0.760434  0.035185  0.485392  1
  O  O33  1  0.964758  0.506951  0.235150  1
  O  O34  1  0.469705  0.230746  0.456968  1
  O  O35  1  0.047549  0.275117  0.015437  1
  O  O36  1  0.488984  0.764675  0.035821  1
  O  O37  1  0.011832  0.048797  0.274782  1
  O  O38  1  0.770210  0.542199  0.531899  1
  O  O39  1  0.512680  0.239288  0.966508  1
