# generated using pymatgen
data_Ti7Sn3O20
_symmetry_space_group_name_H-M   'P 1'
_cell_length_a   4.70743238
_cell_length_b   4.70743238
_cell_length_c   15.28502039
_cell_angle_alpha   90.00000000
_cell_angle_beta   90.00000000
_cell_angle_gamma   89.99476778
_symmetry_Int_Tables_number   1
_chemical_formula_structural   Ti7Sn3O20
_chemical_formula_sum   'Ti7 Sn3 O20'
_cell_volume   338.71482241
_cell_formula_units_Z   1
loop_
 _symmetry_equiv_pos_site_id
 _symmetry_equiv_pos_as_xyz
  1  'x, y, z'
loop_
 _atom_site_type_symbol
 _atom_site_label
 _atom_site_symmetry_multiplicity
 _atom_site_fract_x
 _atom_site_fract_y
 _atom_site_fract_z
 _atom_site_occupancy
  Ti  Ti0  1  0.000000  0.000000  0.401662  1
  Ti  Ti1  1  0.000000  0.000000  0.998338  1
  Ti  Ti2  1  0.000000  0.000000  0.603055  1
  Ti  Ti3  1  0.000000  0.000000  0.796945  1
  Ti  Ti4  1  0.500000  0.500000  0.700000  1
  Ti  Ti5  1  0.500000  0.500000  0.100629  1
  Ti  Ti6  1  0.500000  0.500000  0.299371  1
  Sn  Sn7  1  0.000000  0.000000  0.200000  1
  Sn  Sn8  1  0.500000  0.500000  0.499673  1
  Sn  Sn9  1  0.500000  0.500000  0.900327  1
  O  O10  1  0.200260  0.799740  0.095224  1
  O  O11  1  0.186897  0.813103  0.501439  1
  O  O12  1  0.200260  0.799740  0.304776  1
  O  O13  1  0.193541  0.806459  0.700000  1
  O  O14  1  0.186897  0.813103  0.898561  1
  O  O15  1  0.299335  0.299335  0.004346  1
  O  O16  1  0.313130  0.313130  0.200000  1
  O  O17  1  0.300652  0.300652  0.794650  1
  O  O18  1  0.299335  0.299335  0.395654  1
  O  O19  1  0.300652  0.300652  0.605350  1
  O  O20  1  0.700665  0.700665  0.004346  1
  O  O21  1  0.686870  0.686870  0.200000  1
  O  O22  1  0.700665  0.700665  0.395654  1
  O  O23  1  0.699348  0.699348  0.605350  1
  O  O24  1  0.699348  0.699348  0.794650  1
  O  O25  1  0.799740  0.200260  0.095224  1
  O  O26  1  0.813103  0.186897  0.501439  1
  O  O27  1  0.806459  0.193541  0.700000  1
  O  O28  1  0.799740  0.200260  0.304776  1
  O  O29  1  0.813103  0.186897  0.898561  1
