# generated using pymatgen
data_Fe5(O4F)2
_symmetry_space_group_name_H-M   'P 1'
_cell_length_a   4.65672817
_cell_length_b   4.65671429
_cell_length_c   15.06924974
_cell_angle_alpha   89.59687749
_cell_angle_beta   90.39912557
_cell_angle_gamma   91.60600596
_symmetry_Int_Tables_number   1
_chemical_formula_structural   Fe5(O4F)2
_chemical_formula_sum   'Fe10 O16 F4'
_cell_volume   326.63353549
_cell_formula_units_Z   2
loop_
 _symmetry_equiv_pos_site_id
 _symmetry_equiv_pos_as_xyz
  1  'x, y, z'
loop_
 _atom_site_type_symbol
 _atom_site_label
 _atom_site_symmetry_multiplicity
 _atom_site_fract_x
 _atom_site_fract_y
 _atom_site_fract_z
 _atom_site_occupancy
  Fe  Fe0  1  0.001408  0.996552  0.002171  1
  Fe  Fe1  1  0.991394  0.002274  0.205731  1
  Fe  Fe2  1  0.020728  0.018802  0.400027  1
  Fe  Fe3  1  0.004226  0.989701  0.594674  1
  Fe  Fe4  1  0.011412  0.986893  0.797126  1
  Fe  Fe5  1  0.524490  0.471913  0.099673  1
  Fe  Fe6  1  0.498127  0.489925  0.503842  1
  Fe  Fe7  1  0.491350  0.496351  0.296514  1
  Fe  Fe8  1  0.478598  0.518426  0.700436  1
  Fe  Fe9  1  0.477007  0.522200  0.900077  1
  O  O10  1  0.192759  0.812340  0.302717  1
  O  O11  1  0.199215  0.809101  0.495179  1
  O  O12  1  0.181714  0.813233  0.695576  1
  O  O13  1  0.181648  0.817025  0.902028  1
  O  O14  1  0.307399  0.300046  0.000836  1
  O  O15  1  0.310093  0.296254  0.196931  1
  O  O16  1  0.320354  0.319222  0.400069  1
  O  O17  1  0.302002  0.305898  0.603885  1
  O  O18  1  0.297131  0.313020  0.798411  1
  O  O19  1  0.697017  0.690640  0.001069  1
  O  O20  1  0.695188  0.684578  0.199192  1
  O  O21  1  0.689004  0.691130  0.601674  1
  O  O22  1  0.684899  0.700578  0.798037  1
  O  O23  1  0.819639  0.175284  0.101179  1
  O  O24  1  0.815328  0.190297  0.498203  1
  O  O25  1  0.810586  0.197297  0.305199  1
  F  F26  1  0.202277  0.791210  0.102806  1
  F  F27  1  0.700975  0.699964  0.400280  1
  F  F28  1  0.797110  0.202185  0.897853  1
  F  F29  1  0.796922  0.197663  0.698604  1
