# generated using pymatgen
data_Ba4Fe4O11
_symmetry_space_group_name_H-M   'P 1'
_cell_length_a   5.79561736
_cell_length_b   5.80264224
_cell_length_c   28.43960870
_cell_angle_alpha   89.75140134
_cell_angle_beta   90.19542684
_cell_angle_gamma   120.34771816
_symmetry_Int_Tables_number   1
_chemical_formula_structural   Ba4Fe4O11
_chemical_formula_sum   'Ba12 Fe12 O33'
_cell_volume   825.35890370
_cell_formula_units_Z   3
loop_
 _symmetry_equiv_pos_site_id
 _symmetry_equiv_pos_as_xyz
  1  'x, y, z'
loop_
 _atom_site_type_symbol
 _atom_site_label
 _atom_site_symmetry_multiplicity
 _atom_site_fract_x
 _atom_site_fract_y
 _atom_site_fract_z
 _atom_site_occupancy
  Ba  Ba0  1  0.333788  0.665866  0.797860  1
  Ba  Ba1  1  0.330800  0.663885  0.288922  1
  Ba  Ba2  1  0.333561  0.666574  0.950763  1
  Ba  Ba3  1  0.007646  0.014765  0.373899  1
  Ba  Ba4  1  0.997248  0.000337  0.127791  1
  Ba  Ba5  1  0.991310  0.004540  0.626357  1
  Ba  Ba6  1  0.331970  0.660643  0.458667  1
  Ba  Ba7  1  0.000213  0.999772  0.873609  1
  Ba  Ba8  1  0.671744  0.327474  0.045676  1
  Ba  Ba9  1  0.667302  0.328467  0.541099  1
  Ba  Ba10  1  0.663329  0.333528  0.203470  1
  Ba  Ba11  1  0.668462  0.329557  0.711804  1
  Fe  Fe12  1  0.359279  0.638761  0.080744  1
  Fe  Fe13  1  0.319312  0.681175  0.574536  1
  Fe  Fe14  1  0.332515  0.669528  0.172540  1
  Fe  Fe15  1  0.980803  0.018646  0.994986  1
  Fe  Fe16  1  0.000502  0.004223  0.249085  1
  Fe  Fe17  1  0.998977  0.005638  0.500192  1
  Fe  Fe18  1  0.319448  0.678659  0.676648  1
  Fe  Fe19  1  0.998556  0.000225  0.751327  1
  Fe  Fe20  1  0.679663  0.360009  0.323422  1
  Fe  Fe21  1  0.666653  0.333046  0.828991  1
  Fe  Fe22  1  0.660547  0.339498  0.922974  1
  Fe  Fe23  1  0.680055  0.362249  0.425326  1
  O  O24  1  0.155808  0.841121  0.710455  1
  O  O25  1  0.165309  0.837719  0.207573  1
  O  O26  1  0.161147  0.845196  0.540669  1
  O  O27  1  0.042589  0.519494  0.117727  1
  O  O28  1  0.056787  0.499523  0.625669  1
  O  O29  1  0.174273  0.338475  0.540972  1
  O  O30  1  0.170169  0.331212  0.040108  1
  O  O31  1  0.178552  0.338652  0.706366  1
  O  O32  1  0.159275  0.334076  0.210872  1
  O  O33  1  0.494445  0.943797  0.626481  1
  O  O34  1  0.477665  0.956038  0.116836  1
  O  O35  1  0.497139  0.500275  0.127431  1
  O  O36  1  0.660422  0.819410  0.706306  1
  O  O37  1  0.666544  0.844139  0.208893  1
  O  O38  1  0.668148  0.828003  0.040027  1
  O  O39  1  0.662751  0.823277  0.543873  1
  O  O40  1  0.340699  0.172956  0.791643  1
  O  O41  1  0.335776  0.160374  0.292650  1
  O  O42  1  0.338528  0.161111  0.456367  1
  O  O43  1  0.326895  0.150014  0.964516  1
  O  O44  1  0.504889  0.449421  0.374041  1
  O  O45  1  0.511431  0.488209  0.880833  1
  O  O46  1  0.843015  0.684840  0.289690  1
  O  O47  1  0.826674  0.659028  0.791738  1
  O  O48  1  0.837716  0.684397  0.459524  1
  O  O49  1  0.850718  0.673434  0.964596  1
  O  O50  1  0.513114  0.036256  0.873441  1
  O  O51  1  0.944051  0.446000  0.375376  1
  O  O52  1  0.963975  0.486636  0.873466  1
  O  O53  1  0.821480  0.160302  0.294284  1
  O  O54  1  0.824295  0.164466  0.458948  1
  O  O55  1  0.838860  0.160651  0.788270  1
  O  O56  1  0.825412  0.174071  0.957991  1
