# generated using pymatgen
data_Li2AlVO4
_symmetry_space_group_name_H-M   'P 1'
_cell_length_a   6.48607369
_cell_length_b   5.55948278
_cell_length_c   4.96139987
_cell_angle_alpha   90.00000000
_cell_angle_beta   89.90148399
_cell_angle_gamma   90.00000000
_symmetry_Int_Tables_number   1
_chemical_formula_structural   Li2AlVO4
_chemical_formula_sum   'Li4 Al2 V2 O8'
_cell_volume   178.90392011
_cell_formula_units_Z   2
loop_
 _symmetry_equiv_pos_site_id
 _symmetry_equiv_pos_as_xyz
  1  'x, y, z'
loop_
 _atom_site_type_symbol
 _atom_site_label
 _atom_site_symmetry_multiplicity
 _atom_site_fract_x
 _atom_site_fract_y
 _atom_site_fract_z
 _atom_site_occupancy
  Li  Li0  1  0.001091  0.824657  0.493899  1
  Li  Li1  1  0.254239  0.341795  0.492654  1
  Li  Li2  1  0.501091  0.175343  0.993899  1
  Li  Li3  1  0.754239  0.658205  0.992654  1
  Al  Al4  1  0.252866  0.668475  0.002285  1
  Al  Al5  1  0.752866  0.331525  0.502285  1
  V  V6  1  0.008527  0.164786  0.992388  1
  V  V7  1  0.508527  0.835214  0.492388  1
  O  O8  1  0.026380  0.827111  0.899672  1
  O  O9  1  0.244775  0.361859  0.900561  1
  O  O10  1  0.260969  0.681999  0.362583  1
  O  O11  1  0.481151  0.817472  0.888959  1
  O  O12  1  0.526380  0.172889  0.399672  1
  O  O13  1  0.744775  0.638141  0.400561  1
  O  O14  1  0.760969  0.318001  0.862583  1
  O  O15  1  0.981151  0.182528  0.388959  1
