# generated using pymatgen
data_Li3V3P8O29
_symmetry_space_group_name_H-M   'P 1'
_cell_length_a   9.77418409
_cell_length_b   9.70765637
_cell_length_c   14.32604713
_cell_angle_alpha   89.60826196
_cell_angle_beta   90.56806296
_cell_angle_gamma   60.04696470
_symmetry_Int_Tables_number   1
_chemical_formula_structural   Li3V3P8O29
_chemical_formula_sum   'Li6 V6 P16 O58'
_cell_volume   1177.59433738
_cell_formula_units_Z   2
loop_
 _symmetry_equiv_pos_site_id
 _symmetry_equiv_pos_as_xyz
  1  'x, y, z'
loop_
 _atom_site_type_symbol
 _atom_site_label
 _atom_site_symmetry_multiplicity
 _atom_site_fract_x
 _atom_site_fract_y
 _atom_site_fract_z
 _atom_site_occupancy
  Li  Li0  1  0.326435  0.904844  0.055853  1
  Li  Li1  1  0.323928  0.763183  0.561681  1
  Li  Li2  1  0.670749  0.096098  0.941418  1
  Li  Li3  1  0.226882  0.098711  0.448454  1
  Li  Li4  1  0.004186  0.995674  0.000318  1
  Li  Li5  1  0.924725  0.011399  0.506104  1
  V  V6  1  0.567329  0.436029  0.253157  1
  V  V7  1  0.437426  0.557226  0.752276  1
  V  V8  1  0.569932  0.995533  0.746142  1
  V  V9  1  0.438134  0.001782  0.250373  1
  V  V10  1  0.001644  0.560744  0.245446  1
  V  V11  1  0.998607  0.441345  0.751990  1
  P  P12  1  0.920176  0.782787  0.843306  1
  P  P13  1  0.784059  0.907985  0.335686  1
  P  P14  1  0.920319  0.301456  0.338266  1
  P  P15  1  0.662058  0.669088  0.133978  1
  P  P16  1  0.662917  0.665718  0.632191  1
  P  P17  1  0.784155  0.302795  0.838665  1
  P  P18  1  0.694470  0.223329  0.656118  1
  P  P19  1  0.317970  0.907504  0.840791  1
  P  P20  1  0.686472  0.092035  0.157380  1
  P  P21  1  0.315521  0.774694  0.346316  1
  P  P22  1  0.219562  0.697371  0.165223  1
  P  P23  1  0.332715  0.333227  0.365962  1
  P  P24  1  0.337667  0.325704  0.867298  1
  P  P25  1  0.081559  0.700242  0.658402  1
  P  P26  1  0.222501  0.093521  0.663192  1
  P  P27  1  0.083253  0.217426  0.154285  1
  O  O28  1  0.005715  0.799697  0.574220  1
  O  O29  1  0.916678  0.732890  0.328698  1
  O  O30  1  0.758622  0.026082  0.065855  1
  O  O31  1  0.742023  0.915976  0.834651  1
  O  O32  1  0.926865  0.619307  0.830775  1
  O  O33  1  0.810753  0.667499  0.176218  1
  O  O34  1  0.925092  0.457787  0.325393  1
  O  O35  1  0.013998  0.188677  0.069603  1
  O  O36  1  0.915605  0.347269  0.834294  1
  O  O37  1  0.661927  0.816206  0.678081  1
  O  O38  1  0.620921  0.915371  0.323863  1
  O  O39  1  0.810292  0.523606  0.681302  1
  O  O40  1  0.644391  0.679956  0.030862  1
  O  O41  1  0.659199  0.674429  0.528940  1
  O  O42  1  0.664469  0.521125  0.180498  1
  O  O43  1  0.472015  0.911475  0.826223  1
  O  O44  1  0.512310  0.818015  0.177808  1
  O  O45  1  0.744719  0.342918  0.333696  1
  O  O46  1  0.804890  0.203189  0.745275  1
  O  O47  1  0.784141  0.201458  0.569933  1
  O  O48  1  0.795889  0.201430  0.920156  1
  O  O49  1  0.621182  0.459225  0.826898  1
  O  O50  1  0.512159  0.669846  0.672158  1
  O  O51  1  0.652914  0.263886  0.171304  1
  O  O52  1  0.472049  0.617981  0.329074  1
  O  O53  1  0.343631  0.919268  0.335948  1
  O  O54  1  0.803368  0.989846  0.241307  1
  O  O55  1  0.793526  0.991692  0.418535  1
  O  O56  1  0.226735  0.006894  0.575736  1
  O  O57  1  0.652165  0.089026  0.670828  1
  O  O58  1  0.539732  0.383635  0.669171  1
  O  O59  1  0.351706  0.734216  0.827957  1
  O  O60  1  0.478250  0.336093  0.323516  1
  O  O61  1  0.381202  0.542454  0.174661  1
  O  O62  1  0.202966  0.804730  0.085672  1
  O  O63  1  0.242655  0.782105  0.437984  1
  O  O64  1  0.197765  0.793298  0.262026  1
  O  O65  1  0.259890  0.654106  0.664749  1
  O  O66  1  0.489497  0.178395  0.829310  1
  O  O67  1  0.529529  0.090707  0.174836  1
  O  O68  1  0.339027  0.473460  0.818423  1
  O  O69  1  0.340629  0.330848  0.970537  1
  O  O70  1  0.327038  0.325894  0.469137  1
  O  O71  1  0.187075  0.477064  0.316605  1
  O  O72  1  0.379952  0.094565  0.677235  1
  O  O73  1  0.330762  0.182825  0.323659  1
  O  O74  1  0.085293  0.656032  0.166208  1
  O  O75  1  0.001941  0.802621  0.750757  1
  O  O76  1  0.992675  0.808345  0.927637  1
  O  O77  1  0.072806  0.545177  0.671898  1
  O  O78  1  0.189231  0.331482  0.820338  1
  O  O79  1  0.074464  0.381341  0.166269  1
  O  O80  1  0.261858  0.084058  0.164699  1
  O  O81  1  0.237446  0.973419  0.930529  1
  O  O82  1  0.203206  0.003045  0.752744  1
  O  O83  1  0.082168  0.264447  0.667128  1
  O  O84  1  0.006377  0.202728  0.421712  1
  O  O85  1  0.999526  0.197914  0.246203  1
