# generated using pymatgen
data_V3HPb5O13
_symmetry_space_group_name_H-M   'P 1'
_cell_length_a   10.36108151
_cell_length_b   10.36132070
_cell_length_c   7.56335435
_cell_angle_alpha   90.00324412
_cell_angle_beta   89.99774608
_cell_angle_gamma   120.00704481
_symmetry_Int_Tables_number   1
_chemical_formula_structural   V3HPb5O13
_chemical_formula_sum   'V6 H2 Pb10 O26'
_cell_volume   703.12809471
_cell_formula_units_Z   2
loop_
 _symmetry_equiv_pos_site_id
 _symmetry_equiv_pos_as_xyz
  1  'x, y, z'
loop_
 _atom_site_type_symbol
 _atom_site_label
 _atom_site_symmetry_multiplicity
 _atom_site_fract_x
 _atom_site_fract_y
 _atom_site_fract_z
 _atom_site_occupancy
  V  V0  1  0.398506  0.368596  0.743980  1
  V  V1  1  0.630374  0.029610  0.743947  1
  V  V2  1  0.969455  0.600318  0.743911  1
  V  V3  1  0.600530  0.630443  0.243982  1
  V  V4  1  0.368639  0.969384  0.243945  1
  V  V5  1  0.029545  0.398700  0.243913  1
  H  H6  1  0.999970  0.999985  0.936409  1
  H  H7  1  0.999148  0.999966  0.436406  1
  Pb  Pb8  1  0.332802  0.665994  0.499288  1
  Pb  Pb9  1  0.666084  0.332887  0.483334  1
  Pb  Pb10  1  0.666145  0.332968  0.999285  1
  Pb  Pb11  1  0.332893  0.666098  0.983330  1
  Pb  Pb12  1  0.250455  0.006576  0.750473  1
  Pb  Pb13  1  0.992389  0.243069  0.750602  1
  Pb  Pb14  1  0.756057  0.748607  0.750509  1
  Pb  Pb15  1  0.748500  0.992439  0.250425  1
  Pb  Pb16  1  0.006708  0.756029  0.250664  1
  Pb  Pb17  1  0.242989  0.250337  0.250495  1
  O  O18  1  0.326406  0.489867  0.747140  1
  O  O19  1  0.509033  0.836276  0.747143  1
  O  O20  1  0.162843  0.672562  0.747128  1
  O  O21  1  0.672585  0.509141  0.247137  1
  O  O22  1  0.489968  0.162721  0.247145  1
  O  O23  1  0.836152  0.326422  0.247131  1
  O  O24  1  0.594296  0.469440  0.740830  1
  O  O25  1  0.529644  0.124646  0.740835  1
  O  O26  1  0.874415  0.404586  0.740631  1
  O  O27  1  0.404774  0.529694  0.240837  1
  O  O28  1  0.469412  0.874390  0.240824  1
  O  O29  1  0.124546  0.594452  0.240634  1
  O  O30  1  0.336092  0.249165  0.561937  1
  O  O31  1  0.749813  0.086655  0.561899  1
  O  O32  1  0.912367  0.662938  0.562031  1
  O  O33  1  0.653049  0.749478  0.425522  1
  O  O34  1  0.249560  0.902774  0.425461  1
  O  O35  1  0.096315  0.346621  0.425586  1
  O  O36  1  0.662936  0.749849  0.061924  1
  O  O37  1  0.249191  0.912336  0.061907  1
  O  O38  1  0.086638  0.336088  0.062032  1
  O  O39  1  0.346026  0.249555  0.925496  1
  O  O40  1  0.749455  0.096213  0.925467  1
  O  O41  1  0.902710  0.652431  0.925598  1
  O  O42  1  0.999866  0.999825  0.807414  1
  O  O43  1  0.999717  0.999871  0.307414  1
