# generated using pymatgen
data_Mg2FeO4
_symmetry_space_group_name_H-M   'P 1'
_cell_length_a   6.01054967
_cell_length_b   6.01056754
_cell_length_c   6.01054967
_cell_angle_alpha   119.99990166
_cell_angle_beta   90.00000000
_cell_angle_gamma   60.00009834
_symmetry_Int_Tables_number   1
_chemical_formula_structural   Mg2FeO4
_chemical_formula_sum   'Mg4 Fe2 O8'
_cell_volume   153.54304728
_cell_formula_units_Z   2
loop_
 _symmetry_equiv_pos_site_id
 _symmetry_equiv_pos_as_xyz
  1  'x, y, z'
loop_
 _atom_site_type_symbol
 _atom_site_label
 _atom_site_symmetry_multiplicity
 _atom_site_fract_x
 _atom_site_fract_y
 _atom_site_fract_z
 _atom_site_occupancy
  Mg  Mg0  1  0.375000  0.750000  0.375000  1
  Mg  Mg1  1  0.875000  0.750000  0.375000  1
  Mg  Mg2  1  0.375000  0.250000  0.875000  1
  Mg  Mg3  1  0.375000  0.250000  0.375000  1
  Fe  Fe4  1  0.750000  0.500000  0.750000  1
  Fe  Fe5  1  0.000000  0.000000  0.000000  1
  O  O6  1  0.621462  0.757076  0.621479  1
  O  O7  1  0.621462  0.757076  0.135597  1
  O  O8  1  0.128538  0.742924  0.128521  1
  O  O9  1  0.128538  0.742924  0.614403  1
  O  O10  1  0.614403  0.257076  0.128538  1
  O  O11  1  0.128521  0.257076  0.128538  1
  O  O12  1  0.621479  0.242924  0.621462  1
  O  O13  1  0.135597  0.242924  0.621462  1
