# generated using pymatgen
data_Li6VCoP2(CO7)2
_symmetry_space_group_name_H-M   'P 1'
_cell_length_a   8.44905115
_cell_length_b   4.99369939
_cell_length_c   6.55552048
_cell_angle_alpha   90.00000000
_cell_angle_beta   90.00000000
_cell_angle_gamma   84.99894364
_symmetry_Int_Tables_number   1
_chemical_formula_structural   Li6VCoP2(CO7)2
_chemical_formula_sum   'Li6 V1 Co1 P2 C2 O14'
_cell_volume   275.53770635
_cell_formula_units_Z   1
loop_
 _symmetry_equiv_pos_site_id
 _symmetry_equiv_pos_as_xyz
  1  'x, y, z'
loop_
 _atom_site_type_symbol
 _atom_site_label
 _atom_site_symmetry_multiplicity
 _atom_site_fract_x
 _atom_site_fract_y
 _atom_site_fract_z
 _atom_site_occupancy
  Li  Li0  1  0.094318  0.760912  0.250000  1
  Li  Li1  1  0.276558  0.247084  0.028109  1
  Li  Li2  1  0.276558  0.247084  0.471891  1
  Li  Li3  1  0.723904  0.754026  0.523538  1
  Li  Li4  1  0.723904  0.754026  0.976462  1
  Li  Li5  1  0.907005  0.238351  0.750000  1
  V  V6  1  0.330016  0.793272  0.750000  1
  Co  Co7  1  0.667296  0.210499  0.250000  1
  P  P8  1  0.412704  0.720432  0.250000  1
  P  P9  1  0.588986  0.280677  0.750000  1
  C  C10  1  0.034429  0.700567  0.750000  1
  C  C11  1  0.963519  0.295902  0.250000  1
  O  O12  1  0.075147  0.945635  0.750000  1
  O  O13  1  0.110179  0.355961  0.250000  1
  O  O14  1  0.148060  0.506694  0.750000  1
  O  O15  1  0.308762  0.825571  0.066458  1
  O  O16  1  0.308762  0.825571  0.433542  1
  O  O17  1  0.420893  0.180643  0.750000  1
  O  O18  1  0.432024  0.405674  0.250000  1
  O  O19  1  0.570357  0.594659  0.750000  1
  O  O20  1  0.580048  0.823721  0.250000  1
  O  O21  1  0.691702  0.174707  0.935772  1
  O  O22  1  0.691702  0.174707  0.564228  1
  O  O23  1  0.848520  0.487342  0.250000  1
  O  O24  1  0.887642  0.646573  0.750000  1
  O  O25  1  0.927001  0.049711  0.250000  1
