# generated using pymatgen
data_Y6N2O5
_symmetry_space_group_name_H-M   'P 1'
_cell_length_a   7.61445708
_cell_length_b   4.78557903
_cell_length_c   5.93820526
_cell_angle_alpha   113.77650327
_cell_angle_beta   97.66765438
_cell_angle_gamma   90.03969733
_symmetry_Int_Tables_number   1
_chemical_formula_structural   Y6N2O5
_chemical_formula_sum   'Y6 N2 O5'
_cell_volume   195.89498231
_cell_formula_units_Z   1
loop_
 _symmetry_equiv_pos_site_id
 _symmetry_equiv_pos_as_xyz
  1  'x, y, z'
loop_
 _atom_site_type_symbol
 _atom_site_label
 _atom_site_symmetry_multiplicity
 _atom_site_fract_x
 _atom_site_fract_y
 _atom_site_fract_z
 _atom_site_occupancy
  Y  Y0  1  0.140821  0.708055  0.418081  1
  Y  Y1  1  0.285262  0.433701  0.868791  1
  Y  Y2  1  0.578513  0.853754  0.709144  1
  Y  Y3  1  0.425482  0.145059  0.291755  1
  Y  Y4  1  0.862797  0.290945  0.582453  1
  Y  Y5  1  0.718530  0.565531  0.130214  1
  N  N6  1  0.426693  0.642164  0.285350  1
  N  N7  1  0.577066  0.357183  0.714405  1
  O  O8  1  0.300077  0.920537  0.842166  1
  O  O9  1  0.001987  0.501134  0.000007  1
  O  O10  1  0.147609  0.226966  0.457551  1
  O  O11  1  0.703697  0.079579  0.158059  1
  O  O12  1  0.856386  0.770927  0.542405  1
