# generated using pymatgen
data_Na3AsO4
_symmetry_space_group_name_H-M   'P 1'
_cell_length_a   7.12790930
_cell_length_b   6.07130644
_cell_length_c   5.66792889
_cell_angle_alpha   90.00000000
_cell_angle_beta   90.00000000
_cell_angle_gamma   90.00000000
_symmetry_Int_Tables_number   1
_chemical_formula_structural   Na3AsO4
_chemical_formula_sum   'Na6 As2 O8'
_cell_volume   245.28371290
_cell_formula_units_Z   2
loop_
 _symmetry_equiv_pos_site_id
 _symmetry_equiv_pos_as_xyz
  1  'x, y, z'
loop_
 _atom_site_type_symbol
 _atom_site_label
 _atom_site_symmetry_multiplicity
 _atom_site_fract_x
 _atom_site_fract_y
 _atom_site_fract_z
 _atom_site_occupancy
  Na  Na0  1  0.000000  0.157974  0.495038  1
  Na  Na1  1  0.248421  0.325948  0.995604  1
  Na  Na2  1  0.251579  0.674052  0.495604  1
  Na  Na3  1  0.500000  0.842026  0.995038  1
  Na  Na4  1  0.748421  0.674052  0.495604  1
  Na  Na5  1  0.751579  0.325948  0.995604  1
  As  As6  1  0.000000  0.828541  0.001569  1
  As  As7  1  0.500000  0.171459  0.501569  1
  O  O8  1  0.000000  0.098927  0.904273  1
  O  O9  1  0.000000  0.823060  0.305971  1
  O  O10  1  0.301118  0.305932  0.401115  1
  O  O11  1  0.198882  0.694068  0.901115  1
  O  O12  1  0.500000  0.176940  0.805971  1
  O  O13  1  0.500000  0.901073  0.404273  1
  O  O14  1  0.801118  0.694068  0.901115  1
  O  O15  1  0.698882  0.305932  0.401115  1
