# generated using pymatgen
data_Li2Mn3NbO8
_symmetry_space_group_name_H-M   'P 1'
_cell_length_a   8.63314563
_cell_length_b   8.63586507
_cell_length_c   8.63434399
_cell_angle_alpha   90.00285528
_cell_angle_beta   90.00279667
_cell_angle_gamma   89.99872160
_symmetry_Int_Tables_number   1
_chemical_formula_structural   Li2Mn3NbO8
_chemical_formula_sum   'Li8 Mn12 Nb4 O32'
_cell_volume   643.73075840
_cell_formula_units_Z   4
loop_
 _symmetry_equiv_pos_site_id
 _symmetry_equiv_pos_as_xyz
  1  'x, y, z'
loop_
 _atom_site_type_symbol
 _atom_site_label
 _atom_site_symmetry_multiplicity
 _atom_site_fract_x
 _atom_site_fract_y
 _atom_site_fract_z
 _atom_site_occupancy
  Li  Li0  1  0.007178  0.007296  0.007214  1
  Li  Li1  1  0.242783  0.242761  0.242721  1
  Li  Li2  1  0.257250  0.757214  0.742859  1
  Li  Li3  1  0.492684  0.992736  0.507341  1
  Li  Li4  1  0.507355  0.492801  0.992817  1
  Li  Li5  1  0.742766  0.257263  0.757158  1
  Li  Li6  1  0.757240  0.742801  0.257338  1
  Li  Li7  1  0.992877  0.507197  0.492698  1
  Mn  Mn8  1  0.123065  0.126847  0.625039  1
  Mn  Mn9  1  0.125121  0.376952  0.873180  1
  Mn  Mn10  1  0.126569  0.625337  0.122991  1
  Mn  Mn11  1  0.372868  0.375326  0.623408  1
  Mn  Mn12  1  0.375035  0.623138  0.373140  1
  Mn  Mn13  1  0.376728  0.873005  0.124879  1
  Mn  Mn14  1  0.623133  0.373204  0.374850  1
  Mn  Mn15  1  0.625227  0.123015  0.126689  1
  Mn  Mn16  1  0.626930  0.875207  0.876593  1
  Mn  Mn17  1  0.873438  0.125305  0.376971  1
  Mn  Mn18  1  0.875163  0.876689  0.627052  1
  Mn  Mn19  1  0.876939  0.626763  0.874899  1
  Nb  Nb20  1  0.124973  0.874917  0.375125  1
  Nb  Nb21  1  0.374900  0.125031  0.875112  1
  Nb  Nb22  1  0.625118  0.624821  0.625044  1
  Nb  Nb23  1  0.875052  0.375016  0.124887  1
  O  O24  1  0.103390  0.108432  0.372299  1
  O  O25  1  0.127424  0.896222  0.608463  1
  O  O26  1  0.108708  0.609494  0.891080  1
  O  O27  1  0.141414  0.146731  0.877464  1
  O  O28  1  0.108672  0.372362  0.102764  1
  O  O29  1  0.141368  0.359899  0.641369  1
  O  O30  1  0.122406  0.641372  0.352653  1
  O  O31  1  0.146069  0.877633  0.141712  1
  O  O32  1  0.352396  0.122312  0.641360  1
  O  O33  1  0.377701  0.358327  0.853867  1
  O  O34  1  0.359121  0.641698  0.140336  1
  O  O35  1  0.391557  0.627518  0.603526  1
  O  O36  1  0.358604  0.852665  0.377783  1
  O  O37  1  0.390651  0.391542  0.390520  1
  O  O38  1  0.372253  0.102336  0.108742  1
  O  O39  1  0.396907  0.891475  0.872521  1
  O  O40  1  0.602367  0.391256  0.627659  1
  O  O41  1  0.627715  0.602881  0.391422  1
  O  O42  1  0.609834  0.891329  0.108707  1
  O  O43  1  0.641423  0.352596  0.122191  1
  O  O44  1  0.608413  0.127673  0.896403  1
  O  O45  1  0.641049  0.141257  0.359391  1
  O  O46  1  0.622269  0.858408  0.646905  1
  O  O47  1  0.647314  0.622399  0.858692  1
  O  O48  1  0.853308  0.377692  0.358401  1
  O  O49  1  0.877672  0.141461  0.147147  1
  O  O50  1  0.859374  0.859333  0.858318  1
  O  O51  1  0.891185  0.872343  0.397802  1
  O  O52  1  0.858358  0.645977  0.622415  1
  O  O53  1  0.891730  0.109827  0.609079  1
  O  O54  1  0.872462  0.396594  0.891467  1
  O  O55  1  0.896496  0.608458  0.127670  1
