# generated using pymatgen
data_Fe6O7F5
_symmetry_space_group_name_H-M   'P 1'
_cell_length_a   4.77567606
_cell_length_b   7.73896170
_cell_length_c   5.67797630
_cell_angle_alpha   96.01625598
_cell_angle_beta   93.79530368
_cell_angle_gamma   87.34054664
_symmetry_Int_Tables_number   1
_chemical_formula_structural   Fe6O7F5
_chemical_formula_sum   'Fe6 O7 F5'
_cell_volume   208.07280991
_cell_formula_units_Z   1
loop_
 _symmetry_equiv_pos_site_id
 _symmetry_equiv_pos_as_xyz
  1  'x, y, z'
loop_
 _atom_site_type_symbol
 _atom_site_label
 _atom_site_symmetry_multiplicity
 _atom_site_fract_x
 _atom_site_fract_y
 _atom_site_fract_z
 _atom_site_occupancy
  Fe  Fe0  1  0.551528  0.664508  0.146710  1
  Fe  Fe1  1  0.541028  0.010788  0.495441  1
  Fe  Fe2  1  0.487560  0.335188  0.834667  1
  Fe  Fe3  1  0.993003  0.672431  0.674323  1
  Fe  Fe4  1  0.990878  0.322139  0.336777  1
  Fe  Fe5  1  0.958954  0.998368  0.005775  1
  O  O6  1  0.811199  0.770255  0.957587  1
  O  O7  1  0.813927  0.100713  0.300424  1
  O  O8  1  0.689444  0.116812  0.802329  1
  O  O9  1  0.692708  0.767676  0.460843  1
  O  O10  1  0.695162  0.424021  0.118936  1
  O  O11  1  0.305208  0.557271  0.865663  1
  O  O12  1  0.304859  0.238766  0.546167  1
  F  F13  1  0.801123  0.436820  0.626582  1
  F  F14  1  0.303466  0.899295  0.198751  1
  F  F15  1  0.194935  0.224167  0.044152  1
  F  F16  1  0.172909  0.559204  0.374238  1
  F  F17  1  0.192109  0.901575  0.710635  1
