# generated using pymatgen
data_Mn3(O2F)2
_symmetry_space_group_name_H-M   'P 1'
_cell_length_a   4.63269982
_cell_length_b   7.61019305
_cell_length_c   5.56274762
_cell_angle_alpha   93.71931788
_cell_angle_beta   91.83208854
_cell_angle_gamma   88.20234750
_symmetry_Int_Tables_number   1
_chemical_formula_structural   Mn3(O2F)2
_chemical_formula_sum   'Mn6 O8 F4'
_cell_volume   195.52127794
_cell_formula_units_Z   2
loop_
 _symmetry_equiv_pos_site_id
 _symmetry_equiv_pos_as_xyz
  1  'x, y, z'
loop_
 _atom_site_type_symbol
 _atom_site_label
 _atom_site_symmetry_multiplicity
 _atom_site_fract_x
 _atom_site_fract_y
 _atom_site_fract_z
 _atom_site_occupancy
  Mn  Mn0  1  0.505264  0.988358  0.504402  1
  Mn  Mn1  1  0.496388  0.669129  0.168486  1
  Mn  Mn2  1  0.526051  0.343939  0.828648  1
  Mn  Mn3  1  0.014230  0.670103  0.665588  1
  Mn  Mn4  1  0.953411  0.327663  0.338171  1
  Mn  Mn5  1  0.006888  0.004777  0.997682  1
  O  O6  1  0.810902  0.435172  0.626207  1
  O  O7  1  0.799955  0.104646  0.294846  1
  O  O8  1  0.689949  0.104076  0.793773  1
  O  O9  1  0.691853  0.765555  0.467691  1
  O  O10  1  0.699091  0.439830  0.133409  1
  O  O11  1  0.313492  0.566449  0.869582  1
  O  O12  1  0.302333  0.896733  0.211593  1
  O  O13  1  0.196566  0.899056  0.705762  1
  F  F14  1  0.806381  0.767472  0.968399  1
  F  F15  1  0.296655  0.226130  0.525940  1
  F  F16  1  0.188685  0.543312  0.360092  1
  F  F17  1  0.201907  0.247601  0.039730  1
