# generated using pymatgen
data_Mn4O7F
_symmetry_space_group_name_H-M   'P 1'
_cell_length_a   4.47666099
_cell_length_b   10.98842240
_cell_length_c   4.97880627
_cell_angle_alpha   90.00000000
_cell_angle_beta   89.99349021
_cell_angle_gamma   90.00000000
_symmetry_Int_Tables_number   1
_chemical_formula_structural   Mn4O7F
_chemical_formula_sum   'Mn8 O14 F2'
_cell_volume   244.91465796
_cell_formula_units_Z   2
loop_
 _symmetry_equiv_pos_site_id
 _symmetry_equiv_pos_as_xyz
  1  'x, y, z'
loop_
 _atom_site_type_symbol
 _atom_site_label
 _atom_site_symmetry_multiplicity
 _atom_site_fract_x
 _atom_site_fract_y
 _atom_site_fract_z
 _atom_site_occupancy
  Mn  Mn0  1  0.992738  0.426742  0.763758  1
  Mn  Mn1  1  0.013413  0.082057  0.253637  1
  Mn  Mn2  1  0.986587  0.582057  0.246363  1
  Mn  Mn3  1  0.007262  0.926742  0.736242  1
  Mn  Mn4  1  0.480341  0.818704  0.255240  1
  Mn  Mn5  1  0.503111  0.177126  0.748606  1
  Mn  Mn6  1  0.519659  0.318704  0.244760  1
  Mn  Mn7  1  0.496889  0.677126  0.751394  1
  O  O8  1  0.234667  0.055193  0.919568  1
  O  O9  1  0.231096  0.556105  0.926680  1
  O  O10  1  0.228999  0.943405  0.414914  1
  O  O11  1  0.279451  0.197023  0.423498  1
  O  O12  1  0.273458  0.305266  0.925215  1
  O  O13  1  0.260799  0.693743  0.424359  1
  O  O14  1  0.258666  0.804662  0.920001  1
  O  O15  1  0.739201  0.193743  0.075641  1
  O  O16  1  0.741334  0.304662  0.579999  1
  O  O17  1  0.720549  0.697023  0.076502  1
  O  O18  1  0.726542  0.805266  0.574785  1
  O  O19  1  0.768904  0.056105  0.573320  1
  O  O20  1  0.771001  0.443405  0.085086  1
  O  O21  1  0.765333  0.555193  0.580432  1
  F  F22  1  0.245961  0.439976  0.423418  1
  F  F23  1  0.754039  0.939975  0.076582  1
