# generated using pymatgen
data_Na5GdO4
_symmetry_space_group_name_H-M   'P 1'
_cell_length_a   10.99416443
_cell_length_b   10.88045113
_cell_length_c   11.01851626
_cell_angle_alpha   90.00000000
_cell_angle_beta   90.00000000
_cell_angle_gamma   90.00000000
_symmetry_Int_Tables_number   1
_chemical_formula_structural   Na5GdO4
_chemical_formula_sum   'Na40 Gd8 O32'
_cell_volume   1318.05109897
_cell_formula_units_Z   8
loop_
 _symmetry_equiv_pos_site_id
 _symmetry_equiv_pos_as_xyz
  1  'x, y, z'
loop_
 _atom_site_type_symbol
 _atom_site_label
 _atom_site_symmetry_multiplicity
 _atom_site_fract_x
 _atom_site_fract_y
 _atom_site_fract_z
 _atom_site_occupancy
  Na  Na0  1  0.106429  0.829414  0.120141  1
  Na  Na1  1  0.106429  0.670586  0.620141  1
  Na  Na2  1  0.110796  0.140760  0.400052  1
  Na  Na3  1  0.110796  0.359240  0.900052  1
  Na  Na4  1  0.116829  0.398964  0.159753  1
  Na  Na5  1  0.116829  0.101036  0.659753  1
  Na  Na6  1  0.130391  0.599071  0.354568  1
  Na  Na7  1  0.130391  0.900929  0.854568  1
  Na  Na8  1  0.147231  0.870173  0.380654  1
  Na  Na9  1  0.147231  0.629827  0.880654  1
  Na  Na10  1  0.352769  0.129827  0.880654  1
  Na  Na11  1  0.352769  0.370173  0.380654  1
  Na  Na12  1  0.369609  0.099071  0.354568  1
  Na  Na13  1  0.369609  0.400929  0.854568  1
  Na  Na14  1  0.383171  0.601036  0.659753  1
  Na  Na15  1  0.383171  0.898964  0.159753  1
  Na  Na16  1  0.389204  0.640760  0.400052  1
  Na  Na17  1  0.389204  0.859240  0.900052  1
  Na  Na18  1  0.393571  0.170586  0.620141  1
  Na  Na19  1  0.393571  0.329414  0.120141  1
  Na  Na20  1  0.606429  0.670586  0.879859  1
  Na  Na21  1  0.606429  0.829414  0.379859  1
  Na  Na22  1  0.610796  0.140760  0.099948  1
  Na  Na23  1  0.610796  0.359240  0.599948  1
  Na  Na24  1  0.616829  0.398964  0.340247  1
  Na  Na25  1  0.616829  0.101036  0.840247  1
  Na  Na26  1  0.630391  0.599071  0.145432  1
  Na  Na27  1  0.630391  0.900929  0.645432  1
  Na  Na28  1  0.647231  0.629827  0.619346  1
  Na  Na29  1  0.647231  0.870173  0.119346  1
  Na  Na30  1  0.852769  0.129827  0.619346  1
  Na  Na31  1  0.852769  0.370173  0.119346  1
  Na  Na32  1  0.869609  0.099071  0.145432  1
  Na  Na33  1  0.869609  0.400929  0.645432  1
  Na  Na34  1  0.883171  0.601036  0.840247  1
  Na  Na35  1  0.883171  0.898964  0.340247  1
  Na  Na36  1  0.889204  0.640760  0.099948  1
  Na  Na37  1  0.889204  0.859240  0.599948  1
  Na  Na38  1  0.893571  0.170586  0.879859  1
  Na  Na39  1  0.893571  0.329414  0.379859  1
  Gd  Gd40  1  0.146518  0.116070  0.119277  1
  Gd  Gd41  1  0.146518  0.383930  0.619277  1
  Gd  Gd42  1  0.353482  0.883930  0.619277  1
  Gd  Gd43  1  0.353482  0.616070  0.119277  1
  Gd  Gd44  1  0.646518  0.116070  0.380723  1
  Gd  Gd45  1  0.646518  0.383930  0.880723  1
  Gd  Gd46  1  0.853482  0.616070  0.380723  1
  Gd  Gd47  1  0.853482  0.883930  0.880723  1
  O  O48  1  0.009618  0.240140  0.040707  1
  O  O49  1  0.009618  0.259860  0.540707  1
  O  O50  1  0.040220  0.001594  0.241119  1
  O  O51  1  0.040220  0.498406  0.741119  1
  O  O52  1  0.251408  0.984167  0.008855  1
  O  O53  1  0.251408  0.515833  0.508855  1
  O  O54  1  0.246529  0.234133  0.245172  1
  O  O55  1  0.246529  0.265867  0.745172  1
  O  O56  1  0.253472  0.734133  0.245172  1
  O  O57  1  0.253472  0.765867  0.745172  1
  O  O58  1  0.248592  0.015833  0.508855  1
  O  O59  1  0.248592  0.484167  0.008855  1
  O  O60  1  0.459780  0.501594  0.241119  1
  O  O61  1  0.459780  0.998406  0.741119  1
  O  O62  1  0.490382  0.759860  0.540707  1
  O  O63  1  0.490382  0.740140  0.040707  1
  O  O64  1  0.509618  0.259860  0.959293  1
  O  O65  1  0.509618  0.240140  0.459293  1
  O  O66  1  0.540220  0.001594  0.258881  1
  O  O67  1  0.540220  0.498406  0.758881  1
  O  O68  1  0.751408  0.515833  0.991145  1
  O  O69  1  0.751408  0.984167  0.491145  1
  O  O70  1  0.746529  0.234133  0.254828  1
  O  O71  1  0.746529  0.265867  0.754828  1
  O  O72  1  0.753471  0.734133  0.254828  1
  O  O73  1  0.753471  0.765867  0.754828  1
  O  O74  1  0.748592  0.015833  0.991145  1
  O  O75  1  0.748592  0.484167  0.491145  1
  O  O76  1  0.959780  0.998406  0.758881  1
  O  O77  1  0.959780  0.501594  0.258881  1
  O  O78  1  0.990382  0.759860  0.959293  1
  O  O79  1  0.990382  0.740140  0.459293  1
