# generated using pymatgen
data_Li24Ti11CrO36
_symmetry_space_group_name_H-M   'P 1'
_cell_length_a   5.10238888
_cell_length_b   13.47766175
_cell_length_c   9.81253154
_cell_angle_alpha   91.83838215
_cell_angle_beta   99.75941138
_cell_angle_gamma   79.08892424
_symmetry_Int_Tables_number   1
_chemical_formula_structural   Li24Ti11CrO36
_chemical_formula_sum   'Li24 Ti11 Cr1 O36'
_cell_volume   653.00317793
_cell_formula_units_Z   1
loop_
 _symmetry_equiv_pos_site_id
 _symmetry_equiv_pos_as_xyz
  1  'x, y, z'
loop_
 _atom_site_type_symbol
 _atom_site_label
 _atom_site_symmetry_multiplicity
 _atom_site_fract_x
 _atom_site_fract_y
 _atom_site_fract_z
 _atom_site_occupancy
  Li  Li0  1  0.215330  0.058883  0.999829  1
  Li  Li1  1  0.166020  0.166112  0.499403  1
  Li  Li2  1  0.725796  0.058886  0.500171  1
  Li  Li3  1  0.416912  0.166180  0.250003  1
  Li  Li4  1  0.115244  0.274520  0.000125  1
  Li  Li5  1  0.667871  0.166112  0.000595  1
  Li  Li6  1  0.916653  0.166690  0.750001  1
  Li  Li7  1  0.610237  0.274521  0.499876  1
  Li  Li8  1  0.055465  0.392128  0.500396  1
  Li  Li9  1  0.552421  0.392127  0.999604  1
  Li  Li10  1  0.000067  0.499965  -0.000001  1
  Li  Li11  1  0.249979  0.500042  0.750000  1
  Li  Li12  1  0.499968  0.499965  0.500001  1
  Li  Li13  1  0.750103  0.499794  0.250000  1
  Li  Li14  1  0.447758  0.607767  0.000490  1
  Li  Li15  1  0.944463  0.607767  0.499511  1
  Li  Li16  1  0.388931  0.725600  0.500512  1
  Li  Li17  1  0.082718  0.834568  0.249998  1
  Li  Li18  1  0.885471  0.725602  0.999484  1
  Li  Li19  1  0.333102  0.833181  0.999811  1
  Li  Li20  1  0.583295  0.833413  0.749998  1
  Li  Li21  1  0.275069  0.941614  0.498556  1
  Li  Li22  1  0.833707  0.833181  0.500192  1
  Li  Li23  1  0.783316  0.941616  0.001438  1
  Ti  Ti24  1  0.472583  0.054832  0.749996  1
  Ti  Ti25  1  0.360999  0.277997  0.749999  1
  Ti  Ti26  1  0.305884  0.388239  0.250001  1
  Ti  Ti27  1  0.861170  0.277647  0.250007  1
  Ti  Ti28  1  0.805892  0.388227  0.750001  1
  Ti  Ti29  1  0.194094  0.611802  0.249999  1
  Ti  Ti30  1  0.139189  0.721626  0.750000  1
  Ti  Ti31  1  0.694255  0.611479  0.749999  1
  Ti  Ti32  1  0.638985  0.722031  0.250000  1
  Ti  Ti33  1  0.027567  0.944876  0.750001  1
  Ti  Ti34  1  0.527350  0.945310  0.250000  1
  Cr  Cr35  1  0.971817  0.056388  0.250002  1
  O  O36  1  0.116496  0.047976  0.636703  1
  O  O37  1  0.326677  0.048818  0.361649  1
  O  O38  1  0.835533  0.047972  0.863298  1
  O  O39  1  0.023104  0.165722  0.135451  1
  O  O40  1  0.624494  0.048819  0.138350  1
  O  O41  1  0.312090  0.166612  0.865673  1
  O  O42  1  0.521318  0.166608  0.634322  1
  O  O43  1  0.217091  0.285075  0.363675  1
  O  O44  1  0.811170  0.165731  0.364541  1
  O  O45  1  0.168899  0.381294  0.863395  1
  O  O46  1  0.716893  0.285249  0.863412  1
  O  O47  1  0.497843  0.285074  0.136325  1
  O  O48  1  0.449818  0.381297  0.636607  1
  O  O49  1  0.997872  0.285247  0.636589  1
  O  O50  1  0.668904  0.380611  0.363497  1
  O  O51  1  0.145233  0.499889  0.365422  1
  O  O52  1  0.354880  0.499893  0.134578  1
  O  O53  1  0.950488  0.380614  0.136506  1
  O  O54  1  0.050030  0.618642  0.863366  1
  O  O55  1  0.645351  0.499952  0.865559  1
  O  O56  1  0.854700  0.499955  0.634442  1
  O  O57  1  0.331320  0.618644  0.636635  1
  O  O58  1  0.002050  0.714679  0.363291  1
  O  O59  1  0.550178  0.618780  0.363427  1
  O  O60  1  0.502184  0.714624  0.863460  1
  O  O61  1  0.283256  0.714677  0.136709  1
  O  O62  1  0.831032  0.618783  0.136571  1
  O  O63  1  0.188067  0.833295  0.634467  1
  O  O64  1  0.783184  0.714621  0.636539  1
  O  O65  1  0.480409  0.833828  0.366010  1
  O  O66  1  0.685735  0.833825  0.133995  1
  O  O67  1  0.383263  0.952123  0.863625  1
  O  O68  1  0.978621  0.833297  0.865538  1
  O  O69  1  0.164852  0.952476  0.137360  1
  O  O70  1  0.664611  0.952126  0.636378  1
  O  O71  1  0.882675  0.952483  0.362634  1
