# generated using pymatgen
data_Ca2V3Ni2AgO12
_symmetry_space_group_name_H-M   'P 1'
_cell_length_a   10.88681769
_cell_length_b   10.88681700
_cell_length_c   10.88681715
_cell_angle_alpha   109.39029096
_cell_angle_beta   109.39028964
_cell_angle_gamma   109.63319973
_symmetry_Int_Tables_number   1
_chemical_formula_structural   Ca2V3Ni2AgO12
_chemical_formula_sum   'Ca8 V12 Ni8 Ag4 O48'
_cell_volume   993.29516890
_cell_formula_units_Z   4
loop_
 _symmetry_equiv_pos_site_id
 _symmetry_equiv_pos_as_xyz
  1  'x, y, z'
loop_
 _atom_site_type_symbol
 _atom_site_label
 _atom_site_symmetry_multiplicity
 _atom_site_fract_x
 _atom_site_fract_y
 _atom_site_fract_z
 _atom_site_occupancy
  Ca  Ca0  1  0.250000  0.872999  0.622999  1
  Ca  Ca1  1  0.127001  0.250000  0.377001  1
  Ca  Ca2  1  0.372999  0.750000  0.122999  1
  Ca  Ca3  1  0.250000  0.372999  0.122999  1
  Ca  Ca4  1  0.750000  0.627001  0.877001  1
  Ca  Ca5  1  0.627001  0.250000  0.877001  1
  Ca  Ca6  1  0.872999  0.750000  0.622999  1
  Ca  Ca7  1  0.750000  0.127001  0.377001  1
  V  V8  1  0.123772  0.750000  0.873772  1
  V  V9  1  0.125000  0.875000  0.250000  1
  V  V10  1  0.375000  0.625000  0.750000  1
  V  V11  1  0.250000  0.123772  0.873772  1
  V  V12  1  0.250000  0.623772  0.373772  1
  V  V13  1  0.376228  0.250000  0.626228  1
  V  V14  1  0.623772  0.750000  0.373772  1
  V  V15  1  0.750000  0.376228  0.626228  1
  V  V16  1  0.625000  0.375000  0.250000  1
  V  V17  1  0.750000  0.876228  0.126228  1
  V  V18  1  0.875000  0.125000  0.750000  1
  V  V19  1  0.876228  0.250000  0.126228  1
  Ni  Ni20  1  0.500000  0.000000  0.500000  1
  Ni  Ni21  1  0.000000  0.000000  0.000000  1
  Ni  Ni22  1  0.500000  0.500000  0.500000  1
  Ni  Ni23  1  0.500000  0.500000  0.000000  1
  Ni  Ni24  1  0.000000  0.000000  0.500000  1
  Ni  Ni25  1  0.500000  0.000000  0.000000  1
  Ni  Ni26  1  0.000000  0.500000  0.500000  1
  Ni  Ni27  1  0.000000  0.500000  0.000000  1
  Ag  Ag28  1  0.125000  0.375000  0.750000  1
  Ag  Ag29  1  0.625000  0.875000  0.750000  1
  Ag  Ag30  1  0.375000  0.125000  0.250000  1
  Ag  Ag31  1  0.875000  0.625000  0.250000  1
  O  O32  1  0.104271  0.984065  0.689055  1
  O  O33  1  0.115974  0.607094  0.914725  1
  O  O34  1  0.011004  0.305873  0.903905  1
  O  O35  1  0.084784  0.704989  0.689055  1
  O  O36  1  0.098032  0.892901  0.403905  1
  O  O37  1  0.107094  0.615974  0.414725  1
  O  O38  1  0.194127  0.488996  0.596095  1
  O  O39  1  0.401968  0.805873  0.794869  1
  O  O40  1  0.298751  0.307631  0.914725  1
  O  O41  1  0.392901  0.598032  0.903905  1
  O  O42  1  0.305873  0.901968  0.294869  1
  O  O43  1  0.015935  0.204989  0.120205  1
  O  O44  1  0.192369  0.201249  0.585275  1
  O  O45  1  0.204989  0.584784  0.189055  1
  O  O46  1  0.392906  0.807631  0.508880  1
  O  O47  1  0.307631  0.892906  0.008880  1
  O  O48  1  0.295011  0.484065  0.379795  1
  O  O49  1  0.107099  0.011004  0.205131  1
  O  O50  1  0.511004  0.607099  0.705131  1
  O  O51  1  0.395729  0.084784  0.879795  1
  O  O52  1  0.515935  0.395729  0.810945  1
  O  O53  1  0.384026  0.298751  0.491120  1
  O  O54  1  0.584784  0.895729  0.379795  1
  O  O55  1  0.201249  0.115974  0.008880  1
  O  O56  1  0.798751  0.884026  0.991120  1
  O  O57  1  0.415216  0.104271  0.620205  1
  O  O58  1  0.615974  0.701249  0.508880  1
  O  O59  1  0.484065  0.604271  0.189055  1
  O  O60  1  0.604271  0.915216  0.120205  1
  O  O61  1  0.488996  0.392901  0.294869  1
  O  O62  1  0.892901  0.988996  0.794869  1
  O  O63  1  0.704989  0.515935  0.620205  1
  O  O64  1  0.692369  0.107094  0.991120  1
  O  O65  1  0.607094  0.192369  0.491120  1
  O  O66  1  0.795011  0.415216  0.810945  1
  O  O67  1  0.807631  0.798751  0.414725  1
  O  O68  1  0.984065  0.795011  0.879795  1
  O  O69  1  0.694127  0.098032  0.705131  1
  O  O70  1  0.607099  0.401968  0.096095  1
  O  O71  1  0.701249  0.692369  0.085275  1
  O  O72  1  0.598032  0.194127  0.205131  1
  O  O73  1  0.805873  0.511004  0.403905  1
  O  O74  1  0.892906  0.384026  0.585275  1
  O  O75  1  0.901968  0.107099  0.596095  1
  O  O76  1  0.915216  0.295011  0.310945  1
  O  O77  1  0.884026  0.392906  0.085275  1
  O  O78  1  0.988996  0.694127  0.096095  1
  O  O79  1  0.895729  0.015935  0.310945  1
