# generated using pymatgen
data_Li3Ti2(PO4)3
_symmetry_space_group_name_H-M   'P 1'
_cell_length_a   8.46079308
_cell_length_b   9.12672393
_cell_length_c   8.46620471
_cell_angle_alpha   117.40268676
_cell_angle_beta   60.07406929
_cell_angle_gamma   117.60818964
_symmetry_Int_Tables_number   1
_chemical_formula_structural   Li3Ti2(PO4)3
_chemical_formula_sum   'Li6 Ti4 P6 O24'
_cell_volume   479.22687868
_cell_formula_units_Z   2
loop_
 _symmetry_equiv_pos_site_id
 _symmetry_equiv_pos_as_xyz
  1  'x, y, z'
loop_
 _atom_site_type_symbol
 _atom_site_label
 _atom_site_symmetry_multiplicity
 _atom_site_fract_x
 _atom_site_fract_y
 _atom_site_fract_z
 _atom_site_occupancy
  Li  Li0  1  0.242641  0.649742  0.574341  1
  Li  Li1  1  0.432382  0.349787  0.161601  1
  Li  Li2  1  0.077472  0.133937  0.731333  1
  Li  Li3  1  0.928101  0.864552  0.267960  1
  Li  Li4  1  0.669643  0.861702  0.922367  1
  Li  Li5  1  0.730146  0.139274  0.333109  1
  Ti  Ti6  1  0.142223  0.436894  0.138404  1
  Ti  Ti7  1  0.343201  0.041341  0.346058  1
  Ti  Ti8  1  0.641772  0.959458  0.657942  1
  Ti  Ti9  1  0.848109  0.564104  0.853655  1
  P  P10  1  0.044284  0.251101  0.457495  1
  P  P11  1  0.544894  0.750908  0.251710  1
  P  P12  1  0.250727  0.750050  0.959193  1
  P  P13  1  0.748391  0.249027  0.043288  1
  P  P14  1  0.459823  0.248014  0.745977  1
  P  P15  1  0.956900  0.751569  0.539542  1
  O  O16  1  0.201452  0.890396  0.156790  1
  O  O17  1  0.150832  0.901504  0.533577  1
  O  O18  1  0.016415  0.424089  0.607972  1
  O  O19  1  0.148578  0.277187  0.256870  1
  O  O20  1  0.127394  0.721899  0.854889  1
  O  O21  1  0.539271  0.896444  0.206389  1
  O  O22  1  0.392559  0.576098  0.205862  1
  O  O23  1  0.165622  0.195150  0.496469  1
  O  O24  1  0.502962  0.800622  0.467427  1
  O  O25  1  0.202081  0.579486  0.994801  1
  O  O26  1  0.749325  0.734781  0.129874  1
  O  O27  1  0.465945  0.805744  0.837050  1
  O  O28  1  0.532212  0.196183  0.170605  1
  O  O29  1  0.256174  0.266749  0.868490  1
  O  O30  1  0.791592  0.416447  0.009552  1
  O  O31  1  0.495064  0.192045  0.530769  1
  O  O32  1  0.829025  0.809049  0.508971  1
  O  O33  1  0.611249  0.420526  0.802038  1
  O  O34  1  0.479471  0.108948  0.788252  1
  O  O35  1  0.870830  0.266882  0.143305  1
  O  O36  1  0.856302  0.732205  0.744334  1
  O  O37  1  0.996745  0.583858  0.389535  1
  O  O38  1  0.849321  0.102863  0.457380  1
  O  O39  1  0.791871  0.099386  0.850824  1
