# generated using pymatgen
data_BaSr2I6
_symmetry_space_group_name_H-M   'P 1'
_cell_length_a   13.82069934
_cell_length_b   8.39309460
_cell_length_c   7.71392669
_cell_angle_alpha   90.00000000
_cell_angle_beta   94.50386955
_cell_angle_gamma   90.00000000
_symmetry_Int_Tables_number   1
_chemical_formula_structural   BaSr2I6
_chemical_formula_sum   'Ba2 Sr4 I12'
_cell_volume   892.04031565
_cell_formula_units_Z   2
loop_
 _symmetry_equiv_pos_site_id
 _symmetry_equiv_pos_as_xyz
  1  'x, y, z'
loop_
 _atom_site_type_symbol
 _atom_site_label
 _atom_site_symmetry_multiplicity
 _atom_site_fract_x
 _atom_site_fract_y
 _atom_site_fract_z
 _atom_site_occupancy
  Ba  Ba0  1  0.000000  0.000000  0.000000  1
  Ba  Ba1  1  0.500000  0.500000  0.500000  1
  Sr  Sr2  1  0.256078  0.398673  0.925906  1
  Sr  Sr3  1  0.243922  0.898673  0.574094  1
  Sr  Sr4  1  0.756078  0.101327  0.425906  1
  Sr  Sr5  1  0.743922  0.601327  0.074094  1
  I  I6  1  0.094778  0.675124  0.792681  1
  I  I7  1  0.093738  0.192747  0.661959  1
  I  I8  1  0.264174  0.574185  0.322529  1
  I  I9  1  0.235826  0.074185  0.177471  1
  I  I10  1  0.406262  0.692747  0.838041  1
  I  I11  1  0.405222  0.175124  0.707319  1
  I  I12  1  0.594778  0.824876  0.292681  1
  I  I13  1  0.593738  0.307253  0.161959  1
  I  I14  1  0.764174  0.925815  0.822529  1
  I  I15  1  0.735826  0.425815  0.677471  1
  I  I16  1  0.906262  0.807253  0.338041  1
  I  I17  1  0.905222  0.324876  0.207319  1
