# generated using pymatgen
data_Sr4Ta2O9
_symmetry_space_group_name_H-M   'P 1'
_cell_length_a   5.95442215
_cell_length_b   15.84131307
_cell_length_c   5.94943242
_cell_angle_alpha   90.03470746
_cell_angle_beta   119.95920025
_cell_angle_gamma   89.94577868
_symmetry_Int_Tables_number   1
_chemical_formula_structural   Sr4Ta2O9
_chemical_formula_sum   'Sr8 Ta4 O18'
_cell_volume   486.20023955
_cell_formula_units_Z   2
loop_
 _symmetry_equiv_pos_site_id
 _symmetry_equiv_pos_as_xyz
  1  'x, y, z'
loop_
 _atom_site_type_symbol
 _atom_site_label
 _atom_site_symmetry_multiplicity
 _atom_site_fract_x
 _atom_site_fract_y
 _atom_site_fract_z
 _atom_site_occupancy
  Sr  Sr0  1  0.997930  0.744375  0.999238  1
  Sr  Sr1  1  0.000000  0.500000  0.000000  1
  Sr  Sr2  1  0.000000  0.000000  0.000000  1
  Sr  Sr3  1  0.330905  0.643890  0.666255  1
  Sr  Sr4  1  0.336431  0.867979  0.667372  1
  Sr  Sr5  1  0.663569  0.132021  0.332628  1
  Sr  Sr6  1  0.669095  0.356110  0.333745  1
  Sr  Sr7  1  0.002070  0.255625  0.000762  1
  Ta  Ta8  1  0.330475  0.150141  0.664818  1
  Ta  Ta9  1  0.335095  0.340338  0.667271  1
  Ta  Ta10  1  0.664905  0.659662  0.332729  1
  Ta  Ta11  1  0.669525  0.849859  0.335182  1
  O  O12  1  0.040799  0.247140  0.594888  1
  O  O13  1  0.269577  0.393123  0.919067  1
  O  O14  1  0.273436  0.098963  0.921428  1
  O  O15  1  0.083916  0.392767  0.348732  1
  O  O16  1  0.073075  0.097710  0.354851  1
  O  O17  1  0.555199  0.246079  0.957749  1
  O  O18  1  0.405459  0.245698  0.445977  1
  O  O19  1  0.364564  0.905740  0.283152  1
  O  O20  1  0.347119  0.607369  0.267208  1
  O  O21  1  0.652881  0.392631  0.732792  1
  O  O22  1  0.635436  0.094260  0.716848  1
  O  O23  1  0.594541  0.754302  0.554023  1
  O  O24  1  0.444801  0.753921  0.042251  1
  O  O25  1  0.926925  0.902290  0.645149  1
  O  O26  1  0.916084  0.607233  0.651268  1
  O  O27  1  0.726564  0.901037  0.078572  1
  O  O28  1  0.730423  0.606877  0.080933  1
  O  O29  1  0.959201  0.752860  0.405112  1
