# generated using pymatgen
data_Li9Mn12Cu3O32
_symmetry_space_group_name_H-M   'P 1'
_cell_length_a   8.27604384
_cell_length_b   8.26995539
_cell_length_c   8.31222678
_cell_angle_alpha   90.15522242
_cell_angle_beta   90.23172770
_cell_angle_gamma   90.19896554
_symmetry_Int_Tables_number   1
_chemical_formula_structural   Li9Mn12Cu3O32
_chemical_formula_sum   'Li9 Mn12 Cu3 O32'
_cell_volume   568.89949919
_cell_formula_units_Z   1
loop_
 _symmetry_equiv_pos_site_id
 _symmetry_equiv_pos_as_xyz
  1  'x, y, z'
loop_
 _atom_site_type_symbol
 _atom_site_label
 _atom_site_symmetry_multiplicity
 _atom_site_fract_x
 _atom_site_fract_y
 _atom_site_fract_z
 _atom_site_occupancy
  Li  Li0  1  0.002708  0.003269  0.002876  1
  Li  Li1  1  0.122545  0.878182  0.374016  1
  Li  Li2  1  0.244827  0.245202  0.245365  1
  Li  Li3  1  0.252260  0.753672  0.747850  1
  Li  Li4  1  0.373713  0.122424  0.877629  1
  Li  Li5  1  0.623655  0.624400  0.623188  1
  Li  Li6  1  0.748141  0.251641  0.753513  1
  Li  Li7  1  0.754142  0.748045  0.252469  1
  Li  Li8  1  0.879034  0.373680  0.123815  1
  Mn  Mn9  1  0.121139  0.125848  0.626060  1
  Mn  Mn10  1  0.123253  0.376994  0.874740  1
  Mn  Mn11  1  0.126256  0.625327  0.120128  1
  Mn  Mn12  1  0.375940  0.378205  0.621518  1
  Mn  Mn13  1  0.377785  0.620526  0.374337  1
  Mn  Mn14  1  0.376829  0.875049  0.122801  1
  Mn  Mn15  1  0.621934  0.375503  0.378051  1
  Mn  Mn16  1  0.625991  0.121077  0.126150  1
  Mn  Mn17  1  0.624619  0.877247  0.878945  1
  Mn  Mn18  1  0.875541  0.123356  0.376965  1
  Mn  Mn19  1  0.876176  0.878610  0.625510  1
  Mn  Mn20  1  0.877908  0.624861  0.877482  1
  Cu  Cu21  1  0.491074  0.993457  0.509599  1
  Cu  Cu22  1  0.511615  0.491933  0.993495  1
  Cu  Cu23  1  0.993288  0.512687  0.493981  1
  O  O24  1  0.101086  0.128308  0.394951  1
  O  O25  1  0.105446  0.898280  0.628132  1
  O  O26  1  0.113125  0.615823  0.885811  1
  O  O27  1  0.128751  0.393489  0.099258  1
  O  O28  1  0.123288  0.150672  0.856115  1
  O  O29  1  0.136783  0.366335  0.635285  1
  O  O30  1  0.141884  0.616745  0.350766  1
  O  O31  1  0.150702  0.856597  0.123713  1
  O  O32  1  0.353668  0.142020  0.622169  1
  O  O33  1  0.362384  0.381968  0.850550  1
  O  O34  1  0.366544  0.634207  0.136210  1
  O  O35  1  0.381154  0.850641  0.360247  1
  O  O36  1  0.371576  0.606879  0.599868  1
  O  O37  1  0.385781  0.384543  0.386092  1
  O  O38  1  0.394091  0.100625  0.128582  1
  O  O39  1  0.398283  0.871791  0.894658  1
  O  O40  1  0.602084  0.372171  0.605963  1
  O  O41  1  0.606705  0.601687  0.372569  1
  O  O42  1  0.615616  0.885899  0.113358  1
  O  O43  1  0.628522  0.106334  0.899689  1
  O  O44  1  0.618681  0.353208  0.142888  1
  O  O45  1  0.635037  0.136619  0.365546  1
  O  O46  1  0.638402  0.876652  0.647175  1
  O  O47  1  0.644931  0.639482  0.875301  1
  O  O48  1  0.852089  0.362970  0.378261  1
  O  O49  1  0.856959  0.123245  0.151514  1
  O  O50  1  0.861607  0.862195  0.861693  1
  O  O51  1  0.874230  0.645159  0.641143  1
  O  O52  1  0.871234  0.893764  0.399876  1
  O  O53  1  0.886101  0.113857  0.614981  1
  O  O54  1  0.894026  0.398352  0.871863  1
  O  O55  1  0.898859  0.628409  0.105408  1
