# generated using pymatgen
data_Na5LaO4
_symmetry_space_group_name_H-M   'P 1'
_cell_length_a   15.36469252
_cell_length_b   15.36469252
_cell_length_c   5.57121566
_cell_angle_alpha   90.00000000
_cell_angle_beta   90.00000000
_cell_angle_gamma   90.00000000
_symmetry_Int_Tables_number   1
_chemical_formula_structural   Na5LaO4
_chemical_formula_sum   'Na40 La8 O32'
_cell_volume   1315.21791907
_cell_formula_units_Z   8
loop_
 _symmetry_equiv_pos_site_id
 _symmetry_equiv_pos_as_xyz
  1  'x, y, z'
loop_
 _atom_site_type_symbol
 _atom_site_label
 _atom_site_symmetry_multiplicity
 _atom_site_fract_x
 _atom_site_fract_y
 _atom_site_fract_z
 _atom_site_occupancy
  Na  Na0  1  0.989057  0.010944  0.250000  1
  Na  Na1  1  0.010944  0.989057  0.750000  1
  Na  Na2  1  0.989057  0.489057  0.250000  1
  Na  Na3  1  0.010944  0.510943  0.750000  1
  Na  Na4  1  0.104421  0.356594  0.810373  1
  Na  Na5  1  0.104421  0.143406  0.810373  1
  Na  Na6  1  0.122681  0.622681  0.250000  1
  Na  Na7  1  0.122681  0.877319  0.250000  1
  Na  Na8  1  0.143406  0.104421  0.310373  1
  Na  Na9  1  0.143406  0.395579  0.310373  1
  Na  Na10  1  0.250000  0.250000  0.362798  1
  Na  Na11  1  0.250000  0.750000  0.750000  1
  Na  Na12  1  0.250000  0.750000  0.250000  1
  Na  Na13  1  0.250000  0.250000  0.862798  1
  Na  Na14  1  0.356594  0.104421  0.310373  1
  Na  Na15  1  0.356594  0.395579  0.310373  1
  Na  Na16  1  0.377319  0.622681  0.250000  1
  Na  Na17  1  0.377319  0.877319  0.250000  1
  Na  Na18  1  0.395579  0.143406  0.810373  1
  Na  Na19  1  0.395579  0.356594  0.810373  1
  Na  Na20  1  0.510943  0.010944  0.250000  1
  Na  Na21  1  0.489057  0.989057  0.750000  1
  Na  Na22  1  0.510943  0.489057  0.250000  1
  Na  Na23  1  0.489057  0.510943  0.750000  1
  Na  Na24  1  0.604421  0.643406  0.189627  1
  Na  Na25  1  0.604421  0.856594  0.189627  1
  Na  Na26  1  0.622681  0.122681  0.750000  1
  Na  Na27  1  0.622681  0.377319  0.750000  1
  Na  Na28  1  0.643406  0.604421  0.689627  1
  Na  Na29  1  0.643406  0.895579  0.689627  1
  Na  Na30  1  0.750000  0.250000  0.250000  1
  Na  Na31  1  0.750000  0.250000  0.750000  1
  Na  Na32  1  0.750000  0.750000  0.137202  1
  Na  Na33  1  0.750000  0.750000  0.637202  1
  Na  Na34  1  0.856594  0.604421  0.689627  1
  Na  Na35  1  0.856594  0.895579  0.689627  1
  Na  Na36  1  0.877319  0.122681  0.750000  1
  Na  Na37  1  0.877319  0.377319  0.750000  1
  Na  Na38  1  0.895579  0.643406  0.189627  1
  Na  Na39  1  0.895579  0.856594  0.189627  1
  La  La40  1  0.019333  0.750000  0.713373  1
  La  La41  1  0.250000  0.519333  0.786627  1
  La  La42  1  0.250000  0.980667  0.786627  1
  La  La43  1  0.480667  0.750000  0.713373  1
  La  La44  1  0.519333  0.250000  0.286627  1
  La  La45  1  0.750000  0.019333  0.213373  1
  La  La46  1  0.750000  0.480667  0.213373  1
  La  La47  1  0.980667  0.250000  0.286627  1
  O  O48  1  0.006420  0.123986  0.507641  1
  O  O49  1  0.006420  0.376014  0.507641  1
  O  O50  1  0.123986  0.006420  0.007641  1
  O  O51  1  0.123986  0.493580  0.007641  1
  O  O52  1  0.123630  0.250000  0.108693  1
  O  O53  1  0.125487  0.750000  0.999579  1
  O  O54  1  0.250000  0.123630  0.608693  1
  O  O55  1  0.250000  0.625487  0.500421  1
  O  O56  1  0.250000  0.874513  0.500421  1
  O  O57  1  0.250000  0.376370  0.608693  1
  O  O58  1  0.374513  0.750000  0.999579  1
  O  O59  1  0.376370  0.250000  0.108693  1
  O  O60  1  0.376014  0.493580  0.007641  1
  O  O61  1  0.376014  0.006420  0.007641  1
  O  O62  1  0.493580  0.123986  0.507641  1
  O  O63  1  0.493580  0.376014  0.507641  1
  O  O64  1  0.506420  0.623986  0.492359  1
  O  O65  1  0.506420  0.876014  0.492359  1
  O  O66  1  0.623986  0.993580  0.992359  1
  O  O67  1  0.623986  0.506420  0.992359  1
  O  O68  1  0.623630  0.750000  0.891307  1
  O  O69  1  0.625487  0.250000  0.000421  1
  O  O70  1  0.750000  0.125487  0.499579  1
  O  O71  1  0.750000  0.374513  0.499579  1
  O  O72  1  0.750000  0.623630  0.391307  1
  O  O73  1  0.750000  0.876370  0.391307  1
  O  O74  1  0.874513  0.250000  0.000421  1
  O  O75  1  0.876370  0.750000  0.891307  1
  O  O76  1  0.876014  0.993580  0.992359  1
  O  O77  1  0.876014  0.506420  0.992359  1
  O  O78  1  0.993580  0.623986  0.492359  1
  O  O79  1  0.993580  0.876014  0.492359  1
