# generated using pymatgen
data_NaTi6O12
_symmetry_space_group_name_H-M   'P 1'
_cell_length_a   5.32369692
_cell_length_b   9.46598922
_cell_length_c   8.96102890
_cell_angle_alpha   90.00000000
_cell_angle_beta   90.00000000
_cell_angle_gamma   90.00000000
_symmetry_Int_Tables_number   1
_chemical_formula_structural   NaTi6O12
_chemical_formula_sum   'Na2 Ti12 O24'
_cell_volume   451.58260704
_cell_formula_units_Z   2
loop_
 _symmetry_equiv_pos_site_id
 _symmetry_equiv_pos_as_xyz
  1  'x, y, z'
loop_
 _atom_site_type_symbol
 _atom_site_label
 _atom_site_symmetry_multiplicity
 _atom_site_fract_x
 _atom_site_fract_y
 _atom_site_fract_z
 _atom_site_occupancy
  Na  Na0  1  0.454549  0.036205  0.250000  1
  Na  Na1  1  0.954549  0.463795  0.750000  1
  Ti  Ti2  1  0.032444  0.860186  0.580948  1
  Ti  Ti3  1  0.023244  0.845474  0.250000  1
  Ti  Ti4  1  0.032444  0.860186  0.919052  1
  Ti  Ti5  1  0.468995  0.354428  0.919575  1
  Ti  Ti6  1  0.460140  0.367148  0.250000  1
  Ti  Ti7  1  0.468995  0.354428  0.580425  1
  Ti  Ti8  1  0.532444  0.639814  0.080948  1
  Ti  Ti9  1  0.523244  0.654526  0.750000  1
  Ti  Ti10  1  0.532444  0.639814  0.419052  1
  Ti  Ti11  1  0.960140  0.132852  0.750000  1
  Ti  Ti12  1  0.968995  0.145572  0.080425  1
  Ti  Ti13  1  0.968995  0.145572  0.419575  1
  O  O14  1  0.165922  0.233521  0.913560  1
  O  O15  1  0.181081  0.226536  0.250000  1
  O  O16  1  0.165922  0.233521  0.586440  1
  O  O17  1  0.182862  0.962462  0.081045  1
  O  O18  1  0.182862  0.962462  0.418955  1
  O  O19  1  0.177844  0.961688  0.750000  1
  O  O20  1  0.314421  0.463508  0.080951  1
  O  O21  1  0.314421  0.463508  0.419049  1
  O  O22  1  0.340042  0.465408  0.750000  1
  O  O23  1  0.322455  0.727975  0.916438  1
  O  O24  1  0.322455  0.727975  0.583562  1
  O  O25  1  0.327902  0.732653  0.250000  1
  O  O26  1  0.665922  0.266479  0.086440  1
  O  O27  1  0.681081  0.273464  0.750000  1
  O  O28  1  0.665922  0.266479  0.413560  1
  O  O29  1  0.682862  0.537538  0.581045  1
  O  O30  1  0.682862  0.537538  0.918955  1
  O  O31  1  0.677844  0.538312  0.250000  1
  O  O32  1  0.814421  0.036492  0.580951  1
  O  O33  1  0.840042  0.034592  0.250000  1
  O  O34  1  0.814421  0.036492  0.919049  1
  O  O35  1  0.827902  0.767347  0.750000  1
  O  O36  1  0.822455  0.772025  0.083562  1
  O  O37  1  0.822455  0.772025  0.416438  1
