# generated using pymatgen
data_MnOF
_symmetry_space_group_name_H-M   'P 1'
_cell_length_a   4.81607017
_cell_length_b   18.94439507
_cell_length_c   3.08094287
_cell_angle_alpha   90.00000000
_cell_angle_beta   90.00000000
_cell_angle_gamma   89.47525400
_symmetry_Int_Tables_number   1
_chemical_formula_structural   MnOF
_chemical_formula_sum   'Mn8 O8 F8'
_cell_volume   281.08584718
_cell_formula_units_Z   8
loop_
 _symmetry_equiv_pos_site_id
 _symmetry_equiv_pos_as_xyz
  1  'x, y, z'
loop_
 _atom_site_type_symbol
 _atom_site_label
 _atom_site_symmetry_multiplicity
 _atom_site_fract_x
 _atom_site_fract_y
 _atom_site_fract_z
 _atom_site_occupancy
  Mn  Mn0  1  0.926512  0.000000  0.000000  1
  Mn  Mn1  1  0.073488  0.250000  0.000000  1
  Mn  Mn2  1  0.080763  0.499249  0.000000  1
  Mn  Mn3  1  0.919237  0.750751  0.000000  1
  Mn  Mn4  1  0.500000  0.125000  0.500000  1
  Mn  Mn5  1  0.648216  0.375989  0.500000  1
  Mn  Mn6  1  0.500000  0.625000  0.500000  1
  Mn  Mn7  1  0.351784  0.874011  0.500000  1
  O  O8  1  0.236108  0.200117  0.500000  1
  O  O9  1  0.096297  0.950299  0.500000  1
  O  O10  1  0.337227  0.575439  0.000000  1
  O  O11  1  0.187709  0.825857  0.000000  1
  O  O12  1  0.812291  0.424143  0.000000  1
  O  O13  1  0.662773  0.674561  0.000000  1
  O  O14  1  0.763892  0.049883  0.500000  1
  O  O15  1  0.903703  0.299701  0.500000  1
  F  F16  1  0.307826  0.449564  0.500000  1
  F  F17  1  0.134073  0.704278  0.500000  1
  F  F18  1  0.289246  0.076737  0.000000  1
  F  F19  1  0.426989  0.329687  0.000000  1
  F  F20  1  0.710754  0.173263  0.000000  1
  F  F21  1  0.573011  0.920313  0.000000  1
  F  F22  1  0.865927  0.545722  0.500000  1
  F  F23  1  0.692174  0.800436  0.500000  1
