# generated using pymatgen
data_CsMgH12(ClO2)3
_symmetry_space_group_name_H-M   'P 1'
_cell_length_a   6.86630490
_cell_length_b   13.70721415
_cell_length_c   6.83184491
_cell_angle_alpha   89.93449747
_cell_angle_beta   90.59267996
_cell_angle_gamma   90.25503442
_symmetry_Int_Tables_number   1
_chemical_formula_structural   CsMgH12(ClO2)3
_chemical_formula_sum   'Cs2 Mg2 H24 Cl6 O12'
_cell_volume   642.95781788
_cell_formula_units_Z   2
loop_
 _symmetry_equiv_pos_site_id
 _symmetry_equiv_pos_as_xyz
  1  'x, y, z'
loop_
 _atom_site_type_symbol
 _atom_site_label
 _atom_site_symmetry_multiplicity
 _atom_site_fract_x
 _atom_site_fract_y
 _atom_site_fract_z
 _atom_site_occupancy
  Cs  Cs0  1  0.992842  0.998855  0.999866  1
  Cs  Cs1  1  0.017561  0.500915  0.987501  1
  Mg  Mg2  1  0.499238  0.248480  0.494616  1
  Mg  Mg3  1  0.503447  0.754169  0.493011  1
  H  H4  1  0.717951  0.268723  0.147158  1
  H  H5  1  0.572882  0.356071  0.167046  1
  H  H6  1  0.546437  0.415955  0.729166  1
  H  H7  1  0.710670  0.415265  0.569288  1
  H  H8  1  0.163751  0.369266  0.445391  1
  H  H9  1  0.154619  0.281205  0.297927  1
  H  H10  1  0.836265  0.131898  0.547304  1
  H  H11  1  0.833598  0.211868  0.713221  1
  H  H12  1  0.296606  0.077239  0.437745  1
  H  H13  1  0.434864  0.084635  0.254565  1
  H  H14  1  0.426445  0.148771  0.832031  1
  H  H15  1  0.270958  0.232702  0.831517  1
  H  H16  1  0.302148  0.782629  0.146437  1
  H  H17  1  0.448269  0.870904  0.150051  1
  H  H18  1  0.271739  0.584435  0.447298  1
  H  H19  1  0.447939  0.577999  0.300409  1
  H  H20  1  0.731783  0.924784  0.536864  1
  H  H21  1  0.565100  0.928967  0.692742  1
  H  H22  1  0.556772  0.630605  0.818908  1
  H  H23  1  0.700141  0.719507  0.840907  1
  H  H24  1  0.840523  0.735414  0.260085  1
  H  H25  1  0.841327  0.653887  0.422162  1
  H  H26  1  0.159631  0.850782  0.546985  1
  H  H27  1  0.161687  0.774746  0.718953  1
  Cl  Cl28  1  0.016280  0.998324  0.496638  1
  Cl  Cl29  1  0.993900  0.505917  0.489936  1
  Cl  Cl30  1  0.493164  0.006682  0.977021  1
  Cl  Cl31  1  0.515296  0.495897  0.007215  1
  Cl  Cl32  1  0.995482  0.249419  0.997170  1
  Cl  Cl33  1  0.003730  0.751315  0.991278  1
  O  O34  1  0.604075  0.291300  0.221490  1
  O  O35  1  0.587902  0.383750  0.607473  1
  O  O36  1  0.224931  0.306368  0.413751  1
  O  O37  1  0.766242  0.189489  0.592317  1
  O  O38  1  0.410430  0.112086  0.385065  1
  O  O39  1  0.391250  0.210874  0.768762  1
  O  O40  1  0.415474  0.809710  0.217267  1
  O  O41  1  0.399425  0.613571  0.414961  1
  O  O42  1  0.608974  0.893096  0.576687  1
  O  O43  1  0.585618  0.696242  0.766940  1
  O  O44  1  0.778950  0.715874  0.384560  1
  O  O45  1  0.226134  0.791710  0.594685  1
