# generated using pymatgen
data_SmAsO4
_symmetry_space_group_name_H-M   'P 1'
_cell_length_a   6.94055448
_cell_length_b   7.11763662
_cell_length_c   6.71668095
_cell_angle_alpha   90.00000000
_cell_angle_beta   105.26405795
_cell_angle_gamma   90.00000000
_symmetry_Int_Tables_number   1
_chemical_formula_structural   SmAsO4
_chemical_formula_sum   'Sm4 As4 O16'
_cell_volume   320.10114158
_cell_formula_units_Z   4
loop_
 _symmetry_equiv_pos_site_id
 _symmetry_equiv_pos_as_xyz
  1  'x, y, z'
loop_
 _atom_site_type_symbol
 _atom_site_label
 _atom_site_symmetry_multiplicity
 _atom_site_fract_x
 _atom_site_fract_y
 _atom_site_fract_z
 _atom_site_occupancy
  Sm  Sm0  1  0.217080  0.149834  0.406128  1
  Sm  Sm1  1  0.282920  0.649834  0.093872  1
  Sm  Sm2  1  0.717080  0.350166  0.906128  1
  Sm  Sm3  1  0.782920  0.850166  0.593872  1
  As  As4  1  0.197681  0.162226  0.887500  1
  As  As5  1  0.302319  0.662226  0.612500  1
  As  As6  1  0.697681  0.337774  0.387500  1
  As  As7  1  0.802319  0.837774  0.112500  1
  O  O8  1  0.017326  0.106328  0.665388  1
  O  O9  1  0.115414  0.714134  0.727415  1
  O  O10  1  0.105407  0.345622  0.001436  1
  O  O11  1  0.252444  0.494678  0.421468  1
  O  O12  1  0.384586  0.214134  0.772585  1
  O  O13  1  0.247556  0.994678  0.078532  1
  O  O14  1  0.394593  0.845622  0.498564  1
  O  O15  1  0.482674  0.606328  0.834612  1
  O  O16  1  0.517326  0.393672  0.165388  1
  O  O17  1  0.605407  0.154378  0.501436  1
  O  O18  1  0.752444  0.005322  0.921468  1
  O  O19  1  0.615414  0.785866  0.227415  1
  O  O20  1  0.747556  0.505322  0.578532  1
  O  O21  1  0.894593  0.654378  0.998564  1
  O  O22  1  0.884586  0.285866  0.272585  1
  O  O23  1  0.982674  0.893672  0.334612  1
