# generated using pymatgen
data_NaBiPCO7
_symmetry_space_group_name_H-M   'P 1'
_cell_length_a   9.49423575
_cell_length_b   6.97531866
_cell_length_c   5.45206202
_cell_angle_alpha   90.00000000
_cell_angle_beta   90.99491783
_cell_angle_gamma   90.00000000
_symmetry_Int_Tables_number   1
_chemical_formula_structural   NaBiPCO7
_chemical_formula_sum   'Na2 Bi2 P2 C2 O14'
_cell_volume   361.01011623
_cell_formula_units_Z   2
loop_
 _symmetry_equiv_pos_site_id
 _symmetry_equiv_pos_as_xyz
  1  'x, y, z'
loop_
 _atom_site_type_symbol
 _atom_site_label
 _atom_site_symmetry_multiplicity
 _atom_site_fract_x
 _atom_site_fract_y
 _atom_site_fract_z
 _atom_site_occupancy
  Na  Na0  1  0.218119  0.482691  0.230899  1
  Na  Na1  1  0.781881  0.982691  0.769101  1
  Bi  Bi2  1  0.365653  0.767602  0.783779  1
  Bi  Bi3  1  0.634347  0.267602  0.216221  1
  P  P4  1  0.417384  0.261970  0.722939  1
  P  P5  1  0.582616  0.761970  0.277061  1
  C  C6  1  0.073905  0.732837  0.726278  1
  C  C7  1  0.926095  0.232837  0.273722  1
  O  O8  1  0.056613  0.249996  0.310717  1
  O  O9  1  0.133959  0.733641  0.942176  1
  O  O10  1  0.156354  0.717344  0.535820  1
  O  O11  1  0.329303  0.086816  0.806651  1
  O  O12  1  0.348366  0.435930  0.851375  1
  O  O13  1  0.424138  0.740760  0.189626  1
  O  O14  1  0.417923  0.288263  0.441472  1
  O  O15  1  0.582077  0.788263  0.558528  1
  O  O16  1  0.575862  0.240760  0.810374  1
  O  O17  1  0.651634  0.935930  0.148625  1
  O  O18  1  0.670697  0.586816  0.193349  1
  O  O19  1  0.843646  0.217344  0.464180  1
  O  O20  1  0.866041  0.233641  0.057824  1
  O  O21  1  0.943387  0.749996  0.689283  1
