# generated using pymatgen
data_Na2TbPCO7
_symmetry_space_group_name_H-M   'P 1'
_cell_length_a   9.24778509
_cell_length_b   7.01593997
_cell_length_c   5.22828644
_cell_angle_alpha   90.00000000
_cell_angle_beta   91.04010526
_cell_angle_gamma   90.00000000
_symmetry_Int_Tables_number   1
_chemical_formula_structural   Na2TbPCO7
_chemical_formula_sum   'Na4 Tb2 P2 C2 O14'
_cell_volume   339.16529239
_cell_formula_units_Z   2
loop_
 _symmetry_equiv_pos_site_id
 _symmetry_equiv_pos_as_xyz
  1  'x, y, z'
loop_
 _atom_site_type_symbol
 _atom_site_label
 _atom_site_symmetry_multiplicity
 _atom_site_fract_x
 _atom_site_fract_y
 _atom_site_fract_z
 _atom_site_occupancy
  Tb  Tb0  1  0.369811  0.750000  0.774321  1
  Tb  Tb1  1  0.630189  0.250000  0.225679  1
  Na  Na2  1  0.209391  0.498467  0.230145  1
  Na  Na3  1  0.209391  0.001533  0.230145  1
  Na  Na4  1  0.790609  0.501533  0.769855  1
  Na  Na5  1  0.790609  0.998467  0.769855  1
  P  P6  1  0.416834  0.250000  0.706259  1
  P  P7  1  0.583166  0.750000  0.293741  1
  C  C8  1  0.071006  0.750000  0.731783  1
  C  C9  1  0.928994  0.250000  0.268217  1
  O  O10  1  0.064950  0.250000  0.299342  1
  O  O11  1  0.135305  0.750000  0.957583  1
  O  O12  1  0.160276  0.750000  0.535830  1
  O  O13  1  0.346059  0.069298  0.817293  1
  O  O14  1  0.346059  0.430702  0.817293  1
  O  O15  1  0.416281  0.750000  0.221922  1
  O  O16  1  0.405997  0.250000  0.408082  1
  O  O17  1  0.594003  0.750000  0.591918  1
  O  O18  1  0.583719  0.250000  0.778078  1
  O  O19  1  0.653941  0.569298  0.182707  1
  O  O20  1  0.653941  0.930702  0.182707  1
  O  O21  1  0.839724  0.250000  0.464170  1
  O  O22  1  0.864695  0.250000  0.042417  1
  O  O23  1  0.935050  0.750000  0.700658  1
