# generated using pymatgen
data_ZrH27C8N2Cl5O2
_symmetry_space_group_name_H-M   'P 1'
_cell_length_a   7.31682690
_cell_length_b   14.71384097
_cell_length_c   19.74957399
_cell_angle_alpha   90.00000000
_cell_angle_beta   90.00000000
_cell_angle_gamma   90.00000000
_symmetry_Int_Tables_number   1
_chemical_formula_structural   ZrH27C8N2Cl5O2
_chemical_formula_sum   'Zr4 H108 C32 N8 Cl20 O8'
_cell_volume   2126.21202773
_cell_formula_units_Z   4
loop_
 _symmetry_equiv_pos_site_id
 _symmetry_equiv_pos_as_xyz
  1  'x, y, z'
loop_
 _atom_site_type_symbol
 _atom_site_label
 _atom_site_symmetry_multiplicity
 _atom_site_fract_x
 _atom_site_fract_y
 _atom_site_fract_z
 _atom_site_occupancy
  Zr  Zr0  1  0.724354  0.025763  0.351782  1
  Zr  Zr1  1  0.775646  0.974237  0.851782  1
  Zr  Zr2  1  0.224354  0.474237  0.648218  1
  Zr  Zr3  1  0.275646  0.525763  0.148218  1
  H  H4  1  0.942569  0.969803  0.468975  1
  H  H5  1  0.557431  0.030197  0.968975  1
  H  H6  1  0.442569  0.530197  0.531025  1
  H  H7  1  0.057431  0.469803  0.031025  1
  H  H8  1  0.791402  0.134930  0.101822  1
  H  H9  1  0.708598  0.865070  0.601822  1
  H  H10  1  0.291402  0.365070  0.898178  1
  H  H11  1  0.208598  0.634930  0.398178  1
  H  H12  1  0.442439  0.434687  0.404618  1
  H  H13  1  0.057561  0.565313  0.904618  1
  H  H14  1  0.942439  0.065313  0.595382  1
  H  H15  1  0.557561  0.934687  0.095382  1
  H  H16  1  0.066807  0.070890  0.138680  1
  H  H17  1  0.433193  0.929110  0.638680  1
  H  H18  1  0.566807  0.429110  0.861320  1
  H  H19  1  0.933193  0.570890  0.361320  1
  H  H20  1  0.192962  0.167342  0.107693  1
  H  H21  1  0.307038  0.832658  0.607693  1
  H  H22  1  0.692962  0.332658  0.892307  1
  H  H23  1  0.807038  0.667342  0.392307  1
  H  H24  1  0.078062  0.092525  0.049585  1
  H  H25  1  0.421938  0.907475  0.549585  1
  H  H26  1  0.578062  0.407475  0.950415  1
  H  H27  1  0.921938  0.592525  0.450415  1
  H  H28  1  0.947172  0.186120  0.211372  1
  H  H29  1  0.552828  0.813880  0.711372  1
  H  H30  1  0.447172  0.313880  0.788628  1
  H  H31  1  0.052828  0.686120  0.288628  1
  H  H32  1  0.751628  0.247670  0.180626  1
  H  H33  1  0.748372  0.752330  0.680626  1
  H  H34  1  0.251628  0.252330  0.819374  1
  H  H35  1  0.248372  0.747670  0.319374  1
  H  H36  1  0.979029  0.291661  0.167253  1
  H  H37  1  0.520971  0.708339  0.667253  1
  H  H38  1  0.479029  0.208339  0.832747  1
  H  H39  1  0.020971  0.791661  0.332747  1
  H  H40  1  0.754428  0.280618  0.052427  1
  H  H41  1  0.745572  0.719382  0.552427  1
  H  H42  1  0.254428  0.219382  0.947573  1
  H  H43  1  0.245572  0.780618  0.447573  1
  H  H44  1  0.882775  0.204116  0.999188  1
  H  H45  1  0.617225  0.795884  0.499188  1
  H  H46  1  0.382775  0.295884  0.000812  1
  H  H47  1  0.117225  0.704116  0.500812  1
  H  H48  1  0.998099  0.291468  0.046595  1
  H  H49  1  0.501901  0.708532  0.546595  1
  H  H50  1  0.498099  0.208532  0.953405  1
  H  H51  1  0.001901  0.791468  0.453405  1
  H  H52  1  0.188723  0.944773  0.361583  1
  H  H53  1  0.311277  0.055227  0.861583  1
  H  H54  1  0.688723  0.555227  0.638417  1
  H  H55  1  0.811277  0.444773  0.138417  1
  H  H56  1  0.232970  0.960172  0.450253  1
  H  H57  1  0.267030  0.039828  0.950253  1
  H  H58  1  0.732970  0.539828  0.549747  1
  H  H59  1  0.767030  0.460172  0.049747  1
  H  H60  1  0.197719  0.056578  0.396726  1
  H  H61  1  0.302281  0.943422  0.896726  1
  H  H62  1  0.697719  0.443422  0.603274  1
  H  H63  1  0.802281  0.556578  0.103274  1
  H  H64  1  0.252199  0.076410  0.272369  1
  H  H65  1  0.247801  0.923590  0.772369  1
  H  H66  1  0.752199  0.423590  0.727631  1
  H  H67  1  0.747801  0.576410  0.227631  1
  H  H68  1  0.413252  0.096397  0.204942  1
  H  H69  1  0.086748  0.903603  0.704942  1
  H  H70  1  0.913252  0.403603  0.795058  1
  H  H71  1  0.586748  0.596397  0.295058  1
  H  H72  1  0.372821  0.182029  0.267453  1
  H  H73  1  0.127179  0.817971  0.767453  1
  H  H74  1  0.872821  0.317971  0.732547  1
  H  H75  1  0.627179  0.682029  0.232547  1
  H  H76  1  0.224237  0.339975  0.344476  1
  H  H77  1  0.275763  0.660025  0.844476  1
  H  H78  1  0.724237  0.160025  0.655524  1
  H  H79  1  0.775763  0.839975  0.155524  1
  H  H80  1  0.226864  0.319226  0.434028  1
  H  H81  1  0.273136  0.680774  0.934028  1
  H  H82  1  0.726864  0.180774  0.565972  1
  H  H83  1  0.773136  0.819226  0.065972  1
  H  H84  1  0.339749  0.241609  0.377618  1
  H  H85  1  0.160251  0.758391  0.877618  1
  H  H86  1  0.839749  0.258391  0.622382  1
  H  H87  1  0.660251  0.741609  0.122382  1
  H  H88  1  0.692832  0.418552  0.334222  1
  H  H89  1  0.807168  0.581448  0.834222  1
  H  H90  1  0.192832  0.081448  0.665778  1
  H  H91  1  0.307168  0.918552  0.165778  1
  H  H92  1  0.489583  0.390075  0.287782  1
  H  H93  1  0.010417  0.609925  0.787782  1
  H  H94  1  0.989583  0.109925  0.712218  1
  H  H95  1  0.510417  0.890075  0.212218  1
  H  H96  1  0.639249  0.301375  0.318812  1
  H  H97  1  0.860751  0.698625  0.818812  1
  H  H98  1  0.139249  0.198625  0.681188  1
  H  H99  1  0.360751  0.801375  0.181188  1
  H  H100  1  0.722144  0.367670  0.450291  1
  H  H101  1  0.777856  0.632330  0.950291  1
  H  H102  1  0.222144  0.132330  0.549709  1
  H  H103  1  0.277856  0.867670  0.049709  1
  H  H104  1  0.609139  0.259207  0.445562  1
  H  H105  1  0.890861  0.740793  0.945562  1
  H  H106  1  0.109139  0.240793  0.554438  1
  H  H107  1  0.390861  0.759207  0.054438  1
  H  H108  1  0.516938  0.347824  0.498403  1
  H  H109  1  0.983062  0.652176  0.998403  1
  H  H110  1  0.016938  0.152176  0.501597  1
  H  H111  1  0.483062  0.847824  0.001597  1
  C  C112  1  0.073053  0.123905  0.099772  1
  C  C113  1  0.426947  0.876095  0.599772  1
  C  C114  1  0.573053  0.376095  0.900228  1
  C  C115  1  0.926947  0.623905  0.400228  1
  C  C116  1  0.894849  0.230028  0.170933  1
  C  C117  1  0.605151  0.769972  0.670933  1
  C  C118  1  0.394849  0.269972  0.829067  1
  C  C119  1  0.105151  0.730028  0.329067  1
  C  C120  1  0.883479  0.243599  0.046381  1
  C  C121  1  0.616521  0.756401  0.546381  1
  C  C122  1  0.383479  0.256401  0.953619  1
  C  C123  1  0.116521  0.743599  0.453619  1
  C  C124  1  0.157712  0.985880  0.406359  1
  C  C125  1  0.342288  0.014120  0.906359  1
  C  C126  1  0.657712  0.514120  0.593641  1
  C  C127  1  0.842288  0.485880  0.093641  1
  C  C128  1  0.383730  0.108094  0.258915  1
  C  C129  1  0.116270  0.891906  0.758915  1
  C  C130  1  0.883730  0.391906  0.741085  1
  C  C131  1  0.616270  0.608094  0.241085  1
  C  C132  1  0.304227  0.312962  0.386808  1
  C  C133  1  0.195773  0.687038  0.886808  1
  C  C134  1  0.804227  0.187038  0.613192  1
  C  C135  1  0.695773  0.812962  0.113192  1
  C  C136  1  0.581782  0.369066  0.328640  1
  C  C137  1  0.918218  0.630934  0.828640  1
  C  C138  1  0.081782  0.130934  0.671360  1
  C  C139  1  0.418218  0.869066  0.171360  1
  C  C140  1  0.589615  0.332907  0.451146  1
  C  C141  1  0.910385  0.667093  0.951146  1
  C  C142  1  0.089615  0.167093  0.548854  1
  C  C143  1  0.410385  0.832907  0.048854  1
  N  N144  1  0.903953  0.180063  0.104918  1
  N  N145  1  0.596047  0.819937  0.604918  1
  N  N146  1  0.403953  0.319937  0.895082  1
  N  N147  1  0.096047  0.680063  0.395082  1
  N  N148  1  0.476666  0.366202  0.393285  1
  N  N149  1  0.023334  0.633798  0.893285  1
  N  N150  1  0.976666  0.133798  0.606715  1
  N  N151  1  0.523334  0.866202  0.106715  1
  Cl  Cl152  1  0.899968  0.173474  0.351681  1
  Cl  Cl153  1  0.600032  0.826526  0.851681  1
  Cl  Cl154  1  0.399968  0.326526  0.648319  1
  Cl  Cl155  1  0.100032  0.673474  0.148319  1
  Cl  Cl156  1  0.600561  0.866103  0.367058  1
  Cl  Cl157  1  0.899439  0.133897  0.867058  1
  Cl  Cl158  1  0.100561  0.633897  0.632942  1
  Cl  Cl159  1  0.399439  0.366103  0.132942  1
  Cl  Cl160  1  0.911060  0.967616  0.253895  1
  Cl  Cl161  1  0.588940  0.032384  0.753895  1
  Cl  Cl162  1  0.411060  0.532384  0.746105  1
  Cl  Cl163  1  0.088940  0.467616  0.246105  1
  Cl  Cl164  1  0.593575  0.066585  0.465650  1
  Cl  Cl165  1  0.906425  0.933415  0.965650  1
  Cl  Cl166  1  0.093575  0.433415  0.534350  1
  Cl  Cl167  1  0.406425  0.566585  0.034350  1
  Cl  Cl168  1  0.948575  0.932262  0.572347  1
  Cl  Cl169  1  0.551425  0.067738  0.072347  1
  Cl  Cl170  1  0.448575  0.567738  0.427653  1
  Cl  Cl171  1  0.051425  0.432262  0.927653  1
  O  O172  1  0.525153  0.071377  0.298247  1
  O  O173  1  0.974847  0.928623  0.798247  1
  O  O174  1  0.025153  0.428623  0.701753  1
  O  O175  1  0.474847  0.571377  0.201753  1
  O  O176  1  0.963905  0.980552  0.419756  1
  O  O177  1  0.536095  0.019448  0.919756  1
  O  O178  1  0.463905  0.519448  0.580244  1
  O  O179  1  0.036095  0.480552  0.080244  1
