# generated using pymatgen
data_Cr2H24(IN3)3
_symmetry_space_group_name_H-M   'P 1'
_cell_length_a   7.75564094
_cell_length_b   7.75537097
_cell_length_c   18.18252826
_cell_angle_alpha   90.00128610
_cell_angle_beta   89.99792141
_cell_angle_gamma   119.99607517
_symmetry_Int_Tables_number   1
_chemical_formula_structural   Cr2H24(IN3)3
_chemical_formula_sum   'Cr4 H48 I6 N18'
_cell_volume   947.15781810
_cell_formula_units_Z   2
loop_
 _symmetry_equiv_pos_site_id
 _symmetry_equiv_pos_as_xyz
  1  'x, y, z'
loop_
 _atom_site_type_symbol
 _atom_site_label
 _atom_site_symmetry_multiplicity
 _atom_site_fract_x
 _atom_site_fract_y
 _atom_site_fract_z
 _atom_site_occupancy
  Cr  Cr0  1  0.333367  0.666662  0.174524  1
  Cr  Cr1  1  0.333320  0.666675  0.325489  1
  Cr  Cr2  1  0.666685  0.333339  0.674011  1
  Cr  Cr3  1  0.666672  0.333331  0.825987  1
  H  H4  1  0.055171  0.730396  0.117033  1
  H  H5  1  0.055148  0.730362  0.382980  1
  H  H6  1  0.014893  0.613814  0.250022  1
  H  H7  1  0.269573  0.944955  0.117158  1
  H  H8  1  0.269563  0.944927  0.382847  1
  H  H9  1  0.014972  0.401212  0.250020  1
  H  H10  1  0.223512  0.777125  0.051531  1
  H  H11  1  0.223491  0.777099  0.448482  1
  H  H12  1  0.055135  0.324732  0.117034  1
  H  H13  1  0.055026  0.324615  0.382849  1
  H  H14  1  0.386194  0.985094  0.250025  1
  H  H15  1  0.222877  0.446386  0.448487  1
  H  H16  1  0.223490  0.446361  0.051528  1
  H  H17  1  0.598815  0.985045  0.250030  1
  H  H18  1  0.269561  0.324606  0.117153  1
  H  H19  1  0.269609  0.324813  0.382982  1
  H  H20  1  0.553636  0.776491  0.051531  1
  H  H21  1  0.553596  0.776500  0.448484  1
  H  H22  1  0.386182  0.401039  0.250029  1
  H  H23  1  0.675284  0.944856  0.117029  1
  H  H24  1  0.675205  0.944833  0.382979  1
  H  H25  1  0.323850  0.268841  0.883383  1
  H  H26  1  0.323861  0.268840  0.616626  1
  H  H27  1  0.401835  0.384354  0.750004  1
  H  H28  1  0.598770  0.613712  0.250032  1
  H  H29  1  0.675422  0.730419  0.117151  1
  H  H30  1  0.675338  0.730408  0.382852  1
  H  H31  1  0.323995  0.055064  0.883520  1
  H  H32  1  0.324020  0.055091  0.616483  1
  H  H33  1  0.615622  0.598167  0.750004  1
  H  H34  1  0.443172  0.221885  0.550648  1
  H  H35  1  0.443136  0.221857  0.949355  1
  H  H36  1  0.731079  0.675983  0.883520  1
  H  H37  1  0.731081  0.675972  0.616485  1
  H  H38  1  0.401799  0.017453  0.750000  1
  H  H39  1  0.778699  0.556815  0.550649  1
  H  H40  1  0.778719  0.556852  0.949350  1
  H  H41  1  0.615610  0.017495  0.749999  1
  H  H42  1  0.945014  0.676153  0.616621  1
  H  H43  1  0.945029  0.676172  0.883376  1
  H  H44  1  0.778131  0.221283  0.949351  1
  H  H45  1  0.778120  0.221292  0.550649  1
  H  H46  1  0.982539  0.598165  0.750000  1
  H  H47  1  0.731143  0.055020  0.616622  1
  H  H48  1  0.731146  0.055004  0.883380  1
  H  H49  1  0.982542  0.384354  0.749998  1
  H  H50  1  0.944924  0.268916  0.616481  1
  H  H51  1  0.944939  0.268919  0.883520  1
  I  I52  1  0.333230  0.666748  0.581913  1
  I  I53  1  0.000034  0.000003  0.249807  1
  I  I54  1  0.000018  0.999977  0.749835  1
  I  I55  1  0.333337  0.666647  0.918079  1
  I  I56  1  0.666828  0.333549  0.082216  1
  I  I57  1  0.666753  0.333571  0.417785  1
  N  N58  1  0.204991  0.795328  0.106713  1
  N  N59  1  0.204935  0.795310  0.393294  1
  N  N60  1  0.107135  0.553562  0.250014  1
  N  N61  1  0.204748  0.409618  0.393296  1
  N  N62  1  0.204992  0.409620  0.106713  1
  N  N63  1  0.446442  0.892865  0.250022  1
  N  N64  1  0.446449  0.553547  0.250024  1
  N  N65  1  0.590395  0.795050  0.106709  1
  N  N66  1  0.590346  0.795058  0.393298  1
  N  N67  1  0.408951  0.204545  0.893875  1
  N  N68  1  0.408989  0.204583  0.606127  1
  N  N69  1  0.554015  0.446089  0.750007  1
  N  N70  1  0.795529  0.591025  0.606123  1
  N  N71  1  0.795551  0.591051  0.893874  1
  N  N72  1  0.554018  0.107924  0.750001  1
  N  N73  1  0.892109  0.446003  0.750002  1
  N  N74  1  0.795410  0.204391  0.606117  1
  N  N75  1  0.795427  0.204379  0.893878  1
