# generated using pymatgen
data_LiSn10(PO4)7
_symmetry_space_group_name_H-M   'P 1'
_cell_length_a   10.87070041
_cell_length_b   15.26107156
_cell_length_c   10.87070040
_cell_angle_alpha   110.86442208
_cell_angle_beta   59.99999999
_cell_angle_gamma   110.86442208
_symmetry_Int_Tables_number   1
_chemical_formula_structural   LiSn10(PO4)7
_chemical_formula_sum   'Li2 Sn20 P14 O56'
_cell_volume   1423.62936738
_cell_formula_units_Z   2
loop_
 _symmetry_equiv_pos_site_id
 _symmetry_equiv_pos_as_xyz
  1  'x, y, z'
loop_
 _atom_site_type_symbol
 _atom_site_label
 _atom_site_symmetry_multiplicity
 _atom_site_fract_x
 _atom_site_fract_y
 _atom_site_fract_z
 _atom_site_occupancy
  Li  Li0  1  0.171331  0.513994  0.171331  1
  Li  Li1  1  0.671331  0.013994  0.671331  1
  Sn  Sn2  1  0.076567  0.793257  0.067572  1
  Sn  Sn3  1  0.066677  0.999828  0.498388  1
  Sn  Sn4  1  0.434763  0.999828  0.066677  1
  Sn  Sn5  1  0.001259  0.003777  0.001259  1
  Sn  Sn6  1  0.067572  0.793257  0.649116  1
  Sn  Sn7  1  0.498388  0.999828  0.434763  1
  Sn  Sn8  1  0.419650  0.719779  0.449503  1
  Sn  Sn9  1  0.649116  0.793257  0.076567  1
  Sn  Sn10  1  0.149116  0.293257  0.567572  1
  Sn  Sn11  1  0.576567  0.293257  0.149116  1
  Sn  Sn12  1  0.501259  0.503777  0.501259  1
  Sn  Sn13  1  0.449503  0.719779  0.850626  1
  Sn  Sn14  1  0.850626  0.719779  0.419650  1
  Sn  Sn15  1  0.567572  0.293257  0.576567  1
  Sn  Sn16  1  0.350626  0.219779  0.949503  1
  Sn  Sn17  1  0.566677  0.499828  0.934763  1
  Sn  Sn18  1  0.919650  0.219779  0.350626  1
  Sn  Sn19  1  0.998388  0.499828  0.566677  1
  Sn  Sn20  1  0.934763  0.499828  0.998388  1
  Sn  Sn21  1  0.949503  0.219779  0.919650  1
  P  P22  1  0.269761  0.809283  0.269761  1
  P  P23  1  0.255681  0.399562  0.298424  1
  P  P24  1  0.193933  0.110201  0.228698  1
  P  P25  1  0.187569  0.610201  0.728698  1
  P  P26  1  0.345455  0.899562  0.798424  1
  P  P27  1  0.693933  0.610201  0.187569  1
  P  P28  1  0.755681  0.899562  0.345455  1
  P  P29  1  0.298424  0.399562  0.845455  1
  P  P30  1  0.228698  0.110201  0.687569  1
  P  P31  1  0.687569  0.110201  0.193933  1
  P  P32  1  0.798424  0.899562  0.755681  1
  P  P33  1  0.845455  0.399562  0.255681  1
  P  P34  1  0.728698  0.610201  0.693933  1
  P  P35  1  0.769761  0.309283  0.769761  1
  O  O36  1  0.183144  0.000022  0.187250  1
  O  O37  1  0.137308  0.769827  0.228195  1
  O  O38  1  0.306856  0.920569  0.306856  1
  O  O39  1  0.187250  0.000022  0.629629  1
  O  O40  1  0.404325  0.769827  0.137308  1
  O  O41  1  0.228195  0.769827  0.404325  1
  O  O42  1  0.106534  0.337361  0.398463  1
  O  O43  1  0.129101  0.139905  0.152693  1
  O  O44  1  0.122141  0.654107  0.669917  1
  O  O45  1  0.187900  0.911063  0.858574  1
  O  O46  1  0.221352  0.495279  0.317908  1
  O  O47  1  0.629629  0.000022  0.183144  1
  O  O48  1  0.111254  0.144970  0.396556  1
  O  O49  1  0.309795  0.346150  0.136523  1
  O  O50  1  0.129629  0.500022  0.687250  1
  O  O51  1  0.399834  0.846150  0.636523  1
  O  O52  1  0.137160  0.644970  0.896556  1
  O  O53  1  0.611254  0.644970  0.137160  1
  O  O54  1  0.606534  0.837361  0.332365  1
  O  O55  1  0.364589  0.411063  0.358574  1
  O  O56  1  0.362050  0.154107  0.169917  1
  O  O57  1  0.358112  0.639905  0.652693  1
  O  O58  1  0.332365  0.837361  0.898463  1
  O  O59  1  0.136523  0.346150  0.899834  1
  O  O60  1  0.169917  0.154107  0.622141  1
  O  O61  1  0.683144  0.500022  0.129629  1
  O  O62  1  0.629101  0.639905  0.358112  1
  O  O63  1  0.864589  0.911063  0.187900  1
  O  O64  1  0.358574  0.411063  0.687900  1
  O  O65  1  0.152693  0.139905  0.858112  1
  O  O66  1  0.317908  0.495279  0.956019  1
  O  O67  1  0.862050  0.654107  0.122141  1
  O  O68  1  0.809795  0.846150  0.399834  1
  O  O69  1  0.637160  0.144970  0.111254  1
  O  O70  1  0.636523  0.846150  0.809795  1
  O  O71  1  0.652693  0.639905  0.629101  1
  O  O72  1  0.687900  0.411063  0.364589  1
  O  O73  1  0.398463  0.337361  0.832365  1
  O  O74  1  0.396556  0.144970  0.637160  1
  O  O75  1  0.832365  0.337361  0.106534  1
  O  O76  1  0.622141  0.154107  0.362050  1
  O  O77  1  0.956019  0.495279  0.221352  1
  O  O78  1  0.669917  0.654107  0.862050  1
  O  O79  1  0.898463  0.837361  0.606534  1
  O  O80  1  0.687250  0.500022  0.683144  1
  O  O81  1  0.456019  0.995279  0.817908  1
  O  O82  1  0.858574  0.911063  0.864589  1
  O  O83  1  0.858112  0.139905  0.129101  1
  O  O84  1  0.899834  0.346150  0.309795  1
  O  O85  1  0.896556  0.644970  0.611254  1
  O  O86  1  0.637308  0.269827  0.904325  1
  O  O87  1  0.728195  0.269827  0.637308  1
  O  O88  1  0.721352  0.995279  0.456019  1
  O  O89  1  0.806856  0.420569  0.806856  1
  O  O90  1  0.904325  0.269827  0.728195  1
  O  O91  1  0.817908  0.995279  0.721352  1
