# generated using pymatgen
data_FeOF
_symmetry_space_group_name_H-M   'P 1'
_cell_length_a   9.53862648
_cell_length_b   9.54458717
_cell_length_c   6.13785224
_cell_angle_alpha   89.84746484
_cell_angle_beta   89.99674784
_cell_angle_gamma   89.90294713
_symmetry_Int_Tables_number   1
_chemical_formula_structural   FeOF
_chemical_formula_sum   'Fe16 O16 F16'
_cell_volume   558.80110747
_cell_formula_units_Z   16
loop_
 _symmetry_equiv_pos_site_id
 _symmetry_equiv_pos_as_xyz
  1  'x, y, z'
loop_
 _atom_site_type_symbol
 _atom_site_label
 _atom_site_symmetry_multiplicity
 _atom_site_fract_x
 _atom_site_fract_y
 _atom_site_fract_z
 _atom_site_occupancy
  Fe  Fe0  1  0.989006  0.986577  0.015526  1
  Fe  Fe1  1  0.010432  0.014114  0.484560  1
  Fe  Fe2  1  0.011031  0.513661  0.998962  1
  Fe  Fe3  1  0.989098  0.486494  0.498877  1
  Fe  Fe4  1  0.266854  0.229878  0.266287  1
  Fe  Fe5  1  0.233146  0.270122  0.733713  1
  Fe  Fe6  1  0.237811  0.762319  0.234941  1
  Fe  Fe7  1  0.262189  0.737681  0.765059  1
  Fe  Fe8  1  0.510994  0.513423  0.984474  1
  Fe  Fe9  1  0.489568  0.485886  0.515440  1
  Fe  Fe10  1  0.488969  0.986339  0.001038  1
  Fe  Fe11  1  0.510902  0.013506  0.501123  1
  Fe  Fe12  1  0.760998  0.238807  0.265019  1
  Fe  Fe13  1  0.739002  0.261193  0.734981  1
  Fe  Fe14  1  0.769787  0.732978  0.233779  1
  Fe  Fe15  1  0.730213  0.767022  0.766221  1
  O  O16  1  0.089553  0.411508  0.752023  1
  O  O17  1  0.095668  0.904378  0.254134  1
  O  O18  1  0.153780  0.154602  0.504375  1
  O  O19  1  0.153582  0.654829  0.000124  1
  O  O20  1  0.346220  0.345398  0.495625  1
  O  O21  1  0.346418  0.845171  0.999876  1
  O  O22  1  0.404332  0.595622  0.745866  1
  O  O23  1  0.410447  0.088492  0.247977  1
  O  O24  1  0.596409  0.403310  0.754231  1
  O  O25  1  0.588528  0.910449  0.748253  1
  O  O26  1  0.653482  0.154726  0.500426  1
  O  O27  1  0.653343  0.654956  0.004055  1
  O  O28  1  0.846518  0.345274  0.499574  1
  O  O29  1  0.846657  0.845044  0.995945  1
  O  O30  1  0.903591  0.096690  0.245769  1
  O  O31  1  0.911472  0.589551  0.251747  1
  F  F32  1  0.102248  0.395848  0.243973  1
  F  F33  1  0.095970  0.903487  0.745840  1
  F  F34  1  0.155011  0.153783  0.995780  1
  F  F35  1  0.154981  0.654092  0.499766  1
  F  F36  1  0.344989  0.346217  0.004220  1
  F  F37  1  0.345019  0.845908  0.500234  1
  F  F38  1  0.397752  0.104152  0.756027  1
  F  F39  1  0.404030  0.596513  0.254160  1
  F  F40  1  0.595755  0.403838  0.245950  1
  F  F41  1  0.603485  0.897191  0.256529  1
  F  F42  1  0.654853  0.154054  0.000528  1
  F  F43  1  0.654693  0.654085  0.495919  1
  F  F44  1  0.845147  0.345946  0.999472  1
  F  F45  1  0.845307  0.845915  0.504081  1
  F  F46  1  0.904245  0.096162  0.754050  1
  F  F47  1  0.896515  0.602809  0.743471  1
