# generated using pymatgen
data_TaTlO3
_symmetry_space_group_name_H-M   'P 1'
_cell_length_a   7.61769309
_cell_length_b   7.61769309
_cell_length_c   7.61769309
_cell_angle_alpha   60.00000000
_cell_angle_beta   90.00000000
_cell_angle_gamma   120.00000000
_symmetry_Int_Tables_number   1
_chemical_formula_structural   TaTlO3
_chemical_formula_sum   'Ta4 Tl4 O12'
_cell_volume   312.57584649
_cell_formula_units_Z   4
loop_
 _symmetry_equiv_pos_site_id
 _symmetry_equiv_pos_as_xyz
  1  'x, y, z'
loop_
 _atom_site_type_symbol
 _atom_site_label
 _atom_site_symmetry_multiplicity
 _atom_site_fract_x
 _atom_site_fract_y
 _atom_site_fract_z
 _atom_site_occupancy
  Ta  Ta0  1  0.000000  0.000000  0.000000  1
  Ta  Ta1  1  0.500000  0.500000  0.000000  1
  Ta  Ta2  1  0.000000  0.500000  0.000000  1
  Ta  Ta3  1  0.000000  0.000000  0.500000  1
  Tl  Tl4  1  0.500000  0.000000  0.000000  1
  Tl  Tl5  1  0.500000  0.000000  0.500000  1
  Tl  Tl6  1  0.500000  0.500000  0.500000  1
  Tl  Tl7  1  0.000000  0.500000  0.500000  1
  O  O8  1  0.939699  0.250000  0.310301  1
  O  O9  1  0.689699  0.379396  0.060301  1
  O  O10  1  0.689699  0.750000  0.060301  1
  O  O11  1  0.310301  0.250000  0.310301  1
  O  O12  1  0.939699  0.250000  0.939699  1
  O  O13  1  0.939699  0.879396  0.310301  1
  O  O14  1  0.060301  0.120604  0.689699  1
  O  O15  1  0.060301  0.750000  0.060301  1
  O  O16  1  0.689699  0.750000  0.689699  1
  O  O17  1  0.310301  0.250000  0.939699  1
  O  O18  1  0.310301  0.620604  0.939699  1
  O  O19  1  0.060301  0.750000  0.689699  1
