# generated using pymatgen
data_H3NO4
_symmetry_space_group_name_H-M   'P 1'
_cell_length_a   6.15522407
_cell_length_b   9.25707346
_cell_length_c   6.46033845
_cell_angle_alpha   90.00000000
_cell_angle_beta   90.00000000
_cell_angle_gamma   90.00000000
_symmetry_Int_Tables_number   1
_chemical_formula_structural   H3NO4
_chemical_formula_sum   'H12 N4 O16'
_cell_volume   368.10595917
_cell_formula_units_Z   4
loop_
 _symmetry_equiv_pos_site_id
 _symmetry_equiv_pos_as_xyz
  1  'x, y, z'
loop_
 _atom_site_type_symbol
 _atom_site_label
 _atom_site_symmetry_multiplicity
 _atom_site_fract_x
 _atom_site_fract_y
 _atom_site_fract_z
 _atom_site_occupancy
  H  H0  1  0.063305  0.771379  0.515371  1
  H  H1  1  0.563305  0.228621  0.484629  1
  H  H2  1  0.563305  0.271379  0.984629  1
  H  H3  1  0.063305  0.728621  0.015371  1
  H  H4  1  0.357194  0.323823  0.437582  1
  H  H5  1  0.857194  0.676177  0.562418  1
  H  H6  1  0.857194  0.823823  0.062418  1
  H  H7  1  0.357194  0.176177  0.937582  1
  H  H8  1  0.629095  0.062864  0.819610  1
  H  H9  1  0.129095  0.937136  0.180390  1
  H  H10  1  0.129095  0.562864  0.680390  1
  H  H11  1  0.629095  0.437136  0.319610  1
  N  N12  1  0.009593  0.392081  0.814742  1
  N  N13  1  0.509593  0.607919  0.185258  1
  N  N14  1  0.509593  0.892081  0.685258  1
  N  N15  1  0.009593  0.107919  0.314742  1
  O  O16  1  0.828579  0.442550  0.777861  1
  O  O17  1  0.328579  0.557450  0.222139  1
  O  O18  1  0.328579  0.942550  0.722139  1
  O  O19  1  0.828579  0.057450  0.277861  1
  O  O20  1  0.190567  0.470362  0.756332  1
  O  O21  1  0.690567  0.529638  0.243668  1
  O  O22  1  0.690567  0.970362  0.743668  1
  O  O23  1  0.190567  0.029638  0.256332  1
  O  O24  1  0.049468  0.276442  0.900416  1
  O  O25  1  0.549468  0.723558  0.099584  1
  O  O26  1  0.549468  0.776442  0.599584  1
  O  O27  1  0.049468  0.223558  0.400416  1
  O  O28  1  0.511500  0.187563  0.908113  1
  O  O29  1  0.011500  0.812437  0.091887  1
  O  O30  1  0.011500  0.687563  0.591887  1
  O  O31  1  0.511500  0.312437  0.408113  1
