# generated using pymatgen
data_Li3CoPCO7
_symmetry_space_group_name_H-M   'P 1'
_cell_length_a   8.43134562
_cell_length_b   9.98311737
_cell_length_c   6.44998688
_cell_angle_alpha   90.24208104
_cell_angle_beta   90.12256174
_cell_angle_gamma   85.29959887
_symmetry_Int_Tables_number   1
_chemical_formula_structural   Li3CoPCO7
_chemical_formula_sum   'Li12 Co4 P4 C4 O28'
_cell_volume   541.07098625
_cell_formula_units_Z   4
loop_
 _symmetry_equiv_pos_site_id
 _symmetry_equiv_pos_as_xyz
  1  'x, y, z'
loop_
 _atom_site_type_symbol
 _atom_site_label
 _atom_site_symmetry_multiplicity
 _atom_site_fract_x
 _atom_site_fract_y
 _atom_site_fract_z
 _atom_site_occupancy
  Li  Li0  1  0.097868  0.387014  0.251447  1
  Li  Li1  1  0.097532  0.878586  0.256381  1
  Li  Li2  1  0.276598  0.110556  0.494736  1
  Li  Li3  1  0.274340  0.634732  0.013372  1
  Li  Li4  1  0.274556  0.635216  0.485729  1
  Li  Li5  1  0.342147  0.880875  0.743084  1
  Li  Li6  1  0.722200  0.379585  0.524144  1
  Li  Li7  1  0.721361  0.380894  0.974112  1
  Li  Li8  1  0.721022  0.871819  0.530024  1
  Li  Li9  1  0.721713  0.871965  0.971114  1
  Li  Li10  1  0.898425  0.112684  0.749660  1
  Li  Li11  1  0.909729  0.623583  0.749296  1
  Co  Co12  1  0.272122  0.111889  0.005206  1
  Co  Co13  1  0.333445  0.400239  0.748773  1
  Co  Co14  1  0.667291  0.102324  0.250033  1
  Co  Co15  1  0.666521  0.605997  0.249089  1
  P  P16  1  0.411481  0.359859  0.247360  1
  P  P17  1  0.413068  0.863029  0.253865  1
  P  P18  1  0.585539  0.143451  0.752773  1
  P  P19  1  0.587864  0.640170  0.749556  1
  C  C20  1  0.037329  0.350080  0.753440  1
  C  C21  1  0.038568  0.854070  0.753635  1
  C  C22  1  0.963830  0.147037  0.245072  1
  C  C23  1  0.962847  0.648726  0.250066  1
  O  O24  1  0.071751  0.473238  0.749084  1
  O  O25  1  0.111553  0.180362  0.231917  1
  O  O26  1  0.071747  0.978175  0.758335  1
  O  O27  1  0.156751  0.256269  0.757269  1
  O  O28  1  0.109465  0.678704  0.250181  1
  O  O29  1  0.149157  0.756422  0.752080  1
  O  O30  1  0.307627  0.413820  0.061574  1
  O  O31  1  0.308432  0.409992  0.436469  1
  O  O32  1  0.312797  0.914148  0.060509  1
  O  O33  1  0.310474  0.913259  0.439660  1
  O  O34  1  0.418094  0.090549  0.756297  1
  O  O35  1  0.428938  0.201422  0.240382  1
  O  O36  1  0.419387  0.588414  0.749504  1
  O  O37  1  0.433084  0.705990  0.247775  1
  O  O38  1  0.567884  0.300041  0.751425  1
  O  O39  1  0.579613  0.409772  0.249359  1
  O  O40  1  0.571050  0.794798  0.749957  1
  O  O41  1  0.581804  0.914435  0.250336  1
  O  O42  1  0.691841  0.091270  0.938017  1
  O  O43  1  0.684401  0.088825  0.562929  1
  O  O44  1  0.690101  0.584697  0.561427  1
  O  O45  1  0.691286  0.585154  0.936888  1
  O  O46  1  0.849536  0.241734  0.258368  1
  O  O47  1  0.892696  0.316218  0.751905  1
  O  O48  1  0.846988  0.743739  0.251057  1
  O  O49  1  0.931253  0.023920  0.246894  1
  O  O50  1  0.889041  0.824859  0.749275  1
  O  O51  1  0.925852  0.525396  0.249157  1
