# generated using pymatgen
data_CaH8(BrO6)2
_symmetry_space_group_name_H-M   'P 1'
_cell_length_a   5.69437398
_cell_length_b   9.70292731
_cell_length_c   14.58555994
_cell_angle_alpha   72.82723088
_cell_angle_beta   81.56108793
_cell_angle_gamma   100.46946908
_symmetry_Int_Tables_number   1
_chemical_formula_structural   CaH8(BrO6)2
_chemical_formula_sum   'Ca2 H16 Br4 O24'
_cell_volume   739.71166410
_cell_formula_units_Z   2
loop_
 _symmetry_equiv_pos_site_id
 _symmetry_equiv_pos_as_xyz
  1  'x, y, z'
loop_
 _atom_site_type_symbol
 _atom_site_label
 _atom_site_symmetry_multiplicity
 _atom_site_fract_x
 _atom_site_fract_y
 _atom_site_fract_z
 _atom_site_occupancy
  Ca  Ca0  1  0.069716  0.755209  0.189163  1
  Ca  Ca1  1  0.930284  0.244791  0.810837  1
  H  H2  1  0.656352  0.963184  0.799790  1
  H  H3  1  0.343648  0.036816  0.200210  1
  H  H4  1  0.119452  0.446175  0.154775  1
  H  H5  1  0.880548  0.553825  0.845225  1
  H  H6  1  0.665457  0.266772  0.268047  1
  H  H7  1  0.334543  0.733228  0.731953  1
  H  H8  1  0.105946  0.717917  0.549839  1
  H  H9  1  0.894054  0.282083  0.450161  1
  H  H10  1  0.756953  0.173706  0.401669  1
  H  H11  1  0.243047  0.826294  0.598331  1
  H  H12  1  0.632468  0.318476  0.954626  1
  H  H13  1  0.367532  0.681524  0.045374  1
  H  H14  1  0.913173  0.690814  0.753435  1
  H  H15  1  0.086827  0.309186  0.246565  1
  H  H16  1  0.538886  0.676240  0.119757  1
  H  H17  1  0.461114  0.323760  0.880243  1
  Br  Br18  1  0.803280  0.859201  0.967700  1
  Br  Br19  1  0.196720  0.140799  0.032300  1
  Br  Br20  1  0.743869  0.822153  0.622960  1
  Br  Br21  1  0.256131  0.177847  0.377040  1
  O  O22  1  0.040850  0.567985  0.343612  1
  O  O23  1  0.959150  0.432015  0.656388  1
  O  O24  1  0.776353  0.526413  0.534825  1
  O  O25  1  0.223647  0.473587  0.465175  1
  O  O26  1  0.720047  0.793006  0.320538  1
  O  O27  1  0.279953  0.206994  0.679462  1
  O  O28  1  0.651224  0.350885  0.882971  1
  O  O29  1  0.348776  0.649115  0.117029  1
  O  O30  1  0.797479  0.731411  0.096572  1
  O  O31  1  0.202521  0.268589  0.903428  1
  O  O32  1  0.006245  0.637568  0.797707  1
  O  O33  1  -0.006245  0.362432  0.202293  1
  O  O34  1  0.104069  0.497356  0.982660  1
  O  O35  1  0.895931  0.502644  0.017340  1
  O  O36  1  0.779512  0.013849  0.826009  1
  O  O37  1  0.220488  0.986151  0.173991  1
  O  O38  1  0.133360  0.820347  0.550251  1
  O  O39  1  0.866640  0.179653  0.449749  1
  O  O40  1  0.761335  0.418425  0.614499  1
  O  O41  1  0.238665  0.581575  0.385501  1
  O  O42  1  0.691985  0.854343  0.383156  1
  O  O43  1  0.308015  0.145657  0.616844  1
  O  O44  1  0.419166  0.829079  0.680653  1
  O  O45  1  0.580834  0.170921  0.319347  1
