# generated using pymatgen
data_CaPbI4
_symmetry_space_group_name_H-M   'P 1'
_cell_length_a   4.62131823
_cell_length_b   16.05104285
_cell_length_c   15.25645270
_cell_angle_alpha   90.04231306
_cell_angle_beta   90.05495479
_cell_angle_gamma   90.05004805
_symmetry_Int_Tables_number   1
_chemical_formula_structural   CaPbI4
_chemical_formula_sum   'Ca4 Pb4 I16'
_cell_volume   1131.67627937
_cell_formula_units_Z   4
loop_
 _symmetry_equiv_pos_site_id
 _symmetry_equiv_pos_as_xyz
  1  'x, y, z'
loop_
 _atom_site_type_symbol
 _atom_site_label
 _atom_site_symmetry_multiplicity
 _atom_site_fract_x
 _atom_site_fract_y
 _atom_site_fract_z
 _atom_site_occupancy
  Ca  Ca0  1  0.000019  0.016363  0.001784  1
  Ca  Ca1  1  -0.000065  0.231498  0.494286  1
  Ca  Ca2  1  0.499983  0.983684  0.501835  1
  Ca  Ca3  1  0.499988  0.768513  0.994255  1
  Pb  Pb4  1  0.000451  0.519249  0.999340  1
  Pb  Pb5  1  0.999400  0.734690  0.494132  1
  Pb  Pb6  1  0.500085  0.480467  0.499233  1
  Pb  Pb7  1  0.500071  0.265274  0.994148  1
  I  I8  1  -0.000301  0.348858  0.118663  1
  I  I9  1  0.999967  0.063540  0.385270  1
  I  I10  1  0.999786  0.848541  0.110901  1
  I  I11  1  0.000041  0.563573  0.374629  1
  I  I12  1  0.000014  0.390317  0.617696  1
  I  I13  1  0.000461  0.174227  0.876749  1
  I  I14  1  0.000228  0.688508  0.878565  1
  I  I15  1  0.000015  0.902211  0.616799  1
  I  I16  1  0.499803  0.097806  0.116786  1
  I  I17  1  0.499882  0.311522  0.378463  1
  I  I18  1  0.499733  0.609631  0.117650  1
  I  I19  1  0.500269  0.936567  0.885281  1
  I  I20  1  0.499933  0.151459  0.610912  1
  I  I21  1  0.500457  0.436457  0.874592  1
  I  I22  1  0.499902  0.651117  0.618520  1
  I  I23  1  0.499878  0.825928  0.376708  1
