# generated using pymatgen
data_Li2MnF4
_symmetry_space_group_name_H-M   'P 1'
_cell_length_a   9.95782678
_cell_length_b   7.41473402
_cell_length_c   8.93550826
_cell_angle_alpha   90.00000000
_cell_angle_beta   90.00000000
_cell_angle_gamma   90.00000000
_symmetry_Int_Tables_number   1
_chemical_formula_structural   Li2MnF4
_chemical_formula_sum   'Li16 Mn8 F32'
_cell_volume   659.75000871
_cell_formula_units_Z   8
loop_
 _symmetry_equiv_pos_site_id
 _symmetry_equiv_pos_as_xyz
  1  'x, y, z'
loop_
 _atom_site_type_symbol
 _atom_site_label
 _atom_site_symmetry_multiplicity
 _atom_site_fract_x
 _atom_site_fract_y
 _atom_site_fract_z
 _atom_site_occupancy
  Li  Li0  1  0.091680  0.811331  0.254792  1
  Li  Li1  1  0.106873  0.214787  0.250543  1
  Li  Li2  1  0.134584  0.788492  0.922747  1
  Li  Li3  1  0.156431  0.264484  0.924380  1
  Li  Li4  1  0.343569  0.764484  0.424380  1
  Li  Li5  1  0.365416  0.288492  0.422747  1
  Li  Li6  1  0.393127  0.714787  0.750543  1
  Li  Li7  1  0.408320  0.311331  0.754792  1
  Li  Li8  1  0.591680  0.688669  0.254792  1
  Li  Li9  1  0.606873  0.285213  0.250543  1
  Li  Li10  1  0.634584  0.711508  0.922747  1
  Li  Li11  1  0.656431  0.235516  0.924380  1
  Li  Li12  1  0.843569  0.735516  0.424380  1
  Li  Li13  1  0.865416  0.211508  0.422747  1
  Li  Li14  1  0.893127  0.785213  0.750543  1
  Li  Li15  1  0.908320  0.188669  0.754792  1
  Mn  Mn16  1  0.113186  0.485125  0.579614  1
  Mn  Mn17  1  0.192660  0.991362  0.641724  1
  Mn  Mn18  1  0.307340  0.491362  0.141724  1
  Mn  Mn19  1  0.386814  0.985125  0.079614  1
  Mn  Mn20  1  0.613186  0.014875  0.579614  1
  Mn  Mn21  1  0.692660  0.508638  0.641724  1
  Mn  Mn22  1  0.807340  0.008638  0.141724  1
  Mn  Mn23  1  0.886814  0.514875  0.079614  1
  F  F24  1  0.011032  0.019447  0.182970  1
  F  F25  1  0.042901  0.283543  0.436930  1
  F  F26  1  0.051528  0.344190  0.769742  1
  F  F27  1  0.087737  0.390966  0.095573  1
  F  F28  1  0.170133  0.865575  0.436752  1
  F  F29  1  0.223547  0.020857  0.891784  1
  F  F30  1  0.221998  0.747710  0.108270  1
  F  F31  1  0.200144  0.694167  0.724382  1
  F  F32  1  0.299856  0.194167  0.224382  1
  F  F33  1  0.278002  0.247710  0.608270  1
  F  F34  1  0.276453  0.520857  0.391784  1
  F  F35  1  0.329867  0.365575  0.936752  1
  F  F36  1  0.412263  0.890966  0.595573  1
  F  F37  1  0.448472  0.844190  0.269742  1
  F  F38  1  0.457099  0.783543  0.936930  1
  F  F39  1  0.488968  0.519447  0.682970  1
  F  F40  1  0.511032  0.480553  0.182970  1
  F  F41  1  0.542901  0.216457  0.436930  1
  F  F42  1  0.551528  0.155810  0.769742  1
  F  F43  1  0.587737  0.109034  0.095573  1
  F  F44  1  0.670133  0.634425  0.436752  1
  F  F45  1  0.723547  0.479143  0.891784  1
  F  F46  1  0.721998  0.752290  0.108270  1
  F  F47  1  0.700144  0.805833  0.724382  1
  F  F48  1  0.799856  0.305833  0.224382  1
  F  F49  1  0.778002  0.252290  0.608270  1
  F  F50  1  0.776453  0.979143  0.391784  1
  F  F51  1  0.829867  0.134425  0.936752  1
  F  F52  1  0.912263  0.609034  0.595573  1
  F  F53  1  0.948472  0.655810  0.269742  1
  F  F54  1  0.957099  0.716457  0.936930  1
  F  F55  1  0.988968  0.980553  0.682970  1
