# generated using pymatgen
data_Tm2P4O13
_symmetry_space_group_name_H-M   'P 1'
_cell_length_a   8.76291632
_cell_length_b   9.55392950
_cell_length_c   13.86195530
_cell_angle_alpha   90.00000000
_cell_angle_beta   106.23434063
_cell_angle_gamma   90.00000000
_symmetry_Int_Tables_number   1
_chemical_formula_structural   Tm2P4O13
_chemical_formula_sum   'Tm8 P16 O52'
_cell_volume   1114.25234356
_cell_formula_units_Z   4
loop_
 _symmetry_equiv_pos_site_id
 _symmetry_equiv_pos_as_xyz
  1  'x, y, z'
loop_
 _atom_site_type_symbol
 _atom_site_label
 _atom_site_symmetry_multiplicity
 _atom_site_fract_x
 _atom_site_fract_y
 _atom_site_fract_z
 _atom_site_occupancy
  Tm  Tm0  1  0.027718  0.003475  0.721363  1
  Tm  Tm1  1  0.027718  0.496525  0.221363  1
  Tm  Tm2  1  0.446526  0.998592  0.737459  1
  Tm  Tm3  1  0.553474  0.498592  0.762541  1
  Tm  Tm4  1  0.446526  0.501408  0.237459  1
  Tm  Tm5  1  0.553474  0.001408  0.262541  1
  Tm  Tm6  1  0.972282  0.503475  0.778637  1
  Tm  Tm7  1  0.972282  0.996525  0.278637  1
  P  P8  1  0.145349  0.240007  0.936873  1
  P  P9  1  0.287882  0.730255  0.846073  1
  P  P10  1  0.216434  0.294895  0.657230  1
  P  P11  1  0.145349  0.259993  0.436873  1
  P  P12  1  0.495844  0.249780  0.939519  1
  P  P13  1  0.287882  0.769745  0.346073  1
  P  P14  1  0.216434  0.205105  0.157230  1
  P  P15  1  0.504156  0.749780  0.560481  1
  P  P16  1  0.495844  0.250219  0.439519  1
  P  P17  1  0.783566  0.794895  0.842770  1
  P  P18  1  0.712118  0.230255  0.653927  1
  P  P19  1  0.504156  0.750220  0.060481  1
  P  P20  1  0.854651  0.740007  0.563127  1
  P  P21  1  0.783566  0.705105  0.342770  1
  P  P22  1  0.712118  0.269745  0.153927  1
  P  P23  1  0.854651  0.759993  0.063127  1
  O  O24  1  0.039915  0.367287  0.911825  1
  O  O25  1  0.110461  0.121294  0.862609  1
  O  O26  1  0.137778  0.663201  0.858336  1
  O  O27  1  0.118788  0.371075  0.714916  1
  O  O28  1  0.039915  0.132713  0.411825  1
  O  O29  1  0.129214  0.323271  0.540087  1
  O  O30  1  0.328026  0.294378  0.959966  1
  O  O31  1  0.252461  0.864949  0.779899  1
  O  O32  1  0.219222  0.132750  0.673055  1
  O  O33  1  0.110461  0.378706  0.362609  1
  O  O34  1  0.391918  0.792416  0.953178  1
  O  O35  1  0.137778  0.836799  0.358336  1
  O  O36  1  0.118788  0.128925  0.214916  1
  O  O37  1  0.390151  0.627708  0.808654  1
  O  O38  1  0.470148  0.119659  0.875975  1
  O  O39  1  0.383990  0.351805  0.676470  1
  O  O40  1  0.129214  0.176729  0.040087  1
  O  O41  1  0.328026  0.205622  0.459966  1
  O  O42  1  0.252461  0.635051  0.279899  1
  O  O43  1  0.219222  0.367250  0.173055  1
  O  O44  1  0.435925  0.875506  0.599556  1
  O  O45  1  0.391918  0.707584  0.453178  1
  O  O46  1  0.564075  0.375506  0.900444  1
  O  O47  1  0.616010  0.851805  0.823530  1
  O  O48  1  0.529852  0.619659  0.624025  1
  O  O49  1  0.390151  0.872292  0.308654  1
  O  O50  1  0.609849  0.127708  0.691346  1
  O  O51  1  0.470148  0.380341  0.375975  1
  O  O52  1  0.383990  0.148195  0.176470  1
  O  O53  1  0.435925  0.624494  0.099556  1
  O  O54  1  0.608082  0.292416  0.546822  1
  O  O55  1  0.564075  0.124494  0.400444  1
  O  O56  1  0.780778  0.632750  0.826945  1
  O  O57  1  0.747539  0.364949  0.720101  1
  O  O58  1  0.671974  0.794378  0.540034  1
  O  O59  1  0.870786  0.823271  0.959913  1
  O  O60  1  0.616010  0.648195  0.323530  1
  O  O61  1  0.529852  0.880341  0.124025  1
  O  O62  1  0.609849  0.372292  0.191346  1
  O  O63  1  0.881212  0.871075  0.785084  1
  O  O64  1  0.862222  0.163201  0.641664  1
  O  O65  1  0.608082  0.207584  0.046822  1
  O  O66  1  0.889539  0.621294  0.637391  1
  O  O67  1  0.780778  0.867250  0.326945  1
  O  O68  1  0.747539  0.135051  0.220101  1
  O  O69  1  0.671974  0.705622  0.040034  1
  O  O70  1  0.870786  0.676729  0.459913  1
  O  O71  1  0.960085  0.867287  0.588175  1
  O  O72  1  0.881212  0.628925  0.285084  1
  O  O73  1  0.862222  0.336799  0.141664  1
  O  O74  1  0.889539  0.878706  0.137391  1
  O  O75  1  0.960085  0.632713  0.088175  1
