# generated using pymatgen
data_Y2Sb2O7
_symmetry_space_group_name_H-M   'P 1'
_cell_length_a   7.55917051
_cell_length_b   7.55954606
_cell_length_c   18.57285267
_cell_angle_alpha   90.00752229
_cell_angle_beta   89.98929898
_cell_angle_gamma   119.99298507
_symmetry_Int_Tables_number   1
_chemical_formula_structural   Y2Sb2O7
_chemical_formula_sum   'Y12 Sb12 O42'
_cell_volume   919.19952551
_cell_formula_units_Z   6
loop_
 _symmetry_equiv_pos_site_id
 _symmetry_equiv_pos_as_xyz
  1  'x, y, z'
loop_
 _atom_site_type_symbol
 _atom_site_label
 _atom_site_symmetry_multiplicity
 _atom_site_fract_x
 _atom_site_fract_y
 _atom_site_fract_z
 _atom_site_occupancy
  Y  Y0  1  0.999972  0.821452  0.666892  1
  Y  Y1  1  0.000267  0.834740  0.166720  1
  Y  Y2  1  0.181196  0.681047  0.011410  1
  Y  Y3  1  0.178496  0.178527  0.999982  1
  Y  Y4  1  0.499562  0.818103  0.678254  1
  Y  Y5  1  0.165941  0.165641  0.499993  1
  Y  Y6  1  0.318874  0.500049  0.344760  1
  Y  Y7  1  0.500023  0.318908  0.655289  1
  Y  Y8  1  0.681340  0.181838  0.988471  1
  Y  Y9  1  0.818183  0.499633  0.321784  1
  Y  Y10  1  0.834893  0.000261  0.833264  1
  Y  Y11  1  0.821492  0.999900  0.333266  1
  Sb  Sb12  1  0.999406  0.323301  0.166669  1
  Sb  Sb13  1  0.998623  0.298354  0.666319  1
  Sb  Sb14  1  0.164077  0.665501  0.500756  1
  Sb  Sb15  1  0.501602  0.835832  0.167598  1
  Sb  Sb16  1  0.334371  0.498456  0.834035  1
  Sb  Sb17  1  0.298549  0.998971  0.333557  1
  Sb  Sb18  1  0.677197  0.677223  0.500060  1
  Sb  Sb19  1  0.323583  0.999457  0.833420  1
  Sb  Sb20  1  0.700471  0.701501  0.000210  1
  Sb  Sb21  1  0.498454  0.334316  0.165983  1
  Sb  Sb22  1  0.665590  0.164084  0.499229  1
  Sb  Sb23  1  0.835867  0.501628  0.832417  1
  O  O24  1  0.018029  0.852071  0.284605  1
  O  O25  1  0.994143  0.801806  0.805823  1
  O  O26  1  0.106127  0.656537  0.393886  1
  O  O27  1  0.056905  0.443214  0.806300  1
  O  O28  1  0.327338  0.993105  0.955856  1
  O  O29  1  0.226441  0.694810  0.606321  1
  O  O30  1  0.007714  0.334715  0.288562  1
  O  O31  1  0.203492  0.686031  0.140022  1
  O  O32  1  0.386229  0.943002  0.472848  1
  O  O33  1  0.467499  0.773771  0.273166  1
  O  O34  1  0.483339  0.796657  0.806561  1
  O  O35  1  0.344039  0.450441  0.727197  1
  O  O36  1  0.147178  0.165075  0.617903  1
  O  O37  1  0.312991  0.516550  0.473104  1
  O  O38  1  0.198033  0.193154  0.139809  1
  O  O39  1  0.165127  0.147213  0.382073  1
  O  O40  1  0.306183  0.532592  0.939629  1
  O  O41  1  0.193155  0.198085  0.860327  1
  O  O42  1  0.551004  0.893831  0.060663  1
  O  O43  1  0.556476  0.613534  0.139602  1
  O  O44  1  0.807090  0.005098  0.473076  1
  O  O45  1  0.666304  0.673271  0.622243  1
  O  O46  1  0.450304  0.343766  0.272829  1
  O  O47  1  0.613543  0.556449  0.860374  1
  O  O48  1  0.334854  0.007749  0.711411  1
  O  O49  1  0.834352  0.982086  0.951162  1
  O  O50  1  0.532321  0.305898  0.060408  1
  O  O51  1  0.673261  0.666252  0.377718  1
  O  O52  1  0.516816  0.313225  0.526869  1
  O  O53  1  0.443433  0.056968  0.193685  1
  O  O54  1  0.694740  0.226401  0.393679  1
  O  O55  1  0.685694  0.203331  0.859880  1
  O  O56  1  0.894119  0.550408  0.939224  1
  O  O57  1  0.981788  0.834589  0.048831  1
  O  O58  1  0.796597  0.483397  0.193478  1
  O  O59  1  0.004880  0.806859  0.526854  1
  O  O60  1  0.773852  0.467515  0.726806  1
  O  O61  1  0.656691  0.106156  0.606135  1
  O  O62  1  0.942928  0.386285  0.527268  1
  O  O63  1  0.801822  0.994206  0.194096  1
  O  O64  1  0.993163  0.327220  0.044148  1
  O  O65  1  0.851980  0.017957  0.715367  1
