# generated using pymatgen
data_VSb(PO4)2
_symmetry_space_group_name_H-M   'P 1'
_cell_length_a   10.84129280
_cell_length_b   5.97409698
_cell_length_c   5.12499104
_cell_angle_alpha   90.00000000
_cell_angle_beta   93.90913827
_cell_angle_gamma   90.00000000
_symmetry_Int_Tables_number   1
_chemical_formula_structural   VSb(PO4)2
_chemical_formula_sum   'V2 Sb2 P4 O16'
_cell_volume   331.15769693
_cell_formula_units_Z   2
loop_
 _symmetry_equiv_pos_site_id
 _symmetry_equiv_pos_as_xyz
  1  'x, y, z'
loop_
 _atom_site_type_symbol
 _atom_site_label
 _atom_site_symmetry_multiplicity
 _atom_site_fract_x
 _atom_site_fract_y
 _atom_site_fract_z
 _atom_site_occupancy
  V  V0  1  0.209199  0.750000  0.435921  1
  V  V1  1  0.790801  0.250000  0.564079  1
  Sb  Sb2  1  0.270030  0.250000  0.962016  1
  Sb  Sb3  1  0.729970  0.750000  0.037984  1
  P  P4  1  0.081236  0.250000  0.413286  1
  P  P5  1  0.381649  0.750000  0.885505  1
  P  P6  1  0.618351  0.250000  0.114495  1
  P  P7  1  0.918764  0.750000  0.586714  1
  O  O8  1  0.057292  0.750000  0.651015  1
  O  O9  1  0.111223  0.250000  0.712562  1
  O  O10  1  0.146474  0.044963  0.284040  1
  O  O11  1  0.146474  0.455037  0.284040  1
  O  O12  1  0.315338  0.949862  0.720370  1
  O  O13  1  0.315338  0.550138  0.720370  1
  O  O14  1  0.337371  0.750000  0.162076  1
  O  O15  1  0.480339  0.250000  0.130449  1
  O  O16  1  0.519661  0.750000  0.869551  1
  O  O17  1  0.662629  0.250000  0.837924  1
  O  O18  1  0.684662  0.050138  0.279630  1
  O  O19  1  0.684662  0.449862  0.279630  1
  O  O20  1  0.853526  0.544963  0.715960  1
  O  O21  1  0.853526  0.955037  0.715960  1
  O  O22  1  0.888777  0.750000  0.287438  1
  O  O23  1  0.942708  0.250000  0.348985  1
