# generated using pymatgen
data_Li2MnV(P2O7)2
_symmetry_space_group_name_H-M   'P 1'
_cell_length_a   4.86305719
_cell_length_b   8.29630721
_cell_length_c   13.36461703
_cell_angle_alpha   90.00000000
_cell_angle_beta   88.52683278
_cell_angle_gamma   90.00000000
_symmetry_Int_Tables_number   1
_chemical_formula_structural   Li2MnV(P2O7)2
_chemical_formula_sum   'Li4 Mn2 V2 P8 O28'
_cell_volume   539.02281988
_cell_formula_units_Z   2
loop_
 _symmetry_equiv_pos_site_id
 _symmetry_equiv_pos_as_xyz
  1  'x, y, z'
loop_
 _atom_site_type_symbol
 _atom_site_label
 _atom_site_symmetry_multiplicity
 _atom_site_fract_x
 _atom_site_fract_y
 _atom_site_fract_z
 _atom_site_occupancy
  Li  Li0  1  0.164386  0.359471  0.662940  1
  Li  Li1  1  0.335614  0.859471  0.837060  1
  Li  Li2  1  0.660889  0.362350  0.162273  1
  Li  Li3  1  0.839111  0.862350  0.337727  1
  Mn  Mn4  1  0.151673  0.997676  0.634427  1
  Mn  Mn5  1  0.348327  0.497676  0.865573  1
  V  V6  1  0.648861  0.001084  0.136669  1
  V  V7  1  0.851139  0.501084  0.363331  1
  P  P8  1  0.139879  0.181364  0.261674  1
  P  P9  1  0.167931  0.787197  0.043667  1
  P  P10  1  0.332069  0.287197  0.456333  1
  P  P11  1  0.360121  0.681364  0.238326  1
  P  P12  1  0.641715  0.176461  0.758298  1
  P  P13  1  0.669231  0.784121  0.544352  1
  P  P14  1  0.830769  0.284121  0.955648  1
  P  P15  1  0.858285  0.676461  0.741702  1
  O  O16  1  0.997423  0.839359  0.752451  1
  O  O17  1  0.050968  0.532658  0.759196  1
  O  O18  1  0.094475  0.679188  0.302247  1
  O  O19  1  0.145055  0.436844  0.456381  1
  O  O20  1  0.130857  0.325063  0.927663  1
  O  O21  1  0.218971  0.154401  0.376813  1
  O  O22  1  0.183410  0.702644  0.942851  1
  O  O23  1  0.281029  0.654401  0.123187  1
  O  O24  1  0.316590  0.202644  0.557149  1
  O  O25  1  0.354945  0.936844  0.043619  1
  O  O26  1  0.369143  0.825063  0.572337  1
  O  O27  1  0.405525  0.179188  0.197753  1
  O  O28  1  0.449032  0.032658  0.740804  1
  O  O29  1  0.504850  0.845076  0.247057  1
  O  O30  1  0.502577  0.339359  0.747549  1
  O  O31  1  0.554294  0.539887  0.258307  1
  O  O32  1  0.587965  0.670822  0.804959  1
  O  O33  1  0.624498  0.326321  0.422668  1
  O  O34  1  0.644166  0.433620  0.957888  1
  O  O35  1  0.687541  0.695874  0.444150  1
  O  O36  1  0.722590  0.154097  0.874737  1
  O  O37  1  0.812459  0.195874  0.055850  1
  O  O38  1  0.777410  0.654097  0.625263  1
  O  O39  1  0.875502  0.826321  0.077332  1
  O  O40  1  0.855834  0.933620  0.542112  1
  O  O41  1  0.912035  0.170822  0.695041  1
  O  O42  1  0.945706  0.039887  0.241693  1
  O  O43  1  0.995150  0.345076  0.252943  1
