# generated using pymatgen
data_Mn6OF11
_symmetry_space_group_name_H-M   'P 1'
_cell_length_a   7.62695608
_cell_length_b   5.91623957
_cell_length_c   5.91623957
_cell_angle_alpha   72.74667503
_cell_angle_beta   74.05698512
_cell_angle_gamma   74.05698512
_symmetry_Int_Tables_number   1
_chemical_formula_structural   Mn6OF11
_chemical_formula_sum   'Mn6 O1 F11'
_cell_volume   239.65132950
_cell_formula_units_Z   1
loop_
 _symmetry_equiv_pos_site_id
 _symmetry_equiv_pos_as_xyz
  1  'x, y, z'
loop_
 _atom_site_type_symbol
 _atom_site_label
 _atom_site_symmetry_multiplicity
 _atom_site_fract_x
 _atom_site_fract_y
 _atom_site_fract_z
 _atom_site_occupancy
  Mn  Mn0  1  0.833065  0.667090  0.667090  1
  Mn  Mn1  1  0.647607  0.336618  0.336618  1
  Mn  Mn2  1  0.328564  0.652692  0.652692  1
  Mn  Mn3  1  0.178978  0.340140  0.340140  1
  Mn  Mn4  1  0.498886  0.997480  0.997480  1
  Mn  Mn5  1  0.005337  0.003805  0.003805  1
  O  O6  1  0.359920  0.431436  0.431436  1
  F  F7  1  0.669645  0.030054  0.637352  1
  F  F8  1  0.329045  0.361314  0.978456  1
  F  F9  1  0.300139  0.888803  0.888803  1
  F  F10  1  0.627378  0.566514  0.566514  1
  F  F11  1  0.972034  0.241231  0.241231  1
  F  F12  1  0.707777  0.100394  0.100394  1
  F  F13  1  0.034147  0.770867  0.770867  1
  F  F14  1  0.329045  0.978456  0.361314  1
  F  F15  1  0.669645  0.637352  0.030054  1
  F  F16  1  0.004394  0.304142  0.691610  1
  F  F17  1  0.004394  0.691610  0.304142  1
