# generated using pymatgen
data_Ni6OF11
_symmetry_space_group_name_H-M   'P 1'
_cell_length_a   13.91462365
_cell_length_b   4.73515555
_cell_length_c   3.09575047
_cell_angle_alpha   90.00000000
_cell_angle_beta   90.00000000
_cell_angle_gamma   89.59329167
_symmetry_Int_Tables_number   1
_chemical_formula_structural   Ni6OF11
_chemical_formula_sum   'Ni6 O1 F11'
_cell_volume   203.96738159
_cell_formula_units_Z   1
loop_
 _symmetry_equiv_pos_site_id
 _symmetry_equiv_pos_as_xyz
  1  'x, y, z'
loop_
 _atom_site_type_symbol
 _atom_site_label
 _atom_site_symmetry_multiplicity
 _atom_site_fract_x
 _atom_site_fract_y
 _atom_site_fract_z
 _atom_site_occupancy
  Ni  Ni0  1  0.004562  0.988046  0.000000  1
  Ni  Ni1  1  0.163904  0.512810  0.500000  1
  Ni  Ni2  1  0.332517  0.004438  0.000000  1
  Ni  Ni3  1  0.499993  0.500757  0.500000  1
  Ni  Ni4  1  0.666874  0.999165  0.000000  1
  Ni  Ni5  1  0.833815  0.495905  0.500000  1
  O  O6  1  0.069272  0.812455  0.500000  1
  F  F7  1  0.097219  0.316994  0.000000  1
  F  F8  1  0.238008  0.683032  0.000000  1
  F  F9  1  0.260700  0.187697  0.500000  1
  F  F10  1  0.402985  0.820279  0.500000  1
  F  F11  1  0.429733  0.317938  0.000000  1
  F  F12  1  0.570051  0.682590  0.000000  1
  F  F13  1  0.596338  0.181749  0.500000  1
  F  F14  1  0.736939  0.816365  0.500000  1
  F  F15  1  0.762757  0.317374  0.000000  1
  F  F16  1  0.902703  0.682421  0.000000  1
  F  F17  1  0.931634  0.179986  0.500000  1
