# generated using pymatgen
data_Li4Co3OF8
_symmetry_space_group_name_H-M   'P 1'
_cell_length_a   2.86592895
_cell_length_b   5.09619698
_cell_length_c   11.51812747
_cell_angle_alpha   78.64196177
_cell_angle_beta   90.10093065
_cell_angle_gamma   73.67783313
_symmetry_Int_Tables_number   1
_chemical_formula_structural   Li4Co3OF8
_chemical_formula_sum   'Li4 Co3 O1 F8'
_cell_volume   157.99242742
_cell_formula_units_Z   1
loop_
 _symmetry_equiv_pos_site_id
 _symmetry_equiv_pos_as_xyz
  1  'x, y, z'
loop_
 _atom_site_type_symbol
 _atom_site_label
 _atom_site_symmetry_multiplicity
 _atom_site_fract_x
 _atom_site_fract_y
 _atom_site_fract_z
 _atom_site_occupancy
  Li  Li0  1  0.135018  0.727873  0.558122  1
  Li  Li1  1  0.232310  0.536259  0.873439  1
  Li  Li2  1  0.856901  0.291056  0.444913  1
  Li  Li3  1  0.009817  0.981959  0.993912  1
  Co  Co4  1  0.580631  0.842836  0.270348  1
  Co  Co5  1  0.765142  0.474080  0.122811  1
  Co  Co6  1  0.433050  0.134913  0.701700  1
  O  O7  1  0.139921  0.724872  0.164892  1
  F  F8  1  0.635416  0.730968  0.948274  1
  F  F9  1  0.089849  0.822763  0.725581  1
  F  F10  1  0.190297  0.616384  0.400713  1
  F  F11  1  0.793619  0.415063  0.606793  1
  F  F12  1  0.868320  0.252420  0.830963  1
  F  F13  1  0.921742  0.161490  0.286875  1
  F  F14  1  0.379235  0.243993  0.047866  1
  F  F15  1  0.489257  0.022374  0.523277  1
