# generated using pymatgen
data_KCd6H4C12ClO26
_symmetry_space_group_name_H-M   'P 1'
_cell_length_a   10.43683876
_cell_length_b   10.38050351
_cell_length_c   10.46084480
_cell_angle_alpha   53.37646384
_cell_angle_beta   53.97920209
_cell_angle_gamma   53.77300045
_symmetry_Int_Tables_number   1
_chemical_formula_structural   KCd6H4C12ClO26
_chemical_formula_sum   'K1 Cd6 H4 C12 Cl1 O26'
_cell_volume   683.46329701
_cell_formula_units_Z   1
loop_
 _symmetry_equiv_pos_site_id
 _symmetry_equiv_pos_as_xyz
  1  'x, y, z'
loop_
 _atom_site_type_symbol
 _atom_site_label
 _atom_site_symmetry_multiplicity
 _atom_site_fract_x
 _atom_site_fract_y
 _atom_site_fract_z
 _atom_site_occupancy
  K  K0  1  0.998448  0.995791  0.006061  1
  Cd  Cd1  1  0.212856  0.334941  0.723611  1
  Cd  Cd2  1  0.368978  0.701795  0.199320  1
  Cd  Cd3  1  0.706525  0.210865  0.357781  1
  Cd  Cd4  1  0.283167  0.797488  0.650708  1
  Cd  Cd5  1  0.654084  0.280041  0.786847  1
  Cd  Cd6  1  0.791758  0.633083  0.303092  1
  H  H7  1  0.067098  0.093770  0.141163  1
  H  H8  1  0.135448  0.109240  0.054559  1
  H  H9  1  0.895066  0.948566  0.857924  1
  H  H10  1  0.890964  0.869766  0.938423  1
  C  C11  1  0.049595  0.568979  0.427265  1
  C  C12  1  0.427347  0.037899  0.575263  1
  C  C13  1  0.044251  0.950642  0.440503  1
  C  C14  1  0.576454  0.426509  0.022773  1
  C  C15  1  0.045251  0.561701  0.963141  1
  C  C16  1  0.444265  0.037924  0.950304  1
  C  C17  1  0.552114  0.953532  0.057481  1
  C  C18  1  0.946805  0.446026  0.044333  1
  C  C19  1  0.427038  0.572230  0.954140  1
  C  C20  1  0.955802  0.051023  0.555041  1
  C  C21  1  0.570366  0.957997  0.435673  1
  C  C22  1  0.977266  0.422234  0.571692  1
  Cl  Cl23  1  0.435964  0.517388  0.544777  1
  O  O24  1  0.597570  0.496360  0.544211  1
  O  O25  1  0.028539  0.315005  0.695306  1
  O  O26  1  0.321057  0.688816  0.012882  1
  O  O27  1  0.963371  0.397977  0.947714  1
  O  O28  1  0.165221  0.566512  0.441060  1
  O  O29  1  0.445251  0.153908  0.569015  1
  O  O30  1  0.389802  0.947633  0.964419  1
  O  O31  1  0.137831  0.596545  0.804990  1
  O  O32  1  0.690467  0.012529  0.327292  1
  O  O33  1  0.579569  0.439375  0.134387  1
  O  O34  1  0.201709  0.859093  0.410691  1
  O  O35  1  0.045763  0.037674  0.609552  1
  O  O36  1  0.412722  0.198416  0.855760  1
  O  O37  1  0.581884  0.794089  0.154340  1
  O  O38  1  0.953275  0.968244  0.384011  1
  O  O39  1  0.796569  0.138453  0.590236  1
  O  O40  1  0.426816  0.560486  0.839056  1
  O  O41  1  0.305621  0.986383  0.682616  1
  O  O42  1  0.856232  0.408214  0.203154  1
  O  O43  1  0.602092  0.049079  0.040821  1
  O  O44  1  0.554113  0.840192  0.443434  1
  O  O45  1  0.868049  0.419575  0.554665  1
  O  O46  1  0.025968  0.616335  0.056115  1
  O  O47  1  0.683366  0.307905  0.965967  1
  O  O48  1  0.992277  0.676228  0.308468  1
  O  O49  1  0.492957  0.471544  0.396962  1
