# generated using pymatgen
data_Na5Fe2P2(CO7)2
_symmetry_space_group_name_H-M   'P 1'
_cell_length_a   10.37815234
_cell_length_b   10.50173561
_cell_length_c   6.61312805
_cell_angle_alpha   90.00000000
_cell_angle_beta   90.00000000
_cell_angle_gamma   59.93982702
_symmetry_Int_Tables_number   1
_chemical_formula_structural   Na5Fe2P2(CO7)2
_chemical_formula_sum   'Na10 Fe4 P4 C4 O28'
_cell_volume   623.81388140
_cell_formula_units_Z   2
loop_
 _symmetry_equiv_pos_site_id
 _symmetry_equiv_pos_as_xyz
  1  'x, y, z'
loop_
 _atom_site_type_symbol
 _atom_site_label
 _atom_site_symmetry_multiplicity
 _atom_site_fract_x
 _atom_site_fract_y
 _atom_site_fract_z
 _atom_site_occupancy
  Na  Na0  1  0.912806  0.427824  0.751334  1
  Na  Na1  1  0.912806  0.927824  0.748666  1
  Na  Na2  1  0.733510  0.258797  0.983590  1
  Na  Na3  1  0.733510  0.758797  0.516410  1
  Na  Na4  1  0.260739  0.243707  0.501124  1
  Na  Na5  1  0.260572  0.243544  0.998823  1
  Na  Na6  1  0.260572  0.743544  0.501177  1
  Na  Na7  1  0.260739  0.743707  0.998876  1
  Na  Na8  1  0.074030  0.083838  0.258732  1
  Na  Na9  1  0.074030  0.583838  0.241268  1
  Fe  Fe10  1  0.653030  0.066992  0.253936  1
  Fe  Fe11  1  0.653030  0.566992  0.246064  1
  Fe  Fe12  1  0.353578  0.434318  0.749432  1
  Fe  Fe13  1  0.353578  0.934318  0.750568  1
  P  P14  1  0.581781  0.059745  0.751611  1
  P  P15  1  0.581781  0.559745  0.748389  1
  P  P16  1  0.420178  0.434361  0.249858  1
  P  P17  1  0.420178  0.934360  0.250142  1
  C  C18  1  0.937651  0.396684  0.251320  1
  C  C19  1  0.937651  0.896684  0.248680  1
  C  C20  1  0.062973  0.104766  0.754436  1
  C  C21  1  0.062973  0.604766  0.745564  1
  O  O22  1  0.922312  0.185201  0.765265  1
  O  O23  1  0.922312  0.685200  0.734735  1
  O  O24  1  0.873437  0.039543  0.233783  1
  O  O25  1  0.873437  0.539543  0.266217  1
  O  O26  1  0.849703  0.342644  0.237853  1
  O  O27  1  0.849703  0.842644  0.262147  1
  O  O28  1  0.677014  0.053683  0.939675  1
  O  O29  1  0.678078  0.042471  0.558717  1
  O  O30  1  0.678078  0.542471  0.941283  1
  O  O31  1  0.677014  0.553683  0.560325  1
  O  O32  1  0.566870  0.283869  0.243445  1
  O  O33  1  0.566870  0.783869  0.256555  1
  O  O34  1  0.552722  0.429672  0.748065  1
  O  O35  1  0.552722  0.929672  0.751935  1
  O  O36  1  0.460813  0.060878  0.249333  1
  O  O37  1  0.460813  0.560878  0.250667  1
  O  O38  1  0.432410  0.206139  0.749193  1
  O  O39  1  0.432410  0.706139  0.750807  1
  O  O40  1  0.322511  0.451923  0.435425  1
  O  O41  1  0.319147  0.455242  0.065998  1
  O  O42  1  0.322511  0.951923  0.064575  1
  O  O43  1  0.319147  0.955242  0.434002  1
  O  O44  1  0.149413  0.162882  0.748235  1
  O  O45  1  0.149413  0.662882  0.751765  1
  O  O46  1  0.127162  0.460200  0.752092  1
  O  O47  1  0.127162  0.960200  0.747908  1
  O  O48  1  0.081039  0.314547  0.249695  1
  O  O49  1  0.081039  0.814547  0.250305  1
