# generated using pymatgen
data_LiCr2(SO4)3
_symmetry_space_group_name_H-M   'P 1'
_cell_length_a   8.42075569
_cell_length_b   8.74596335
_cell_length_c   12.42372087
_cell_angle_alpha   90.00000000
_cell_angle_beta   90.53075942
_cell_angle_gamma   90.00000000
_symmetry_Int_Tables_number   1
_chemical_formula_structural   LiCr2(SO4)3
_chemical_formula_sum   'Li4 Cr8 S12 O48'
_cell_volume   914.93822365
_cell_formula_units_Z   4
loop_
 _symmetry_equiv_pos_site_id
 _symmetry_equiv_pos_as_xyz
  1  'x, y, z'
loop_
 _atom_site_type_symbol
 _atom_site_label
 _atom_site_symmetry_multiplicity
 _atom_site_fract_x
 _atom_site_fract_y
 _atom_site_fract_z
 _atom_site_occupancy
  Li  Li0  1  0.197571  0.718274  0.815572  1
  Li  Li1  1  0.302429  0.218274  0.684428  1
  Li  Li2  1  0.697571  0.781726  0.315572  1
  Li  Li3  1  0.802429  0.281726  0.184428  1
  Cr  Cr4  1  0.247105  0.963978  0.385808  1
  Cr  Cr5  1  0.251142  0.537160  0.606919  1
  Cr  Cr6  1  0.252895  0.463978  0.114192  1
  Cr  Cr7  1  0.248858  0.037160  0.893081  1
  Cr  Cr8  1  0.751142  0.962840  0.106919  1
  Cr  Cr9  1  0.747105  0.536022  0.885808  1
  Cr  Cr10  1  0.748858  0.462840  0.393081  1
  Cr  Cr11  1  0.752895  0.036022  0.614192  1
  S  S12  1  0.037118  0.244792  0.507080  1
  S  S13  1  0.103072  0.119759  0.155698  1
  S  S14  1  0.105321  0.392141  0.857594  1
  S  S15  1  0.394679  0.892141  0.642406  1
  S  S16  1  0.396928  0.619759  0.344302  1
  S  S17  1  0.462882  0.744792  0.992920  1
  S  S18  1  0.537118  0.255208  0.007080  1
  S  S19  1  0.603072  0.380241  0.655698  1
  S  S20  1  0.605321  0.107859  0.357594  1
  S  S21  1  0.894679  0.607859  0.142406  1
  S  S22  1  0.896928  0.880241  0.844302  1
  S  S23  1  0.962882  0.755208  0.492920  1
  O  O24  1  0.044135  0.637614  0.556219  1
  O  O25  1  0.068283  0.619334  0.122179  1
  O  O26  1  0.068490  0.909276  0.820133  1
  O  O27  1  0.065117  0.815614  0.404333  1
  O  O28  1  0.087439  0.122728  0.432101  1
  O  O29  1  0.123921  0.288319  0.176406  1
  O  O30  1  0.138201  0.082713  0.044692  1
  O  O31  1  0.139938  0.509514  0.776156  1
  O  O32  1  0.179654  0.311155  0.561738  1
  O  O33  1  0.163066  0.241282  0.817499  1
  O  O34  1  0.193349  0.433600  0.957890  1
  O  O35  1  0.203231  0.024325  0.228750  1
  O  O36  1  0.296769  0.524325  0.271250  1
  O  O37  1  0.306651  0.933600  0.542110  1
  O  O38  1  0.336934  0.741282  0.682501  1
  O  O39  1  0.320346  0.811155  0.938262  1
  O  O40  1  0.361799  0.582713  0.455308  1
  O  O41  1  0.360062  0.009514  0.723844  1
  O  O42  1  0.376079  0.788319  0.323594  1
  O  O43  1  0.412561  0.622728  0.067899  1
  O  O44  1  0.434883  0.315614  0.095667  1
  O  O45  1  0.431717  0.119334  0.377821  1
  O  O46  1  0.431510  0.409276  0.679867  1
  O  O47  1  0.455865  0.137614  0.943781  1
  O  O48  1  0.544135  0.862386  0.056219  1
  O  O49  1  0.568490  0.590724  0.320133  1
  O  O50  1  0.568283  0.880666  0.622179  1
  O  O51  1  0.565117  0.684386  0.904333  1
  O  O52  1  0.587439  0.377272  0.932101  1
  O  O53  1  0.623921  0.211681  0.676406  1
  O  O54  1  0.639938  0.990486  0.276156  1
  O  O55  1  0.638201  0.417287  0.544692  1
  O  O56  1  0.679654  0.188845  0.061738  1
  O  O57  1  0.663066  0.258718  0.317499  1
  O  O58  1  0.693349  0.066400  0.457890  1
  O  O59  1  0.703231  0.475675  0.728750  1
  O  O60  1  0.796769  0.975675  0.771250  1
  O  O61  1  0.806651  0.566400  0.042110  1
  O  O62  1  0.836934  0.758718  0.182501  1
  O  O63  1  0.820346  0.688845  0.438262  1
  O  O64  1  0.860062  0.490486  0.223844  1
  O  O65  1  0.861799  0.917287  0.955308  1
  O  O66  1  0.876079  0.711681  0.823594  1
  O  O67  1  0.912561  0.877272  0.567899  1
  O  O68  1  0.934883  0.184386  0.595667  1
  O  O69  1  0.931510  0.090724  0.179867  1
  O  O70  1  0.931717  0.380666  0.877821  1
  O  O71  1  0.955865  0.362386  0.443781  1
