# generated using pymatgen
data_Cr7Ni20Mo3
_symmetry_space_group_name_H-M   'P 1'
_cell_length_a   6.20316969
_cell_length_b   6.20333427
_cell_length_c   18.95314590
_cell_angle_alpha   90.11906711
_cell_angle_beta   96.30080498
_cell_angle_gamma   108.52057002
_symmetry_Int_Tables_number   1
_chemical_formula_structural   Cr7Ni20Mo3
_chemical_formula_sum   'Cr14 Ni40 Mo6'
_cell_volume   686.84598426
_cell_formula_units_Z   2
loop_
 _symmetry_equiv_pos_site_id
 _symmetry_equiv_pos_as_xyz
  1  'x, y, z'
loop_
 _atom_site_type_symbol
 _atom_site_label
 _atom_site_symmetry_multiplicity
 _atom_site_fract_x
 _atom_site_fract_y
 _atom_site_fract_z
 _atom_site_occupancy
  Cr  Cr0  1  0.799780  0.600237  0.799892  1
  Cr  Cr1  1  0.300103  0.099790  0.799976  1
  Cr  Cr2  1  0.549173  0.849215  0.799947  1
  Cr  Cr3  1  0.050856  0.350643  0.799897  1
  Cr  Cr4  1  0.596505  0.204370  0.600345  1
  Cr  Cr5  1  0.350011  0.449555  0.600389  1
  Cr  Cr6  1  0.103290  0.696144  0.600445  1
  Cr  Cr7  1  0.899993  0.300463  0.400662  1
  Cr  Cr8  1  0.654369  0.544596  0.400638  1
  Cr  Cr9  1  0.146690  0.054942  0.400633  1
  Cr  Cr10  1  0.449873  0.150177  0.199976  1
  Cr  Cr11  1  0.495526  0.503295  0.999055  1
  Cr  Cr12  1  0.004029  0.996325  0.999115  1
  Cr  Cr13  1  0.249653  0.750557  0.999051  1
  Ni  Ni14  1  0.400342  0.466259  0.733224  1
  Ni  Ni15  1  0.900558  0.966767  0.734766  1
  Ni  Ni16  1  0.149301  0.717393  0.733290  1
  Ni  Ni17  1  0.650288  0.216027  0.732969  1
  Ni  Ni18  1  0.204057  0.067681  0.532705  1
  Ni  Ni19  1  0.446338  0.814715  0.534347  1
  Ni  Ni20  1  0.951700  0.320351  0.532616  1
  Ni  Ni21  1  0.697142  0.563560  0.532720  1
  Ni  Ni22  1  0.501978  0.170385  0.333143  1
  Ni  Ni23  1  0.247736  0.413324  0.334784  1
  Ni  Ni24  1  0.755124  0.918202  0.334445  1
  Ni  Ni25  1  0.996357  0.664817  0.334895  1
  Ni  Ni26  1  0.548388  0.512193  0.130879  1
  Ni  Ni27  1  0.052114  0.017856  0.130904  1
  Ni  Ni28  1  0.299975  0.769886  0.130641  1
  Ni  Ni29  1  0.795852  0.265581  0.132505  1
  Ni  Ni30  1  0.345758  0.114568  0.932436  1
  Ni  Ni31  1  0.103389  0.368348  0.932193  1
  Ni  Ni32  1  0.597921  0.862404  0.932153  1
  Ni  Ni33  1  0.851607  0.620287  0.932107  1
  Ni  Ni34  1  0.748240  0.579821  0.667489  1
  Ni  Ni35  1  0.254164  0.085364  0.667510  1
  Ni  Ni36  1  0.496523  0.831635  0.667735  1
  Ni  Ni37  1  0.002099  0.337370  0.667407  1
  Ni  Ni38  1  0.552821  0.186880  0.467300  1
  Ni  Ni39  1  0.804118  0.935362  0.466171  1
  Ni  Ni40  1  0.298254  0.429605  0.467685  1
  Ni  Ni41  1  0.045932  0.682148  0.467700  1
  Ni  Ni42  1  0.847568  0.282675  0.269468  1
  Ni  Ni43  1  0.599391  0.530743  0.269082  1
  Ni  Ni44  1  0.105089  0.034185  0.269118  1
  Ni  Ni45  1  0.351375  0.787169  0.267457  1
  Ni  Ni46  1  0.901447  0.637037  0.065224  1
  Ni  Ni47  1  0.396461  0.131555  0.066950  1
  Ni  Ni48  1  0.648296  0.878530  0.065351  1
  Ni  Ni49  1  0.152927  0.385824  0.065347  1
  Ni  Ni50  1  0.699216  0.233262  0.865062  1
  Ni  Ni51  1  0.450729  0.482616  0.866605  1
  Ni  Ni52  1  0.949561  0.983965  0.866951  1
  Ni  Ni53  1  0.199704  0.733768  0.866645  1
  Mo  Mo54  1  0.850975  0.950022  0.600423  1
  Mo  Mo55  1  0.399883  0.800347  0.400813  1
  Mo  Mo56  1  0.949703  0.650224  0.199939  1
  Mo  Mo57  1  0.694506  0.905364  0.199926  1
  Mo  Mo58  1  0.206133  0.393952  0.199984  1
  Mo  Mo59  1  0.749115  0.249668  0.998914  1
