# generated using pymatgen
data_Li2Cr2CoO6
_symmetry_space_group_name_H-M   'P 1'
_cell_length_a   6.58285815
_cell_length_b   6.57012278
_cell_length_c   8.28139105
_cell_angle_alpha   71.02577266
_cell_angle_beta   109.23081755
_cell_angle_gamma   97.18279034
_symmetry_Int_Tables_number   1
_chemical_formula_structural   Li2Cr2CoO6
_chemical_formula_sum   'Li6 Cr6 Co3 O18'
_cell_volume   319.74558850
_cell_formula_units_Z   3
loop_
 _symmetry_equiv_pos_site_id
 _symmetry_equiv_pos_as_xyz
  1  'x, y, z'
loop_
 _atom_site_type_symbol
 _atom_site_label
 _atom_site_symmetry_multiplicity
 _atom_site_fract_x
 _atom_site_fract_y
 _atom_site_fract_z
 _atom_site_occupancy
  Li  Li0  1  0.011215  0.666796  0.835529  1
  Li  Li1  1  0.012316  0.335089  0.170304  1
  Li  Li2  1  0.334366  0.000115  0.832243  1
  Li  Li3  1  0.332300  0.333219  0.501090  1
  Li  Li4  1  0.655451  0.666537  0.497804  1
  Li  Li5  1  0.654351  0.998244  0.163029  1
  Cr  Cr6  1  0.000293  0.334356  0.668607  1
  Cr  Cr7  1  0.004859  0.672907  0.335809  1
  Cr  Cr8  1  0.661808  0.660427  0.997525  1
  Cr  Cr9  1  0.666373  0.998977  0.664726  1
  Cr  Cr10  1  0.002449  0.002520  0.003410  1
  Cr  Cr11  1  0.664217  0.330813  0.329924  1
  Co  Co12  1  0.333333  0.666667  0.666667  1
  Co  Co13  1  0.332439  -0.000052  0.332614  1
  Co  Co14  1  0.334228  0.333385  0.000720  1
  O  O15  1  0.026001  0.317632  0.921919  1
  O  O16  1  0.025289  0.651714  0.587756  1
  O  O17  1  0.018337  0.994226  0.239516  1
  O  O18  1  0.340588  0.648625  0.901277  1
  O  O19  1  0.348639  0.976904  0.578488  1
  O  O20  1  0.681272  0.980051  0.916909  1
  O  O21  1  0.318028  0.356429  0.754846  1
  O  O22  1  0.326079  0.684708  0.432057  1
  O  O23  1  0.641378  0.681619  0.745577  1
  O  O24  1  0.346883  0.307831  0.246186  1
  O  O25  1  0.675110  0.323383  0.567410  1
  O  O26  1  0.684120  0.647319  0.250679  1
  O  O27  1  0.319783  0.025502  0.087147  1
  O  O28  1  0.640666  0.015701  0.411414  1
  O  O29  1  0.648330  0.339108  0.093817  1
  O  O30  1  0.991556  0.009950  0.765923  1
  O  O31  1  0.985395  0.353282  0.416424  1
  O  O32  1  0.982547  0.686015  0.082654  1
