# generated using pymatgen
data_BaP4O11
_symmetry_space_group_name_H-M   'P 1'
_cell_length_a   9.20042767
_cell_length_b   13.33612198
_cell_length_c   9.55165893
_cell_angle_alpha   90.00000000
_cell_angle_beta   88.58381038
_cell_angle_gamma   90.00000000
_symmetry_Int_Tables_number   1
_chemical_formula_structural   BaP4O11
_chemical_formula_sum   'Ba4 P16 O44'
_cell_volume   1171.61171003
_cell_formula_units_Z   4
loop_
 _symmetry_equiv_pos_site_id
 _symmetry_equiv_pos_as_xyz
  1  'x, y, z'
loop_
 _atom_site_type_symbol
 _atom_site_label
 _atom_site_symmetry_multiplicity
 _atom_site_fract_x
 _atom_site_fract_y
 _atom_site_fract_z
 _atom_site_occupancy
  Ba  Ba0  1  0.227518  0.472453  0.734633  1
  Ba  Ba1  1  0.272482  0.972453  0.765367  1
  Ba  Ba2  1  0.727518  0.027547  0.234633  1
  Ba  Ba3  1  0.772482  0.527547  0.265367  1
  P  P4  1  0.084653  0.206828  0.583360  1
  P  P5  1  0.127061  0.167115  0.277405  1
  P  P6  1  0.200183  0.496971  0.323142  1
  P  P7  1  0.237309  0.843433  0.386838  1
  P  P8  1  0.262691  0.343433  0.113162  1
  P  P9  1  0.299817  0.996971  0.176858  1
  P  P10  1  0.415347  0.706828  0.916640  1
  P  P11  1  0.372939  0.667115  0.222595  1
  P  P12  1  0.627061  0.332885  0.777405  1
  P  P13  1  0.584653  0.293172  0.083360  1
  P  P14  1  0.700183  0.003029  0.823142  1
  P  P15  1  0.737309  0.656567  0.886838  1
  P  P16  1  0.762691  0.156567  0.613162  1
  P  P17  1  0.799817  0.503029  0.676858  1
  P  P18  1  0.872939  0.832885  0.722595  1
  P  P19  1  0.915347  0.793172  0.416640  1
  O  O20  1  0.010456  0.883343  0.751918  1
  O  O21  1  0.045537  0.470431  0.301229  1
  O  O22  1  0.093791  0.785645  0.429749  1
  O  O23  1  0.125547  0.102853  0.620426  1
  O  O24  1  0.131575  0.295982  0.662368  1
  O  O25  1  0.191776  0.397659  0.999617  1
  O  O26  1  0.133875  0.228535  0.418629  1
  O  O27  1  0.159575  0.253473  0.165448  1
  O  O28  1  0.197083  0.908522  0.254028  1
  O  O29  1  0.234069  0.596262  0.220986  1
  O  O30  1  0.264586  0.515375  0.461816  1
  O  O31  1  0.235414  0.015375  0.038184  1
  O  O32  1  0.265931  0.096262  0.279014  1
  O  O33  1  0.308224  0.897659  0.500383  1
  O  O34  1  0.368426  0.795982  0.837632  1
  O  O35  1  0.302917  0.408522  0.245972  1
  O  O36  1  0.374453  0.602853  0.879574  1
  O  O37  1  0.340425  0.753473  0.334552  1
  O  O38  1  0.366125  0.728535  0.081371  1
  O  O39  1  0.406209  0.285645  0.070251  1
  O  O40  1  0.489544  0.383343  0.748082  1
  O  O41  1  0.545537  0.029569  0.801229  1
  O  O42  1  0.454463  0.970431  0.198771  1
  O  O43  1  0.510456  0.616657  0.251918  1
  O  O44  1  0.593791  0.714355  0.929749  1
  O  O45  1  0.633875  0.271465  0.918629  1
  O  O46  1  0.659575  0.246527  0.665448  1
  O  O47  1  0.625547  0.397147  0.120426  1
  O  O48  1  0.697083  0.591478  0.754028  1
  O  O49  1  0.631575  0.204018  0.162368  1
  O  O50  1  0.691776  0.102341  0.499617  1
  O  O51  1  0.734069  0.903738  0.720986  1
  O  O52  1  0.764586  0.984625  0.961816  1
  O  O53  1  0.735414  0.484625  0.538184  1
  O  O54  1  0.765931  0.403738  0.779014  1
  O  O55  1  0.802917  0.091478  0.745972  1
  O  O56  1  0.840425  0.746527  0.834552  1
  O  O57  1  0.866125  0.771465  0.581371  1
  O  O58  1  0.808224  0.602341  0.000383  1
  O  O59  1  0.868425  0.704018  0.337632  1
  O  O60  1  0.874453  0.897147  0.379574  1
  O  O61  1  0.906209  0.214355  0.570251  1
  O  O62  1  0.954463  0.529569  0.698771  1
  O  O63  1  0.989544  0.116657  0.248082  1
