# generated using pymatgen
data_Fe4As10PbO22
_symmetry_space_group_name_H-M   'P 1'
_cell_length_a   10.58216793
_cell_length_b   10.07676643
_cell_length_c   12.17739483
_cell_angle_alpha   66.03920880
_cell_angle_beta   97.49618948
_cell_angle_gamma   99.78056684
_symmetry_Int_Tables_number   1
_chemical_formula_structural   Fe4As10PbO22
_chemical_formula_sum   'Fe8 As20 Pb2 O44'
_cell_volume   1166.64807205
_cell_formula_units_Z   2
loop_
 _symmetry_equiv_pos_site_id
 _symmetry_equiv_pos_as_xyz
  1  'x, y, z'
loop_
 _atom_site_type_symbol
 _atom_site_label
 _atom_site_symmetry_multiplicity
 _atom_site_fract_x
 _atom_site_fract_y
 _atom_site_fract_z
 _atom_site_occupancy
  Fe  Fe0  1  0.515169  0.217014  0.258906  1
  Fe  Fe1  1  0.484831  0.782986  0.741094  1
  Fe  Fe2  1  0.749564  0.668640  0.835416  1
  Fe  Fe3  1  0.250436  0.331360  0.164584  1
  Fe  Fe4  1  0.981294  0.244176  0.272255  1
  Fe  Fe5  1  0.018706  0.755824  0.727745  1
  Fe  Fe6  1  0.748226  0.399890  0.092933  1
  Fe  Fe7  1  0.251774  0.600110  0.907067  1
  As  As8  1  0.828881  0.458302  0.696886  1
  As  As9  1  0.171119  0.541698  0.303114  1
  As  As10  1  0.761094  0.378390  0.374725  1
  As  As11  1  0.238906  0.621610  0.625275  1
  As  As12  1  0.562464  0.593416  0.599884  1
  As  As13  1  0.437536  0.406584  0.400116  1
  As  As14  1  0.509528  0.600204  0.120048  1
  As  As15  1  0.490472  0.399796  0.879952  1
  As  As16  1  0.968038  0.711319  0.474361  1
  As  As17  1  0.031962  0.288681  0.525639  1
  As  As18  1  0.541461  0.133697  0.680217  1
  As  As19  1  0.458539  0.866303  0.319783  1
  As  As20  1  0.943859  0.992825  0.825396  1
  As  As21  1  0.056141  0.007175  0.174604  1
  As  As22  1  0.666653  0.924333  0.932399  1
  As  As23  1  0.333347  0.075667  0.067601  1
  As  As24  1  0.996600  0.320186  0.962699  1
  As  As25  1  0.003400  0.679814  0.037301  1
  As  As26  1  0.731356  0.032662  0.206022  1
  As  As27  1  0.268644  0.967338  0.793978  1
  Pb  Pb28  1  0.754045  0.993900  0.510743  1
  Pb  Pb29  1  0.245955  0.006100  0.489257  1
  O  O30  1  0.868966  0.587850  0.769121  1
  O  O31  1  0.131034  0.412150  0.230879  1
  O  O32  1  0.649875  0.194605  0.163845  1
  O  O33  1  0.350125  0.805395  0.836155  1
  O  O34  1  0.842571  0.603004  0.001712  1
  O  O35  1  0.157429  0.396996  0.998288  1
  O  O36  1  0.631453  0.782223  0.871819  1
  O  O37  1  0.368547  0.217777  0.128181  1
  O  O38  1  0.881926  0.854502  0.763532  1
  O  O39  1  0.118074  0.145498  0.236468  1
  O  O40  1  0.908291  0.304819  0.086435  1
  O  O41  1  0.091709  0.695181  0.913565  1
  O  O42  1  0.590158  0.439535  0.159559  1
  O  O43  1  0.409842  0.560465  0.840441  1
  O  O44  1  0.652488  0.464432  0.923683  1
  O  O45  1  0.347512  0.535568  0.076317  1
  O  O46  1  0.623620  0.708802  0.682904  1
  O  O47  1  0.376380  0.291198  0.317096  1
  O  O48  1  0.793035  0.046475  0.833960  1
  O  O49  1  0.206965  0.953525  0.166040  1
  O  O50  1  0.853240  0.064698  0.312162  1
  O  O51  1  0.146760  0.935302  0.687838  1
  O  O52  1  0.558628  0.985406  0.643654  1
  O  O53  1  0.441372  0.014594  0.356346  1
  O  O54  1  0.713545  0.555430  0.574188  1
  O  O55  1  0.286455  0.444570  0.425812  1
  O  O56  1  0.636891  0.896076  0.332585  1
  O  O57  1  0.363109  0.103924  0.667415  1
  O  O58  1  0.954777  0.817924  0.556410  1
  O  O59  1  0.045223  0.182076  0.443590  1
  O  O60  1  0.957856  0.524246  0.597422  1
  O  O61  1  0.042144  0.475754  0.402578  1
  O  O62  1  0.547390  0.043013  0.848148  1
  O  O63  1  0.452610  0.956987  0.151852  1
  O  O64  1  0.519914  0.422528  0.727821  1
  O  O65  1  0.480086  0.577472  0.272179  1
  O  O66  1  0.846097  0.374759  0.254909  1
  O  O67  1  0.153902  0.625241  0.745091  1
  O  O68  1  0.854188  0.262219  0.511764  1
  O  O69  1  0.145812  0.737781  0.488236  1
  O  O70  1  0.642039  0.221901  0.394277  1
  O  O71  1  0.357961  0.778099  0.605723  1
  O  O72  1  0.967269  0.867061  0.982754  1
  O  O73  1  0.032731  0.132939  0.017246  1
