# generated using pymatgen
data_Al2NiO4
_symmetry_space_group_name_H-M   'P 1'
_cell_length_a   5.74939823
_cell_length_b   5.73836301
_cell_length_c   40.37057438
_cell_angle_alpha   59.93249062
_cell_angle_beta   60.03397317
_cell_angle_gamma   59.42911501
_symmetry_Int_Tables_number   1
_chemical_formula_structural   Al2NiO4
_chemical_formula_sum   'Al28 Ni14 O56'
_cell_volume   937.43599718
_cell_formula_units_Z   14
loop_
 _symmetry_equiv_pos_site_id
 _symmetry_equiv_pos_as_xyz
  1  'x, y, z'
loop_
 _atom_site_type_symbol
 _atom_site_label
 _atom_site_symmetry_multiplicity
 _atom_site_fract_x
 _atom_site_fract_y
 _atom_site_fract_z
 _atom_site_occupancy
  Al  Al0  1  0.503217  0.005087  0.071093  1
  Al  Al1  1  0.502728  0.494961  0.071022  1
  Al  Al2  1  0.493344  0.004878  0.213866  1
  Al  Al3  1  0.490556  0.499266  0.144282  1
  Al  Al4  1  0.128333  0.127008  0.303198  1
  Al  Al5  1  0.493592  0.499357  0.214019  1
  Al  Al6  1  0.133050  0.132791  0.445107  1
  Al  Al7  1  0.861041  0.878088  0.125611  1
  Al  Al8  1  0.495223  0.498123  0.286012  1
  Al  Al9  1  0.498280  0.499310  0.357195  1
  Al  Al10  1  0.133044  0.133199  0.588049  1
  Al  Al11  1  0.860744  0.875516  0.267708  1
  Al  Al12  1  0.500022  0.500260  0.428566  1
  Al  Al13  1  0.499802  0.499502  0.500189  1
  Al  Al14  1  0.500526  0.500296  0.571511  1
  Al  Al15  1  0.133787  0.133593  0.730890  1
  Al  Al16  1  0.866451  0.866111  0.411783  1
  Al  Al17  1  0.499781  0.499613  0.643118  1
  Al  Al18  1  0.138639  0.136413  0.873022  1
  Al  Al19  1  0.500909  0.500546  0.714428  1
  Al  Al20  1  0.867127  0.866417  0.554729  1
  Al  Al21  1  0.501288  0.500572  0.785803  1
  Al  Al22  1  0.867422  0.866578  0.697617  1
  Al  Al23  1  0.503518  0.500826  0.857177  1
  Al  Al24  1  0.506517  0.503704  0.927928  1
  Al  Al25  1  0.498987  0.498188  0.001259  1
  Al  Al26  1  0.868660  0.867744  0.840428  1
  Al  Al27  1  0.866594  0.869149  0.984320  1
  Ni  Ni28  1  0.142839  0.128999  0.014811  1
  Ni  Ni29  1  0.005291  0.494217  0.072193  1
  Ni  Ni30  1  0.125832  0.128162  0.159871  1
  Ni  Ni31  1  0.996044  0.498136  0.214634  1
  Ni  Ni32  1  0.997617  0.499448  0.356965  1
  Ni  Ni33  1  0.000599  0.499787  0.499834  1
  Ni  Ni34  1  0.500268  0.000317  0.499815  1
  Ni  Ni35  1  0.498757  0.000156  0.356681  1
  Ni  Ni36  1  0.000585  0.499964  0.642752  1
  Ni  Ni37  1  0.500259  0.000307  0.642737  1
  Ni  Ni38  1  0.001711  0.500880  0.785511  1
  Ni  Ni39  1  0.501592  0.000736  0.785521  1
  Ni  Ni40  1  0.003847  0.504146  0.928268  1
  Ni  Ni41  1  0.506954  0.000584  0.928270  1
  O  O42  1  0.284102  0.247257  0.037257  1
  O  O43  1  0.289292  0.247370  0.102627  1
  O  O44  1  0.277402  0.710467  0.037957  1
  O  O45  1  0.721727  0.248762  0.039489  1
  O  O46  1  0.259259  0.741598  0.108404  1
  O  O47  1  0.274295  0.251119  0.180274  1
  O  O48  1  0.722353  0.266269  0.109512  1
  O  O49  1  0.270492  0.710590  0.180884  1
  O  O50  1  0.263342  0.244396  0.249082  1
  O  O51  1  0.722706  0.746321  0.040605  1
  O  O52  1  0.701194  0.254051  0.183465  1
  O  O53  1  0.720740  0.742409  0.109942  1
  O  O54  1  0.261184  0.747199  0.249108  1
  O  O55  1  0.261545  0.268497  0.318255  1
  O  O56  1  0.719600  0.749511  0.181953  1
  O  O57  1  0.265960  0.265476  0.390436  1
  O  O58  1  0.267675  0.735068  0.320967  1
  O  O59  1  0.719223  0.267337  0.250860  1
  O  O60  1  0.736536  0.272212  0.320037  1
  O  O61  1  0.714829  0.752835  0.250583  1
  O  O62  1  0.267905  0.267816  0.460928  1
  O  O63  1  0.261372  0.732521  0.392689  1
  O  O64  1  0.267198  0.266846  0.533306  1
  O  O65  1  0.270745  0.739426  0.463080  1
  O  O66  1  0.733769  0.735645  0.322095  1
  O  O67  1  0.731208  0.261679  0.392687  1
  O  O68  1  0.740322  0.270030  0.463018  1
  O  O69  1  0.734213  0.735456  0.394694  1
  O  O70  1  0.261831  0.732893  0.535658  1
  O  O71  1  0.268025  0.267998  0.603859  1
  O  O72  1  0.734560  0.734177  0.465854  1
  O  O73  1  0.270643  0.739883  0.605976  1
  O  O74  1  0.732685  0.261796  0.535674  1
  O  O75  1  0.267381  0.267129  0.676164  1
  O  O76  1  0.735305  0.734835  0.537756  1
  O  O77  1  0.740426  0.269934  0.605986  1
  O  O78  1  0.261895  0.732827  0.678596  1
  O  O79  1  0.268312  0.268477  0.746795  1
  O  O80  1  0.734453  0.734195  0.608813  1
  O  O81  1  0.732576  0.261815  0.678629  1
  O  O82  1  0.272888  0.741063  0.748657  1
  O  O83  1  0.269722  0.269266  0.818401  1
  O  O84  1  0.741616  0.270646  0.748751  1
  O  O85  1  0.735659  0.735050  0.680632  1
  O  O86  1  0.262630  0.732839  0.821526  1
  O  O87  1  0.271761  0.268138  0.889540  1
  O  O88  1  0.288188  0.279108  0.956706  1
  O  O89  1  0.735897  0.734305  0.751765  1
  O  O90  1  0.732710  0.261890  0.821526  1
  O  O91  1  0.274281  0.746200  0.890876  1
  O  O92  1  0.749834  0.273577  0.890648  1
  O  O93  1  0.737667  0.736131  0.823319  1
  O  O94  1  0.258931  0.726745  0.966683  1
  O  O95  1  0.733877  0.261934  0.965568  1
  O  O96  1  0.735367  0.736836  0.894939  1
  O  O97  1  0.735313  0.729212  0.968718  1
