# generated using pymatgen
data_V2Bi4O11
_symmetry_space_group_name_H-M   'P 1'
_cell_length_a   11.32979689
_cell_length_b   5.71642766
_cell_length_c   8.26674080
_cell_angle_alpha   68.40489996
_cell_angle_beta   90.00000000
_cell_angle_gamma   90.00000000
_symmetry_Int_Tables_number   1
_chemical_formula_structural   V2Bi4O11
_chemical_formula_sum   'V4 Bi8 O22'
_cell_volume   497.82238279
_cell_formula_units_Z   2
loop_
 _symmetry_equiv_pos_site_id
 _symmetry_equiv_pos_as_xyz
  1  'x, y, z'
loop_
 _atom_site_type_symbol
 _atom_site_label
 _atom_site_symmetry_multiplicity
 _atom_site_fract_x
 _atom_site_fract_y
 _atom_site_fract_z
 _atom_site_occupancy
  V  V0  1  0.758857  0.083816  0.996981  1
  V  V1  1  0.512300  0.486872  0.022867  1
  V  V2  1  0.258857  0.916184  0.003019  1
  V  V3  1  0.012300  0.513128  0.977133  1
  Bi  Bi4  1  0.752425  0.398040  0.345037  1
  Bi  Bi5  1  0.746539  0.732148  0.669051  1
  Bi  Bi6  1  0.497243  0.145867  0.653623  1
  Bi  Bi7  1  0.506116  0.814487  0.337488  1
  Bi  Bi8  1  0.252425  0.601960  0.654963  1
  Bi  Bi9  1  0.246539  0.267852  0.330949  1
  Bi  Bi10  1  0.006116  0.185513  0.662512  1
  Bi  Bi11  1  0.997243  0.854133  0.346377  1
  O  O12  1  0.910598  0.749047  0.906510  1
  O  O13  1  0.877802  0.008225  0.501374  1
  O  O14  1  0.887509  0.506752  0.522939  1
  O  O15  1  0.883897  0.270636  0.946650  1
  O  O16  1  0.710804  0.026814  0.815324  1
  O  O17  1  0.787824  0.841022  0.194983  1
  O  O18  1  0.643612  0.265418  0.036810  1
  O  O19  1  0.637172  0.529264  0.511773  1
  O  O20  1  0.627385  0.038613  0.487416  1
  O  O21  1  0.583003  0.573495  0.183660  1
  O  O22  1  0.520216  0.660974  0.799934  1
  O  O23  1  0.410598  0.250953  0.093490  1
  O  O24  1  0.387509  0.493248  0.477061  1
  O  O25  1  0.377802  0.991775  0.498626  1
  O  O26  1  0.383897  0.729364  0.053350  1
  O  O27  1  0.210804  0.973186  0.184676  1
  O  O28  1  0.287824  0.158978  0.805017  1
  O  O29  1  0.143612  0.734582  0.963190  1
  O  O30  1  0.127385  0.961387  0.512584  1
  O  O31  1  0.137172  0.470736  0.488227  1
  O  O32  1  0.020216  0.339026  0.200066  1
  O  O33  1  0.083003  0.426505  0.816340  1
