# generated using pymatgen
data_Mn3(O2F)2
_symmetry_space_group_name_H-M   'P 1'
_cell_length_a   4.59672860
_cell_length_b   4.59672860
_cell_length_c   9.24909804
_cell_angle_alpha   89.68908930
_cell_angle_beta   89.68908930
_cell_angle_gamma   89.99341012
_symmetry_Int_Tables_number   1
_chemical_formula_structural   Mn3(O2F)2
_chemical_formula_sum   'Mn6 O8 F4'
_cell_volume   195.42688956
_cell_formula_units_Z   2
loop_
 _symmetry_equiv_pos_site_id
 _symmetry_equiv_pos_as_xyz
  1  'x, y, z'
loop_
 _atom_site_type_symbol
 _atom_site_label
 _atom_site_symmetry_multiplicity
 _atom_site_fract_x
 _atom_site_fract_y
 _atom_site_fract_z
 _atom_site_occupancy
  Mn  Mn0  1  0.988804  0.961509  0.007181  1
  Mn  Mn1  1  0.038491  0.011196  0.326152  1
  Mn  Mn2  1  0.011923  0.988077  0.666667  1
  Mn  Mn3  1  0.487636  0.523218  0.826986  1
  Mn  Mn4  1  0.511860  0.488140  0.166667  1
  Mn  Mn5  1  0.476782  0.512364  0.506347  1
  O  O6  1  0.206486  0.793514  0.166667  1
  O  O7  1  0.198840  0.815868  0.494429  1
  O  O8  1  0.184132  0.801160  0.838904  1
  O  O9  1  0.318732  0.316415  0.337197  1
  O  O10  1  0.299098  0.314280  0.666768  1
  O  O11  1  0.683585  0.681268  0.996136  1
  O  O12  1  0.685720  0.700902  0.666565  1
  O  O13  1  0.818047  0.181953  0.166667  1
  F  F14  1  0.287905  0.289126  0.985671  1
  F  F15  1  0.710874  0.712095  0.347663  1
  F  F16  1  0.801544  0.210459  0.496749  1
  F  F17  1  0.789541  0.198456  0.836584  1
