# generated using pymatgen
data_Mn3OF5
_symmetry_space_group_name_H-M   'P 1'
_cell_length_a   10.77480464
_cell_length_b   7.07651376
_cell_length_c   3.24586011
_cell_angle_alpha   90.00000000
_cell_angle_beta   90.00000000
_cell_angle_gamma   109.17930932
_symmetry_Int_Tables_number   1
_chemical_formula_structural   Mn3OF5
_chemical_formula_sum   'Mn6 O2 F10'
_cell_volume   233.75357083
_cell_formula_units_Z   2
loop_
 _symmetry_equiv_pos_site_id
 _symmetry_equiv_pos_as_xyz
  1  'x, y, z'
loop_
 _atom_site_type_symbol
 _atom_site_label
 _atom_site_symmetry_multiplicity
 _atom_site_fract_x
 _atom_site_fract_y
 _atom_site_fract_z
 _atom_site_occupancy
  Mn  Mn0  1  0.000000  0.000000  0.000000  1
  Mn  Mn1  1  0.345214  0.172625  0.500000  1
  Mn  Mn2  1  0.000000  0.500000  0.500000  1
  Mn  Mn3  1  0.695969  0.348006  0.000000  1
  Mn  Mn4  1  0.304031  0.651994  0.000000  1
  Mn  Mn5  1  0.654786  0.827375  0.500000  1
  O  O6  1  0.188077  0.594170  0.500000  1
  O  O7  1  0.811923  0.405830  0.500000  1
  F  F8  1  0.133441  0.066606  0.500000  1
  F  F9  1  0.000183  0.308205  0.000000  1
  F  F10  1  0.337405  0.364576  0.000000  1
  F  F11  1  0.999817  0.691795  0.000000  1
  F  F12  1  0.662611  0.027138  0.000000  1
  F  F13  1  0.556161  0.278164  0.500000  1
  F  F14  1  0.443839  0.721835  0.500000  1
  F  F15  1  0.662595  0.635424  0.000000  1
  F  F16  1  0.337389  0.972862  0.000000  1
  F  F17  1  0.866559  0.933394  0.500000  1
