# generated using pymatgen
data_Li4FeO3F
_symmetry_space_group_name_H-M   'P 1'
_cell_length_a   5.21955322
_cell_length_b   5.17214901
_cell_length_c   8.08290500
_cell_angle_alpha   84.33944138
_cell_angle_beta   71.04150465
_cell_angle_gamma   69.88323764
_symmetry_Int_Tables_number   1
_chemical_formula_structural   Li4FeO3F
_chemical_formula_sum   'Li8 Fe2 O6 F2'
_cell_volume   193.76060320
_cell_formula_units_Z   2
loop_
 _symmetry_equiv_pos_site_id
 _symmetry_equiv_pos_as_xyz
  1  'x, y, z'
loop_
 _atom_site_type_symbol
 _atom_site_label
 _atom_site_symmetry_multiplicity
 _atom_site_fract_x
 _atom_site_fract_y
 _atom_site_fract_z
 _atom_site_occupancy
  Li  Li0  1  0.099619  0.215183  0.729753  1
  Li  Li1  1  0.014039  0.756308  0.945969  1
  Li  Li2  1  0.422497  0.754849  0.078831  1
  Li  Li3  1  0.232411  0.767588  0.505471  1
  Li  Li4  1  0.767589  0.232412  0.494529  1
  Li  Li5  1  0.577503  0.245151  0.921169  1
  Li  Li6  1  0.985961  0.243692  0.054031  1
  Li  Li7  1  0.900381  0.784817  0.270247  1
  Fe  Fe8  1  0.336901  0.218064  0.260154  1
  Fe  Fe9  1  0.663099  0.781936  0.739846  1
  O  O10  1  0.114353  0.990297  0.316889  1
  O  O11  1  0.193853  0.492252  0.114047  1
  O  O12  1  0.697861  0.017153  0.120676  1
  O  O13  1  0.302139  0.982847  0.879324  1
  O  O14  1  0.806147  0.507748  0.885953  1
  O  O15  1  0.885647  0.009704  0.683111  1
  F  F16  1  0.341190  0.342668  0.491213  1
  F  F17  1  0.658810  0.657332  0.508787  1
