# generated using pymatgen
data_Li6Fe2P(CO4)4
_symmetry_space_group_name_H-M   'P 1'
_cell_length_a   9.45143189
_cell_length_b   9.48390546
_cell_length_c   9.45639771
_cell_angle_alpha   59.86235881
_cell_angle_beta   59.89504864
_cell_angle_gamma   59.91234302
_symmetry_Int_Tables_number   1
_chemical_formula_structural   Li6Fe2P(CO4)4
_chemical_formula_sum   'Li12 Fe4 P2 C8 O32'
_cell_volume   597.87355159
_cell_formula_units_Z   2
loop_
 _symmetry_equiv_pos_site_id
 _symmetry_equiv_pos_as_xyz
  1  'x, y, z'
loop_
 _atom_site_type_symbol
 _atom_site_label
 _atom_site_symmetry_multiplicity
 _atom_site_fract_x
 _atom_site_fract_y
 _atom_site_fract_z
 _atom_site_occupancy
  Li  Li0  1  0.071723  0.678263  0.071728  1
  Li  Li1  1  0.074596  0.070539  0.677606  1
  Li  Li2  1  0.074826  0.676854  0.677915  1
  Li  Li3  1  0.677890  0.070389  0.074860  1
  Li  Li4  1  0.323529  0.926479  0.323540  1
  Li  Li5  1  0.322367  0.322729  0.925440  1
  Li  Li6  1  0.677634  0.677270  0.074560  1
  Li  Li7  1  0.676477  0.073515  0.676467  1
  Li  Li8  1  0.925176  0.323145  0.322086  1
  Li  Li9  1  0.322109  0.929608  0.925144  1
  Li  Li10  1  0.928278  0.321736  0.928272  1
  Li  Li11  1  0.925405  0.929460  0.322394  1
  Fe  Fe12  1  -0.000002  0.499995  0.500001  1
  Fe  Fe13  1  0.499993  0.500012  -0.000004  1
  Fe  Fe14  1  0.499977  0.000022  0.500004  1
  Fe  Fe15  1  0.500003  0.499997  0.499977  1
  P  P16  1  0.125475  0.124542  0.125465  1
  P  P17  1  0.874525  0.875457  0.874536  1
  C  C18  1  0.276806  0.279588  0.279947  1
  C  C19  1  0.277241  0.280192  0.665774  1
  C  C20  1  0.279965  0.663671  0.276786  1
  C  C21  1  0.665770  0.276817  0.277231  1
  C  C22  1  0.334232  0.723180  0.722767  1
  C  C23  1  0.720035  0.336327  0.723218  1
  C  C24  1  0.722759  0.719811  0.334227  1
  C  C25  1  0.723197  0.720411  0.720053  1
  O  O26  1  0.058518  0.057792  0.057843  1
  O  O27  1  0.058257  0.057355  0.326292  1
  O  O28  1  0.057826  0.325880  0.058519  1
  O  O29  1  0.326299  0.058091  0.058259  1
  O  O30  1  0.134258  0.413209  0.293497  1
  O  O31  1  0.285335  0.135870  0.404942  1
  O  O32  1  0.134696  0.295495  0.657312  1
  O  O33  1  0.408159  0.296300  0.135458  1
  O  O34  1  0.135414  0.660078  0.408183  1
  O  O35  1  0.293501  0.659047  0.134291  1
  O  O36  1  0.404368  0.135927  0.672619  1
  O  O37  1  0.283700  0.409747  0.671647  1
  O  O38  1  0.671643  0.134884  0.283747  1
  O  O39  1  0.404895  0.673850  0.285355  1
  O  O40  1  0.657354  0.412497  0.134701  1
  O  O41  1  0.327395  0.712911  0.595626  1
  O  O42  1  0.672606  0.287088  0.404375  1
  O  O43  1  0.342647  0.587504  0.865297  1
  O  O44  1  0.595107  0.326148  0.714645  1
  O  O45  1  0.328357  0.865115  0.716254  1
  O  O46  1  0.716303  0.590254  0.328351  1
  O  O47  1  0.595631  0.864072  0.327382  1
  O  O48  1  0.706500  0.340953  0.865711  1
  O  O49  1  0.864591  0.339922  0.591813  1
  O  O50  1  0.591839  0.703699  0.864546  1
  O  O51  1  0.865305  0.704505  0.342688  1
  O  O52  1  0.714666  0.864130  0.595058  1
  O  O53  1  0.865744  0.586789  0.706504  1
  O  O54  1  0.673703  0.941909  0.941742  1
  O  O55  1  0.942174  0.674120  0.941482  1
  O  O56  1  0.941743  0.942645  0.673710  1
  O  O57  1  0.941483  0.942205  0.942159  1
