# generated using pymatgen
data_VH10S2(NO4)2
_symmetry_space_group_name_H-M   'P 1'
_cell_length_a   8.31152623
_cell_length_b   7.39484945
_cell_length_c   7.36059445
_cell_angle_alpha   90.00000000
_cell_angle_beta   90.00000000
_cell_angle_gamma   81.63409263
_symmetry_Int_Tables_number   1
_chemical_formula_structural   VH10S2(NO4)2
_chemical_formula_sum   'V2 H20 S4 N4 O16'
_cell_volume   447.58647126
_cell_formula_units_Z   2
loop_
 _symmetry_equiv_pos_site_id
 _symmetry_equiv_pos_as_xyz
  1  'x, y, z'
loop_
 _atom_site_type_symbol
 _atom_site_label
 _atom_site_symmetry_multiplicity
 _atom_site_fract_x
 _atom_site_fract_y
 _atom_site_fract_z
 _atom_site_occupancy
  V  V0  1  0.500000  0.500000  0.000000  1
  V  V1  1  0.000000  0.000000  0.500000  1
  H  H2  1  0.790167  0.779986  0.933721  1
  H  H3  1  0.894968  0.442491  0.865400  1
  H  H4  1  0.970256  0.712623  0.326367  1
  H  H5  1  0.209833  0.220014  0.066279  1
  H  H6  1  0.358362  0.359092  0.281938  1
  H  H7  1  0.538345  0.660307  0.395880  1
  H  H8  1  0.141638  0.140908  0.781938  1
  H  H9  1  0.961655  0.839693  0.895880  1
  H  H10  1  0.290167  0.279986  0.566279  1
  H  H11  1  0.470256  0.212623  0.173633  1
  H  H12  1  0.394968  0.942491  0.634600  1
  H  H13  1  0.709833  0.720014  0.433721  1
  H  H14  1  0.605032  0.057509  0.365400  1
  H  H15  1  0.529744  0.787377  0.826367  1
  H  H16  1  0.038345  0.160307  0.104120  1
  H  H17  1  0.858362  0.859092  0.218062  1
  H  H18  1  0.461655  0.339693  0.604120  1
  H  H19  1  0.641638  0.640908  0.718062  1
  H  H20  1  0.105032  0.557509  0.134600  1
  H  H21  1  0.029744  0.287377  0.673633  1
  S  S22  1  0.750959  0.211970  0.816807  1
  S  S23  1  0.250959  0.711970  0.683193  1
  S  S24  1  0.749041  0.288030  0.316807  1
  S  S25  1  0.249041  0.788030  0.183193  1
  N  N26  1  0.925779  0.188227  0.321836  1
  N  N27  1  0.425779  0.688227  0.178164  1
  N  N28  1  0.574221  0.311773  0.821836  1
  N  N29  1  0.074221  0.811773  0.678164  1
  O  O30  1  0.718962  0.405415  0.142722  1
  O  O31  1  0.616852  0.676806  0.494827  1
  O  O32  1  0.135066  0.608109  0.251411  1
  O  O33  1  0.120511  0.180904  0.651324  1
  O  O34  1  0.379489  0.319096  0.151324  1
  O  O35  1  0.364934  0.891891  0.751411  1
  O  O36  1  0.883148  0.823194  0.994827  1
  O  O37  1  0.781038  0.094585  0.642722  1
  O  O38  1  0.218962  0.905415  0.357278  1
  O  O39  1  0.116852  0.176806  0.005173  1
  O  O40  1  0.635066  0.108109  0.248589  1
  O  O41  1  0.620511  0.680904  0.848676  1
  O  O42  1  0.879489  0.819096  0.348676  1
  O  O43  1  0.864934  0.391891  0.748589  1
  O  O44  1  0.383148  0.323194  0.505173  1
  O  O45  1  0.281038  0.594585  0.857278  1
