# generated using pymatgen
data_LiFe(PO3)4
_symmetry_space_group_name_H-M   'P 1'
_cell_length_a   7.52706958
_cell_length_b   9.37022751
_cell_length_c   8.99082959
_cell_angle_alpha   114.30141453
_cell_angle_beta   114.74604536
_cell_angle_gamma   66.31874556
_symmetry_Int_Tables_number   1
_chemical_formula_structural   LiFe(PO3)4
_chemical_formula_sum   'Li2 Fe2 P8 O24'
_cell_volume   504.30992865
_cell_formula_units_Z   2
loop_
 _symmetry_equiv_pos_site_id
 _symmetry_equiv_pos_as_xyz
  1  'x, y, z'
loop_
 _atom_site_type_symbol
 _atom_site_label
 _atom_site_symmetry_multiplicity
 _atom_site_fract_x
 _atom_site_fract_y
 _atom_site_fract_z
 _atom_site_occupancy
  Li  Li0  1  0.834689  0.750000  0.750000  1
  Li  Li1  1  0.165311  0.250000  0.250000  1
  Fe  Fe2  1  0.281780  0.750000  0.750000  1
  Fe  Fe3  1  0.718220  0.250000  0.250000  1
  P  P4  1  0.959844  0.888915  0.169149  1
  P  P5  1  0.564230  0.838369  0.132498  1
  P  P6  1  0.270101  0.661631  0.367502  1
  P  P7  1  0.679609  0.611085  0.330850  1
  P  P8  1  0.320391  0.388915  0.669150  1
  P  P9  1  0.729899  0.338369  0.632498  1
  P  P10  1  0.435770  0.161631  0.867502  1
  P  P11  1  0.040156  0.111085  0.830850  1
  O  O12  1  0.404150  0.960720  0.209046  1
  O  O13  1  0.765487  0.898700  0.211156  1
  O  O14  1  0.976141  0.782226  0.998013  1
  O  O15  1  0.142992  0.833504  0.325914  1
  O  O16  1  0.053667  0.929710  0.782944  1
  O  O17  1  0.650582  0.666496  0.174086  1
  O  O18  1  0.760355  0.717774  0.501987  1
  O  O19  1  0.363362  0.715766  0.563545  1
  O  O20  1  0.515583  0.784234  0.936455  1
  O  O21  1  0.453031  0.601300  0.288844  1
  O  O22  1  0.155824  0.539280  0.290954  1
  O  O23  1  0.200432  0.570290  0.717056  1
  O  O24  1  0.799568  0.429710  0.282944  1
  O  O25  1  0.844176  0.460720  0.709046  1
  O  O26  1  0.546969  0.398700  0.711156  1
  O  O27  1  0.484417  0.215766  0.063545  1
  O  O28  1  0.636638  0.284234  0.436455  1
  O  O29  1  0.239645  0.282226  0.498013  1
  O  O30  1  0.349419  0.333504  0.825914  1
  O  O31  1  0.946333  0.070290  0.217056  1
  O  O32  1  0.857008  0.166496  0.674086  1
  O  O33  1  0.023859  0.217774  0.001987  1
  O  O34  1  0.234513  0.101300  0.788844  1
  O  O35  1  0.595850  0.039280  0.790954  1
