# generated using pymatgen
data_Ba2Y7Cl25
_symmetry_space_group_name_H-M   'P 1'
_cell_length_a   7.46252065
_cell_length_b   9.37255271
_cell_length_c   39.38465607
_cell_angle_alpha   90.00000000
_cell_angle_beta   90.87837307
_cell_angle_gamma   90.00000000
_symmetry_Int_Tables_number   1
_chemical_formula_structural   Ba2Y7Cl25
_chemical_formula_sum   'Ba4 Y14 Cl50'
_cell_volume   2754.35210323
_cell_formula_units_Z   2
loop_
 _symmetry_equiv_pos_site_id
 _symmetry_equiv_pos_as_xyz
  1  'x, y, z'
loop_
 _atom_site_type_symbol
 _atom_site_label
 _atom_site_symmetry_multiplicity
 _atom_site_fract_x
 _atom_site_fract_y
 _atom_site_fract_z
 _atom_site_occupancy
  Ba  Ba0  1  0.026095  0.816990  0.215342  1
  Ba  Ba1  1  0.473905  0.316990  0.284658  1
  Ba  Ba2  1  0.526095  0.683010  0.715342  1
  Ba  Ba3  1  0.973905  0.183010  0.784658  1
  Y  Y4  1  0.016853  0.022233  0.659989  1
  Y  Y5  1  0.997106  0.330753  0.445745  1
  Y  Y6  1  0.000000  0.500000  0.000000  1
  Y  Y7  1  0.003990  0.166830  0.107330  1
  Y  Y8  1  0.483147  0.522233  0.840011  1
  Y  Y9  1  0.497106  0.169247  0.945745  1
  Y  Y10  1  0.496010  0.666830  0.392670  1
  Y  Y11  1  0.500000  0.000000  0.500000  1
  Y  Y12  1  0.503990  0.333170  0.607330  1
  Y  Y13  1  0.502894  0.830753  0.054255  1
  Y  Y14  1  0.516853  0.477767  0.159989  1
  Y  Y15  1  0.996010  0.833170  0.892670  1
  Y  Y16  1  0.002894  0.669247  0.554255  1
  Y  Y17  1  0.983147  0.977767  0.340011  1
  Cl  Cl18  1  0.990015  0.666176  0.946554  1
  Cl  Cl19  1  0.000000  0.500000  0.500000  1
  Cl  Cl20  1  0.010927  0.169128  0.390704  1
  Cl  Cl21  1  0.006792  0.061687  0.168837  1
  Cl  Cl22  1  0.031737  0.212138  0.710017  1
  Cl  Cl23  1  0.179968  0.403000  0.820793  1
  Cl  Cl24  1  0.215893  0.030262  0.919488  1
  Cl  Cl25  1  0.228718  0.848094  0.524745  1
  Cl  Cl26  1  0.224709  0.511100  0.415446  1
  Cl  Cl27  1  0.229591  0.683849  0.028132  1
  Cl  Cl28  1  0.201040  0.198090  0.621665  1
  Cl  Cl29  1  0.139232  0.152949  0.295605  1
  Cl  Cl30  1  0.213621  0.368052  0.135366  1
  Cl  Cl31  1  0.298960  0.698090  0.878335  1
  Cl  Cl32  1  0.286379  0.868052  0.364634  1
  Cl  Cl33  1  0.360768  0.652949  0.204395  1
  Cl  Cl34  1  0.271282  0.348094  0.975255  1
  Cl  Cl35  1  0.284107  0.530262  0.580512  1
  Cl  Cl36  1  0.270410  0.183849  0.471868  1
  Cl  Cl37  1  0.275291  0.011100  0.084554  1
  Cl  Cl38  1  0.320032  0.903000  0.679207  1
  Cl  Cl39  1  0.468263  0.712138  0.789983  1
  Cl  Cl40  1  0.493208  0.561687  0.331163  1
  Cl  Cl41  1  0.489073  0.669128  0.109296  1
  Cl  Cl42  1  0.509985  0.166176  0.553446  1
  Cl  Cl43  1  0.490015  0.833824  0.446554  1
  Cl  Cl44  1  0.500000  0.000000  0.000000  1
  Cl  Cl45  1  0.510927  0.330872  0.890704  1
  Cl  Cl46  1  0.506792  0.438313  0.668837  1
  Cl  Cl47  1  0.531737  0.287862  0.210017  1
  Cl  Cl48  1  0.679968  0.097000  0.320793  1
  Cl  Cl49  1  0.724709  0.988900  0.915446  1
  Cl  Cl50  1  0.729591  0.816151  0.528132  1
  Cl  Cl51  1  0.715893  0.469738  0.419488  1
  Cl  Cl52  1  0.728718  0.651906  0.024745  1
  Cl  Cl53  1  0.639232  0.347051  0.795605  1
  Cl  Cl54  1  0.713621  0.131948  0.635366  1
  Cl  Cl55  1  0.701040  0.301910  0.121665  1
  Cl  Cl56  1  0.786379  0.631948  0.864634  1
  Cl  Cl57  1  0.860768  0.847051  0.704395  1
  Cl  Cl58  1  0.798960  0.801910  0.378335  1
  Cl  Cl59  1  0.770409  0.316151  0.971868  1
  Cl  Cl60  1  0.775291  0.488900  0.584554  1
  Cl  Cl61  1  0.771282  0.151906  0.475254  1
  Cl  Cl62  1  0.784107  0.969738  0.080512  1
  Cl  Cl63  1  0.820032  0.597000  0.179207  1
  Cl  Cl64  1  0.968263  0.787862  0.289983  1
  Cl  Cl65  1  0.993208  0.938313  0.831163  1
  Cl  Cl66  1  0.989073  0.830872  0.609296  1
  Cl  Cl67  1  0.009985  0.333824  0.053446  1
