# generated using pymatgen
data_Li2MnO2F
_symmetry_space_group_name_H-M   'P 1'
_cell_length_a   5.16412828
_cell_length_b   5.16412828
_cell_length_c   10.32992347
_cell_angle_alpha   80.00788385
_cell_angle_beta   99.99211615
_cell_angle_gamma   60.34415640
_symmetry_Int_Tables_number   1
_chemical_formula_structural   Li2MnO2F
_chemical_formula_sum   'Li8 Mn4 O8 F4'
_cell_volume   224.67769077
_cell_formula_units_Z   4
loop_
 _symmetry_equiv_pos_site_id
 _symmetry_equiv_pos_as_xyz
  1  'x, y, z'
loop_
 _atom_site_type_symbol
 _atom_site_label
 _atom_site_symmetry_multiplicity
 _atom_site_fract_x
 _atom_site_fract_y
 _atom_site_fract_z
 _atom_site_occupancy
  Li  Li0  1  0.000000  0.000000  0.750000  1
  Li  Li1  1  0.363262  0.328146  0.754829  1
  Li  Li2  1  0.636738  0.671854  0.745171  1
  Li  Li3  1  0.487142  0.487142  0.500000  1
  Li  Li4  1  0.000000  0.000000  0.250000  1
  Li  Li5  1  0.328146  0.363262  0.245171  1
  Li  Li6  1  0.671854  0.636738  0.254829  1
  Li  Li7  1  0.512857  0.512857  0.000000  1
  Mn  Mn8  1  0.165067  0.165067  0.500000  1
  Mn  Mn9  1  0.841860  0.841860  0.500000  1
  Mn  Mn10  1  0.158140  0.158140  0.000000  1
  Mn  Mn11  1  0.834933  0.834933  0.000000  1
  O  O12  1  0.422911  0.935113  0.894628  1
  O  O13  1  0.237638  0.781221  0.617862  1
  O  O14  1  0.064887  0.577089  0.394628  1
  O  O15  1  0.218779  0.762362  0.117862  1
  O  O16  1  0.762362  0.218779  0.882138  1
  O  O17  1  0.577089  0.064887  0.605372  1
  O  O18  1  0.781221  0.237638  0.382138  1
  O  O19  1  0.935113  0.422911  0.105372  1
  F  F20  1  0.091716  0.577457  0.865243  1
  F  F21  1  0.422543  0.908284  0.365243  1
  F  F22  1  0.908284  0.422543  0.634757  1
  F  F23  1  0.577457  0.091716  0.134757  1
