# generated using pymatgen
data_Li3Fe2SnO6
_symmetry_space_group_name_H-M   'P 1'
_cell_length_a   15.78945537
_cell_length_b   10.09667878
_cell_length_c   10.09667865
_cell_angle_alpha   17.51760289
_cell_angle_beta   16.90290733
_cell_angle_gamma   16.90290807
_symmetry_Int_Tables_number   1
_chemical_formula_structural   Li3Fe2SnO6
_chemical_formula_sum   'Li3 Fe2 Sn1 O6'
_cell_volume   121.41841244
_cell_formula_units_Z   1
loop_
 _symmetry_equiv_pos_site_id
 _symmetry_equiv_pos_as_xyz
  1  'x, y, z'
loop_
 _atom_site_type_symbol
 _atom_site_label
 _atom_site_symmetry_multiplicity
 _atom_site_fract_x
 _atom_site_fract_y
 _atom_site_fract_z
 _atom_site_occupancy
  Li  Li0  1  0.166667  0.500000  0.500000  1
  Li  Li1  1  0.488343  0.505356  0.505356  1
  Li  Li2  1  0.844990  0.494644  0.494644  1
  Fe  Fe3  1  0.968576  0.024511  0.024511  1
  Fe  Fe4  1  0.364758  0.975489  0.975489  1
  Sn  Sn5  1  0.666667  0.000000  0.000000  1
  O  O6  1  0.247835  0.258167  0.258167  1
  O  O7  1  0.574444  0.258857  0.258857  1
  O  O8  1  0.085498  0.741833  0.741833  1
  O  O9  1  0.907984  0.260495  0.260495  1
  O  O10  1  0.425349  0.739505  0.739505  1
  O  O11  1  0.758890  0.741143  0.741143  1
