# generated using pymatgen
data_NiH16C2S3N6O7
_symmetry_space_group_name_H-M   'P 1'
_cell_length_a   7.03994017
_cell_length_b   16.62978483
_cell_length_c   6.53793518
_cell_angle_alpha   90.00000000
_cell_angle_beta   100.71336041
_cell_angle_gamma   90.00000000
_symmetry_Int_Tables_number   1
_chemical_formula_structural   NiH16C2S3N6O7
_chemical_formula_sum   'Ni2 H32 C4 S6 N12 O14'
_cell_volume   752.07209880
_cell_formula_units_Z   2
loop_
 _symmetry_equiv_pos_site_id
 _symmetry_equiv_pos_as_xyz
  1  'x, y, z'
loop_
 _atom_site_type_symbol
 _atom_site_label
 _atom_site_symmetry_multiplicity
 _atom_site_fract_x
 _atom_site_fract_y
 _atom_site_fract_z
 _atom_site_occupancy
  Ni  Ni0  1  0.000000  0.500000  0.000000  1
  Ni  Ni1  1  0.000000  0.000000  0.000000  1
  H  H2  1  0.046948  0.653268  0.073514  1
  H  H3  1  0.953052  0.153268  0.926486  1
  H  H4  1  0.953052  0.346732  0.926486  1
  H  H5  1  0.046948  0.846732  0.073514  1
  H  H6  1  0.866578  0.619096  0.182525  1
  H  H7  1  0.133422  0.119096  0.817475  1
  H  H8  1  0.133422  0.380904  0.817475  1
  H  H9  1  0.866578  0.880904  0.182525  1
  H  H10  1  0.138692  0.655594  0.447126  1
  H  H11  1  0.861308  0.155594  0.552874  1
  H  H12  1  0.861308  0.344406  0.552874  1
  H  H13  1  0.138692  0.844406  0.447126  1
  H  H14  1  0.333736  0.585640  0.717448  1
  H  H15  1  0.666264  0.085640  0.282552  1
  H  H16  1  0.666264  0.414360  0.282552  1
  H  H17  1  0.333736  0.914360  0.717448  1
  H  H18  1  0.374754  0.480854  0.681026  1
  H  H19  1  0.625246  0.980854  0.318974  1
  H  H20  1  0.625246  0.519146  0.318974  1
  H  H21  1  0.374754  0.019146  0.681026  1
  H  H22  1  0.205885  0.250000  0.353953  1
  H  H23  1  0.794115  0.750000  0.646047  1
  H  H24  1  0.423566  0.250000  0.339134  1
  H  H25  1  0.576434  0.750000  0.660866  1
  H  H26  1  0.484543  0.346061  0.888051  1
  H  H27  1  0.515457  0.846061  0.111949  1
  H  H28  1  0.515457  0.653939  0.111949  1
  H  H29  1  0.484543  0.153939  0.888051  1
  H  H30  1  0.379677  0.329804  0.654571  1
  H  H31  1  0.620323  0.829804  0.345429  1
  H  H32  1  0.620323  0.670196  0.345429  1
  H  H33  1  0.379677  0.170196  0.654571  1
  C  C34  1  0.213244  0.535254  0.433270  1
  C  C35  1  0.786756  0.035254  0.566730  1
  C  C36  1  0.786756  0.464746  0.566730  1
  C  C37  1  0.213244  0.964746  0.433270  1
  S  S38  1  0.195302  0.448092  0.288341  1
  S  S39  1  0.804698  0.948092  0.711659  1
  S  S40  1  0.804698  0.551908  0.711659  1
  S  S41  1  0.195302  0.051908  0.288341  1
  S  S42  1  0.781802  0.250000  0.187774  1
  S  S43  1  0.218198  0.750000  0.812226  1
  N  N44  1  0.006662  0.606203  0.160607  1
  N  N45  1  0.993338  0.106203  0.839393  1
  N  N46  1  0.993338  0.393797  0.839393  1
  N  N47  1  0.006662  0.893797  0.160607  1
  N  N48  1  0.130577  0.603947  0.356002  1
  N  N49  1  0.869423  0.103947  0.643998  1
  N  N50  1  0.869423  0.396053  0.643998  1
  N  N51  1  0.130577  0.896053  0.356002  1
  N  N52  1  0.313295  0.534249  0.626586  1
  N  N53  1  0.686705  0.034249  0.373414  1
  N  N54  1  0.686705  0.465751  0.373414  1
  N  N55  1  0.313295  0.965751  0.626586  1
  O  O56  1  0.956870  0.250000  0.087782  1
  O  O57  1  0.043130  0.750000  0.912218  1
  O  O58  1  0.844667  0.250000  0.419928  1
  O  O59  1  0.155333  0.750000  0.580072  1
  O  O60  1  0.662948  0.323394  0.123666  1
  O  O61  1  0.337052  0.823394  0.876334  1
  O  O62  1  0.337052  0.676606  0.876334  1
  O  O63  1  0.662948  0.176606  0.123666  1
  O  O64  1  0.336098  0.250000  0.439537  1
  O  O65  1  0.663902  0.750000  0.560463  1
  O  O66  1  0.386303  0.367371  0.772330  1
  O  O67  1  0.613697  0.867371  0.227670  1
  O  O68  1  0.613697  0.632629  0.227670  1
  O  O69  1  0.386303  0.132629  0.772330  1
