# generated using pymatgen
data_FeP2HO7
_symmetry_space_group_name_H-M   'P 1'
_cell_length_a   7.44655119
_cell_length_b   8.41822315
_cell_length_c   8.42360329
_cell_angle_alpha   90.00000000
_cell_angle_beta   90.00000000
_cell_angle_gamma   102.42338397
_symmetry_Int_Tables_number   1
_chemical_formula_structural   FeP2HO7
_chemical_formula_sum   'Fe4 P8 H4 O28'
_cell_volume   515.68366143
_cell_formula_units_Z   4
loop_
 _symmetry_equiv_pos_site_id
 _symmetry_equiv_pos_as_xyz
  1  'x, y, z'
loop_
 _atom_site_type_symbol
 _atom_site_label
 _atom_site_symmetry_multiplicity
 _atom_site_fract_x
 _atom_site_fract_y
 _atom_site_fract_z
 _atom_site_occupancy
  Fe  Fe0  1  0.520887  0.978630  0.302109  1
  Fe  Fe1  1  0.979113  0.521370  0.802109  1
  Fe  Fe2  1  0.479113  0.021370  0.697891  1
  Fe  Fe3  1  0.020887  0.478630  0.197891  1
  P  P4  1  0.877480  0.803989  0.283972  1
  P  P5  1  0.622520  0.696011  0.783972  1
  P  P6  1  0.122520  0.196011  0.716028  1
  P  P7  1  0.377480  0.303989  0.216028  1
  P  P8  1  0.176522  0.735827  0.490485  1
  P  P9  1  0.323478  0.764173  0.990485  1
  P  P10  1  0.823478  0.264173  0.509515  1
  P  P11  1  0.676522  0.235827  0.009515  1
  H  H12  1  0.395500  0.511860  0.372473  1
  H  H13  1  0.104500  0.988140  0.872473  1
  H  H14  1  0.604500  0.488140  0.627527  1
  H  H15  1  0.895500  0.011860  0.127527  1
  O  O16  1  0.858487  0.631168  0.225445  1
  O  O17  1  0.641513  0.868832  0.725445  1
  O  O18  1  0.141513  0.368832  0.774555  1
  O  O19  1  0.358487  0.131168  0.274555  1
  O  O20  1  0.703351  0.846236  0.347557  1
  O  O21  1  0.796649  0.653764  0.847557  1
  O  O22  1  0.296649  0.153764  0.652443  1
  O  O23  1  0.203351  0.346236  0.152443  1
  O  O24  1  0.967900  0.928734  0.153367  1
  O  O25  1  0.532100  0.571266  0.653367  1
  O  O26  1  0.032100  0.071266  0.846633  1
  O  O27  1  0.467900  0.428734  0.346633  1
  O  O28  1  0.024035  0.830229  0.426607  1
  O  O29  1  0.475965  0.669771  0.926607  1
  O  O30  1  0.975965  0.169771  0.573393  1
  O  O31  1  0.524035  0.330229  0.073393  1
  O  O32  1  0.185459  0.595584  0.376580  1
  O  O33  1  0.314541  0.904416  0.876580  1
  O  O34  1  0.814541  0.404416  0.623420  1
  O  O35  1  0.685459  0.095584  0.123420  1
  O  O36  1  0.119729  0.681758  0.657901  1
  O  O37  1  0.380271  0.818242  0.157901  1
  O  O38  1  0.880271  0.318242  0.342099  1
  O  O39  1  0.619729  0.181758  0.842099  1
  O  O40  1  0.358915  0.866808  0.496371  1
  O  O41  1  0.141085  0.633192  0.996371  1
  O  O42  1  0.641085  0.133191  0.503629  1
  O  O43  1  0.858915  0.366808  0.003629  1
