# generated using pymatgen
data_Cs3HoO3
_symmetry_space_group_name_H-M   'P 1'
_cell_length_a   12.28463082
_cell_length_b   7.62724818
_cell_length_c   8.32371531
_cell_angle_alpha   90.00000000
_cell_angle_beta   95.25644130
_cell_angle_gamma   90.00000000
_symmetry_Int_Tables_number   1
_chemical_formula_structural   Cs3HoO3
_chemical_formula_sum   'Cs12 Ho4 O12'
_cell_volume   776.63505128
_cell_formula_units_Z   4
loop_
 _symmetry_equiv_pos_site_id
 _symmetry_equiv_pos_as_xyz
  1  'x, y, z'
loop_
 _atom_site_type_symbol
 _atom_site_label
 _atom_site_symmetry_multiplicity
 _atom_site_fract_x
 _atom_site_fract_y
 _atom_site_fract_z
 _atom_site_occupancy
  Cs  Cs0  1  0.078193  0.331048  0.645450  1
  Cs  Cs1  1  0.155229  0.619930  0.063286  1
  Cs  Cs2  1  0.191699  0.808232  0.622679  1
  Cs  Cs3  1  0.308301  0.308232  0.377321  1
  Cs  Cs4  1  0.344771  0.119930  0.936714  1
  Cs  Cs5  1  0.421807  0.831048  0.354550  1
  Cs  Cs6  1  0.578193  0.168952  0.645450  1
  Cs  Cs7  1  0.655229  0.880070  0.063286  1
  Cs  Cs8  1  0.691699  0.691768  0.622679  1
  Cs  Cs9  1  0.808301  0.191768  0.377321  1
  Cs  Cs10  1  0.844771  0.380070  0.936714  1
  Cs  Cs11  1  0.921807  0.668952  0.354550  1
  Ho  Ho12  1  0.065813  0.086519  0.157798  1
  Ho  Ho13  1  0.434187  0.586519  0.842202  1
  Ho  Ho14  1  0.565813  0.413481  0.157798  1
  Ho  Ho15  1  0.934187  0.913481  0.842202  1
  O  O16  1  0.042956  0.345119  0.246683  1
  O  O17  1  0.089481  0.051847  0.899207  1
  O  O18  1  0.184004  0.942618  0.304684  1
  O  O19  1  0.315996  0.442618  0.695316  1
  O  O20  1  0.410519  0.551847  0.100793  1
  O  O21  1  0.457044  0.845119  0.753317  1
  O  O22  1  0.542956  0.154881  0.246683  1
  O  O23  1  0.589481  0.448153  0.899207  1
  O  O24  1  0.684004  0.557382  0.304684  1
  O  O25  1  0.815996  0.057382  0.695316  1
  O  O26  1  0.910519  0.948153  0.100793  1
  O  O27  1  0.957044  0.654881  0.753317  1
