# generated using pymatgen
data_Li6V3P8O29
_symmetry_space_group_name_H-M   'P 1'
_cell_length_a   9.79430963
_cell_length_b   9.82501525
_cell_length_c   13.98091281
_cell_angle_alpha   90.01665429
_cell_angle_beta   89.78916593
_cell_angle_gamma   59.72141334
_symmetry_Int_Tables_number   1
_chemical_formula_structural   Li6V3P8O29
_chemical_formula_sum   'Li12 V6 P16 O58'
_cell_volume   1161.83089407
_cell_formula_units_Z   2
loop_
 _symmetry_equiv_pos_site_id
 _symmetry_equiv_pos_as_xyz
  1  'x, y, z'
loop_
 _atom_site_type_symbol
 _atom_site_label
 _atom_site_symmetry_multiplicity
 _atom_site_fract_x
 _atom_site_fract_y
 _atom_site_fract_z
 _atom_site_occupancy
  Li  Li0  1  0.898287  0.761919  0.059683  1
  Li  Li1  1  0.760217  0.905148  0.563057  1
  Li  Li2  1  0.901607  0.336726  0.559230  1
  Li  Li3  1  0.758825  0.336444  0.062809  1
  Li  Li4  1  0.332482  0.901400  0.058734  1
  Li  Li5  1  0.332084  0.765485  0.559567  1
  Li  Li6  1  0.234177  0.667716  0.938766  1
  Li  Li7  1  0.098524  0.666438  0.439311  1
  Li  Li8  1  0.236072  0.098515  0.438980  1
  Li  Li9  1  0.095651  0.234827  0.939571  1
  Li  Li10  1  0.946737  0.013509  0.993266  1
  Li  Li11  1  0.949260  0.037429  0.493444  1
  V  V12  1  0.562806  0.432670  0.254036  1
  V  V13  1  0.439821  0.561466  0.749401  1
  V  V14  1  0.561389  0.005315  0.753261  1
  V  V15  1  0.442064  0.996392  0.248574  1
  V  V16  1  0.002092  0.562160  0.249023  1
  V  V17  1  0.998712  0.438905  0.748836  1
  P  P18  1  0.911609  0.776911  0.841276  1
  P  P19  1  0.776319  0.912543  0.346277  1
  P  P20  1  0.912281  0.312973  0.341738  1
  P  P21  1  0.666451  0.662357  0.130431  1
  P  P22  1  0.667340  0.670675  0.630397  1
  P  P23  1  0.776392  0.310753  0.847227  1
  P  P24  1  0.697771  0.219475  0.660780  1
  P  P25  1  0.313168  0.911935  0.840444  1
  P  P26  1  0.697370  0.082962  0.160760  1
  P  P27  1  0.312191  0.775222  0.340986  1
  P  P28  1  0.226781  0.686717  0.156451  1
  P  P29  1  0.331427  0.334528  0.369140  1
  P  P30  1  0.328906  0.334766  0.869386  1
  P  P31  1  0.090325  0.685692  0.657894  1
  P  P32  1  0.225954  0.086099  0.656230  1
  P  P33  1  0.089430  0.224901  0.157571  1
  O  O34  1  0.001868  0.774410  0.569220  1
  O  O35  1  0.919058  0.742720  0.338964  1
  O  O36  1  0.801152  0.987098  0.079038  1
  O  O37  1  0.745336  0.917676  0.838410  1
  O  O38  1  0.911828  0.620618  0.830350  1
  O  O39  1  0.811814  0.672996  0.169473  1
  O  O40  1  0.912169  0.468679  0.329287  1
  O  O41  1  0.999616  0.227345  0.069079  1
  O  O42  1  0.919270  0.335861  0.840494  1
  O  O43  1  0.675250  0.815087  0.671650  1
  O  O44  1  0.619290  0.913587  0.333429  1
  O  O45  1  0.814185  0.514845  0.672131  1
  O  O46  1  0.662813  0.663955  0.023772  1
  O  O47  1  0.673477  0.666988  0.523784  1
  O  O48  1  0.675002  0.510586  0.172297  1
  O  O49  1  0.472139  0.904768  0.828745  1
  O  O50  1  0.510870  0.810649  0.172328  1
  O  O51  1  0.745667  0.339485  0.339900  1
  O  O52  1  0.793316  0.197902  0.759051  1
  O  O53  1  0.801664  0.211055  0.579203  1
  O  O54  1  0.784108  0.227092  0.938964  1
  O  O55  1  0.620292  0.467301  0.831883  1
  O  O56  1  0.513851  0.677940  0.670614  1
  O  O57  1  0.667247  0.252014  0.158959  1
  O  O58  1  0.471811  0.622688  0.328791  1
  O  O59  1  0.333242  0.920501  0.340065  1
  O  O60  1  0.794108  0.008324  0.258995  1
  O  O61  1  0.786779  0.985632  0.438454  1
  O  O62  1  0.226725  0.998115  0.567090  1
  O  O63  1  0.665953  0.081933  0.658464  1
  O  O64  1  0.540974  0.379653  0.670117  1
  O  O65  1  0.336253  0.743265  0.839997  1
  O  O66  1  0.481313  0.328888  0.323609  1
  O  O67  1  0.382368  0.531019  0.168680  1
  O  O68  1  0.225609  0.775064  0.067383  1
  O  O69  1  0.224697  0.774454  0.430386  1
  O  O70  1  0.202968  0.796572  0.249080  1
  O  O71  1  0.259953  0.660729  0.657585  1
  O  O72  1  0.478919  0.189652  0.823522  1
  O  O73  1  0.540112  0.082092  0.169844  1
  O  O74  1  0.323811  0.486720  0.830068  1
  O  O75  1  0.319530  0.332437  0.975309  1
  O  O76  1  0.324961  0.340118  0.475323  1
  O  O77  1  0.186118  0.490489  0.327245  1
  O  O78  1  0.380791  0.087214  0.668694  1
  O  O79  1  0.325579  0.188440  0.327543  1
  O  O80  1  0.081904  0.664387  0.156913  1
  O  O81  1  0.006220  0.793937  0.750412  1
  O  O82  1  0.998228  0.778906  0.930824  1
  O  O83  1  0.094914  0.528325  0.669403  1
  O  O84  1  0.183656  0.327290  0.824859  1
  O  O85  1  0.091717  0.379831  0.169520  1
  O  O86  1  0.258252  0.081587  0.156068  1
  O  O87  1  0.224873  0.999387  0.929837  1
  O  O88  1  0.203698  0.998071  0.748672  1
  O  O89  1  0.081253  0.253450  0.656487  1
  O  O90  1  0.999802  0.222965  0.430937  1
  O  O91  1  0.004510  0.202429  0.250052  1
