# generated using pymatgen
data_CrH15S2O15
_symmetry_space_group_name_H-M   'P 1'
_cell_length_a   7.36364246
_cell_length_b   10.57477086
_cell_length_c   16.20437004
_cell_angle_alpha   90.00000000
_cell_angle_beta   83.74666005
_cell_angle_gamma   90.00000000
_symmetry_Int_Tables_number   1
_chemical_formula_structural   CrH15S2O15
_chemical_formula_sum   'Cr4 H60 S8 O60'
_cell_volume   1254.30754936
_cell_formula_units_Z   4
loop_
 _symmetry_equiv_pos_site_id
 _symmetry_equiv_pos_as_xyz
  1  'x, y, z'
loop_
 _atom_site_type_symbol
 _atom_site_label
 _atom_site_symmetry_multiplicity
 _atom_site_fract_x
 _atom_site_fract_y
 _atom_site_fract_z
 _atom_site_occupancy
  Cr  Cr0  1  0.257780  0.170827  0.632661  1
  Cr  Cr1  1  0.242220  0.670827  0.867339  1
  Cr  Cr2  1  0.757780  0.329173  0.132661  1
  Cr  Cr3  1  0.742220  0.829173  0.367339  1
  H  H4  1  0.037768  0.236106  0.196758  1
  H  H5  1  0.062146  0.388608  0.198559  1
  H  H6  1  0.027046  0.780003  0.449949  1
  H  H7  1  0.068734  0.916469  0.397814  1
  H  H8  1  0.103696  0.391275  0.429579  1
  H  H9  1  0.019627  0.252873  0.758778  1
  H  H10  1  0.229463  0.002907  0.069530  1
  H  H11  1  0.190709  0.459177  0.338222  1
  H  H12  1  0.021358  0.645180  0.008050  1
  H  H13  1  0.123990  0.958173  0.704145  1
  H  H14  1  0.083261  0.867263  0.941327  1
  H  H15  1  0.309291  0.959177  0.161778  1
  H  H16  1  0.270537  0.502907  0.430470  1
  H  H17  1  0.193310  0.182592  0.794077  1
  H  H18  1  0.276388  0.100660  0.474114  1
  H  H19  1  0.396304  0.891275  0.070421  1
  H  H20  1  0.254797  0.429680  0.618219  1
  H  H21  1  0.271324  0.923825  0.626791  1
  H  H22  1  0.228676  0.423825  0.873209  1
  H  H23  1  0.245203  0.929680  0.881781  1
  H  H24  1  0.223612  0.600660  0.025886  1
  H  H25  1  0.306690  0.682592  0.705923  1
  H  H26  1  0.431266  0.416469  0.102186  1
  H  H27  1  0.472954  0.280003  0.050051  1
  H  H28  1  0.416739  0.367263  0.558673  1
  H  H29  1  0.376010  0.458173  0.795855  1
  H  H30  1  0.437854  0.888608  0.301441  1
  H  H31  1  0.462232  0.736106  0.303242  1
  H  H32  1  0.478642  0.145180  0.491950  1
  H  H33  1  0.519627  0.247126  0.258778  1
  H  H34  1  0.480373  0.752873  0.741222  1
  H  H35  1  0.521358  0.854820  0.508050  1
  H  H36  1  0.537768  0.263894  0.696758  1
  H  H37  1  0.562146  0.111392  0.698559  1
  H  H38  1  0.623990  0.541827  0.204145  1
  H  H39  1  0.583261  0.632737  0.441327  1
  H  H40  1  0.527046  0.719997  0.949949  1
  H  H41  1  0.568734  0.583531  0.897814  1
  H  H42  1  0.693310  0.317408  0.294077  1
  H  H43  1  0.776388  0.399340  0.974114  1
  H  H44  1  0.754797  0.070320  0.118219  1
  H  H45  1  0.771324  0.576175  0.126791  1
  H  H46  1  0.728676  0.076175  0.373209  1
  H  H47  1  0.745203  0.570320  0.381781  1
  H  H48  1  0.603696  0.108725  0.929579  1
  H  H49  1  0.723612  0.899340  0.525886  1
  H  H50  1  0.806690  0.817408  0.205923  1
  H  H51  1  0.729463  0.497093  0.569530  1
  H  H52  1  0.690709  0.040823  0.838222  1
  H  H53  1  0.916739  0.132737  0.058673  1
  H  H54  1  0.876010  0.041827  0.295855  1
  H  H55  1  0.978642  0.354820  0.991950  1
  H  H56  1  0.809291  0.540823  0.661778  1
  H  H57  1  0.770537  0.997093  0.930470  1
  H  H58  1  0.980373  0.747127  0.241222  1
  H  H59  1  0.896304  0.608725  0.570421  1
  H  H60  1  0.931266  0.083531  0.602186  1
  H  H61  1  0.972954  0.219997  0.550051  1
  H  H62  1  0.937854  0.611392  0.801441  1
  H  H63  1  0.962232  0.763894  0.803242  1
  S  S64  1  0.227278  0.092370  0.291509  1
  S  S65  1  0.272722  0.592370  0.208491  1
  S  S66  1  0.252655  0.672645  0.546971  1
  S  S67  1  0.247345  0.172645  0.953029  1
  S  S68  1  0.752655  0.827355  0.046971  1
  S  S69  1  0.747345  0.327355  0.453029  1
  S  S70  1  0.727278  0.407630  0.791509  1
  S  S71  1  0.772722  0.907630  0.708491  1
  O  O72  1  0.012518  0.316425  0.166641  1
  O  O73  1  0.056523  0.100181  0.248360  1
  O  O74  1  0.129493  0.102841  0.019208  1
  O  O75  1  0.009973  0.161428  0.594326  1
  O  O76  1  0.063252  0.679643  0.521128  1
  O  O77  1  0.149380  0.494695  0.253762  1
  O  O78  1  0.183368  0.716468  0.211538  1
  O  O79  1  0.179902  0.049421  0.379136  1
  O  O80  1  0.283821  0.931972  0.102053  1
  O  O81  1  0.216179  0.431972  0.397947  1
  O  O82  1  0.153667  0.229162  0.744955  1
  O  O83  1  0.320098  0.549421  0.120864  1
  O  O84  1  0.141258  0.611044  0.981724  1
  O  O85  1  0.316632  0.216468  0.288462  1
  O  O86  1  0.244780  0.603204  0.626983  1
  O  O87  1  0.239382  0.989542  0.669922  1
  O  O88  1  0.172756  0.302567  0.944933  1
  O  O89  1  0.350620  0.994695  0.246238  1
  O  O90  1  0.291664  0.350222  0.588281  1
  O  O91  1  0.208336  0.850222  0.911719  1
  O  O92  1  0.327244  0.802567  0.555067  1
  O  O93  1  0.260618  0.489542  0.830078  1
  O  O94  1  0.255220  0.103204  0.873017  1
  O  O95  1  0.370507  0.602841  0.480792  1
  O  O96  1  0.358743  0.111044  0.518276  1
  O  O97  1  0.443477  0.600181  0.251640  1
  O  O98  1  0.346333  0.729162  0.755045  1
  O  O99  1  0.509973  0.338572  0.094326  1
  O  O100  1  0.563252  0.820357  0.021128  1
  O  O101  1  0.487482  0.816425  0.333359  1
  O  O102  1  0.512518  0.183575  0.666641  1
  O  O103  1  0.436748  0.179643  0.978872  1
  O  O104  1  0.490027  0.661428  0.905674  1
  O  O105  1  0.653667  0.270838  0.244955  1
  O  O106  1  0.556523  0.399819  0.748360  1
  O  O107  1  0.641258  0.888956  0.481724  1
  O  O108  1  0.629493  0.397159  0.519208  1
  O  O109  1  0.744780  0.896796  0.126983  1
  O  O110  1  0.739382  0.510458  0.169922  1
  O  O111  1  0.672756  0.197433  0.444933  1
  O  O112  1  0.791664  0.149778  0.088281  1
  O  O113  1  0.708336  0.649778  0.411719  1
  O  O114  1  0.649380  0.005305  0.753762  1
  O  O115  1  0.827244  0.697433  0.055067  1
  O  O116  1  0.760618  0.010458  0.330078  1
  O  O117  1  0.755220  0.396796  0.373017  1
  O  O118  1  0.683368  0.783532  0.711538  1
  O  O119  1  0.858742  0.388956  0.018276  1
  O  O120  1  0.679902  0.450579  0.879136  1
  O  O121  1  0.846333  0.770838  0.255045  1
  O  O122  1  0.783821  0.568028  0.602053  1
  O  O123  1  0.716179  0.068028  0.897947  1
  O  O124  1  0.820098  0.950579  0.620864  1
  O  O125  1  0.816632  0.283532  0.788462  1
  O  O126  1  0.850620  0.505305  0.746238  1
  O  O127  1  0.936748  0.320357  0.478872  1
  O  O128  1  0.990027  0.838572  0.405674  1
  O  O129  1  0.870507  0.897159  0.980792  1
  O  O130  1  0.943477  0.899819  0.751640  1
  O  O131  1  0.987482  0.683575  0.833359  1
