# generated using pymatgen
data_Sb7(O2F3)3
_symmetry_space_group_name_H-M   'P 1'
_cell_length_a   5.82519799
_cell_length_b   22.37485490
_cell_length_c   6.08740127
_cell_angle_alpha   82.18169030
_cell_angle_beta   90.00000000
_cell_angle_gamma   90.00000000
_symmetry_Int_Tables_number   1
_chemical_formula_structural   Sb7(O2F3)3
_chemical_formula_sum   'Sb14 O12 F18'
_cell_volume   786.04416800
_cell_formula_units_Z   2
loop_
 _symmetry_equiv_pos_site_id
 _symmetry_equiv_pos_as_xyz
  1  'x, y, z'
loop_
 _atom_site_type_symbol
 _atom_site_label
 _atom_site_symmetry_multiplicity
 _atom_site_fract_x
 _atom_site_fract_y
 _atom_site_fract_z
 _atom_site_occupancy
  Sb  Sb0  1  0.304390  0.346117  0.468413  1
  Sb  Sb1  1  0.304390  0.653883  0.314530  1
  Sb  Sb2  1  0.250539  0.051535  0.645676  1
  Sb  Sb3  1  0.250539  0.948465  0.197211  1
  Sb  Sb4  1  0.271199  0.500000  0.017605  1
  Sb  Sb5  1  0.316871  0.208885  0.255621  1
  Sb  Sb6  1  0.316871  0.791115  0.964507  1
  Sb  Sb7  1  0.683129  0.791115  0.464507  1
  Sb  Sb8  1  0.683129  0.208885  0.755621  1
  Sb  Sb9  1  0.728801  0.500000  0.517605  1
  Sb  Sb10  1  0.749461  0.051535  0.145676  1
  Sb  Sb11  1  0.749461  0.948465  0.697211  1
  Sb  Sb12  1  0.695610  0.346117  0.968413  1
  Sb  Sb13  1  0.695610  0.653883  0.814530  1
  O  O14  1  0.000000  0.000000  0.042203  1
  O  O15  1  0.000000  0.000000  0.542203  1
  O  O16  1  0.533753  0.293631  0.769160  1
  O  O17  1  0.533753  0.706369  0.562791  1
  O  O18  1  0.551891  0.178353  0.054236  1
  O  O19  1  0.551891  0.821647  0.732588  1
  O  O20  1  0.500000  0.000000  0.535929  1
  O  O21  1  0.500000  0.000000  0.035929  1
  O  O22  1  0.448109  0.821647  0.232588  1
  O  O23  1  0.448109  0.178353  0.554236  1
  O  O24  1  0.466247  0.293631  0.269160  1
  O  O25  1  0.466247  0.706369  0.062791  1
  F  F26  1  0.231507  0.091097  0.324351  1
  F  F27  1  0.231507  0.908903  0.915448  1
  F  F28  1  0.073280  0.281151  0.518807  1
  F  F29  1  0.073280  0.718849  0.299958  1
  F  F30  1  0.029359  0.500000  0.373803  1
  F  F31  1  0.135872  0.610972  0.078237  1
  F  F32  1  0.135872  0.389028  0.189209  1
  F  F33  1  0.390672  0.440275  0.822485  1
  F  F34  1  0.390672  0.559725  0.762760  1
  F  F35  1  0.609328  0.440275  0.322485  1
  F  F36  1  0.609328  0.559725  0.262760  1
  F  F37  1  0.864128  0.389028  0.689209  1
  F  F38  1  0.864128  0.610972  0.578237  1
  F  F39  1  0.970641  0.500000  0.873803  1
  F  F40  1  0.926720  0.281151  0.018807  1
  F  F41  1  0.926720  0.718849  0.799958  1
  F  F42  1  0.768493  0.091097  0.824351  1
  F  F43  1  0.768493  0.908903  0.415448  1
