# generated using pymatgen
data_LiMnVP2(HO5)2
_symmetry_space_group_name_H-M   'P 1'
_cell_length_a   14.44064470
_cell_length_b   7.34975579
_cell_length_c   5.23822059
_cell_angle_alpha   76.24976940
_cell_angle_beta   87.14582932
_cell_angle_gamma   91.90748607
_symmetry_Int_Tables_number   1
_chemical_formula_structural   LiMnVP2(HO5)2
_chemical_formula_sum   'Li3 Mn3 V3 P6 H6 O30'
_cell_volume   538.77288271
_cell_formula_units_Z   3
loop_
 _symmetry_equiv_pos_site_id
 _symmetry_equiv_pos_as_xyz
  1  'x, y, z'
loop_
 _atom_site_type_symbol
 _atom_site_label
 _atom_site_symmetry_multiplicity
 _atom_site_fract_x
 _atom_site_fract_y
 _atom_site_fract_z
 _atom_site_occupancy
  Li  Li0  1  0.185529  0.035336  0.740809  1
  Li  Li1  1  0.480406  0.630649  0.593320  1
  Li  Li2  1  0.814015  0.962796  0.258276  1
  Mn  Mn3  1  0.999741  0.999715  0.000246  1
  Mn  Mn4  1  0.332932  0.333017  0.666977  1
  Mn  Mn5  1  0.666597  0.663312  0.335852  1
  V  V6  1  0.166049  0.659986  0.335226  1
  V  V7  1  0.499986  0.005594  0.997769  1
  V  V8  1  0.833218  0.338556  0.664661  1
  P  P9  1  0.041451  0.265434  0.404882  1
  P  P10  1  0.291059  0.058888  0.258941  1
  P  P11  1  0.375174  0.606519  0.074928  1
  P  P12  1  0.624477  0.399289  0.929078  1
  P  P13  1  0.708087  0.939723  0.740763  1
  P  P14  1  0.958176  0.733159  0.595884  1
  H  H15  1  0.094727  0.747023  0.897615  1
  H  H16  1  0.231059  0.564479  0.785162  1
  H  H17  1  0.435887  0.102435  0.548473  1
  H  H18  1  0.572063  0.916478  0.437500  1
  H  H19  1  0.768831  0.432686  0.216134  1
  H  H20  1  0.905000  0.252245  0.103138  1
  O  O21  1  0.058982  0.128927  0.228914  1
  O  O22  1  0.074051  0.184847  0.678559  1
  O  O23  1  0.063516  0.688454  0.594367  1
  O  O24  1  0.099748  0.452275  0.274069  1
  O  O25  1  0.262137  0.128803  0.979908  1
  O  O26  1  0.108860  0.825307  0.022868  1
  O  O27  1  0.272889  0.200096  0.430793  1
  O  O28  1  0.229452  0.506616  0.632303  1
  O  O29  1  0.397126  0.016204  0.264679  1
  O  O30  1  0.230541  0.880117  0.406674  1
  O  O31  1  0.269467  0.649152  0.069486  1
  O  O32  1  0.436739  0.159228  0.702368  1
  O  O33  1  0.393469  0.465670  0.902809  1
  O  O34  1  0.404478  0.536570  0.353901  1
  O  O35  1  0.436028  0.785596  0.927148  1
  O  O36  1  0.566800  0.212018  0.062906  1
  O  O37  1  0.590797  0.478892  0.656538  1
  O  O38  1  0.608257  0.539114  0.100210  1
  O  O39  1  0.558148  0.837421  0.312554  1
  O  O40  1  0.729660  0.353503  0.925283  1
  O  O41  1  0.769439  0.117626  0.594958  1
  O  O42  1  0.602258  0.981946  0.732008  1
  O  O43  1  0.770421  0.489366  0.369755  1
  O  O44  1  0.726972  0.799491  0.566746  1
  O  O45  1  0.890559  0.173692  0.978581  1
  O  O46  1  0.735948  0.870289  0.021431  1
  O  O47  1  0.900055  0.546505  0.726334  1
  O  O48  1  0.936305  0.310443  0.406342  1
  O  O49  1  0.925819  0.814172  0.321753  1
  O  O50  1  0.940847  0.870043  0.771462  1
