# generated using pymatgen
data_Li2(TaS2)3
_symmetry_space_group_name_H-M   'P 1'
_cell_length_a   5.80919337
_cell_length_b   5.80922037
_cell_length_c   12.98606809
_cell_angle_alpha   90.00283203
_cell_angle_beta   90.00216523
_cell_angle_gamma   59.99948992
_symmetry_Int_Tables_number   1
_chemical_formula_structural   Li2(TaS2)3
_chemical_formula_sum   'Li4 Ta6 S12'
_cell_volume   379.52444986
_cell_formula_units_Z   2
loop_
 _symmetry_equiv_pos_site_id
 _symmetry_equiv_pos_as_xyz
  1  'x, y, z'
loop_
 _atom_site_type_symbol
 _atom_site_label
 _atom_site_symmetry_multiplicity
 _atom_site_fract_x
 _atom_site_fract_y
 _atom_site_fract_z
 _atom_site_occupancy
  Li  Li0  1  0.666666  0.666668  0.500115  1
  Li  Li1  1  0.666671  0.666670  0.999885  1
  Li  Li2  1  0.333334  0.333336  0.500122  1
  Li  Li3  1  0.000002  0.000006  0.999877  1
  Ta  Ta4  1  0.666669  0.666663  0.750000  1
  Ta  Ta5  1  0.666668  0.666675  0.249998  1
  Ta  Ta6  1  0.333325  0.333361  0.249409  1
  Ta  Ta7  1  0.333331  0.333327  0.750582  1
  Ta  Ta8  1  0.000008  -0.000007  0.749419  1
  Ta  Ta9  1  0.000014  0.000015  0.250587  1
  S  S10  1  0.665755  0.001187  0.870488  1
  S  S11  1  0.667581  0.000254  0.629515  1
  S  S12  1  0.665783  0.333070  0.129566  1
  S  S13  1  0.667584  0.332189  0.370433  1
  S  S14  1  0.333090  0.665756  0.870488  1
  S  S15  1  0.333097  0.001143  0.129566  1
  S  S16  1  0.332218  0.000257  0.370435  1
  S  S17  1  0.332152  0.667583  0.629512  1
  S  S18  1  0.001175  0.333096  0.870489  1
  S  S19  1  0.000235  0.332162  0.629510  1
  S  S20  1  0.001145  0.665776  0.129566  1
  S  S21  1  0.000265  0.667579  0.370436  1
