# generated using pymatgen
data_Ba3As2H14S8O7
_symmetry_space_group_name_H-M   'P 1'
_cell_length_a   12.75455474
_cell_length_b   12.90625201
_cell_length_c   12.91236118
_cell_angle_alpha   90.00000000
_cell_angle_beta   98.16475206
_cell_angle_gamma   90.00000000
_symmetry_Int_Tables_number   1
_chemical_formula_structural   Ba3As2H14S8O7
_chemical_formula_sum   'Ba12 As8 H56 S32 O28'
_cell_volume   2104.00392309
_cell_formula_units_Z   4
loop_
 _symmetry_equiv_pos_site_id
 _symmetry_equiv_pos_as_xyz
  1  'x, y, z'
loop_
 _atom_site_type_symbol
 _atom_site_label
 _atom_site_symmetry_multiplicity
 _atom_site_fract_x
 _atom_site_fract_y
 _atom_site_fract_z
 _atom_site_occupancy
  Ba  Ba0  1  0.333498  0.763724  0.376680  1
  Ba  Ba1  1  0.833498  0.736276  0.876680  1
  Ba  Ba2  1  0.666502  0.236276  0.623320  1
  Ba  Ba3  1  0.166502  0.263724  0.123320  1
  Ba  Ba4  1  0.258915  0.619565  0.932728  1
  Ba  Ba5  1  0.758915  0.880435  0.432728  1
  Ba  Ba6  1  0.741085  0.380435  0.067272  1
  Ba  Ba7  1  0.241085  0.119565  0.567272  1
  Ba  Ba8  1  0.208957  0.977023  0.903200  1
  Ba  Ba9  1  0.708957  0.522977  0.403200  1
  Ba  Ba10  1  0.791043  0.022977  0.096800  1
  Ba  Ba11  1  0.291043  0.477023  0.596800  1
  As  As12  1  0.101320  0.746854  0.636971  1
  As  As13  1  0.601320  0.753146  0.136971  1
  As  As14  1  0.898680  0.253146  0.363029  1
  As  As15  1  0.398680  0.246854  0.863029  1
  As  As16  1  0.088019  0.758488  0.125637  1
  As  As17  1  0.588019  0.741512  0.625637  1
  As  As18  1  0.911981  0.241512  0.874363  1
  As  As19  1  0.411981  0.258488  0.374363  1
  H  H20  1  0.404998  0.507555  0.319347  1
  H  H21  1  0.904998  0.992445  0.819347  1
  H  H22  1  0.595002  0.492445  0.680653  1
  H  H23  1  0.095002  0.007555  0.180653  1
  H  H24  1  0.436844  0.593070  0.244891  1
  H  H25  1  0.936844  0.906930  0.744891  1
  H  H26  1  0.563156  0.406930  0.755109  1
  H  H27  1  0.063156  0.093070  0.255109  1
  H  H28  1  0.418437  0.004313  0.327845  1
  H  H29  1  0.918437  0.495687  0.827845  1
  H  H30  1  0.581563  0.995687  0.672155  1
  H  H31  1  0.081563  0.504313  0.172155  1
  H  H32  1  0.436398  0.932984  0.230379  1
  H  H33  1  0.936398  0.567016  0.730379  1
  H  H34  1  0.563602  0.067016  0.769621  1
  H  H35  1  0.063602  0.432984  0.269621  1
  H  H36  1  0.348191  0.418994  0.060039  1
  H  H37  1  0.848191  0.081006  0.560039  1
  H  H38  1  0.651809  0.581006  0.939961  1
  H  H39  1  0.151809  0.918994  0.439961  1
  H  H40  1  0.306383  0.486656  0.146622  1
  H  H41  1  0.806383  0.013344  0.646622  1
  H  H42  1  0.693617  0.513344  0.853378  1
  H  H43  1  0.193617  0.986656  0.353378  1
  H  H44  1  0.353046  0.099369  0.086857  1
  H  H45  1  0.853046  0.400631  0.586857  1
  H  H46  1  0.646954  0.900631  0.913143  1
  H  H47  1  0.146954  0.599369  0.413143  1
  H  H48  1  0.300147  0.027604  0.160097  1
  H  H49  1  0.800147  0.472396  0.660097  1
  H  H50  1  0.699853  0.972396  0.839903  1
  H  H51  1  0.199853  0.527604  0.339903  1
  H  H52  1  0.434617  0.494759  0.835606  1
  H  H53  1  0.934617  0.005241  0.335606  1
  H  H54  1  0.565383  0.505241  0.164394  1
  H  H55  1  0.065383  0.994759  0.664394  1
  H  H56  1  0.455602  0.603685  0.782534  1
  H  H57  1  0.955602  0.896315  0.282534  1
  H  H58  1  0.544398  0.396315  0.217466  1
  H  H59  1  0.044398  0.103685  0.717466  1
  H  H60  1  0.394048  0.992043  0.757529  1
  H  H61  1  0.894048  0.507957  0.257529  1
  H  H62  1  0.605952  0.007957  0.242471  1
  H  H63  1  0.105952  0.492043  0.742471  1
  H  H64  1  0.333048  0.901704  0.687463  1
  H  H65  1  0.833048  0.598296  0.187463  1
  H  H66  1  0.666952  0.098296  0.312537  1
  H  H67  1  0.166952  0.401704  0.812537  1
  H  H68  1  0.411689  0.826357  0.958818  1
  H  H69  1  0.911689  0.673643  0.458818  1
  H  H70  1  0.588311  0.173643  0.041182  1
  H  H71  1  0.088311  0.326357  0.541182  1
  H  H72  1  0.403475  0.798349  0.840982  1
  H  H73  1  0.903475  0.701651  0.340982  1
  H  H74  1  0.596525  0.201651  0.159018  1
  H  H75  1  0.096525  0.298349  0.659018  1
  S  S76  1  0.270551  0.740095  0.624630  1
  S  S77  1  0.770551  0.759905  0.124630  1
  S  S78  1  0.729449  0.259905  0.375370  1
  S  S79  1  0.229449  0.240095  0.875370  1
  S  S80  1  0.076857  0.770880  0.800878  1
  S  S81  1  0.576857  0.729120  0.300878  1
  S  S82  1  0.923143  0.229120  0.199122  1
  S  S83  1  0.423143  0.270880  0.699122  1
  S  S84  1  0.032445  0.596361  0.585056  1
  S  S85  1  0.532445  0.903639  0.085056  1
  S  S86  1  0.967555  0.403639  0.414944  1
  S  S87  1  0.467555  0.096361  0.914944  1
  S  S88  1  0.023308  0.875934  0.545822  1
  S  S89  1  0.523308  0.624066  0.045822  1
  S  S90  1  0.976692  0.124066  0.454178  1
  S  S91  1  0.476692  0.375934  0.954178  1
  S  S92  1  0.256645  0.781399  0.118351  1
  S  S93  1  0.756645  0.718601  0.618351  1
  S  S94  1  0.743355  0.218601  0.881649  1
  S  S95  1  0.243355  0.281399  0.381649  1
  S  S96  1  0.062028  0.759100  0.289481  1
  S  S97  1  0.562028  0.740900  0.789481  1
  S  S98  1  0.937972  0.240900  0.710519  1
  S  S99  1  0.437972  0.259100  0.210519  1
  S  S100  1  0.031037  0.616923  0.042669  1
  S  S101  1  0.531037  0.883077  0.542669  1
  S  S102  1  0.968963  0.383077  0.957331  1
  S  S103  1  0.468963  0.116923  0.457331  1
  S  S104  1  0.009062  0.892561  0.041432  1
  S  S105  1  0.509062  0.607439  0.541432  1
  S  S106  1  0.990938  0.107439  0.958568  1
  S  S107  1  0.490938  0.392561  0.458568  1
  O  O108  1  0.374373  0.557379  0.265367  1
  O  O109  1  0.874373  0.942621  0.765367  1
  O  O110  1  0.625627  0.442621  0.734633  1
  O  O111  1  0.125627  0.057379  0.234633  1
  O  O112  1  0.383765  0.953078  0.275978  1
  O  O113  1  0.883765  0.546922  0.775978  1
  O  O114  1  0.616235  0.046922  0.724022  1
  O  O115  1  0.116235  0.453078  0.224022  1
  O  O116  1  0.283248  0.452977  0.077775  1
  O  O117  1  0.783248  0.047023  0.577775  1
  O  O118  1  0.716752  0.547023  0.922225  1
  O  O119  1  0.216752  0.952977  0.422225  1
  O  O120  1  0.284092  0.069443  0.095366  1
  O  O121  1  0.784092  0.430557  0.595366  1
  O  O122  1  0.715908  0.930557  0.904634  1
  O  O123  1  0.215908  0.569443  0.404634  1
  O  O124  1  0.400544  0.549699  0.787266  1
  O  O125  1  0.900544  0.950301  0.287266  1
  O  O126  1  0.599456  0.450301  0.212734  1
  O  O127  1  0.099456  0.049699  0.712734  1
  O  O128  1  0.326639  0.973145  0.714970  1
  O  O129  1  0.826639  0.526855  0.214970  1
  O  O130  1  0.673361  0.026855  0.285030  1
  O  O131  1  0.173361  0.473145  0.785030  1
  O  O132  1  0.358698  0.810014  0.896889  1
  O  O133  1  0.858698  0.689986  0.396889  1
  O  O134  1  0.641302  0.189986  0.103111  1
  O  O135  1  0.141302  0.310014  0.603111  1
