# generated using pymatgen
data_LiV4O5F7
_symmetry_space_group_name_H-M   'P 1'
_cell_length_a   5.37875225
_cell_length_b   9.12873762
_cell_length_c   9.09816681
_cell_angle_alpha   110.16530960
_cell_angle_beta   87.64552735
_cell_angle_gamma   91.99442722
_symmetry_Int_Tables_number   1
_chemical_formula_structural   LiV4O5F7
_chemical_formula_sum   'Li2 V8 O10 F14'
_cell_volume   418.89182560
_cell_formula_units_Z   2
loop_
 _symmetry_equiv_pos_site_id
 _symmetry_equiv_pos_as_xyz
  1  'x, y, z'
loop_
 _atom_site_type_symbol
 _atom_site_label
 _atom_site_symmetry_multiplicity
 _atom_site_fract_x
 _atom_site_fract_y
 _atom_site_fract_z
 _atom_site_occupancy
  Li  Li0  1  0.973974  0.130097  0.377884  1
  Li  Li1  1  0.512248  0.119906  0.885740  1
  V  V2  1  0.997680  0.505741  0.483325  1
  V  V3  1  0.029019  0.745132  0.240194  1
  V  V4  1  0.458272  0.251191  0.250096  1
  V  V5  1  0.022766  0.998741  0.019250  1
  V  V6  1  0.529040  0.744331  0.740106  1
  V  V7  1  0.959925  0.251053  0.749287  1
  V  V8  1  0.520229  0.998915  0.520446  1
  V  V9  1  0.497588  0.504843  0.982902  1
  O  O10  1  0.000061  0.930990  0.175585  1
  O  O11  1  0.280626  0.665270  0.128568  1
  O  O12  1  0.998732  0.584645  0.341055  1
  O  O13  1  0.307747  0.124952  0.067577  1
  O  O14  1  0.781323  0.665356  0.628653  1
  O  O15  1  0.200946  0.319320  0.372378  1
  O  O16  1  0.500158  0.930452  0.676255  1
  O  O17  1  0.806427  0.125084  0.568132  1
  O  O18  1  0.499211  0.584549  0.840983  1
  O  O19  1  0.702523  0.319578  0.872636  1
  F  F20  1  0.792616  0.625430  0.081990  1
  F  F21  1  0.797455  0.174808  0.127533  1
  F  F22  1  0.501037  0.421106  0.166993  1
  F  F23  1  0.710281  0.829030  0.372714  1
  F  F24  1  0.710165  0.361715  0.417410  1
  F  F25  1  0.201857  0.886108  0.422842  1
  F  F26  1  0.501682  0.075515  0.327380  1
  F  F27  1  0.293593  0.625049  0.581373  1
  F  F28  1  0.699214  0.887774  0.923024  1
  F  F29  1  0.296616  0.174696  0.627681  1
  F  F30  1  0.000992  0.421591  0.666476  1
  F  F31  1  0.209773  0.828128  0.871987  1
  F  F32  1  0.208094  0.363922  0.917851  1
  F  F33  1  0.993048  0.074890  0.828326  1
