# generated using pymatgen
data_Li2V2FeO6
_symmetry_space_group_name_H-M   'P 1'
_cell_length_a   4.97878110
_cell_length_b   5.13885861
_cell_length_c   10.12165788
_cell_angle_alpha   87.74283295
_cell_angle_beta   89.98223597
_cell_angle_gamma   119.05213342
_symmetry_Int_Tables_number   1
_chemical_formula_structural   Li2V2FeO6
_chemical_formula_sum   'Li4 V4 Fe2 O12'
_cell_volume   226.15006291
_cell_formula_units_Z   2
loop_
 _symmetry_equiv_pos_site_id
 _symmetry_equiv_pos_as_xyz
  1  'x, y, z'
loop_
 _atom_site_type_symbol
 _atom_site_label
 _atom_site_symmetry_multiplicity
 _atom_site_fract_x
 _atom_site_fract_y
 _atom_site_fract_z
 _atom_site_occupancy
  Li  Li0  1  0.807007  0.834014  0.749190  1
  Li  Li1  1  0.527117  0.833949  0.249224  1
  Li  Li2  1  0.471864  0.165524  0.750714  1
  Li  Li3  1  0.193847  0.165269  0.250624  1
  V  V4  1  0.843122  0.659651  0.490089  1
  V  V5  1  0.315989  0.659757  0.989973  1
  V  V6  1  0.679941  0.337873  0.010276  1
  V  V7  1  0.158777  0.336698  0.510469  1
  Fe  Fe8  1  0.500261  0.001171  0.500518  1
  Fe  Fe9  1  0.000718  0.000981  0.000055  1
  O  O10  1  0.008528  0.692616  0.892737  1
  O  O11  1  0.654454  0.668613  0.099646  1
  O  O12  1  0.804148  0.315974  0.606942  1
  O  O13  1  0.515681  0.669287  0.599389  1
  O  O14  1  0.495807  0.334173  0.398836  1
  O  O15  1  0.841337  0.011860  0.393908  1
  O  O16  1  0.181827  0.693543  0.392747  1
  O  O17  1  0.339619  0.333885  0.899418  1
  O  O18  1  0.671468  0.013078  0.893956  1
  O  O19  1  0.008706  0.313915  0.107614  1
  O  O20  1  0.323412  0.979786  0.106720  1
  O  O21  1  0.156388  0.978391  0.606965  1
