# generated using pymatgen
data_Li3Sb2(PO4)3
_symmetry_space_group_name_H-M   'P 1'
_cell_length_a   9.43026350
_cell_length_b   9.07988011
_cell_length_c   9.43026350
_cell_angle_alpha   123.00077810
_cell_angle_beta   121.08654273
_cell_angle_gamma   56.99922190
_symmetry_Int_Tables_number   1
_chemical_formula_structural   Li3Sb2(PO4)3
_chemical_formula_sum   'Li6 Sb4 P6 O24'
_cell_volume   539.52623399
_cell_formula_units_Z   2
loop_
 _symmetry_equiv_pos_site_id
 _symmetry_equiv_pos_as_xyz
  1  'x, y, z'
loop_
 _atom_site_type_symbol
 _atom_site_label
 _atom_site_symmetry_multiplicity
 _atom_site_fract_x
 _atom_site_fract_y
 _atom_site_fract_z
 _atom_site_occupancy
  Li  Li0  1  0.538227  0.927148  0.179697  1
  Li  Li1  1  0.882567  0.750000  0.882567  1
  Li  Li2  1  0.179697  0.572852  0.538227  1
  Li  Li3  1  0.820303  0.427148  0.461773  1
  Li  Li4  1  0.117433  0.250000  0.117433  1
  Li  Li5  1  0.461773  0.072852  0.820303  1
  Sb  Sb6  1  0.854378  0.947668  0.657685  1
  Sb  Sb7  1  0.657685  0.552332  0.854378  1
  Sb  Sb8  1  0.342315  0.447668  0.145622  1
  Sb  Sb9  1  0.145622  0.052332  0.342315  1
  P  P10  1  0.246107  0.779437  0.952273  1
  P  P11  1  0.583315  0.750000  0.583315  1
  P  P12  1  0.047727  0.279437  0.753893  1
  P  P13  1  0.952273  0.720563  0.246107  1
  P  P14  1  0.416685  0.250000  0.416685  1
  P  P15  1  0.753893  0.220563  0.047727  1
  O  O16  1  0.118486  0.753691  0.755369  1
  O  O17  1  0.012000  0.846417  0.244729  1
  O  O18  1  0.435842  0.936036  0.560900  1
  O  O19  1  0.436729  0.731770  0.961651  1
  O  O20  1  0.183828  0.989155  0.075242  1
  O  O21  1  0.599437  0.776168  0.772017  1
  O  O22  1  0.772017  0.723832  0.599437  1
  O  O23  1  0.075242  0.510845  0.183828  1
  O  O24  1  0.244631  0.253691  0.881514  1
  O  O25  1  0.961651  0.768230  0.436729  1
  O  O26  1  0.560900  0.563964  0.435842  1
  O  O27  1  0.244729  0.653583  0.012000  1
  O  O28  1  0.755271  0.346417  0.988000  1
  O  O29  1  0.439100  0.436036  0.564158  1
  O  O30  1  0.038349  0.231770  0.563271  1
  O  O31  1  0.755369  0.746309  0.118486  1
  O  O32  1  0.924758  0.489155  0.816172  1
  O  O33  1  0.227983  0.276168  0.400563  1
  O  O34  1  0.400563  0.223832  0.227983  1
  O  O35  1  0.816172  0.010845  0.924758  1
  O  O36  1  0.563271  0.268230  0.038349  1
  O  O37  1  0.564158  0.063964  0.439100  1
  O  O38  1  0.988000  0.153583  0.755271  1
  O  O39  1  0.881514  0.246309  0.244631  1
