# generated using pymatgen
data_Li5Co5(SnO6)2
_symmetry_space_group_name_H-M   'P 1'
_cell_length_a   5.27154366
_cell_length_b   5.27154403
_cell_length_c   10.05268045
_cell_angle_alpha   84.22104617
_cell_angle_beta   95.77894888
_cell_angle_gamma   59.18689784
_symmetry_Int_Tables_number   1
_chemical_formula_structural   Li5Co5(SnO6)2
_chemical_formula_sum   'Li5 Co5 Sn2 O12'
_cell_volume   234.88262951
_cell_formula_units_Z   1
loop_
 _symmetry_equiv_pos_site_id
 _symmetry_equiv_pos_as_xyz
  1  'x, y, z'
loop_
 _atom_site_type_symbol
 _atom_site_label
 _atom_site_symmetry_multiplicity
 _atom_site_fract_x
 _atom_site_fract_y
 _atom_site_fract_z
 _atom_site_occupancy
  Li  Li0  1  0.188021  0.682176  0.500789  1
  Li  Li1  1  0.329935  0.812653  0.993326  1
  Li  Li2  1  0.682176  0.188021  0.999211  1
  Li  Li3  1  0.812653  0.329935  0.506674  1
  Li  Li4  1  0.914214  0.914214  0.750000  1
  Co  Co5  1  0.084144  0.084144  0.250000  1
  Co  Co6  1  0.000486  0.503451  0.996632  1
  Co  Co7  1  0.503451  0.000486  0.503368  1
  Co  Co8  1  0.417565  0.417565  0.250000  1
  Co  Co9  1  0.581274  0.581274  0.750000  1
  Sn  Sn10  1  0.250758  0.250758  0.750000  1
  Sn  Sn11  1  0.751005  0.751005  0.250000  1
  O  O12  1  0.945462  0.238229  0.866782  1
  O  O13  1  0.238229  0.945462  0.633218  1
  O  O14  1  0.128603  0.373505  0.373598  1
  O  O15  1  0.373505  0.128603  0.126402  1
  O  O16  1  0.312907  0.527758  0.865332  1
  O  O17  1  0.527758  0.312907  0.634668  1
  O  O18  1  0.464051  0.713416  0.368704  1
  O  O19  1  0.713416  0.464051  0.131296  1
  O  O20  1  0.616677  0.845068  0.863536  1
  O  O21  1  0.845068  0.616677  0.636464  1
  O  O22  1  0.787630  0.031011  0.374202  1
  O  O23  1  0.031011  0.787630  0.125798  1
