# generated using pymatgen
data_NdTe3
_symmetry_space_group_name_H-M   'P 1'
_cell_length_a   4.39084245
_cell_length_b   4.39607127
_cell_length_c   13.93117419
_cell_angle_alpha   90.00000000
_cell_angle_beta   99.06706995
_cell_angle_gamma   90.00000000
_symmetry_Int_Tables_number   1
_chemical_formula_structural   NdTe3
_chemical_formula_sum   'Nd2 Te6'
_cell_volume   265.54577952
_cell_formula_units_Z   2
loop_
 _symmetry_equiv_pos_site_id
 _symmetry_equiv_pos_as_xyz
  1  'x, y, z'
loop_
 _atom_site_type_symbol
 _atom_site_label
 _atom_site_symmetry_multiplicity
 _atom_site_fract_x
 _atom_site_fract_y
 _atom_site_fract_z
 _atom_site_occupancy
  Te  Te0  1  0.707240  0.750000  0.414480  1
  Te  Te1  1  0.292760  0.250000  0.585520  1
  Te  Te2  1  0.921446  0.250000  0.842892  1
  Te  Te3  1  0.078554  0.750000  0.157108  1
  Te  Te4  1  0.578485  0.250000  0.156971  1
  Te  Te5  1  0.421515  0.750000  0.843029  1
  Nd  Nd6  1  0.827932  0.750000  0.655864  1
  Nd  Nd7  1  0.172068  0.250000  0.344136  1
