# generated using pymatgen
data_Li24Mn7Cr5O36
_symmetry_space_group_name_H-M   'P 1'
_cell_length_a   5.00763263
_cell_length_b   13.28117125
_cell_length_c   9.74763168
_cell_angle_alpha   97.02125650
_cell_angle_beta   94.65586701
_cell_angle_gamma   100.37961548
_symmetry_Int_Tables_number   1
_chemical_formula_structural   Li24Mn7Cr5O36
_chemical_formula_sum   'Li24 Mn7 Cr5 O36'
_cell_volume   629.35138763
_cell_formula_units_Z   1
loop_
 _symmetry_equiv_pos_site_id
 _symmetry_equiv_pos_as_xyz
  1  'x, y, z'
loop_
 _atom_site_type_symbol
 _atom_site_label
 _atom_site_symmetry_multiplicity
 _atom_site_fract_x
 _atom_site_fract_y
 _atom_site_fract_z
 _atom_site_occupancy
  Li  Li0  1  0.833027  0.166779  0.999897  1
  Li  Li1  1  0.949627  0.387101  0.999738  1
  Li  Li2  1  0.000740  0.749565  0.250459  1
  Li  Li3  1  0.669271  0.082263  0.249576  1
  Li  Li4  1  0.952323  0.886600  0.499489  1
  Li  Li5  1  0.618972  0.221868  0.499835  1
  Li  Li6  1  0.834060  0.666056  0.499645  1
  Li  Li7  1  0.500657  0.999804  0.499875  1
  Li  Li8  1  0.711536  0.446545  0.499769  1
  Li  Li9  1  0.668702  0.582362  0.749412  1
  Li  Li10  1  0.501679  0.499805  0.999987  1
  Li  Li11  1  0.720619  0.947449  0.001601  1
  Li  Li12  1  0.381633  0.281911  0.001419  1
  Li  Li13  1  0.620233  0.720270  0.001778  1
  Li  Li14  1  0.278091  0.051674  0.997820  1
  Li  Li15  1  0.337399  0.415852  0.249813  1
  Li  Li16  1  0.286266  0.555400  0.501205  1
  Li  Li17  1  0.168519  0.333386  0.499575  1
  Li  Li18  1  0.375944  0.776909  0.496722  1
  Li  Li19  1  0.048882  0.113498  0.501832  1
  Li  Li20  1  0.331635  0.917156  0.750890  1
  Li  Li21  1  0.167495  0.833269  0.000494  1
  Li  Li22  1  0.002508  0.249491  0.749545  1
  Li  Li23  1  0.044441  0.613159  0.998576  1
  Mn  Mn24  1  0.891685  0.028488  0.751542  1
  Mn  Mn25  1  0.776321  0.306047  0.249748  1
  Mn  Mn26  1  0.441852  0.137961  0.748254  1
  Mn  Mn27  1  0.555844  0.861024  0.250315  1
  Mn  Mn28  1  0.446698  0.640469  0.251521  1
  Mn  Mn29  1  0.109567  0.472799  0.750069  1
  Mn  Mn30  1  0.107629  0.971075  0.248821  1
  Cr  Cr31  1  0.896753  0.526991  0.249451  1
  Cr  Cr32  1  0.774252  0.807950  0.752153  1
  Cr  Cr33  1  0.561032  0.359589  0.750084  1
  Cr  Cr34  1  0.227247  0.192537  0.250213  1
  Cr  Cr35  1  0.225746  0.692833  0.748005  1
  O  O36  1  0.996374  0.068457  0.136957  1
  O  O37  1  0.929966  0.215507  0.363546  1
  O  O38  1  0.995448  0.568894  0.636479  1
  O  O39  1  0.854093  0.357911  0.639180  1
  O  O40  1  0.736671  0.118475  0.636277  1
  O  O41  1  0.663733  0.402479  0.136254  1
  O  O42  1  0.931048  0.716536  0.864471  1
  O  O43  1  0.813798  0.477728  0.863000  1
  O  O44  1  0.596741  0.047989  0.863449  1
  O  O45  1  0.856832  0.856529  0.138831  1
  O  O46  1  0.735099  0.617897  0.136095  1
  O  O47  1  0.520037  0.191131  0.138734  1
  O  O48  1  0.660559  0.261607  0.860886  1
  O  O49  1  0.808633  0.975878  0.361823  1
  O  O50  1  0.596892  0.549293  0.363332  1
  O  O51  1  0.481414  0.311343  0.363323  1
  O  O52  1  0.668316  0.762588  0.361929  1
  O  O53  1  0.327587  0.094998  0.361261  1
  O  O54  1  0.672254  0.905073  0.639356  1
  O  O55  1  0.330595  0.235363  0.636603  1
  O  O56  1  0.517186  0.690713  0.637792  1
  O  O57  1  0.401429  0.451080  0.636523  1
  O  O58  1  0.190954  0.023000  0.638600  1
  O  O59  1  0.334591  0.738881  0.138590  1
  O  O60  1  0.483611  0.809714  0.862699  1
  O  O61  1  0.263109  0.382174  0.863639  1
  O  O62  1  0.142815  0.143472  0.861254  1
  O  O63  1  0.403047  0.951702  0.136747  1
  O  O64  1  0.189411  0.526036  0.138622  1
  O  O65  1  0.068035  0.284397  0.136141  1
  O  O66  1  0.329201  0.595982  0.860928  1
  O  O67  1  0.263761  0.881510  0.364104  1
  O  O68  1  0.149504  0.644830  0.363187  1
  O  O69  1  0.995473  0.429423  0.360718  1
  O  O70  1  0.068234  0.783903  0.636044  1
  O  O71  1  0.004663  0.931569  0.863500  1
