# generated using pymatgen
data_Fe3(OF)2
_symmetry_space_group_name_H-M   'P 1'
_cell_length_a   8.66004813
_cell_length_b   6.41603593
_cell_length_c   6.46202625
_cell_angle_alpha   90.00064999
_cell_angle_beta   90.00557630
_cell_angle_gamma   89.96551212
_symmetry_Int_Tables_number   1
_chemical_formula_structural   Fe3(OF)2
_chemical_formula_sum   'Fe12 O8 F8'
_cell_volume   359.05066053
_cell_formula_units_Z   4
loop_
 _symmetry_equiv_pos_site_id
 _symmetry_equiv_pos_as_xyz
  1  'x, y, z'
loop_
 _atom_site_type_symbol
 _atom_site_label
 _atom_site_symmetry_multiplicity
 _atom_site_fract_x
 _atom_site_fract_y
 _atom_site_fract_z
 _atom_site_occupancy
  Fe  Fe0  1  0.183061  0.250054  0.499993  1
  Fe  Fe1  1  0.183161  0.250060  0.000008  1
  Fe  Fe2  1  0.220391  0.750049  0.750021  1
  Fe  Fe3  1  0.220319  0.750205  0.249997  1
  Fe  Fe4  1  0.500034  0.000012  0.500026  1
  Fe  Fe5  1  0.499934  0.499995  0.499991  1
  Fe  Fe6  1  0.500095  0.000014  0.999983  1
  Fe  Fe7  1  0.499974  0.499996  0.000025  1
  Fe  Fe8  1  0.779638  0.249958  0.250030  1
  Fe  Fe9  1  0.779641  0.249932  0.750002  1
  Fe  Fe10  1  0.816918  0.749922  -0.000003  1
  Fe  Fe11  1  0.816865  0.749924  0.499997  1
  O  O12  1  0.271296  0.532279  0.000410  1
  O  O13  1  0.271455  0.967775  0.999571  1
  O  O14  1  0.271372  0.967831  0.500417  1
  O  O15  1  0.271212  0.532238  0.499613  1
  O  O16  1  0.728657  0.032236  0.499515  1
  O  O17  1  0.728690  0.032190  0.000454  1
  O  O18  1  0.728641  0.467751  0.500466  1
  O  O19  1  0.728683  0.467764  0.999558  1
  F  F20  1  0.019641  0.257632  0.249890  1
  F  F21  1  0.019650  0.242439  0.750046  1
  F  F22  1  0.490404  0.250105  0.749986  1
  F  F23  1  0.490356  0.249877  0.250018  1
  F  F24  1  0.509614  0.749903  0.250028  1
  F  F25  1  0.509632  0.750109  0.749978  1
  F  F26  1  0.980363  0.757387  0.250027  1
  F  F27  1  0.980303  0.742361  0.749956  1
