# generated using pymatgen
data_Li3VCr(P2O7)2
_symmetry_space_group_name_H-M   'P 1'
_cell_length_a   5.00027632
_cell_length_b   7.06173723
_cell_length_c   8.31591310
_cell_angle_alpha   89.61767355
_cell_angle_beta   90.41186835
_cell_angle_gamma   71.20825183
_symmetry_Int_Tables_number   1
_chemical_formula_structural   Li3VCr(P2O7)2
_chemical_formula_sum   'Li3 V1 Cr1 P4 O14'
_cell_volume   277.96818404
_cell_formula_units_Z   1
loop_
 _symmetry_equiv_pos_site_id
 _symmetry_equiv_pos_as_xyz
  1  'x, y, z'
loop_
 _atom_site_type_symbol
 _atom_site_label
 _atom_site_symmetry_multiplicity
 _atom_site_fract_x
 _atom_site_fract_y
 _atom_site_fract_z
 _atom_site_occupancy
  Li  Li0  1  0.173999  0.341749  0.858556  1
  Li  Li1  1  0.724290  0.091803  0.662500  1
  Li  Li2  1  0.824560  0.663863  0.353001  1
  V  V3  1  0.207078  0.275914  0.494033  1
  Cr  Cr4  1  0.786200  0.725297  0.004939  1
  P  P5  1  0.396103  0.479555  0.179428  1
  P  P6  1  0.213400  0.909497  0.793153  1
  P  P7  1  0.782916  0.083932  0.281902  1
  P  P8  1  0.606939  0.523309  0.683744  1
  O  O9  1  0.040930  0.144660  0.309785  1
  O  O10  1  0.130677  0.109084  0.699998  1
  O  O11  1  0.189331  0.526699  0.034652  1
  O  O12  1  0.242762  0.506313  0.339325  1
  O  O13  1  0.444299  0.371871  0.689133  1
  O  O14  1  0.621916  0.075974  0.438632  1
  O  O15  1  0.570687  0.244852  0.156735  1
  O  O16  1  0.381455  0.745086  0.663081  1
  O  O17  1  0.402945  0.908300  0.936351  1
  O  O18  1  0.609110  0.595548  0.174402  1
  O  O19  1  0.765922  0.515826  0.844136  1
  O  O20  1  0.800076  0.499067  0.539730  1
  O  O21  1  0.846581  0.883500  0.193438  1
  O  O22  1  0.932209  0.873396  0.830452  1
