# generated using pymatgen
data_ThV2O7
_symmetry_space_group_name_H-M   'P 1'
_cell_length_a   7.18152940
_cell_length_b   7.35575665
_cell_length_c   23.60682287
_cell_angle_alpha   89.99976786
_cell_angle_beta   90.00104743
_cell_angle_gamma   89.99721666
_symmetry_Int_Tables_number   1
_chemical_formula_structural   ThV2O7
_chemical_formula_sum   'Th8 V16 O56'
_cell_volume   1247.04417158
_cell_formula_units_Z   8
loop_
 _symmetry_equiv_pos_site_id
 _symmetry_equiv_pos_as_xyz
  1  'x, y, z'
loop_
 _atom_site_type_symbol
 _atom_site_label
 _atom_site_symmetry_multiplicity
 _atom_site_fract_x
 _atom_site_fract_y
 _atom_site_fract_z
 _atom_site_occupancy
  Th  Th0  1  0.640325  0.742325  0.644732  1
  Th  Th1  1  0.359662  0.257680  0.644736  1
  Th  Th2  1  0.140302  0.757683  0.855281  1
  Th  Th3  1  0.859683  0.242314  0.144709  1
  Th  Th4  1  0.640333  0.742310  0.355265  1
  Th  Th5  1  0.359684  0.257691  0.355266  1
  Th  Th6  1  0.140317  0.757699  0.144717  1
  Th  Th7  1  0.859684  0.242314  0.855291  1
  V  V8  1  0.117973  0.315794  -0.000003  1
  V  V9  1  0.382039  0.815806  0.500009  1
  V  V10  1  0.815317  0.245340  0.313536  1
  V  V11  1  0.815271  0.245368  0.686460  1
  V  V12  1  0.184710  0.754643  0.686452  1
  V  V13  1  0.130584  0.172112  0.500007  1
  V  V14  1  0.882021  0.684209  0.999992  1
  V  V15  1  0.315275  0.254640  0.813569  1
  V  V16  1  0.684680  0.745353  0.186433  1
  V  V17  1  0.369423  0.672128  0.999986  1
  V  V18  1  0.184688  0.754653  0.313541  1
  V  V19  1  0.617984  0.184182  0.500006  1
  V  V20  1  0.684707  0.745351  0.813572  1
  V  V21  1  0.315319  0.254657  0.186433  1
  V  V22  1  0.630587  0.327854  0.999994  1
  V  V23  1  0.869420  0.827874  0.500013  1
  O  O24  1  0.671410  0.067006  0.660840  1
  O  O25  1  0.176032  0.067591  0.164788  1
  O  O26  1  0.828569  0.567002  0.839211  1
  O  O27  1  0.034648  0.241045  0.659213  1
  O  O28  1  0.932083  0.797845  0.060208  1
  O  O29  1  0.328535  0.933016  0.339163  1
  O  O30  1  0.830236  0.703262  0.441434  1
  O  O31  1  0.824005  0.932419  0.835214  1
  O  O32  1  0.328580  0.932994  0.660829  1
  O  O33  1  0.676017  0.432398  0.335197  1
  O  O34  1  0.876333  0.115691  0.500002  1
  O  O35  1  0.567921  0.297813  0.439789  1
  O  O36  1  0.159935  0.753147  0.240764  1
  O  O37  1  0.965305  0.758947  0.340792  1
  O  O38  1  0.159989  0.753142  0.759226  1
  O  O39  1  0.671471  0.066979  0.339161  1
  O  O40  1  0.840064  0.246841  0.240762  1
  O  O41  1  0.171421  0.432994  0.839206  1
  O  O42  1  0.871733  0.423423  0.999988  1
  O  O43  1  0.123678  0.884292  0.500010  1
  O  O44  1  0.330263  0.796835  0.941436  1
  O  O45  1  0.376339  0.384295  0.000006  1
  O  O46  1  0.330225  0.796805  0.058551  1
  O  O47  1  0.171484  0.433024  0.160798  1
  O  O48  1  0.534667  0.258932  0.840809  1
  O  O49  1  0.828521  0.566993  0.160797  1
  O  O50  1  0.534692  0.258931  0.159181  1
  O  O51  1  0.169739  0.296768  0.558576  1
  O  O52  1  0.659947  0.746809  0.259212  1
  O  O53  1  0.830266  0.703194  0.558576  1
  O  O54  1  0.067921  0.202168  0.060220  1
  O  O55  1  0.340066  0.253206  0.259210  1
  O  O56  1  0.660013  0.746791  0.740794  1
  O  O57  1  0.169759  0.296751  0.441435  1
  O  O58  1  0.669755  0.203187  0.941429  1
  O  O59  1  0.323994  0.567598  0.335200  1
  O  O60  1  0.324017  0.567591  0.664793  1
  O  O61  1  0.623671  0.615711  0.999996  1
  O  O62  1  0.669790  0.203174  0.058560  1
  O  O63  1  0.839993  0.246885  0.759235  1
  O  O64  1  0.965323  0.758973  0.659204  1
  O  O65  1  0.465300  0.741096  0.159184  1
  O  O66  1  0.339976  0.253182  0.740790  1
  O  O67  1  0.823986  0.932414  0.164787  1
  O  O68  1  0.432110  0.702181  0.439790  1
  O  O69  1  0.932053  0.797917  0.939796  1
  O  O70  1  0.175967  0.067584  0.835217  1
  O  O71  1  0.675953  0.432419  0.664795  1
  O  O72  1  0.465334  0.741069  0.840810  1
  O  O73  1  0.432081  0.702117  0.560212  1
  O  O74  1  0.567931  0.297866  0.560205  1
  O  O75  1  0.371738  0.076571  0.500012  1
  O  O76  1  0.067941  0.202105  0.939794  1
  O  O77  1  0.628269  0.923419  0.500037  1
  O  O78  1  0.128261  0.576575  0.999967  1
  O  O79  1  0.034701  0.241041  0.340790  1
