# generated using pymatgen
data_Co6O5F7
_symmetry_space_group_name_H-M   'P 1'
_cell_length_a   4.64046213
_cell_length_b   4.65976213
_cell_length_c   9.17507796
_cell_angle_alpha   90.00000000
_cell_angle_beta   90.00000000
_cell_angle_gamma   93.87447717
_symmetry_Int_Tables_number   1
_chemical_formula_structural   Co6O5F7
_chemical_formula_sum   'Co6 O5 F7'
_cell_volume   197.94339627
_cell_formula_units_Z   1
loop_
 _symmetry_equiv_pos_site_id
 _symmetry_equiv_pos_as_xyz
  1  'x, y, z'
loop_
 _atom_site_type_symbol
 _atom_site_label
 _atom_site_symmetry_multiplicity
 _atom_site_fract_x
 _atom_site_fract_y
 _atom_site_fract_z
 _atom_site_occupancy
  Co  Co0  1  0.989986  0.989800  0.000000  1
  Co  Co1  1  0.033660  0.014544  0.339935  1
  Co  Co2  1  0.033660  0.014544  0.660065  1
  Co  Co3  1  0.494972  0.487634  0.158190  1
  Co  Co4  1  0.494972  0.487634  0.841810  1
  Co  Co5  1  0.456083  0.506444  0.500000  1
  O  O6  1  0.191323  0.816866  0.500000  1
  O  O7  1  0.306346  0.309315  0.321693  1
  O  O8  1  0.306817  0.299611  0.000000  1
  O  O9  1  0.306346  0.309315  0.678307  1
  O  O10  1  0.684377  0.671999  0.000000  1
  F  F11  1  0.194673  0.798458  0.168517  1
  F  F12  1  0.194673  0.798458  0.831483  1
  F  F13  1  0.701563  0.706800  0.676935  1
  F  F14  1  0.701563  0.706800  0.323065  1
  F  F15  1  0.804421  0.188397  0.170549  1
  F  F16  1  0.804421  0.188397  0.829452  1
  F  F17  1  0.800144  0.204985  0.500000  1
