# generated using pymatgen
data_Li2Mn2(PO4)3
_symmetry_space_group_name_H-M   'P 1'
_cell_length_a   9.12565147
_cell_length_b   8.31778699
_cell_length_c   8.25233188
_cell_angle_alpha   60.97370828
_cell_angle_beta   61.69517077
_cell_angle_gamma   91.91344446
_symmetry_Int_Tables_number   1
_chemical_formula_structural   Li2Mn2(PO4)3
_chemical_formula_sum   'Li4 Mn4 P6 O24'
_cell_volume   453.11434261
_cell_formula_units_Z   2
loop_
 _symmetry_equiv_pos_site_id
 _symmetry_equiv_pos_as_xyz
  1  'x, y, z'
loop_
 _atom_site_type_symbol
 _atom_site_label
 _atom_site_symmetry_multiplicity
 _atom_site_fract_x
 _atom_site_fract_y
 _atom_site_fract_z
 _atom_site_occupancy
  Li  Li0  1  0.861017  0.256580  0.820958  1
  Li  Li1  1  0.872166  0.933167  0.389517  1
  Li  Li2  1  0.127834  0.066833  0.610483  1
  Li  Li3  1  0.138983  0.743420  0.179042  1
  Mn  Mn4  1  0.956868  0.648423  0.700369  1
  Mn  Mn5  1  0.433115  0.148192  0.712119  1
  Mn  Mn6  1  0.566885  0.851808  0.287881  1
  Mn  Mn7  1  0.043132  0.351577  0.299631  1
  P  P8  1  0.747101  0.951089  0.792050  1
  P  P9  1  0.757508  0.535361  0.504574  1
  P  P10  1  0.748130  0.253557  0.215411  1
  P  P11  1  0.251870  0.746443  0.784589  1
  P  P12  1  0.242492  0.464639  0.495426  1
  P  P13  1  0.252899  0.048911  0.207950  1
  O  O14  1  0.906157  0.158997  0.627739  1
  O  O15  1  0.802745  0.493574  0.679959  1
  O  O16  1  0.813793  0.823239  0.702386  1
  O  O17  1  0.914226  0.530115  0.310524  1
  O  O18  1  0.888967  0.210308  0.276436  1
  O  O19  1  0.753200  0.742105  0.389235  1
  O  O20  1  0.582161  0.975023  0.800733  1
  O  O21  1  0.582319  0.380958  0.626900  1
  O  O22  1  0.806811  0.467494  0.022532  1
  O  O23  1  0.737781  0.113973  0.143952  1
  O  O24  1  0.568668  0.204701  0.415785  1
  O  O25  1  0.735052  0.875979  0.010896  1
  O  O26  1  0.264948  0.124021  0.989104  1
  O  O27  1  0.431332  0.795299  0.584215  1
  O  O28  1  0.262219  0.886027  0.856048  1
  O  O29  1  0.193189  0.532506  0.977468  1
  O  O30  1  0.417681  0.619042  0.373100  1
  O  O31  1  0.417839  0.024977  0.199267  1
  O  O32  1  0.246800  0.257895  0.610765  1
  O  O33  1  0.111033  0.789692  0.723564  1
  O  O34  1  0.085774  0.469885  0.689476  1
  O  O35  1  0.186207  0.176761  0.297614  1
  O  O36  1  0.197255  0.506426  0.320041  1
  O  O37  1  0.093843  0.841003  0.372261  1
