# generated using pymatgen
data_Li4Cr2Si4O13
_symmetry_space_group_name_H-M   'P 1'
_cell_length_a   13.71204877
_cell_length_b   5.00001534
_cell_length_c   14.06537844
_cell_angle_alpha   90.00000000
_cell_angle_beta   90.00000000
_cell_angle_gamma   90.00000000
_symmetry_Int_Tables_number   1
_chemical_formula_structural   Li4Cr2Si4O13
_chemical_formula_sum   'Li16 Cr8 Si16 O52'
_cell_volume   964.32873424
_cell_formula_units_Z   4
loop_
 _symmetry_equiv_pos_site_id
 _symmetry_equiv_pos_as_xyz
  1  'x, y, z'
loop_
 _atom_site_type_symbol
 _atom_site_label
 _atom_site_symmetry_multiplicity
 _atom_site_fract_x
 _atom_site_fract_y
 _atom_site_fract_z
 _atom_site_occupancy
  Li  Li0  1  0.042170  0.174979  0.221228  1
  Li  Li1  1  0.109287  0.661362  0.920912  1
  Li  Li2  1  0.134047  0.647145  0.109355  1
  Li  Li3  1  0.210609  0.251201  0.837759  1
  Li  Li4  1  0.289391  0.751201  0.337759  1
  Li  Li5  1  0.365953  0.147145  0.609355  1
  Li  Li6  1  0.390713  0.161362  0.420912  1
  Li  Li7  1  0.457830  0.674979  0.721228  1
  Li  Li8  1  0.542170  0.325021  0.221228  1
  Li  Li9  1  0.609287  0.838638  0.920912  1
  Li  Li10  1  0.634047  0.852855  0.109355  1
  Li  Li11  1  0.710609  0.248799  0.837759  1
  Li  Li12  1  0.789391  0.748799  0.337759  1
  Li  Li13  1  0.865953  0.352855  0.609355  1
  Li  Li14  1  0.890713  0.338638  0.420912  1
  Li  Li15  1  0.957830  0.825021  0.721228  1
  Cr  Cr16  1  0.079516  0.357366  0.625951  1
  Cr  Cr17  1  0.171132  0.178803  0.422227  1
  Cr  Cr18  1  0.328868  0.678803  0.922227  1
  Cr  Cr19  1  0.420484  0.857366  0.125951  1
  Cr  Cr20  1  0.579515  0.142634  0.625951  1
  Cr  Cr21  1  0.671132  0.321197  0.422227  1
  Cr  Cr22  1  0.828868  0.821197  0.922227  1
  Cr  Cr23  1  0.920485  0.642634  0.125951  1
  Si  Si24  1  0.020838  0.152362  0.000876  1
  Si  Si25  1  0.060869  0.684451  0.317015  1
  Si  Si26  1  0.189697  0.847662  0.729009  1
  Si  Si27  1  0.226930  0.171906  0.045927  1
  Si  Si28  1  0.273070  0.671906  0.545927  1
  Si  Si29  1  0.310303  0.347662  0.229009  1
  Si  Si30  1  0.439131  0.184451  0.817015  1
  Si  Si31  1  0.479162  0.652362  0.500876  1
  Si  Si32  1  0.520838  0.347638  0.000876  1
  Si  Si33  1  0.560869  0.815549  0.317015  1
  Si  Si34  1  0.689697  0.652338  0.729009  1
  Si  Si35  1  0.726930  0.328094  0.045927  1
  Si  Si36  1  0.773070  0.828094  0.545927  1
  Si  Si37  1  0.810303  0.152338  0.229009  1
  Si  Si38  1  0.939131  0.315549  0.817015  1
  Si  Si39  1  0.979162  0.847638  0.500876  1
  O  O40  1  0.025088  0.429020  0.059362  1
  O  O41  1  0.033958  0.766628  0.207086  1
  O  O42  1  0.033445  0.219660  0.886115  1
  O  O43  1  0.067053  0.058689  0.520652  1
  O  O44  1  0.074962  0.366600  0.337679  1
  O  O45  1  0.092523  0.674398  0.707303  1
  O  O46  1  0.125547  0.988329  0.024967  1
  O  O47  1  0.156034  0.858791  0.344510  1
  O  O48  1  0.176533  0.164307  0.705853  1
  O  O49  1  0.181324  0.474886  0.525403  1
  O  O50  1  0.216892  0.244199  0.160373  1
  O  O51  1  0.217278  0.820293  0.842167  1
  O  O52  1  0.219021  0.447800  0.985134  1
  O  O53  1  0.280979  0.947800  0.485134  1
  O  O54  1  0.282722  0.320293  0.342167  1
  O  O55  1  0.283108  0.744199  0.660373  1
  O  O56  1  0.318676  0.974886  0.025403  1
  O  O57  1  0.323467  0.664307  0.205853  1
  O  O58  1  0.343966  0.358791  0.844510  1
  O  O59  1  0.374453  0.488329  0.524967  1
  O  O60  1  0.407477  0.174398  0.207303  1
  O  O61  1  0.425038  0.866600  0.837679  1
  O  O62  1  0.432947  0.558689  0.020652  1
  O  O63  1  0.466555  0.719660  0.386115  1
  O  O64  1  0.466042  0.266628  0.707086  1
  O  O65  1  0.474912  0.929020  0.559362  1
  O  O66  1  0.525088  0.070980  0.059362  1
  O  O67  1  0.533958  0.733372  0.207086  1
  O  O68  1  0.533445  0.280340  0.886115  1
  O  O69  1  0.567053  0.441311  0.520652  1
  O  O70  1  0.574962  0.133400  0.337679  1
  O  O71  1  0.592523  0.825602  0.707303  1
  O  O72  1  0.625547  0.511671  0.024967  1
  O  O73  1  0.656034  0.641209  0.344510  1
  O  O74  1  0.676533  0.335693  0.705853  1
  O  O75  1  0.681324  0.025114  0.525403  1
  O  O76  1  0.716892  0.255801  0.160373  1
  O  O77  1  0.717278  0.679707  0.842167  1
  O  O78  1  0.719021  0.052200  0.985134  1
  O  O79  1  0.780979  0.552200  0.485134  1
  O  O80  1  0.782722  0.179707  0.342167  1
  O  O81  1  0.783108  0.755801  0.660373  1
  O  O82  1  0.818676  0.525114  0.025403  1
  O  O83  1  0.823467  0.835693  0.205853  1
  O  O84  1  0.843966  0.141209  0.844510  1
  O  O85  1  0.874453  0.011671  0.524967  1
  O  O86  1  0.907477  0.325602  0.207303  1
  O  O87  1  0.925038  0.633400  0.837679  1
  O  O88  1  0.932947  0.941311  0.020652  1
  O  O89  1  0.966555  0.780340  0.386115  1
  O  O90  1  0.966042  0.233372  0.707086  1
  O  O91  1  0.974912  0.570980  0.559362  1
