# generated using pymatgen
data_AlP3(HO5)2
_symmetry_space_group_name_H-M   'P 1'
_cell_length_a   7.33273427
_cell_length_b   8.62467365
_cell_length_c   11.80161071
_cell_angle_alpha   90.00000000
_cell_angle_beta   102.30484448
_cell_angle_gamma   90.00000000
_symmetry_Int_Tables_number   1
_chemical_formula_structural   AlP3(HO5)2
_chemical_formula_sum   'Al4 P12 H8 O40'
_cell_volume   729.21688519
_cell_formula_units_Z   4
loop_
 _symmetry_equiv_pos_site_id
 _symmetry_equiv_pos_as_xyz
  1  'x, y, z'
loop_
 _atom_site_type_symbol
 _atom_site_label
 _atom_site_symmetry_multiplicity
 _atom_site_fract_x
 _atom_site_fract_y
 _atom_site_fract_z
 _atom_site_occupancy
  Al  Al0  1  0.036166  0.571390  0.296085  1
  Al  Al1  1  0.536166  0.928610  0.796085  1
  Al  Al2  1  0.963834  0.428610  0.703915  1
  Al  Al3  1  0.463834  0.071390  0.203915  1
  P  P4  1  0.279059  0.394185  0.139421  1
  P  P5  1  0.779059  0.105815  0.639421  1
  P  P6  1  0.720941  0.605815  0.860579  1
  P  P7  1  0.220941  0.894185  0.360579  1
  P  P8  1  0.649956  0.390388  0.293090  1
  P  P9  1  0.149956  0.109612  0.793090  1
  P  P10  1  0.350044  0.609612  0.706910  1
  P  P11  1  0.850044  0.890388  0.206910  1
  P  P12  1  0.768720  0.617320  0.479885  1
  P  P13  1  0.268720  0.882680  0.979885  1
  P  P14  1  0.231280  0.382680  0.520115  1
  P  P15  1  0.731280  0.117320  0.020115  1
  H  H16  1  0.207107  0.368455  0.947227  1
  H  H17  1  0.707107  0.131545  0.447227  1
  H  H18  1  0.792893  0.631545  0.052773  1
  H  H19  1  0.292893  0.868455  0.552773  1
  H  H20  1  0.629657  0.827725  0.407276  1
  H  H21  1  0.129657  0.672275  0.907276  1
  H  H22  1  0.370343  0.172275  0.592724  1
  H  H23  1  0.870343  0.327725  0.092724  1
  O  O24  1  0.478235  0.467477  0.205431  1
  O  O25  1  0.978235  0.032523  0.705431  1
  O  O26  1  0.521765  0.532523  0.794569  1
  O  O27  1  0.021765  0.967477  0.294569  1
  O  O28  1  0.290159  0.427026  0.010479  1
  O  O29  1  0.790159  0.072974  0.510479  1
  O  O30  1  0.709841  0.572974  0.989521  1
  O  O31  1  0.209841  0.927026  0.489521  1
  O  O32  1  0.648231  0.472597  0.413625  1
  O  O33  1  0.148231  0.027403  0.913625  1
  O  O34  1  0.351769  0.527403  0.586375  1
  O  O35  1  0.851769  0.972597  0.086375  1
  O  O36  1  0.125167  0.489486  0.171387  1
  O  O37  1  0.625167  0.010514  0.671387  1
  O  O38  1  0.874833  0.510514  0.828613  1
  O  O39  1  0.374833  0.989486  0.328613  1
  O  O40  1  0.278870  0.224027  0.169182  1
  O  O41  1  0.778870  0.275973  0.669182  1
  O  O42  1  0.721130  0.775973  0.830818  1
  O  O43  1  0.221130  0.724027  0.330818  1
  O  O44  1  0.922805  0.651517  0.416598  1
  O  O45  1  0.422805  0.848483  0.916598  1
  O  O46  1  0.077195  0.348483  0.583402  1
  O  O47  1  0.577195  0.151517  0.083402  1
  O  O48  1  0.612498  0.220284  0.310497  1
  O  O49  1  0.112498  0.279716  0.810497  1
  O  O50  1  0.387502  0.779716  0.689503  1
  O  O51  1  0.887502  0.720284  0.189503  1
  O  O52  1  0.827080  0.428869  0.253272  1
  O  O53  1  0.327080  0.071131  0.753272  1
  O  O54  1  0.172920  0.571131  0.746728  1
  O  O55  1  0.672920  0.928869  0.246728  1
  O  O56  1  0.820973  0.572127  0.605414  1
  O  O57  1  0.320973  0.927873  0.105414  1
  O  O58  1  0.179027  0.427873  0.394586  1
  O  O59  1  0.679027  0.072127  0.894586  1
  O  O60  1  0.629155  0.756095  0.472293  1
  O  O61  1  0.129155  0.743905  0.972293  1
  O  O62  1  0.370845  0.243905  0.527707  1
  O  O63  1  0.870845  0.256095  0.027707  1
