# generated using pymatgen
data_LiFeSiO4
_symmetry_space_group_name_H-M   'P 1'
_cell_length_a   10.95667182
_cell_length_b   10.95667186
_cell_length_c   11.66484376
_cell_angle_alpha   90.00000000
_cell_angle_beta   90.00000000
_cell_angle_gamma   119.99999989
_symmetry_Int_Tables_number   1
_chemical_formula_structural   LiFeSiO4
_chemical_formula_sum   'Li12 Fe12 Si12 O48'
_cell_volume   1212.73766802
_cell_formula_units_Z   12
loop_
 _symmetry_equiv_pos_site_id
 _symmetry_equiv_pos_as_xyz
  1  'x, y, z'
loop_
 _atom_site_type_symbol
 _atom_site_label
 _atom_site_symmetry_multiplicity
 _atom_site_fract_x
 _atom_site_fract_y
 _atom_site_fract_z
 _atom_site_occupancy
  Li  Li0  1  0.000000  0.500000  0.009154  1
  Li  Li1  1  0.000000  0.500000  0.657513  1
  Li  Li2  1  0.000000  0.500000  0.333333  1
  Li  Li3  1  0.000000  0.000000  0.166667  1
  Li  Li4  1  0.000000  0.000000  0.500000  1
  Li  Li5  1  0.000000  0.000000  0.833333  1
  Li  Li6  1  0.500000  0.500000  0.342487  1
  Li  Li7  1  0.500000  0.500000  0.666667  1
  Li  Li8  1  0.500000  0.500000  0.990846  1
  Li  Li9  1  0.500000  0.000000  0.324180  1
  Li  Li10  1  0.500000  0.000000  0.000000  1
  Li  Li11  1  0.500000  0.000000  0.675820  1
  Fe  Fe12  1  0.000000  0.750261  0.333333  1
  Fe  Fe13  1  0.246839  0.753161  0.666667  1
  Fe  Fe14  1  0.000000  0.249739  0.333333  1
  Fe  Fe15  1  0.246839  0.493678  0.000000  1
  Fe  Fe16  1  0.249739  0.249739  0.666667  1
  Fe  Fe17  1  0.506322  0.753161  0.333333  1
  Fe  Fe18  1  0.249739  0.000000  0.000000  1
  Fe  Fe19  1  0.493678  0.246839  0.333333  1
  Fe  Fe20  1  0.750261  0.750261  0.666667  1
  Fe  Fe21  1  0.753161  0.506322  0.000000  1
  Fe  Fe22  1  0.753161  0.246839  0.666667  1
  Fe  Fe23  1  0.750261  0.000000  0.000000  1
  Si  Si24  1  0.000000  0.748102  0.833333  1
  Si  Si25  1  0.000000  0.251898  0.833333  1
  Si  Si26  1  0.252355  0.747645  0.166667  1
  Si  Si27  1  0.252355  0.504710  0.500000  1
  Si  Si28  1  0.495290  0.747645  0.833333  1
  Si  Si29  1  0.251898  0.251898  0.166667  1
  Si  Si30  1  0.251898  0.000000  0.500000  1
  Si  Si31  1  0.748102  0.748102  0.166667  1
  Si  Si32  1  0.504710  0.252355  0.833333  1
  Si  Si33  1  0.747645  0.495290  0.500000  1
  Si  Si34  1  0.747645  0.252355  0.166667  1
  Si  Si35  1  0.748102  0.000000  0.500000  1
  O  O36  1  0.100270  0.896642  0.436831  1
  O  O37  1  0.103358  0.899730  0.896503  1
  O  O38  1  0.073086  0.691030  0.740369  1
  O  O39  1  0.119375  0.701513  0.255196  1
  O  O40  1  0.298487  0.880625  0.078138  1
  O  O41  1  0.308970  0.926914  0.592965  1
  O  O42  1  0.196545  0.594050  0.576111  1
  O  O43  1  0.073086  0.382056  0.926298  1
  O  O44  1  0.196545  0.602496  0.090556  1
  O  O45  1  0.119375  0.417862  0.411471  1
  O  O46  1  0.100270  0.203629  0.229836  1
  O  O47  1  0.405950  0.803455  0.757223  1
  O  O48  1  0.397504  0.803455  0.242777  1
  O  O49  1  0.103358  0.203629  0.770164  1
  O  O50  1  0.298487  0.417862  0.588529  1
  O  O51  1  0.405950  0.602496  0.909444  1
  O  O52  1  0.308970  0.382056  0.073702  1
  O  O53  1  0.397504  0.594050  0.423889  1
  O  O54  1  0.203629  0.103358  0.563169  1
  O  O55  1  0.203629  0.100270  0.103497  1
  O  O56  1  0.617944  0.926914  0.407035  1
  O  O57  1  0.582138  0.880625  0.921862  1
  O  O58  1  0.582138  0.701513  0.744804  1
  O  O59  1  0.382056  0.308970  0.259631  1
  O  O60  1  0.617944  0.691030  0.259631  1
  O  O61  1  0.417862  0.298487  0.744804  1
  O  O62  1  0.417862  0.119375  0.921862  1
  O  O63  1  0.382056  0.073086  0.407035  1
  O  O64  1  0.796371  0.899730  0.103497  1
  O  O65  1  0.796371  0.896642  0.563169  1
  O  O66  1  0.602496  0.405950  0.423889  1
  O  O67  1  0.691030  0.617944  0.073702  1
  O  O68  1  0.594050  0.397504  0.909444  1
  O  O69  1  0.701513  0.582138  0.588529  1
  O  O70  1  0.896642  0.796371  0.770164  1
  O  O71  1  0.602496  0.196545  0.242777  1
  O  O72  1  0.594050  0.196545  0.757223  1
  O  O73  1  0.899730  0.796371  0.229836  1
  O  O74  1  0.880625  0.582138  0.411471  1
  O  O75  1  0.803455  0.397504  0.090556  1
  O  O76  1  0.926914  0.617944  0.926298  1
  O  O77  1  0.803455  0.405950  0.576111  1
  O  O78  1  0.691030  0.073086  0.592965  1
  O  O79  1  0.701513  0.119375  0.078138  1
  O  O80  1  0.880625  0.298487  0.255196  1
  O  O81  1  0.926914  0.308970  0.740369  1
  O  O82  1  0.896642  0.100270  0.896503  1
  O  O83  1  0.899730  0.103358  0.436831  1
