# generated using pymatgen
data_K2B10H13O2
_symmetry_space_group_name_H-M   'P 1'
_cell_length_a   7.03961873
_cell_length_b   7.75185319
_cell_length_c   11.05595445
_cell_angle_alpha   106.76819768
_cell_angle_beta   92.24077661
_cell_angle_gamma   95.61931964
_symmetry_Int_Tables_number   1
_chemical_formula_structural   K2B10H13O2
_chemical_formula_sum   'K4 B20 H26 O4'
_cell_volume   573.45717097
_cell_formula_units_Z   2
loop_
 _symmetry_equiv_pos_site_id
 _symmetry_equiv_pos_as_xyz
  1  'x, y, z'
loop_
 _atom_site_type_symbol
 _atom_site_label
 _atom_site_symmetry_multiplicity
 _atom_site_fract_x
 _atom_site_fract_y
 _atom_site_fract_z
 _atom_site_occupancy
  K  K0  1  0.688083  0.750689  0.932671  1
  K  K1  1  0.311917  0.249311  0.067329  1
  K  K2  1  0.708451  0.055203  0.378643  1
  K  K3  1  0.291549  0.944797  0.621357  1
  B  B4  1  0.267409  0.979050  0.339235  1
  B  B5  1  0.732591  0.020950  0.660765  1
  B  B6  1  0.083961  0.966475  0.230379  1
  B  B7  1  0.916039  0.033525  0.769621  1
  B  B8  1  0.082081  0.816164  0.331026  1
  B  B9  1  0.917919  0.183836  0.668974  1
  B  B10  1  0.322089  0.761481  0.285774  1
  B  B11  1  0.677911  0.238519  0.714226  1
  B  B12  1  0.322561  0.911371  0.184831  1
  B  B13  1  0.677439  0.088629  0.815169  1
  B  B14  1  0.945806  0.745980  0.178914  1
  B  B15  1  0.054194  0.254020  0.821086  1
  B  B16  1  0.112167  0.602190  0.217907  1
  B  B17  1  0.887833  0.397810  0.782093  1
  B  B18  1  0.280748  0.670036  0.115248  1
  B  B19  1  0.719252  0.329964  0.884752  1
  B  B20  1  0.115479  0.812668  0.075857  1
  B  B21  1  0.884521  0.187332  0.924143  1
  B  B22  1  0.046331  0.588314  0.062559  1
  B  B23  1  0.953669  0.411686  0.937441  1
  H  H24  1  0.334025  0.105938  0.426723  1
  H  H25  1  0.665975  0.894062  0.573277  1
  H  H26  1  0.001824  0.098644  0.238897  1
  H  H27  1  0.998176  0.901356  0.761103  1
  H  H28  1  0.994356  0.814501  0.422677  1
  H  H29  1  0.005644  0.185499  0.577323  1
  H  H30  1  0.450524  0.708816  0.336528  1
  H  H31  1  0.549476  0.291184  0.663472  1
  H  H32  1  0.454453  0.993439  0.150319  1
  H  H33  1  0.545547  0.006561  0.849681  1
  H  H34  1  0.773684  0.738998  0.180141  1
  H  H35  1  0.226316  0.261002  0.819859  1
  H  H36  1  0.084686  0.464925  0.249865  1
  H  H37  1  0.915314  0.535075  0.750135  1
  H  H38  1  0.404563  0.593231  0.057466  1
  H  H39  1  0.595437  0.406769  0.942534  1
  H  H40  1  0.902006  0.139551  0.017901  1
  H  H41  1  0.097994  0.860449  0.982099  1
  H  H42  1  0.765094  0.406572  0.190405  1
  H  H43  1  0.234906  0.593428  0.809595  1
  H  H44  1  0.646917  0.441442  0.308077  1
  H  H45  1  0.353083  0.558558  0.691923  1
  H  H46  1  0.119791  0.552948  0.544859  1
  H  H47  1  0.880209  0.447052  0.455141  1
  H  H48  1  0.225418  0.513242  0.419994  1
  H  H49  1  0.774582  0.486758  0.580006  1
  O  O50  1  0.339027  0.649158  0.772624  1
  O  O51  1  0.660973  0.350842  0.227376  1
  O  O52  1  0.757225  0.474103  0.489644  1
  O  O53  1  0.242775  0.525897  0.510356  1
