# generated using pymatgen
data_Fe6O5F7
_symmetry_space_group_name_H-M   'P 1'
_cell_length_a   7.70320676
_cell_length_b   5.69998381
_cell_length_c   5.69998381
_cell_angle_alpha   69.27722530
_cell_angle_beta   69.45618304
_cell_angle_gamma   69.45618304
_symmetry_Int_Tables_number   1
_chemical_formula_structural   Fe6O5F7
_chemical_formula_sum   'Fe6 O5 F7'
_cell_volume   211.72329459
_cell_formula_units_Z   1
loop_
 _symmetry_equiv_pos_site_id
 _symmetry_equiv_pos_as_xyz
  1  'x, y, z'
loop_
 _atom_site_type_symbol
 _atom_site_label
 _atom_site_symmetry_multiplicity
 _atom_site_fract_x
 _atom_site_fract_y
 _atom_site_fract_z
 _atom_site_occupancy
  Fe  Fe0  1  0.833333  0.664455  0.668879  1
  Fe  Fe1  1  0.664213  0.328705  0.340832  1
  Fe  Fe2  1  0.333333  0.690369  0.642965  1
  Fe  Fe3  1  0.160596  0.329769  0.351861  1
  Fe  Fe4  1  0.506071  0.981472  0.003564  1
  Fe  Fe5  1  0.002453  0.992501  0.004628  1
  O  O6  1  0.664419  0.030791  0.637064  1
  O  O7  1  0.333333  0.996379  0.336955  1
  O  O8  1  0.667514  0.625017  0.037182  1
  O  O9  1  0.999152  0.296152  0.708316  1
  O  O10  1  0.002248  0.696269  0.302542  1
  F  F11  1  0.333333  0.375208  0.958126  1
  F  F12  1  0.295080  0.907226  0.904561  1
  F  F13  1  0.960594  0.229210  0.233310  1
  F  F14  1  0.638694  0.557535  0.563187  1
  F  F15  1  0.027972  0.770146  0.775799  1
  F  F16  1  0.371587  0.428773  0.426108  1
  F  F17  1  0.706072  0.100024  0.104123  1
