# generated using pymatgen
data_Ga3NO3
_symmetry_space_group_name_H-M   'P 1'
_cell_length_a   8.38323498
_cell_length_b   8.43433754
_cell_length_c   6.13641695
_cell_angle_alpha   90.95500407
_cell_angle_beta   88.54467731
_cell_angle_gamma   119.97494813
_symmetry_Int_Tables_number   1
_chemical_formula_structural   Ga3NO3
_chemical_formula_sum   'Ga12 N4 O12'
_cell_volume   375.72750903
_cell_formula_units_Z   4
loop_
 _symmetry_equiv_pos_site_id
 _symmetry_equiv_pos_as_xyz
  1  'x, y, z'
loop_
 _atom_site_type_symbol
 _atom_site_label
 _atom_site_symmetry_multiplicity
 _atom_site_fract_x
 _atom_site_fract_y
 _atom_site_fract_z
 _atom_site_occupancy
  Ga  Ga0  1  0.070584  0.827193  0.988728  1
  Ga  Ga1  1  0.077246  0.509076  0.682298  1
  Ga  Ga2  1  0.425578  0.916265  0.704848  1
  Ga  Ga3  1  0.168308  0.257512  0.000661  1
  Ga  Ga4  1  0.241531  0.164065  0.492328  1
  Ga  Ga5  1  0.493988  0.576314  0.712751  1
  Ga  Ga6  1  0.733309  0.910456  0.987487  1
  Ga  Ga7  1  0.582813  0.496064  0.190975  1
  Ga  Ga8  1  0.509632  0.080028  0.200423  1
  Ga  Ga9  1  0.911654  0.741669  0.509293  1
  Ga  Ga10  1  0.928887  0.428335  0.209865  1
  Ga  Ga11  1  0.826520  0.095968  0.508476  1
  N  N12  1  0.617203  0.655122  0.972903  1
  N  N13  1  0.020402  0.694495  0.734309  1
  N  N14  1  0.675486  0.010304  0.753178  1
  N  N15  1  0.992532  0.342645  0.450298  1
  O  O16  1  0.983376  0.677701  0.237102  1
  O  O17  1  0.055863  0.397855  0.966449  1
  O  O18  1  0.336373  0.963005  0.981428  1
  O  O19  1  0.337871  0.665348  0.638830  1
  O  O20  1  0.998654  0.007894  0.005771  1
  O  O21  1  0.991486  0.994003  0.490440  1
  O  O22  1  0.328150  0.301661  0.232151  1
  O  O23  1  0.313354  0.315862  0.738530  1
  O  O24  1  0.675675  0.998734  0.249790  1
  O  O25  1  0.651845  0.601775  0.472369  1
  O  O26  1  0.378693  0.040450  0.472227  1
  O  O27  1  0.672987  0.330302  0.153292  1
