# generated using pymatgen
data_La2Th5O13
_symmetry_space_group_name_H-M   'P 1'
_cell_length_a   3.97817584
_cell_length_b   3.97817584
_cell_length_c   23.09422040
_cell_angle_alpha   94.94096614
_cell_angle_beta   90.00000000
_cell_angle_gamma   120.00000000
_symmetry_Int_Tables_number   1
_chemical_formula_structural   La2Th5O13
_chemical_formula_sum   'La2 Th5 O13'
_cell_volume   314.95128970
_cell_formula_units_Z   1
loop_
 _symmetry_equiv_pos_site_id
 _symmetry_equiv_pos_as_xyz
  1  'x, y, z'
loop_
 _atom_site_type_symbol
 _atom_site_label
 _atom_site_symmetry_multiplicity
 _atom_site_fract_x
 _atom_site_fract_y
 _atom_site_fract_z
 _atom_site_occupancy
  La  La0  1  0.998727  0.997454  0.996181  1
  La  La1  1  0.716594  0.433188  0.149782  1
  Th  Th2  1  0.428750  0.857500  0.286250  1
  Th  Th3  1  0.142491  0.284983  0.427474  1
  Th  Th4  1  0.856598  0.713195  0.569793  1
  Th  Th5  1  0.570840  0.141680  0.712520  1
  Th  Th6  1  0.284701  0.569402  0.854103  1
  O  O7  1  0.030902  0.061804  0.092706  1
  O  O8  1  0.394120  0.788240  0.182360  1
  O  O9  1  0.751325  0.502650  0.253975  1
  O  O10  1  0.464711  0.929422  0.394133  1
  O  O11  1  0.107830  0.215660  0.323491  1
  O  O12  1  0.178785  0.357570  0.536355  1
  O  O13  1  0.821710  0.643420  0.465130  1
  O  O14  1  0.535912  0.071826  0.607738  1
  O  O15  1  0.893038  0.786077  0.679115  1
  O  O16  1  0.250202  0.500405  0.750608  1
  O  O17  1  0.963166  0.926332  0.889497  1
  O  O18  1  0.324079  0.648157  0.972237  1
  O  O19  1  0.606946  0.213890  0.820836  1
