# generated using pymatgen
data_Na2FePCO7
_symmetry_space_group_name_H-M   'P 1'
_cell_length_a   8.88982071
_cell_length_b   5.29575921
_cell_length_c   6.57579190
_cell_angle_alpha   90.41633600
_cell_angle_beta   93.09410169
_cell_angle_gamma   88.56207608
_symmetry_Int_Tables_number   1
_chemical_formula_structural   Na2FePCO7
_chemical_formula_sum   'Na4 Fe2 P2 C2 O14'
_cell_volume   309.02337595
_cell_formula_units_Z   2
loop_
 _symmetry_equiv_pos_site_id
 _symmetry_equiv_pos_as_xyz
  1  'x, y, z'
loop_
 _atom_site_type_symbol
 _atom_site_label
 _atom_site_symmetry_multiplicity
 _atom_site_fract_x
 _atom_site_fract_y
 _atom_site_fract_z
 _atom_site_occupancy
  Na  Na0  1  0.084198  0.768978  0.283717  1
  Na  Na1  1  0.263681  0.250849  0.007775  1
  Na  Na2  1  0.736319  0.749151  0.992225  1
  Na  Na3  1  0.915802  0.231022  0.716283  1
  Fe  Fe4  1  0.344305  0.780233  0.733119  1
  Fe  Fe5  1  0.655695  0.219767  0.266881  1
  P  P6  1  0.426282  0.721462  0.241311  1
  P  P7  1  0.573718  0.278538  0.758689  1
  C  C8  1  0.065612  0.713902  0.758315  1
  C  C9  1  0.934388  0.286098  0.241685  1
  O  O10  1  0.071508  0.323565  0.212113  1
  O  O11  1  0.120036  0.940856  0.736098  1
  O  O12  1  0.165673  0.528435  0.743073  1
  O  O13  1  0.316545  0.792167  0.056513  1
  O  O14  1  0.334874  0.768781  0.432037  1
  O  O15  1  0.430037  0.119598  0.757231  1
  O  O16  1  0.472893  0.436413  0.223897  1
  O  O17  1  0.527107  0.563587  0.776103  1
  O  O18  1  0.569963  0.880402  0.242769  1
  O  O19  1  0.665126  0.231219  0.567963  1
  O  O20  1  0.683455  0.207833  0.943487  1
  O  O21  1  0.834327  0.471565  0.256927  1
  O  O22  1  0.879964  0.059144  0.263902  1
  O  O23  1  0.928492  0.676435  0.787887  1
