# generated using pymatgen
data_Li2Fe(CO3)2
_symmetry_space_group_name_H-M   'P 1'
_cell_length_a   5.22272798
_cell_length_b   6.79741998
_cell_length_c   7.71090155
_cell_angle_alpha   90.01015520
_cell_angle_beta   89.98066041
_cell_angle_gamma   110.40346519
_symmetry_Int_Tables_number   1
_chemical_formula_structural   Li2Fe(CO3)2
_chemical_formula_sum   'Li4 Fe2 C4 O12'
_cell_volume   256.57075125
_cell_formula_units_Z   2
loop_
 _symmetry_equiv_pos_site_id
 _symmetry_equiv_pos_as_xyz
  1  'x, y, z'
loop_
 _atom_site_type_symbol
 _atom_site_label
 _atom_site_symmetry_multiplicity
 _atom_site_fract_x
 _atom_site_fract_y
 _atom_site_fract_z
 _atom_site_occupancy
  Li  Li0  1  0.639008  0.233031  0.083455  1
  Li  Li1  1  0.861095  0.266921  0.583510  1
  Li  Li2  1  0.138899  0.733074  0.416488  1
  Li  Li3  1  0.360992  0.766968  0.916543  1
  Fe  Fe4  1  -0.000000  0.999999  0.999996  1
  Fe  Fe5  1  0.500005  0.500002  0.500002  1
  C  C6  1  0.302484  0.142512  0.731521  1
  C  C7  1  0.197580  0.357540  0.231676  1
  C  C8  1  0.802419  0.642459  0.768323  1
  C  C9  1  0.697510  0.857487  0.268477  1
  O  O10  1  0.400894  0.086482  0.871856  1
  O  O11  1  0.043738  0.294178  0.096010  1
  O  O12  1  0.456299  0.205781  0.596032  1
  O  O13  1  0.099087  0.413553  0.371830  1
  O  O14  1  0.049487  0.128750  0.733485  1
  O  O15  1  0.450502  0.371167  0.233523  1
  O  O16  1  0.549497  0.628831  0.766476  1
  O  O17  1  0.950511  0.871250  0.266515  1
  O  O18  1  0.900916  0.586451  0.628169  1
  O  O19  1  0.543697  0.794220  0.403962  1
  O  O20  1  0.956263  0.705820  0.903993  1
  O  O21  1  0.599106  0.913517  0.128138  1
