# generated using pymatgen
data_Li2Bi(PO3)5
_symmetry_space_group_name_H-M   'P 1'
_cell_length_a   7.12089466
_cell_length_b   7.12089466
_cell_length_c   13.40791870
_cell_angle_alpha   88.11868824
_cell_angle_beta   91.88131176
_cell_angle_gamma   65.86519325
_symmetry_Int_Tables_number   1
_chemical_formula_structural   Li2Bi(PO3)5
_chemical_formula_sum   'Li4 Bi2 P10 O30'
_cell_volume   619.31413339
_cell_formula_units_Z   2
loop_
 _symmetry_equiv_pos_site_id
 _symmetry_equiv_pos_as_xyz
  1  'x, y, z'
loop_
 _atom_site_type_symbol
 _atom_site_label
 _atom_site_symmetry_multiplicity
 _atom_site_fract_x
 _atom_site_fract_y
 _atom_site_fract_z
 _atom_site_occupancy
  Li  Li0  1  0.314445  0.282467  0.723258  1
  Li  Li1  1  0.717533  0.685555  0.223258  1
  Li  Li2  1  0.763214  0.277923  0.595786  1
  Li  Li3  1  0.722077  0.236786  0.095786  1
  Bi  Bi4  1  0.892314  0.878705  0.760071  1
  Bi  Bi5  1  0.121295  0.107686  0.260071  1
  P  P6  1  0.628330  0.974551  0.503600  1
  P  P7  1  0.269398  0.599919  0.564043  1
  P  P8  1  0.412626  0.847166  0.849265  1
  P  P9  1  0.025449  0.371670  0.003600  1
  P  P10  1  0.400081  0.730602  0.064043  1
  P  P11  1  0.152834  0.587374  0.349265  1
  P  P12  1  0.179370  0.066127  0.528214  1
  P  P13  1  0.933873  0.820630  0.028214  1
  P  P14  1  0.761483  0.440830  0.818203  1
  P  P15  1  0.559170  0.238517  0.318203  1
  O  O16  1  0.188482  0.908078  0.823048  1
  O  O17  1  0.091922  0.811518  0.323048  1
  O  O18  1  0.150526  0.599822  0.655564  1
  O  O19  1  0.400178  0.849474  0.155564  1
  O  O20  1  0.246328  0.824328  0.530012  1
  O  O21  1  0.175672  0.753672  0.030012  1
  O  O22  1  0.453047  0.846759  0.968324  1
  O  O23  1  0.153241  0.546953  0.468324  1
  O  O24  1  0.507682  0.973388  0.793858  1
  O  O25  1  0.026612  0.492318  0.293858  1
  O  O26  1  0.216233  0.331605  0.952098  1
  O  O27  1  0.668395  0.783767  0.452098  1
  O  O28  1  0.844321  0.919366  0.926678  1
  O  O29  1  0.490586  0.457955  0.573797  1
  O  O30  1  0.080634  0.155679  0.426678  1
  O  O31  1  0.526636  0.604248  0.827971  1
  O  O32  1  0.542045  0.509414  0.073797  1
  O  O33  1  0.395752  0.473364  0.327971  1
  O  O34  1  0.060412  0.163422  0.616210  1
  O  O35  1  0.836578  0.939588  0.116210  1
  O  O36  1  0.395828  0.083766  0.542942  1
  O  O37  1  0.916234  0.604172  0.042942  1
  O  O38  1  0.885175  0.552359  0.777384  1
  O  O39  1  0.447641  0.114825  0.277384  1
  O  O40  1  0.841991  0.359491  0.930453  1
  O  O41  1  0.640509  0.158009  0.430453  1
  O  O42  1  0.747006  0.267560  0.761435  1
  O  O43  1  0.732440  0.252994  0.261435  1
  O  O44  1  0.757366  0.987744  0.593587  1
  O  O45  1  0.012256  0.242634  0.093587  1
