# generated using pymatgen
data_Rb8W13O43
_symmetry_space_group_name_H-M   'P 1'
_cell_length_a   7.59750531
_cell_length_b   7.30053978
_cell_length_c   28.76537897
_cell_angle_alpha   61.58668863
_cell_angle_beta   60.07189914
_cell_angle_gamma   59.39695096
_symmetry_Int_Tables_number   1
_chemical_formula_structural   Rb8W13O43
_chemical_formula_sum   'Rb8 W13 O43'
_cell_volume   1136.29757864
_cell_formula_units_Z   1
loop_
 _symmetry_equiv_pos_site_id
 _symmetry_equiv_pos_as_xyz
  1  'x, y, z'
loop_
 _atom_site_type_symbol
 _atom_site_label
 _atom_site_symmetry_multiplicity
 _atom_site_fract_x
 _atom_site_fract_y
 _atom_site_fract_z
 _atom_site_occupancy
  Rb  Rb0  1  0.391847  0.426152  0.087777  1
  Rb  Rb1  1  0.576586  0.660095  0.155333  1
  Rb  Rb2  1  0.401384  0.386001  0.342905  1
  Rb  Rb3  1  0.586770  0.646876  0.401996  1
  Rb  Rb4  1  0.382900  0.426964  0.581600  1
  Rb  Rb5  1  0.609505  0.692460  0.637308  1
  Rb  Rb6  1  0.366418  0.340359  0.854880  1
  Rb  Rb7  1  0.556069  0.640035  0.912693  1
  W  W8  1  0.965671  0.480892  0.994731  1
  W  W9  1  0.500921  0.021464  0.002342  1
  W  W10  1  0.986613  0.478103  0.241878  1
  W  W11  1  0.507485  0.016154  0.252784  1
  W  W12  1  0.990560  0.970979  0.121713  1
  W  W13  1  0.514899  0.013071  0.499266  1
  W  W14  1  0.977136  0.002802  0.751219  1
  W  W15  1  0.993620  0.960329  0.368707  1
  W  W16  1  0.013664  0.007313  0.880644  1
  W  W17  1  0.003836  0.495405  0.751130  1
  W  W18  1  0.490918  0.991154  0.747907  1
  W  W19  1  0.001076  0.970797  0.618698  1
  W  W20  1  0.990479  0.475773  0.492815  1
  O  O21  1  0.086607  0.725617  0.182987  1
  O  O22  1  0.574899  0.118983  0.035397  1
  O  O23  1  0.286990  0.321445  0.237329  1
  O  O24  1  0.279480  0.953822  0.083469  1
  O  O25  1  0.719790  0.086599  0.177315  1
  O  O26  1  0.754976  0.721151  0.021868  1
  O  O27  1  0.405431  0.885258  0.234855  1
  O  O28  1  0.600050  0.085484  0.288033  1
  O  O29  1  0.087406  0.714556  0.431683  1
  O  O30  1  0.912036  0.277379  0.070537  1
  O  O31  1  0.292324  0.318910  0.484891  1
  O  O32  1  0.048454  0.047936  0.674133  1
  O  O33  1  0.281961  0.945857  0.333105  1
  O  O34  1  0.947611  0.823807  0.097391  1
  O  O35  1  0.740656  0.090057  0.424495  1
  O  O36  1  0.939606  0.412295  0.198853  1
  O  O37  1  0.732601  0.694238  0.272440  1
  O  O38  1  0.425687  0.914813  0.468841  1
  O  O39  1  0.079227  0.670263  0.674687  1
  O  O40  1  0.915306  0.252806  0.313310  1
  O  O41  1  0.597291  0.097643  0.534094  1
  O  O42  1  0.314124  0.303244  0.736419  1
  O  O43  1  0.112295  0.070065  0.913383  1
  O  O44  1  0.057107  0.683699  0.769562  1
  O  O45  1  0.297644  0.918759  0.575759  1
  O  O46  1  0.952102  0.797012  0.348784  1
  O  O47  1  0.933975  0.381485  0.457926  1
  O  O48  1  0.693826  0.042550  0.672657  1
  O  O49  1  0.727701  0.697285  0.520202  1
  O  O50  1  0.317044  0.939108  0.730684  1
  O  O51  1  0.684152  0.059941  0.767926  1
  O  O52  1  0.074774  0.694865  0.923154  1
  O  O53  1  0.926656  0.279934  0.571061  1
  O  O54  1  0.275544  0.309057  0.980839  1
  O  O55  1  0.321329  0.925418  0.825673  1
  O  O56  1  0.950729  0.848977  0.588097  1
  O  O57  1  0.699495  0.685046  0.765118  1
  O  O58  1  0.708593  0.088607  0.925173  1
  O  O59  1  0.947314  0.310270  0.733420  1
  O  O60  1  0.423252  0.840769  0.993599  1
  O  O61  1  0.947966  0.314441  0.827977  1
  O  O62  1  0.951229  0.950973  0.825905  1
  O  O63  1  0.855409  0.408601  0.968093  1
