# generated using pymatgen
data_FeOF
_symmetry_space_group_name_H-M   'P 1'
_cell_length_a   14.33449097
_cell_length_b   9.64299660
_cell_length_c   3.12805095
_cell_angle_alpha   90.00000000
_cell_angle_beta   90.00000000
_cell_angle_gamma   89.56607314
_symmetry_Int_Tables_number   1
_chemical_formula_structural   FeOF
_chemical_formula_sum   'Fe12 O12 F12'
_cell_volume   432.37009916
_cell_formula_units_Z   12
loop_
 _symmetry_equiv_pos_site_id
 _symmetry_equiv_pos_as_xyz
  1  'x, y, z'
loop_
 _atom_site_type_symbol
 _atom_site_label
 _atom_site_symmetry_multiplicity
 _atom_site_fract_x
 _atom_site_fract_y
 _atom_site_fract_z
 _atom_site_occupancy
  Fe  Fe0  1  0.005039  0.005616  0.000000  1
  Fe  Fe1  1  0.009741  0.492411  0.000000  1
  Fe  Fe2  1  0.154476  0.244073  0.500000  1
  Fe  Fe3  1  0.187461  0.758489  0.500000  1
  Fe  Fe4  1  0.341414  0.992212  0.000000  1
  Fe  Fe5  1  0.332960  0.516674  0.000000  1
  Fe  Fe6  1  0.486495  0.747477  0.500000  1
  Fe  Fe7  1  0.498491  0.222763  0.500000  1
  Fe  Fe8  1  0.669611  0.006161  0.000000  1
  Fe  Fe9  1  0.677626  0.498057  0.000000  1
  Fe  Fe10  1  0.815612  0.244960  0.500000  1
  Fe  Fe11  1  0.815234  0.753804  0.500000  1
  O  O12  1  0.066114  0.408954  0.500000  1
  O  O13  1  0.102660  0.153363  0.000000  1
  O  O14  1  0.234356  0.855126  0.000000  1
  O  O15  1  0.267634  0.591807  0.500000  1
  O  O16  1  0.399556  0.903754  0.500000  1
  O  O17  1  0.436302  0.149222  0.000000  1
  O  O18  1  0.436958  0.650305  0.000000  1
  O  O19  1  0.603477  0.093121  0.500000  1
  O  O20  1  0.729743  0.405805  0.500000  1
  O  O21  1  0.728866  0.907080  0.500000  1
  O  O22  1  0.769120  0.152819  0.000000  1
  O  O23  1  0.767086  0.657165  0.000000  1
  F  F24  1  0.065369  0.891793  0.500000  1
  F  F25  1  0.100357  0.659865  0.000000  1
  F  F26  1  0.234961  0.342502  0.000000  1
  F  F27  1  0.269116  0.104004  0.500000  1
  F  F28  1  0.399290  0.398317  0.500000  1
  F  F29  1  0.563145  0.348658  0.000000  1
  F  F30  1  0.564996  0.842901  0.000000  1
  F  F31  1  0.601557  0.598517  0.500000  1
  F  F32  1  0.899007  0.349882  0.000000  1
  F  F33  1  0.898865  0.850213  0.000000  1
  F  F34  1  0.930713  0.101972  0.500000  1
  F  F35  1  0.936588  0.600158  0.500000  1
