# generated using pymatgen
data_NaCrPCO7
_symmetry_space_group_name_H-M   'P 1'
_cell_length_a   9.06650910
_cell_length_b   6.29847624
_cell_length_c   5.28253846
_cell_angle_alpha   90.00000000
_cell_angle_beta   87.83251241
_cell_angle_gamma   90.00000000
_symmetry_Int_Tables_number   1
_chemical_formula_structural   NaCrPCO7
_chemical_formula_sum   'Na2 Cr2 P2 C2 O14'
_cell_volume   301.44454751
_cell_formula_units_Z   2
loop_
 _symmetry_equiv_pos_site_id
 _symmetry_equiv_pos_as_xyz
  1  'x, y, z'
loop_
 _atom_site_type_symbol
 _atom_site_label
 _atom_site_symmetry_multiplicity
 _atom_site_fract_x
 _atom_site_fract_y
 _atom_site_fract_z
 _atom_site_occupancy
  Na  Na0  1  0.232124  0.477281  0.237555  1
  Na  Na1  1  0.767876  0.977281  0.762445  1
  Cr  Cr2  1  0.340120  0.764228  0.786267  1
  Cr  Cr3  1  0.659880  0.264228  0.213733  1
  P  P4  1  0.433616  0.257035  0.720162  1
  P  P5  1  0.566384  0.757035  0.279838  1
  C  C6  1  0.079174  0.743898  0.728414  1
  C  C7  1  0.920826  0.243898  0.271586  1
  O  O8  1  0.053189  0.242945  0.311805  1
  O  O9  1  0.140678  0.749781  0.950796  1
  O  O10  1  0.187666  0.741198  0.544176  1
  O  O11  1  0.332992  0.061138  0.780958  1
  O  O12  1  0.336325  0.449857  0.795463  1
  O  O13  1  0.427411  0.745604  0.120071  1
  O  O14  1  0.475482  0.264886  0.434789  1
  O  O15  1  0.524518  0.764886  0.565211  1
  O  O16  1  0.572589  0.245604  0.879929  1
  O  O17  1  0.663675  0.949857  0.204537  1
  O  O18  1  0.667008  0.561138  0.219042  1
  O  O19  1  0.812334  0.241198  0.455824  1
  O  O20  1  0.859322  0.249781  0.049204  1
  O  O21  1  0.946811  0.742945  0.688195  1
