# generated using pymatgen
data_Li2FeSiO4
_symmetry_space_group_name_H-M   'P 1'
_cell_length_a   5.03763848
_cell_length_b   5.47553884
_cell_length_c   6.37021381
_cell_angle_alpha   91.51997103
_cell_angle_beta   89.87756580
_cell_angle_gamma   90.58122870
_symmetry_Int_Tables_number   1
_chemical_formula_structural   Li2FeSiO4
_chemical_formula_sum   'Li4 Fe2 Si2 O8'
_cell_volume   175.64343763
_cell_formula_units_Z   2
loop_
 _symmetry_equiv_pos_site_id
 _symmetry_equiv_pos_as_xyz
  1  'x, y, z'
loop_
 _atom_site_type_symbol
 _atom_site_label
 _atom_site_symmetry_multiplicity
 _atom_site_fract_x
 _atom_site_fract_y
 _atom_site_fract_z
 _atom_site_occupancy
  Li  Li0  1  0.504861  0.834876  0.501973  1
  Li  Li1  1  0.006509  0.650852  0.269975  1
  Li  Li2  1  0.500601  0.349128  0.726098  1
  Li  Li3  1  0.000478  0.161626  0.496108  1
  Fe  Fe4  1  0.011663  0.184303  0.986819  1
  Fe  Fe5  1  0.515477  0.822280  0.011812  1
  Si  Si6  1  -0.000203  0.674806  0.739904  1
  Si  Si7  1  0.497264  0.325280  0.257758  1
  O  O8  1  0.099755  0.812595  0.969179  1
  O  O9  1  0.112881  0.817002  0.537922  1
  O  O10  1  0.671612  0.676694  0.746501  1
  O  O11  1  0.603797  0.611908  0.252346  1
  O  O12  1  0.099445  0.386451  0.741860  1
  O  O13  1  0.168135  0.318521  0.254275  1
  O  O14  1  0.608339  0.181968  0.458222  1
  O  O15  1  0.592102  0.189110  0.026508  1
