# generated using pymatgen
data_Fe4OF7
_symmetry_space_group_name_H-M   'P 1'
_cell_length_a   9.37469517
_cell_length_b   5.81029793
_cell_length_c   5.81029793
_cell_angle_alpha   72.13953125
_cell_angle_beta   86.00082777
_cell_angle_gamma   86.00082777
_symmetry_Int_Tables_number   1
_chemical_formula_structural   Fe4OF7
_chemical_formula_sum   'Fe8 O2 F14'
_cell_volume   300.10959147
_cell_formula_units_Z   2
loop_
 _symmetry_equiv_pos_site_id
 _symmetry_equiv_pos_as_xyz
  1  'x, y, z'
loop_
 _atom_site_type_symbol
 _atom_site_label
 _atom_site_symmetry_multiplicity
 _atom_site_fract_x
 _atom_site_fract_y
 _atom_site_fract_z
 _atom_site_occupancy
  Fe  Fe0  1  0.614873  0.877109  0.893485  1
  Fe  Fe1  1  0.885127  0.622891  0.606515  1
  Fe  Fe2  1  0.500000  0.520459  0.479541  1
  Fe  Fe3  1  0.250000  0.750000  0.750000  1
  Fe  Fe4  1  0.750000  0.250000  0.250000  1
  Fe  Fe5  1  0.114873  0.393485  0.377109  1
  Fe  Fe6  1  0.385127  0.106515  0.122891  1
  Fe  Fe7  1  0.000000  0.979541  0.020459  1
  O  O8  1  0.500000  0.804514  0.195486  1
  O  O9  1  0.000000  0.695486  0.304514  1
  F  F10  1  0.751882  0.558283  0.941085  1
  F  F11  1  0.500000  0.215860  0.784140  1
  F  F12  1  0.748118  0.941717  0.558915  1
  F  F13  1  0.230908  0.986492  0.965617  1
  F  F14  1  0.476200  0.731721  0.729836  1
  F  F15  1  0.730908  0.465617  0.486492  1
  F  F16  1  0.976200  0.229836  0.231721  1
  F  F17  1  0.269092  0.513508  0.534383  1
  F  F18  1  0.023800  0.768279  0.770164  1
  F  F19  1  0.523800  0.270164  0.268279  1
  F  F20  1  0.769092  0.034383  0.013508  1
  F  F21  1  0.248118  0.058915  0.441717  1
  F  F22  1  0.000000  0.284140  0.715860  1
  F  F23  1  0.251882  0.441085  0.058283  1
