# generated using pymatgen
data_Li2CoOF2
_symmetry_space_group_name_H-M   'P 1'
_cell_length_a   2.98595635
_cell_length_b   2.98622470
_cell_length_c   12.40007217
_cell_angle_alpha   90.00064608
_cell_angle_beta   90.00007088
_cell_angle_gamma   89.99546298
_symmetry_Int_Tables_number   1
_chemical_formula_structural   Li2CoOF2
_chemical_formula_sum   'Li4 Co2 O2 F4'
_cell_volume   110.56817731
_cell_formula_units_Z   2
loop_
 _symmetry_equiv_pos_site_id
 _symmetry_equiv_pos_as_xyz
  1  'x, y, z'
loop_
 _atom_site_type_symbol
 _atom_site_label
 _atom_site_symmetry_multiplicity
 _atom_site_fract_x
 _atom_site_fract_y
 _atom_site_fract_z
 _atom_site_occupancy
  Li  Li0  1  0.000000  0.000000  0.994323  1
  Li  Li1  1  0.500000  0.500001  0.505659  1
  Li  Li2  1  1.000000  0.000000  0.670234  1
  Li  Li3  1  0.500001  0.500000  0.829757  1
  Co  Co4  1  0.500014  0.500009  0.169376  1
  Co  Co5  1  0.000009  -0.000000  0.330635  1
  O  O6  1  0.999983  -0.000008  0.161111  1
  O  O7  1  0.499984  0.500001  0.338879  1
  F  F8  1  0.500004  0.499994  0.990169  1
  F  F9  1  0.000003  0.000008  0.509844  1
  F  F10  1  0.500002  0.499998  0.669354  1
  F  F11  1  -0.000000  0.999997  0.830659  1
