# generated using pymatgen
data_Na2BiO3
_symmetry_space_group_name_H-M   'P 1'
_cell_length_a   5.97910835
_cell_length_b   10.84913084
_cell_length_c   5.97824300
_cell_angle_alpha   100.37378980
_cell_angle_beta   69.72939762
_cell_angle_gamma   79.56673340
_symmetry_Int_Tables_number   1
_chemical_formula_structural   Na2BiO3
_chemical_formula_sum   'Na8 Bi4 O12'
_cell_volume   345.15189486
_cell_formula_units_Z   4
loop_
 _symmetry_equiv_pos_site_id
 _symmetry_equiv_pos_as_xyz
  1  'x, y, z'
loop_
 _atom_site_type_symbol
 _atom_site_label
 _atom_site_symmetry_multiplicity
 _atom_site_fract_x
 _atom_site_fract_y
 _atom_site_fract_z
 _atom_site_occupancy
  Na  Na0  1  0.003029  0.994306  0.497651  1
  Na  Na1  1  0.577370  0.842567  0.424407  1
  Na  Na2  1  0.168817  0.662034  0.329717  1
  Na  Na3  1  0.745641  0.505474  0.253095  1
  Na  Na4  1  0.248738  0.494683  0.750897  1
  Na  Na5  1  0.329111  0.343555  0.175254  1
  Na  Na6  1  0.413079  0.162239  0.581911  1
  Na  Na7  1  0.496832  0.004098  0.002062  1
  Bi  Bi8  1  0.081506  0.833466  0.918004  1
  Bi  Bi9  1  0.664081  0.668891  0.836147  1
  Bi  Bi10  1  0.830609  0.333426  0.668285  1
  Bi  Bi11  1  0.914255  0.168538  0.086326  1
  O  O12  1  0.306662  0.828888  0.134044  1
  O  O13  1  0.861821  0.828190  0.696671  1
  O  O14  1  0.392052  0.687067  0.619567  1
  O  O15  1  0.917810  0.687625  0.071975  1
  O  O16  1  0.534824  0.487785  0.968879  1
  O  O17  1  0.972225  0.487671  0.523488  1
  O  O18  1  0.052841  0.327314  0.887046  1
  O  O19  1  0.616010  0.328843  0.442209  1
  O  O20  1  0.680008  0.186986  0.829644  1
  O  O21  1  0.130460  0.187738  0.357072  1
  O  O22  1  0.228722  0.987064  0.776127  1
  O  O23  1  0.779976  0.986940  0.212939  1
