# generated using pymatgen
data_Li2Mn2(PO4)3
_symmetry_space_group_name_H-M   'P 1'
_cell_length_a   8.36619634
_cell_length_b   8.39546485
_cell_length_c   9.03076598
_cell_angle_alpha   88.11472533
_cell_angle_beta   60.02146959
_cell_angle_gamma   118.19579948
_symmetry_Int_Tables_number   1
_chemical_formula_structural   Li2Mn2(PO4)3
_chemical_formula_sum   'Li4 Mn4 P6 O24'
_cell_volume   453.19008899
_cell_formula_units_Z   2
loop_
 _symmetry_equiv_pos_site_id
 _symmetry_equiv_pos_as_xyz
  1  'x, y, z'
loop_
 _atom_site_type_symbol
 _atom_site_label
 _atom_site_symmetry_multiplicity
 _atom_site_fract_x
 _atom_site_fract_y
 _atom_site_fract_z
 _atom_site_occupancy
  Li  Li0  1  0.465317  0.228336  0.139625  1
  Li  Li1  1  0.354438  0.355231  0.452692  1
  Li  Li2  1  0.645562  0.644769  0.547308  1
  Li  Li3  1  0.534683  0.771664  0.860375  1
  Mn  Mn4  1  0.202304  0.853961  0.444794  1
  Mn  Mn5  1  0.209025  0.352635  0.924531  1
  Mn  Mn6  1  0.790975  0.647365  0.075469  1
  Mn  Mn7  1  0.797696  0.146039  0.555206  1
  P  P8  1  0.286207  0.540125  0.252692  1
  P  P9  1  0.287240  0.758903  0.750114  1
  P  P10  1  0.007294  0.043123  0.737923  1
  P  P11  1  0.992706  0.956877  0.262077  1
  P  P12  1  0.712760  0.241097  0.249886  1
  P  P13  1  0.713793  0.459875  0.747308  1
  O  O14  1  0.188333  0.982960  0.266996  1
  O  O15  1  0.211786  0.674155  0.316943  1
  O  O16  1  0.325153  0.542097  0.068411  1
  O  O17  1  0.106644  0.119505  0.091874  1
  O  O18  1  0.120557  0.326778  0.394617  1
  O  O19  1  0.250413  0.752725  0.599924  1
  O  O20  1  0.077567  0.690781  0.941280  1
  O  O21  1  0.497947  0.599571  0.245984  1
  O  O22  1  0.472676  0.956499  0.727450  1
  O  O23  1  0.150932  0.247003  0.729424  1
  O  O24  1  0.364936  0.621383  0.750689  1
  O  O25  1  0.183181  0.041476  0.555679  1
  O  O26  1  0.816819  0.958524  0.444321  1
  O  O27  1  0.635064  0.378617  0.249311  1
  O  O28  1  0.849068  0.752997  0.270576  1
  O  O29  1  0.527324  0.043501  0.272550  1
  O  O30  1  0.502053  0.400429  0.754016  1
  O  O31  1  0.922433  0.309219  0.058720  1
  O  O32  1  0.749587  0.247275  0.400076  1
  O  O33  1  0.879443  0.673222  0.605383  1
  O  O34  1  0.893356  0.880495  0.908126  1
  O  O35  1  0.674847  0.457903  0.931589  1
  O  O36  1  0.788214  0.325845  0.683057  1
  O  O37  1  0.811667  0.017040  0.733004  1
