# generated using pymatgen
data_W5O12F
_symmetry_space_group_name_H-M   'P 1'
_cell_length_a   6.41477692
_cell_length_b   18.17149751
_cell_length_c   3.87469283
_cell_angle_alpha   90.00000665
_cell_angle_beta   90.00001291
_cell_angle_gamma   90.00208218
_symmetry_Int_Tables_number   1
_chemical_formula_structural   W5O12F
_chemical_formula_sum   'W10 O24 F2'
_cell_volume   451.65784270
_cell_formula_units_Z   2
loop_
 _symmetry_equiv_pos_site_id
 _symmetry_equiv_pos_as_xyz
  1  'x, y, z'
loop_
 _atom_site_type_symbol
 _atom_site_label
 _atom_site_symmetry_multiplicity
 _atom_site_fract_x
 _atom_site_fract_y
 _atom_site_fract_z
 _atom_site_occupancy
  W  W0  1  0.232310  0.648283  1.000000  1
  W  W1  1  0.232328  0.851716  1.000000  1
  W  W2  1  0.221021  0.250003  0.000000  1
  W  W3  1  0.303274  0.061849  1.000000  1
  W  W4  1  0.303269  0.438153  0.000000  1
  W  W5  1  0.696732  0.561847  0.000000  1
  W  W6  1  0.696726  0.938151  0.000000  1
  W  W7  1  0.778979  0.749997  0.999999  1
  W  W8  1  0.767690  0.351716  0.000000  1
  W  W9  1  0.767673  0.148285  0.000000  1
  O  O10  1  0.089772  0.140091  1.000000  1
  O  O11  1  0.089769  0.359919  0.000000  1
  O  O12  1  0.109215  0.749999  -0.000000  1
  O  O13  1  0.227583  0.647172  0.500000  1
  O  O14  1  0.227565  0.852828  0.500000  1
  O  O15  1  0.222291  0.250000  0.500000  1
  O  O16  1  0.298888  0.059477  0.500000  1
  O  O17  1  0.298890  0.440525  0.500000  1
  O  O18  1  0.375290  0.547509  1.000000  1
  O  O19  1  0.375285  0.952494  0.000000  1
  O  O20  1  0.453007  0.168557  1.000000  1
  O  O21  1  0.452971  0.331431  1.000000  1
  O  O22  1  0.547031  0.668570  1.000000  1
  O  O23  1  0.546991  0.831443  1.000000  1
  O  O24  1  0.624716  0.047506  0.000000  1
  O  O25  1  0.624712  0.452491  0.000000  1
  O  O26  1  0.701110  0.559475  0.500000  1
  O  O27  1  0.701113  0.940522  0.500000  1
  O  O28  1  0.777709  0.750000  0.500000  1
  O  O29  1  0.772416  0.352828  0.500000  1
  O  O30  1  0.772432  0.147173  0.500000  1
  O  O31  1  0.890785  0.250001  0.000001  1
  O  O32  1  0.910231  0.640080  1.000000  1
  O  O33  1  0.910227  0.859908  1.000000  1
  F  F34  1  0.000001  0.000000  0.000001  1
  F  F35  1  0.000001  0.500000  0.000000  1
