# generated using pymatgen
data_LiMnPO4
_symmetry_space_group_name_H-M   'P 1'
_cell_length_a   5.02228562
_cell_length_b   8.49912385
_cell_length_c   5.02228526
_cell_angle_alpha   107.18505737
_cell_angle_beta   60.00000427
_cell_angle_gamma   107.18506074
_symmetry_Int_Tables_number   1
_chemical_formula_structural   LiMnPO4
_chemical_formula_sum   'Li2 Mn2 P2 O8'
_cell_volume   174.51660744
_cell_formula_units_Z   2
loop_
 _symmetry_equiv_pos_site_id
 _symmetry_equiv_pos_as_xyz
  1  'x, y, z'
loop_
 _atom_site_type_symbol
 _atom_site_label
 _atom_site_symmetry_multiplicity
 _atom_site_fract_x
 _atom_site_fract_y
 _atom_site_fract_z
 _atom_site_occupancy
  Li  Li0  1  0.136289  0.408867  0.136289  1
  Li  Li1  1  0.439165  0.317495  0.439165  1
  Mn  Mn2  1  0.011890  0.035670  0.011890  1
  Mn  Mn3  1  0.563600  0.690798  0.563600  1
  P  P4  1  0.863397  0.590189  0.863397  1
  P  P5  1  0.711975  0.135927  0.711975  1
  O  O6  1  0.149684  0.530084  0.560527  1
  O  O7  1  0.015000  0.196475  0.755715  1
  O  O8  1  0.425759  0.196475  0.015000  1
  O  O9  1  0.647415  0.942243  0.647415  1
  O  O10  1  0.819872  0.530084  0.149684  1
  O  O11  1  0.560527  0.530084  0.819872  1
  O  O12  1  0.755715  0.196475  0.425759  1
  O  O13  1  0.928242  0.784725  0.928242  1
