# generated using pymatgen
data_Mn3O5F
_symmetry_space_group_name_H-M   'P 1'
_cell_length_a   7.17873250
_cell_length_b   5.46419159
_cell_length_c   5.46419159
_cell_angle_alpha   70.66632958
_cell_angle_beta   71.47891604
_cell_angle_gamma   71.47891604
_symmetry_Int_Tables_number   1
_chemical_formula_structural   Mn3O5F
_chemical_formula_sum   'Mn6 O10 F2'
_cell_volume   186.28912815
_cell_formula_units_Z   2
loop_
 _symmetry_equiv_pos_site_id
 _symmetry_equiv_pos_as_xyz
  1  'x, y, z'
loop_
 _atom_site_type_symbol
 _atom_site_label
 _atom_site_symmetry_multiplicity
 _atom_site_fract_x
 _atom_site_fract_y
 _atom_site_fract_z
 _atom_site_occupancy
  Mn  Mn0  1  0.833333  0.666667  0.666667  1
  Mn  Mn1  1  0.677527  0.336226  0.336226  1
  Mn  Mn2  1  0.333333  0.666667  0.666667  1
  Mn  Mn3  1  0.154245  0.323985  0.323985  1
  Mn  Mn4  1  0.512422  0.009348  0.009348  1
  Mn  Mn5  1  0.989139  0.997108  0.997108  1
  O  O6  1  0.662397  0.027822  0.640196  1
  O  O7  1  0.333333  0.360021  0.973312  1
  O  O8  1  0.631348  0.562949  0.562949  1
  O  O9  1  0.962811  0.227340  0.227340  1
  O  O10  1  0.703855  0.105994  0.105994  1
  O  O11  1  0.035319  0.770385  0.770385  1
  O  O12  1  0.333333  0.973312  0.360021  1
  O  O13  1  0.662397  0.640196  0.027822  1
  O  O14  1  0.004269  0.305512  0.693137  1
  O  O15  1  0.004269  0.693137  0.305512  1
  F  F16  1  0.295975  0.911930  0.911930  1
  F  F17  1  0.370692  0.421403  0.421403  1
