# generated using pymatgen
data_CsFeH24(SO10)2
_symmetry_space_group_name_H-M   'P 1'
_cell_length_a   12.45183440
_cell_length_b   12.45183440
_cell_length_c   12.45183440
_cell_angle_alpha   90.00000000
_cell_angle_beta   90.00000000
_cell_angle_gamma   90.00000000
_symmetry_Int_Tables_number   1
_chemical_formula_structural   CsFeH24(SO10)2
_chemical_formula_sum   'Cs4 Fe4 H96 S8 O80'
_cell_volume   1930.63426045
_cell_formula_units_Z   4
loop_
 _symmetry_equiv_pos_site_id
 _symmetry_equiv_pos_as_xyz
  1  'x, y, z'
loop_
 _atom_site_type_symbol
 _atom_site_label
 _atom_site_symmetry_multiplicity
 _atom_site_fract_x
 _atom_site_fract_y
 _atom_site_fract_z
 _atom_site_occupancy
  Cs  Cs0  1  0.000000  0.000000  0.500000  1
  Cs  Cs1  1  0.000000  0.500000  0.000000  1
  Cs  Cs2  1  0.500000  0.000000  0.000000  1
  Cs  Cs3  1  0.500000  0.500000  0.500000  1
  Fe  Fe4  1  0.500000  0.500000  0.000000  1
  Fe  Fe5  1  0.500000  0.000000  0.500000  1
  Fe  Fe6  1  0.000000  0.500000  0.500000  1
  Fe  Fe7  1  0.000000  0.000000  0.000000  1
  H  H8  1  0.221907  0.509371  0.230186  1
  H  H9  1  0.778093  0.009371  0.269814  1
  H  H10  1  0.278093  0.490629  0.730186  1
  H  H11  1  0.721907  0.990629  0.769814  1
  H  H12  1  0.230186  0.221907  0.509371  1
  H  H13  1  0.269814  0.778093  0.009371  1
  H  H14  1  0.730186  0.278093  0.490629  1
  H  H15  1  0.769814  0.721907  0.990629  1
  H  H16  1  0.509371  0.230186  0.221907  1
  H  H17  1  0.009371  0.269814  0.778093  1
  H  H18  1  0.490629  0.730186  0.278093  1
  H  H19  1  0.990629  0.769814  0.721907  1
  H  H20  1  0.778093  0.490629  0.769814  1
  H  H21  1  0.221907  0.990629  0.730186  1
  H  H22  1  0.721907  0.509371  0.269814  1
  H  H23  1  0.278093  0.009371  0.230186  1
  H  H24  1  0.769814  0.778093  0.490629  1
  H  H25  1  0.730186  0.221907  0.990629  1
  H  H26  1  0.269814  0.721907  0.509371  1
  H  H27  1  0.230186  0.278093  0.009371  1
  H  H28  1  0.490629  0.769814  0.778093  1
  H  H29  1  0.990629  0.730186  0.221907  1
  H  H30  1  0.509371  0.269814  0.721907  1
  H  H31  1  0.009371  0.230186  0.278093  1
  H  H32  1  0.181913  0.628034  0.221035  1
  H  H33  1  0.818087  0.128034  0.278965  1
  H  H34  1  0.318087  0.371966  0.721035  1
  H  H35  1  0.681913  0.871966  0.778965  1
  H  H36  1  0.221035  0.181913  0.628034  1
  H  H37  1  0.278965  0.818087  0.128034  1
  H  H38  1  0.721035  0.318087  0.371966  1
  H  H39  1  0.778965  0.681913  0.871966  1
  H  H40  1  0.628034  0.221035  0.181913  1
  H  H41  1  0.128034  0.278965  0.818087  1
  H  H42  1  0.371966  0.721035  0.318087  1
  H  H43  1  0.871966  0.778965  0.681913  1
  H  H44  1  0.818087  0.371966  0.778965  1
  H  H45  1  0.181913  0.871966  0.721035  1
  H  H46  1  0.681913  0.628034  0.278965  1
  H  H47  1  0.318087  0.128034  0.221035  1
  H  H48  1  0.778965  0.818087  0.371966  1
  H  H49  1  0.721035  0.181913  0.871966  1
  H  H50  1  0.278965  0.681913  0.628034  1
  H  H51  1  0.221035  0.318087  0.128034  1
  H  H52  1  0.371966  0.778965  0.818087  1
  H  H53  1  0.871966  0.721035  0.181913  1
  H  H54  1  0.628034  0.278965  0.681913  1
  H  H55  1  0.128034  0.221035  0.318087  1
  H  H56  1  0.477505  0.710532  0.934980  1
  H  H57  1  0.522495  0.210532  0.565020  1
  H  H58  1  0.022495  0.289468  0.434980  1
  H  H59  1  0.977505  0.789468  0.065020  1
  H  H60  1  0.934980  0.477505  0.710532  1
  H  H61  1  0.565020  0.522495  0.210532  1
  H  H62  1  0.434980  0.022495  0.289468  1
  H  H63  1  0.065020  0.977505  0.789468  1
  H  H64  1  0.710532  0.934980  0.477505  1
  H  H65  1  0.210532  0.565020  0.522495  1
  H  H66  1  0.289468  0.434980  0.022495  1
  H  H67  1  0.789468  0.065020  0.977505  1
  H  H68  1  0.522495  0.289468  0.065020  1
  H  H69  1  0.477505  0.789468  0.434980  1
  H  H70  1  0.977505  0.710532  0.565020  1
  H  H71  1  0.022495  0.210532  0.934980  1
  H  H72  1  0.065020  0.522495  0.289468  1
  H  H73  1  0.434980  0.477505  0.789468  1
  H  H74  1  0.565020  0.977505  0.710532  1
  H  H75  1  0.934980  0.022495  0.210532  1
  H  H76  1  0.289468  0.065020  0.522495  1
  H  H77  1  0.789468  0.434980  0.477505  1
  H  H78  1  0.710532  0.565020  0.977505  1
  H  H79  1  0.210532  0.934980  0.022495  1
  H  H80  1  0.522928  0.706270  0.060689  1
  H  H81  1  0.477072  0.206270  0.439311  1
  H  H82  1  0.977072  0.293730  0.560689  1
  H  H83  1  0.022928  0.793730  0.939311  1
  H  H84  1  0.060689  0.522928  0.706270  1
  H  H85  1  0.439311  0.477072  0.206270  1
  H  H86  1  0.560689  0.977072  0.293730  1
  H  H87  1  0.939311  0.022928  0.793730  1
  H  H88  1  0.706270  0.060689  0.522928  1
  H  H89  1  0.206270  0.439311  0.477072  1
  H  H90  1  0.293730  0.560689  0.977072  1
  H  H91  1  0.793730  0.939311  0.022928  1
  H  H92  1  0.477072  0.293730  0.939311  1
  H  H93  1  0.522928  0.793730  0.560689  1
  H  H94  1  0.022928  0.706270  0.439311  1
  H  H95  1  0.977072  0.206270  0.060689  1
  H  H96  1  0.939311  0.477072  0.293730  1
  H  H97  1  0.560689  0.522928  0.793730  1
  H  H98  1  0.439311  0.022928  0.706270  1
  H  H99  1  0.060689  0.977072  0.206270  1
  H  H100  1  0.293730  0.939311  0.477072  1
  H  H101  1  0.793730  0.560689  0.522928  1
  H  H102  1  0.706270  0.439311  0.022928  1
  H  H103  1  0.206270  0.060689  0.977072  1
  S  S104  1  0.172121  0.827879  0.327879  1
  S  S105  1  0.827879  0.327879  0.172121  1
  S  S106  1  0.327879  0.172121  0.827879  1
  S  S107  1  0.672121  0.672121  0.672121  1
  S  S108  1  0.827879  0.172121  0.672121  1
  S  S109  1  0.172121  0.672121  0.827879  1
  S  S110  1  0.672121  0.827879  0.172121  1
  S  S111  1  0.327879  0.327879  0.327879  1
  O  O112  1  0.241750  0.758250  0.258250  1
  O  O113  1  0.758250  0.258250  0.241750  1
  O  O114  1  0.258250  0.241750  0.758250  1
  O  O115  1  0.741750  0.741750  0.741750  1
  O  O116  1  0.758250  0.241750  0.741750  1
  O  O117  1  0.241750  0.741750  0.758250  1
  O  O118  1  0.741750  0.758250  0.241750  1
  O  O119  1  0.258250  0.258250  0.258250  1
  O  O120  1  0.062108  0.780611  0.335360  1
  O  O121  1  0.937892  0.280611  0.164640  1
  O  O122  1  0.437892  0.219389  0.835360  1
  O  O123  1  0.562108  0.719389  0.664640  1
  O  O124  1  0.335360  0.062108  0.780611  1
  O  O125  1  0.164640  0.937892  0.280611  1
  O  O126  1  0.835360  0.437892  0.219389  1
  O  O127  1  0.664640  0.562108  0.719389  1
  O  O128  1  0.780611  0.335360  0.062108  1
  O  O129  1  0.280611  0.164640  0.937892  1
  O  O130  1  0.219389  0.835360  0.437892  1
  O  O131  1  0.719389  0.664640  0.562108  1
  O  O132  1  0.937892  0.219389  0.664640  1
  O  O133  1  0.062108  0.719389  0.835360  1
  O  O134  1  0.562108  0.780611  0.164640  1
  O  O135  1  0.437892  0.280611  0.335360  1
  O  O136  1  0.664640  0.937892  0.219389  1
  O  O137  1  0.835360  0.062108  0.719389  1
  O  O138  1  0.164640  0.562108  0.780611  1
  O  O139  1  0.335360  0.437892  0.280611  1
  O  O140  1  0.219389  0.664640  0.937892  1
  O  O141  1  0.719389  0.835360  0.062108  1
  O  O142  1  0.780611  0.164640  0.562108  1
  O  O143  1  0.280611  0.335360  0.437892  1
  O  O144  1  0.158504  0.553069  0.209226  1
  O  O145  1  0.841496  0.053069  0.290774  1
  O  O146  1  0.341496  0.446931  0.709226  1
  O  O147  1  0.658504  0.946931  0.790774  1
  O  O148  1  0.209226  0.158504  0.553069  1
  O  O149  1  0.290774  0.841496  0.053069  1
  O  O150  1  0.709226  0.341496  0.446931  1
  O  O151  1  0.790774  0.658504  0.946931  1
  O  O152  1  0.553069  0.209226  0.158504  1
  O  O153  1  0.053069  0.290774  0.841496  1
  O  O154  1  0.446931  0.709226  0.341496  1
  O  O155  1  0.946931  0.790774  0.658504  1
  O  O156  1  0.841496  0.446931  0.790774  1
  O  O157  1  0.158504  0.946931  0.709226  1
  O  O158  1  0.658504  0.553069  0.290774  1
  O  O159  1  0.341496  0.053069  0.209226  1
  O  O160  1  0.790774  0.841496  0.446931  1
  O  O161  1  0.709226  0.158504  0.946931  1
  O  O162  1  0.290774  0.658504  0.553069  1
  O  O163  1  0.209226  0.341496  0.053069  1
  O  O164  1  0.446931  0.790774  0.841496  1
  O  O165  1  0.946931  0.709226  0.158504  1
  O  O166  1  0.553069  0.290774  0.658504  1
  O  O167  1  0.053069  0.209226  0.341496  1
  O  O168  1  0.500180  0.662213  0.997438  1
  O  O169  1  0.499820  0.162213  0.502562  1
  O  O170  1  0.999820  0.337787  0.497438  1
  O  O171  1  0.000180  0.837787  0.002562  1
  O  O172  1  0.997438  0.500180  0.662213  1
  O  O173  1  0.502562  0.499820  0.162213  1
  O  O174  1  0.497438  0.999820  0.337787  1
  O  O175  1  0.002562  0.000180  0.837787  1
  O  O176  1  0.662213  0.997438  0.500180  1
  O  O177  1  0.162213  0.502562  0.499820  1
  O  O178  1  0.337787  0.497438  0.999820  1
  O  O179  1  0.837787  0.002562  0.000180  1
  O  O180  1  0.499820  0.337787  0.002562  1
  O  O181  1  0.500180  0.837787  0.497438  1
  O  O182  1  0.000180  0.662213  0.502562  1
  O  O183  1  0.999820  0.162213  0.997438  1
  O  O184  1  0.002562  0.499820  0.337787  1
  O  O185  1  0.497438  0.500180  0.837787  1
  O  O186  1  0.502562  0.000180  0.662213  1
  O  O187  1  0.997438  0.999820  0.162213  1
  O  O188  1  0.337787  0.002562  0.499820  1
  O  O189  1  0.837787  0.497438  0.500180  1
  O  O190  1  0.662213  0.502562  0.000180  1
  O  O191  1  0.162213  0.997438  0.999820  1
