# generated using pymatgen
data_LiMnF3
_symmetry_space_group_name_H-M   'P 1'
_cell_length_a   10.66651488
_cell_length_b   10.66651488
_cell_length_c   10.66651488
_cell_angle_alpha   109.72241959
_cell_angle_beta   109.72241959
_cell_angle_gamma   108.96998247
_symmetry_Int_Tables_number   1
_chemical_formula_structural   LiMnF3
_chemical_formula_sum   'Li16 Mn16 F48'
_cell_volume   934.15907472
_cell_formula_units_Z   16
loop_
 _symmetry_equiv_pos_site_id
 _symmetry_equiv_pos_as_xyz
  1  'x, y, z'
loop_
 _atom_site_type_symbol
 _atom_site_label
 _atom_site_symmetry_multiplicity
 _atom_site_fract_x
 _atom_site_fract_y
 _atom_site_fract_z
 _atom_site_occupancy
  Li  Li0  1  0.873643  0.246964  0.121365  1
  Li  Li1  1  0.500000  0.000000  0.000000  1
  Li  Li2  1  0.746964  0.125600  0.373321  1
  Li  Li3  1  0.000000  0.000000  0.000000  1
  Li  Li4  1  0.875000  0.625000  0.250000  1
  Li  Li5  1  0.500000  0.000000  0.500000  1
  Li  Li6  1  0.375000  0.125000  0.250000  1
  Li  Li7  1  0.252279  0.373643  0.126679  1
  Li  Li8  1  0.374400  0.247721  0.621364  1
  Li  Li9  1  0.500000  0.500000  0.500000  1
  Li  Li10  1  0.625600  0.752279  0.378635  1
  Li  Li11  1  0.747721  0.626357  0.873321  1
  Li  Li12  1  0.125000  0.375000  0.750000  1
  Li  Li13  1  0.625000  0.875000  0.750000  1
  Li  Li14  1  0.253036  0.874400  0.626679  1
  Li  Li15  1  0.126357  0.753036  0.878636  1
  Mn  Mn16  1  0.869669  0.119669  0.750000  1
  Mn  Mn17  1  0.500000  0.500000  0.000000  1
  Mn  Mn18  1  0.619669  0.369669  0.250000  1
  Mn  Mn19  1  0.758392  0.896681  0.115914  1
  Mn  Mn20  1  0.719234  0.357523  0.615914  1
  Mn  Mn21  1  0.857523  0.741608  0.638289  1
  Mn  Mn22  1  0.396681  0.780766  0.138289  1
  Mn  Mn23  1  0.000000  0.500000  0.000000  1
  Mn  Mn24  1  0.000000  0.000000  0.500000  1
  Mn  Mn25  1  0.603319  0.219234  0.861711  1
  Mn  Mn26  1  0.142477  0.258392  0.361711  1
  Mn  Mn27  1  0.280766  0.642477  0.384086  1
  Mn  Mn28  1  0.241608  0.103319  0.884086  1
  Mn  Mn29  1  0.130331  0.880331  0.250000  1
  Mn  Mn30  1  0.000000  0.500000  0.500000  1
  Mn  Mn31  1  0.380331  0.630331  0.750000  1
  F  F32  1  0.924744  0.101829  0.135114  1
  F  F33  1  0.907543  0.090335  0.368232  1
  F  F34  1  0.415583  0.132261  0.094922  1
  F  F35  1  0.681640  0.457586  0.095511  1
  F  F36  1  0.704746  0.135972  0.529342  1
  F  F37  1  0.775978  0.316026  0.397510  1
  F  F38  1  0.418516  0.378467  0.102490  1
  F  F39  1  0.179339  0.084417  0.216678  1
  F  F40  1  0.632261  0.037339  0.716678  1
  F  F41  1  0.106630  0.175405  0.970658  1
  F  F42  1  0.862075  0.586129  0.404489  1
  F  F43  1  0.957586  0.362075  0.775946  1
  F  F44  1  0.913871  0.818360  0.275946  1
  F  F45  1  0.537339  0.320661  0.405078  1
  F  F46  1  0.533286  0.210372  0.635114  1
  F  F47  1  0.590335  0.722104  0.182793  1
  F  F48  1  0.960689  0.592457  0.682793  1
  F  F49  1  0.878467  0.275978  0.959951  1
  F  F50  1  0.183974  0.081484  0.459951  1
  F  F51  1  0.675405  0.204746  0.068775  1
  F  F52  1  0.364028  0.393370  0.568775  1
  F  F53  1  0.222104  0.539311  0.131768  1
  F  F54  1  0.289628  0.424744  0.322914  1
  F  F55  1  0.398171  0.033286  0.822914  1
  F  F56  1  0.601829  0.966714  0.177086  1
  F  F57  1  0.710372  0.575256  0.677086  1
  F  F58  1  0.777896  0.460689  0.868232  1
  F  F59  1  0.324595  0.795254  0.931225  1
  F  F60  1  0.635972  0.606630  0.431225  1
  F  F61  1  0.816026  0.918516  0.540049  1
  F  F62  1  0.121533  0.724022  0.040049  1
  F  F63  1  0.409665  0.277896  0.817207  1
  F  F64  1  0.039311  0.407543  0.317207  1
  F  F65  1  0.466714  0.789628  0.364886  1
  F  F66  1  0.462661  0.679339  0.594922  1
  F  F67  1  0.042414  0.637925  0.224054  1
  F  F68  1  0.086129  0.181640  0.724054  1
  F  F69  1  0.137925  0.413871  0.595511  1
  F  F70  1  0.893370  0.824595  0.029342  1
  F  F71  1  0.820661  0.915583  0.783322  1
  F  F72  1  0.367739  0.962661  0.283322  1
  F  F73  1  0.581484  0.621533  0.897510  1
  F  F74  1  0.224022  0.683974  0.602490  1
  F  F75  1  0.295254  0.864028  0.470658  1
  F  F76  1  0.318360  0.542414  0.904489  1
  F  F77  1  0.584417  0.867739  0.905078  1
  F  F78  1  0.092457  0.909665  0.631768  1
  F  F79  1  0.075256  0.898171  0.864886  1
