# generated using pymatgen
data_Li8MnFe7(BO3)8
_symmetry_space_group_name_H-M   'P 1'
_cell_length_a   5.24375627
_cell_length_b   9.04216378
_cell_length_c   10.39727226
_cell_angle_alpha   90.98763092
_cell_angle_beta   90.75127910
_cell_angle_gamma   89.65831079
_symmetry_Int_Tables_number   1
_chemical_formula_structural   Li8MnFe7(BO3)8
_chemical_formula_sum   'Li8 Mn1 Fe7 B8 O24'
_cell_volume   492.86192771
_cell_formula_units_Z   1
loop_
 _symmetry_equiv_pos_site_id
 _symmetry_equiv_pos_as_xyz
  1  'x, y, z'
loop_
 _atom_site_type_symbol
 _atom_site_label
 _atom_site_symmetry_multiplicity
 _atom_site_fract_x
 _atom_site_fract_y
 _atom_site_fract_z
 _atom_site_occupancy
  Li  Li0  1  0.850316  0.826147  0.667476  1
  Li  Li1  1  0.814577  0.837021  0.166533  1
  Li  Li2  1  0.677626  0.666781  0.415585  1
  Li  Li3  1  0.663866  0.673594  0.917339  1
  Li  Li4  1  0.350362  0.326780  0.668649  1
  Li  Li5  1  0.313987  0.340207  0.166037  1
  Li  Li6  1  0.178674  0.167745  0.417837  1
  Li  Li7  1  0.163122  0.176082  0.915905  1
  Mn  Mn8  1  0.324474  0.000551  0.135067  1
  Fe  Fe9  1  0.821763  0.496236  0.133618  1
  Fe  Fe10  1  0.838510  0.158563  0.633685  1
  Fe  Fe11  1  0.662458  0.337381  0.384391  1
  Fe  Fe12  1  0.663553  0.002177  0.882042  1
  Fe  Fe13  1  0.344933  0.658840  0.630889  1
  Fe  Fe14  1  0.162948  0.837208  0.384510  1
  Fe  Fe15  1  0.163725  0.507384  0.881260  1
  B  B16  1  0.828758  0.170754  0.124556  1
  B  B17  1  0.839285  0.497787  0.625823  1
  B  B18  1  0.667769  0.003103  0.377618  1
  B  B19  1  0.671748  0.333550  0.875149  1
  B  B20  1  0.327179  0.667590  0.127163  1
  B  B21  1  0.337321  0.999085  0.625775  1
  B  B22  1  0.166172  0.502464  0.376554  1
  B  B23  1  0.173022  0.834197  0.874780  1
  O  O24  1  0.906553  0.514193  0.346875  1
  O  O25  1  0.911387  0.827493  0.862020  1
  O  O26  1  0.822891  0.209248  0.844717  1
  O  O27  1  0.805860  0.126669  0.415438  1
  O  O28  1  0.785787  0.865557  0.364372  1
  O  O29  1  0.789830  0.464486  0.916038  1
  O  O30  1  0.722938  0.636069  0.613536  1
  O  O31  1  0.712596  0.035149  0.095047  1
  O  O32  1  0.699475  0.371378  0.595562  1
  O  O33  1  0.681409  0.291539  0.165634  1
  O  O34  1  0.590010  0.679812  0.113652  1
  O  O35  1  0.593723  0.988041  0.663713  1
  O  O36  1  0.406227  0.013828  0.348993  1
  O  O37  1  0.410149  0.325495  0.862381  1
  O  O38  1  0.321910  0.708262  0.846293  1
  O  O39  1  0.304806  0.626384  0.417309  1
  O  O40  1  0.285631  0.366221  0.363374  1
  O  O41  1  0.291829  0.965628  0.913998  1
  O  O42  1  0.206799  0.534662  0.096184  1
  O  O43  1  0.222249  0.136297  0.613255  1
  O  O44  1  0.198055  0.870707  0.597408  1
  O  O45  1  0.181380  0.789145  0.167666  1
  O  O46  1  0.089357  0.184899  0.111116  1
  O  O47  1  0.093599  0.488212  0.664776  1
