# generated using pymatgen
data_Li3MnF5
_symmetry_space_group_name_H-M   'P 1'
_cell_length_a   10.84020347
_cell_length_b   5.86237612
_cell_length_c   6.03266261
_cell_angle_alpha   90.00000000
_cell_angle_beta   90.00000000
_cell_angle_gamma   90.00000000
_symmetry_Int_Tables_number   1
_chemical_formula_structural   Li3MnF5
_chemical_formula_sum   'Li12 Mn4 F20'
_cell_volume   383.37178738
_cell_formula_units_Z   4
loop_
 _symmetry_equiv_pos_site_id
 _symmetry_equiv_pos_as_xyz
  1  'x, y, z'
loop_
 _atom_site_type_symbol
 _atom_site_label
 _atom_site_symmetry_multiplicity
 _atom_site_fract_x
 _atom_site_fract_y
 _atom_site_fract_z
 _atom_site_occupancy
  Li  Li0  1  0.005892  0.758086  0.170429  1
  Li  Li1  1  0.230109  0.010368  0.541633  1
  Li  Li2  1  0.267731  0.561945  0.869584  1
  Li  Li3  1  0.232269  0.438055  0.369584  1
  Li  Li4  1  0.269891  0.989632  0.041633  1
  Li  Li5  1  0.494108  0.241914  0.670429  1
  Li  Li6  1  0.505892  0.741914  0.829571  1
  Li  Li7  1  0.730109  0.489632  0.458367  1
  Li  Li8  1  0.767731  0.938055  0.130416  1
  Li  Li9  1  0.732269  0.061945  0.630416  1
  Li  Li10  1  0.769891  0.510368  0.958367  1
  Li  Li11  1  0.994108  0.258086  0.329571  1
  Mn  Mn12  1  0.038625  0.196327  0.848215  1
  Mn  Mn13  1  0.461375  0.803673  0.348215  1
  Mn  Mn14  1  0.538625  0.303673  0.151785  1
  Mn  Mn15  1  0.961375  0.696327  0.651785  1
  F  F16  1  0.954770  0.507196  0.977785  1
  F  F17  1  0.069726  0.558534  0.401776  1
  F  F18  1  0.120038  0.833803  0.892786  1
  F  F19  1  0.165897  0.226909  0.144422  1
  F  F20  1  0.204674  0.304850  0.696434  1
  F  F21  1  0.295326  0.695150  0.196434  1
  F  F22  1  0.334103  0.773091  0.644422  1
  F  F23  1  0.379962  0.166197  0.392786  1
  F  F24  1  0.430274  0.441466  0.901776  1
  F  F25  1  0.545230  0.492804  0.477785  1
  F  F26  1  0.454770  0.992804  0.022215  1
  F  F27  1  0.569726  0.941466  0.598224  1
  F  F28  1  0.620038  0.666197  0.107214  1
  F  F29  1  0.665897  0.273091  0.855578  1
  F  F30  1  0.704674  0.195150  0.303566  1
  F  F31  1  0.795326  0.804850  0.803566  1
  F  F32  1  0.834103  0.726909  0.355578  1
  F  F33  1  0.879962  0.333803  0.607214  1
  F  F34  1  0.930274  0.058534  0.098224  1
  F  F35  1  0.045230  0.007196  0.522215  1
