# generated using pymatgen
data_LiCrPO4
_symmetry_space_group_name_H-M   'P 1'
_cell_length_a   8.51529247
_cell_length_b   7.44501550
_cell_length_c   14.89447511
_cell_angle_alpha   90.00000000
_cell_angle_beta   91.97323945
_cell_angle_gamma   90.00000000
_symmetry_Int_Tables_number   1
_chemical_formula_structural   LiCrPO4
_chemical_formula_sum   'Li12 Cr12 P12 O48'
_cell_volume   943.69743198
_cell_formula_units_Z   12
loop_
 _symmetry_equiv_pos_site_id
 _symmetry_equiv_pos_as_xyz
  1  'x, y, z'
loop_
 _atom_site_type_symbol
 _atom_site_label
 _atom_site_symmetry_multiplicity
 _atom_site_fract_x
 _atom_site_fract_y
 _atom_site_fract_z
 _atom_site_occupancy
  Li  Li0  1  0.059164  0.675112  0.404677  1
  Li  Li1  1  0.078508  0.812407  0.758800  1
  Li  Li2  1  0.089029  0.685441  0.081090  1
  Li  Li3  1  0.410971  0.185441  0.418910  1
  Li  Li4  1  0.421492  0.312407  0.741200  1
  Li  Li5  1  0.440836  0.175112  0.095323  1
  Li  Li6  1  0.559164  0.824888  0.904677  1
  Li  Li7  1  0.578508  0.687593  0.258800  1
  Li  Li8  1  0.589029  0.814559  0.581090  1
  Li  Li9  1  0.910971  0.314559  0.918910  1
  Li  Li10  1  0.921492  0.187593  0.241200  1
  Li  Li11  1  0.940836  0.324888  0.595323  1
  Cr  Cr12  1  0.239257  0.953341  0.927161  1
  Cr  Cr13  1  0.239111  0.032280  0.582905  1
  Cr  Cr14  1  0.250111  0.482677  0.251392  1
  Cr  Cr15  1  0.249889  0.982677  0.248608  1
  Cr  Cr16  1  0.260889  0.532280  0.917095  1
  Cr  Cr17  1  0.260743  0.453341  0.572839  1
  Cr  Cr18  1  0.739257  0.546659  0.427161  1
  Cr  Cr19  1  0.739111  0.467720  0.082905  1
  Cr  Cr20  1  0.750111  0.017323  0.751392  1
  Cr  Cr21  1  0.749889  0.517323  0.748608  1
  Cr  Cr22  1  0.760889  0.967720  0.417095  1
  Cr  Cr23  1  0.760743  0.046659  0.072839  1
  P  P24  1  0.060473  0.263922  0.410353  1
  P  P25  1  0.087545  0.224298  0.771634  1
  P  P26  1  0.112657  0.267997  0.077454  1
  P  P27  1  0.387343  0.767997  0.422546  1
  P  P28  1  0.412455  0.724298  0.728366  1
  P  P29  1  0.439527  0.763922  0.089647  1
  P  P30  1  0.560473  0.236078  0.910353  1
  P  P31  1  0.587545  0.275702  0.271634  1
  P  P32  1  0.612657  0.232003  0.577454  1
  P  P33  1  0.887343  0.732003  0.922546  1
  P  P34  1  0.912455  0.775702  0.228366  1
  P  P35  1  0.939527  0.736078  0.589647  1
  O  O36  1  0.958327  0.436114  0.400582  1
  O  O37  1  0.030255  0.895724  0.631716  1
  O  O38  1  0.058031  0.775871  0.957320  1
  O  O39  1  0.107659  0.373101  0.844053  1
  O  O40  1  0.102903  0.232049  0.513534  1
  O  O41  1  0.076885  0.746278  0.276391  1
  O  O42  1  0.115268  0.280701  0.183696  1
  O  O43  1  0.082825  0.041912  0.822067  1
  O  O44  1  0.163889  0.452809  0.041561  1
  O  O45  1  0.217428  0.223150  0.701167  1
  O  O46  1  0.228842  0.123294  0.048902  1
  O  O47  1  0.216719  0.287424  0.361601  1
  O  O48  1  0.282572  0.723150  0.798833  1
  O  O49  1  0.283281  0.787424  0.138399  1
  O  O50  1  0.271158  0.623294  0.451098  1
  O  O51  1  0.336111  0.952809  0.458439  1
  O  O52  1  0.417175  0.541912  0.677933  1
  O  O53  1  0.384732  0.780701  0.316304  1
  O  O54  1  0.397097  0.732049  0.986466  1
  O  O55  1  0.392341  0.873101  0.655947  1
  O  O56  1  0.423115  0.246278  0.223609  1
  O  O57  1  0.441969  0.275871  0.542680  1
  O  O58  1  0.469745  0.395724  0.868284  1
  O  O59  1  0.541673  0.936114  0.099418  1
  O  O60  1  0.458327  0.063886  0.900582  1
  O  O61  1  0.530255  0.604276  0.131716  1
  O  O62  1  0.558031  0.724129  0.457320  1
  O  O63  1  0.576885  0.753722  0.776391  1
  O  O64  1  0.607659  0.126899  0.344053  1
  O  O65  1  0.602903  0.267951  0.013534  1
  O  O66  1  0.615268  0.219299  0.683696  1
  O  O67  1  0.582825  0.458088  0.322067  1
  O  O68  1  0.663889  0.047191  0.541561  1
  O  O69  1  0.728842  0.376706  0.548902  1
  O  O70  1  0.716719  0.212576  0.861601  1
  O  O71  1  0.717428  0.276850  0.201167  1
  O  O72  1  0.783281  0.712576  0.638399  1
  O  O73  1  0.771158  0.876706  0.951098  1
  O  O74  1  0.782572  0.776850  0.298833  1
  O  O75  1  0.836111  0.547191  0.958439  1
  O  O76  1  0.917175  0.958088  0.177933  1
  O  O77  1  0.884732  0.719299  0.816304  1
  O  O78  1  0.923115  0.253722  0.723609  1
  O  O79  1  0.897097  0.767951  0.486466  1
  O  O80  1  0.892341  0.626899  0.155947  1
  O  O81  1  0.941969  0.224129  0.042680  1
  O  O82  1  0.969745  0.104276  0.368284  1
  O  O83  1  0.041673  0.563886  0.599418  1
