# generated using pymatgen
data_LiV3(OF3)2
_symmetry_space_group_name_H-M   'P 1'
_cell_length_a   6.06608507
_cell_length_b   6.07498187
_cell_length_c   4.61060657
_cell_angle_alpha   89.99606639
_cell_angle_beta   90.00000000
_cell_angle_gamma   119.95156666
_symmetry_Int_Tables_number   1
_chemical_formula_structural   LiV3(OF3)2
_chemical_formula_sum   'Li1 V3 O2 F6'
_cell_volume   147.21563158
_cell_formula_units_Z   1
loop_
 _symmetry_equiv_pos_site_id
 _symmetry_equiv_pos_as_xyz
  1  'x, y, z'
loop_
 _atom_site_type_symbol
 _atom_site_label
 _atom_site_symmetry_multiplicity
 _atom_site_fract_x
 _atom_site_fract_y
 _atom_site_fract_z
 _atom_site_occupancy
  Li  Li0  1  0.001297  0.000000  0.500000  1
  V  V1  1  0.999894  0.499960  0.999759  1
  V  V2  1  0.499933  0.500040  0.000241  1
  V  V3  1  0.499816  0.000000  0.000000  1
  O  O4  1  0.333379  0.666999  0.809394  1
  O  O5  1  0.666380  0.333001  0.190606  1
  F  F6  1  0.167938  0.831278  0.236261  1
  F  F7  1  0.168689  0.337824  0.236216  1
  F  F8  1  0.336661  0.168722  0.763739  1
  F  F9  1  0.663293  0.831536  0.235411  1
  F  F10  1  0.830865  0.662176  0.763784  1
  F  F11  1  0.831757  0.168464  0.764589  1
