# generated using pymatgen
data_Li2Co(PO3)4
_symmetry_space_group_name_H-M   'P 1'
_cell_length_a   9.42744265
_cell_length_b   10.28333780
_cell_length_c   9.23189684
_cell_angle_alpha   90.00000000
_cell_angle_beta   92.20869486
_cell_angle_gamma   90.00000000
_symmetry_Int_Tables_number   1
_chemical_formula_structural   Li2Co(PO3)4
_chemical_formula_sum   'Li8 Co4 P16 O48'
_cell_volume   894.32666213
_cell_formula_units_Z   4
loop_
 _symmetry_equiv_pos_site_id
 _symmetry_equiv_pos_as_xyz
  1  'x, y, z'
loop_
 _atom_site_type_symbol
 _atom_site_label
 _atom_site_symmetry_multiplicity
 _atom_site_fract_x
 _atom_site_fract_y
 _atom_site_fract_z
 _atom_site_occupancy
  Li  Li0  1  0.493866  0.317267  0.901298  1
  Li  Li1  1  0.004268  0.821708  0.404378  1
  Li  Li2  1  0.495732  0.321709  0.595622  1
  Li  Li3  1  0.504268  0.678292  0.404378  1
  Li  Li4  1  0.006134  0.817267  0.098702  1
  Li  Li5  1  0.993866  0.182733  0.901298  1
  Li  Li6  1  0.506134  0.682733  0.098702  1
  Li  Li7  1  0.995732  0.178291  0.595622  1
  Co  Co8  1  0.517405  0.302290  0.251866  1
  Co  Co9  1  0.017405  0.197710  0.251866  1
  Co  Co10  1  0.482595  0.697710  0.748134  1
  Co  Co11  1  0.982595  0.802290  0.748134  1
  P  P12  1  0.302471  0.893600  0.268851  1
  P  P13  1  0.792125  0.388659  0.051050  1
  P  P14  1  0.197529  0.393600  0.731149  1
  P  P15  1  0.207875  0.611341  0.948950  1
  P  P16  1  0.230319  0.470653  0.242083  1
  P  P17  1  0.269681  0.970653  0.757917  1
  P  P18  1  0.730319  0.029347  0.242083  1
  P  P19  1  0.793584  0.396241  0.477725  1
  P  P20  1  0.802471  0.606400  0.268851  1
  P  P21  1  0.706416  0.896241  0.522275  1
  P  P22  1  0.707875  0.888659  0.948950  1
  P  P23  1  0.293584  0.103759  0.477725  1
  P  P24  1  0.292125  0.111341  0.051050  1
  P  P25  1  0.206416  0.603759  0.522275  1
  P  P26  1  0.769681  0.529347  0.757917  1
  P  P27  1  0.697529  0.106400  0.731149  1
  O  O28  1  0.100600  0.280089  0.748135  1
  O  O29  1  0.112917  0.729206  0.936726  1
  O  O30  1  0.645152  0.626175  0.252319  1
  O  O31  1  0.133756  0.126156  0.063704  1
  O  O32  1  0.612917  0.770794  0.936726  1
  O  O33  1  0.390305  0.462855  0.250150  1
  O  O34  1  0.354848  0.373825  0.747681  1
  O  O35  1  0.827407  0.461261  0.904137  1
  O  O36  1  0.644602  0.991238  0.834430  1
  O  O37  1  0.645847  0.149260  0.262990  1
  O  O38  1  0.842018  0.538951  0.423407  1
  O  O39  1  0.672593  0.961261  0.095863  1
  O  O40  1  0.819448  0.416903  0.648497  1
  O  O41  1  0.636444  0.378656  0.442050  1
  O  O42  1  0.604692  0.791380  0.564403  1
  O  O43  1  0.157982  0.461049  0.576593  1
  O  O44  1  0.387083  0.229206  0.063274  1
  O  O45  1  0.866244  0.873845  0.936296  1
  O  O46  1  0.890305  0.037145  0.250150  1
  O  O47  1  0.657982  0.038951  0.576593  1
  O  O48  1  0.680552  0.916903  0.351503  1
  O  O49  1  0.366244  0.626155  0.936296  1
  O  O50  1  0.144602  0.508762  0.834430  1
  O  O51  1  0.854848  0.126175  0.747681  1
  O  O52  1  0.172593  0.538739  0.095863  1
  O  O53  1  0.899400  0.719911  0.251865  1
  O  O54  1  0.633756  0.373845  0.063704  1
  O  O55  1  0.854153  0.649260  0.737010  1
  O  O56  1  0.887083  0.270794  0.063274  1
  O  O57  1  0.342018  0.961049  0.423407  1
  O  O58  1  0.327407  0.038739  0.904137  1
  O  O59  1  0.895308  0.291380  0.435597  1
  O  O60  1  0.609695  0.537145  0.749850  1
  O  O61  1  0.354153  0.850740  0.737010  1
  O  O62  1  0.863556  0.878656  0.557950  1
  O  O63  1  0.180552  0.583097  0.351503  1
  O  O64  1  0.145152  0.873825  0.252319  1
  O  O65  1  0.104692  0.708620  0.564403  1
  O  O66  1  0.395308  0.208620  0.435597  1
  O  O67  1  0.600600  0.219911  0.748135  1
  O  O68  1  0.355398  0.008762  0.165570  1
  O  O69  1  0.109695  0.962855  0.749850  1
  O  O70  1  0.319448  0.083097  0.648497  1
  O  O71  1  0.136444  0.121344  0.442050  1
  O  O72  1  0.145847  0.350740  0.262990  1
  O  O73  1  0.363556  0.621344  0.557950  1
  O  O74  1  0.399400  0.780089  0.251865  1
  O  O75  1  0.855398  0.491238  0.165570  1
