# generated using pymatgen
data_Li2MnVP2(HO5)2
_symmetry_space_group_name_H-M   'P 1'
_cell_length_a   10.29773524
_cell_length_b   7.41347524
_cell_length_c   5.17723118
_cell_angle_alpha   74.71142838
_cell_angle_beta   82.38108459
_cell_angle_gamma   102.38970043
_symmetry_Int_Tables_number   1
_chemical_formula_structural   Li2MnVP2(HO5)2
_chemical_formula_sum   'Li4 Mn2 V2 P4 H4 O20'
_cell_volume   364.79114862
_cell_formula_units_Z   2
loop_
 _symmetry_equiv_pos_site_id
 _symmetry_equiv_pos_as_xyz
  1  'x, y, z'
loop_
 _atom_site_type_symbol
 _atom_site_label
 _atom_site_symmetry_multiplicity
 _atom_site_fract_x
 _atom_site_fract_y
 _atom_site_fract_z
 _atom_site_occupancy
  Li  Li0  1  0.288792  0.105068  0.639278  1
  Li  Li1  1  0.215279  0.387637  0.869370  1
  Li  Li2  1  0.780910  0.616779  0.131217  1
  Li  Li3  1  0.715451  0.894055  0.356987  1
  Mn  Mn4  1  0.251033  0.748402  0.250135  1
  Mn  Mn5  1  0.501395  0.502268  0.495628  1
  V  V6  1  0.999875  0.997154  0.006366  1
  V  V7  1  0.747789  0.250843  0.749357  1
  P  P8  1  0.062537  0.294605  0.387374  1
  P  P9  1  0.434273  0.200170  0.122452  1
  P  P10  1  0.568043  0.801541  0.866738  1
  P  P11  1  0.934249  0.702613  0.626234  1
  H  H12  1  0.138123  0.792358  0.845518  1
  H  H13  1  0.365592  0.703867  0.652648  1
  H  H14  1  0.636033  0.302320  0.337489  1
  H  H15  1  0.860974  0.201299  0.160851  1
  O  O16  1  0.089178  0.159994  0.213733  1
  O  O17  1  0.109682  0.225450  0.662427  1
  O  O18  1  0.084527  0.703597  0.588534  1
  O  O19  1  0.154976  0.495356  0.205051  1
  O  O20  1  0.161991  0.879572  0.961106  1
  O  O21  1  0.381923  0.262954  0.856391  1
  O  O22  1  0.410223  0.337077  0.298591  1
  O  O23  1  0.340384  0.613523  0.541395  1
  O  O24  1  0.657654  0.004721  0.681298  1
  O  O25  1  0.416367  0.794695  0.910888  1
  O  O26  1  0.587097  0.207713  0.067121  1
  O  O27  1  0.345495  0.998078  0.310229  1
  O  O28  1  0.660242  0.392983  0.445490  1
  O  O29  1  0.596281  0.663290  0.694551  1
  O  O30  1  0.618033  0.742006  0.137126  1
  O  O31  1  0.839841  0.115786  0.045570  1
  O  O32  1  0.839771  0.501355  0.802755  1
  O  O33  1  0.910713  0.291863  0.434891  1
  O  O34  1  0.890055  0.771487  0.346451  1
  O  O35  1  0.905220  0.837521  0.798763  1
