# generated using pymatgen
data_Fe6O5F7
_symmetry_space_group_name_H-M   'P 1'
_cell_length_a   7.29677326
_cell_length_b   5.67947906
_cell_length_c   5.67947906
_cell_angle_alpha   75.47436167
_cell_angle_beta   72.78512700
_cell_angle_gamma   72.78512700
_symmetry_Int_Tables_number   1
_chemical_formula_structural   Fe6O5F7
_chemical_formula_sum   'Fe6 O5 F7'
_cell_volume   211.28809582
_cell_formula_units_Z   1
loop_
 _symmetry_equiv_pos_site_id
 _symmetry_equiv_pos_as_xyz
  1  'x, y, z'
loop_
 _atom_site_type_symbol
 _atom_site_label
 _atom_site_symmetry_multiplicity
 _atom_site_fract_x
 _atom_site_fract_y
 _atom_site_fract_z
 _atom_site_occupancy
  Fe  Fe0  1  0.833333  0.666834  0.666500  1
  Fe  Fe1  1  0.690498  0.330994  0.337891  1
  Fe  Fe2  1  0.333333  0.688776  0.644557  1
  Fe  Fe3  1  0.174197  0.300291  0.317687  1
  Fe  Fe4  1  0.492469  0.015647  0.033042  1
  Fe  Fe5  1  0.976169  0.995442  0.002339  1
  O  O6  1  0.969729  0.219338  0.222568  1
  O  O7  1  0.633827  0.566477  0.565861  1
  O  O8  1  0.032839  0.767472  0.766857  1
  O  O9  1  0.696938  0.110766  0.113995  1
  O  O10  1  0.333333  0.960918  0.372415  1
  F  F11  1  0.662501  0.026778  0.648749  1
  F  F12  1  0.333333  0.385611  0.947722  1
  F  F13  1  0.295944  0.906479  0.902678  1
  F  F14  1  0.370722  0.430656  0.426854  1
  F  F15  1  0.665224  0.638127  0.028524  1
  F  F16  1  0.001443  0.304810  0.695207  1
  F  F17  1  0.004166  0.684585  0.306555  1
