# generated using pymatgen
data_Li2Cu3(P2O7)2
_symmetry_space_group_name_H-M   'P 1'
_cell_length_a   5.29778972
_cell_length_b   6.25954270
_cell_length_c   16.74963613
_cell_angle_alpha   81.36281659
_cell_angle_beta   77.53754166
_cell_angle_gamma   71.51263222
_symmetry_Int_Tables_number   1
_chemical_formula_structural   Li2Cu3(P2O7)2
_chemical_formula_sum   'Li4 Cu6 P8 O28'
_cell_volume   512.36213501
_cell_formula_units_Z   2
loop_
 _symmetry_equiv_pos_site_id
 _symmetry_equiv_pos_as_xyz
  1  'x, y, z'
loop_
 _atom_site_type_symbol
 _atom_site_label
 _atom_site_symmetry_multiplicity
 _atom_site_fract_x
 _atom_site_fract_y
 _atom_site_fract_z
 _atom_site_occupancy
  Li  Li0  1  0.051864  0.233860  0.984986  1
  Li  Li1  1  0.351687  0.724589  0.121194  1
  Li  Li2  1  0.648313  0.275411  0.878806  1
  Li  Li3  1  0.948136  0.766140  0.015014  1
  Cu  Cu4  1  0.180417  0.279101  0.586254  1
  Cu  Cu5  1  0.051129  0.631777  0.823534  1
  Cu  Cu6  1  0.248068  0.970375  0.332995  1
  Cu  Cu7  1  0.751932  0.029625  0.667005  1
  Cu  Cu8  1  0.948871  0.368223  0.176466  1
  Cu  Cu9  1  0.819583  0.720899  0.413746  1
  P  P10  1  0.199496  0.093134  0.799759  1
  P  P11  1  0.371618  0.429924  0.317381  1
  P  P12  1  0.533228  0.242553  0.069748  1
  P  P13  1  0.300501  0.769068  0.546670  1
  P  P14  1  0.699499  0.230933  0.453330  1
  P  P15  1  0.466772  0.757447  0.930252  1
  P  P16  1  0.628382  0.570076  0.682619  1
  P  P17  1  0.800504  0.906866  0.200241  1
  O  O18  1  0.000765  0.041587  0.195895  1
  O  O19  1  0.225809  0.309589  0.069960  1
  O  O20  1  0.217432  0.285747  0.293522  1
  O  O21  1  0.029626  0.313726  0.841022  1
  O  O22  1  0.173277  0.668592  0.336240  1
  O  O23  1  0.155883  0.593041  0.551076  1
  O  O24  1  0.579618  0.029431  0.141410  1
  O  O25  1  0.364311  0.124043  0.714608  1
  O  O26  1  0.102048  0.984281  0.586184  1
  O  O27  1  0.711025  0.138180  0.991750  1
  O  O28  1  0.453414  0.316218  0.403876  1
  O  O29  1  0.614193  0.459649  0.256014  1
  O  O30  1  0.563972  0.166847  0.540524  1
  O  O31  1  0.377629  0.568644  0.908564  1
  O  O32  1  0.622371  0.431356  0.091436  1
  O  O33  1  0.436028  0.833153  0.459476  1
  O  O34  1  0.385807  0.540351  0.743986  1
  O  O35  1  0.546586  0.683782  0.596124  1
  O  O36  1  0.288975  0.861820  0.008249  1
  O  O37  1  0.897952  0.015719  0.413816  1
  O  O38  1  0.635689  0.875957  0.285392  1
  O  O39  1  0.420382  0.970569  0.858590  1
  O  O40  1  0.844117  0.406959  0.448924  1
  O  O41  1  0.826723  0.331408  0.663760  1
  O  O42  1  0.970374  0.686274  0.158978  1
  O  O43  1  0.782568  0.714253  0.706478  1
  O  O44  1  0.774191  0.690411  0.930040  1
  O  O45  1  0.999235  0.958413  0.804105  1
