# generated using pymatgen
data_ZnInH14O7F5
_symmetry_space_group_name_H-M   'P 1'
_cell_length_a   6.67617740
_cell_length_b   9.13926618
_cell_length_c   11.98069342
_cell_angle_alpha   121.07345696
_cell_angle_beta   111.54520436
_cell_angle_gamma   97.97399752
_symmetry_Int_Tables_number   1
_chemical_formula_structural   ZnInH14O7F5
_chemical_formula_sum   'Zn2 In2 H28 O14 F10'
_cell_volume   530.62639303
_cell_formula_units_Z   2
loop_
 _symmetry_equiv_pos_site_id
 _symmetry_equiv_pos_as_xyz
  1  'x, y, z'
loop_
 _atom_site_type_symbol
 _atom_site_label
 _atom_site_symmetry_multiplicity
 _atom_site_fract_x
 _atom_site_fract_y
 _atom_site_fract_z
 _atom_site_occupancy
  Zn  Zn0  1  0.000000  0.500000  0.500000  1
  Zn  Zn1  1  0.500000  0.500000  0.000000  1
  In  In2  1  0.500000  0.000000  0.500000  1
  In  In3  1  0.000000  0.000000  0.000000  1
  H  H4  1  0.016152  0.768220  0.455432  1
  H  H5  1  0.983848  0.231780  0.544568  1
  H  H6  1  0.794991  0.722954  0.472838  1
  H  H7  1  0.205009  0.277046  0.527162  1
  H  H8  1  0.178406  0.633490  0.937831  1
  H  H9  1  0.821593  0.366510  0.062169  1
  H  H10  1  0.280480  0.603685  0.831106  1
  H  H11  1  0.719520  0.396315  0.168894  1
  H  H12  1  0.262141  0.815908  0.796580  1
  H  H13  1  0.737859  0.184092  0.203420  1
  H  H14  1  0.443760  0.740002  0.749677  1
  H  H15  1  0.556240  0.259998  0.250323  1
  H  H16  1  0.332130  0.598677  0.436519  1
  H  H17  1  0.667870  0.401323  0.563481  1
  H  H18  1  0.756576  0.620071  0.651045  1
  H  H19  1  0.243424  0.379929  0.348955  1
  H  H20  1  0.815226  0.597610  0.932380  1
  H  H21  1  0.184774  0.402390  0.067620  1
  H  H22  1  0.402024  0.589974  0.229289  1
  H  H23  1  0.597976  0.410026  0.770711  1
  H  H24  1  0.749893  0.872512  0.142110  1
  H  H25  1  0.250107  0.127488  0.857890  1
  H  H26  1  0.877107  0.829165  0.258601  1
  H  H27  1  0.122893  0.170835  0.741399  1
  H  H28  1  0.313362  0.914826  0.209231  1
  H  H29  1  0.686638  0.085174  0.790769  1
  H  H30  1  0.568363  0.908084  0.260859  1
  H  H31  1  0.431637  0.091916  0.739141  1
  O  O32  1  0.246541  0.555255  0.883150  1
  O  O33  1  0.753459  0.444745  0.116850  1
  O  O34  1  0.327682  0.511701  0.116867  1
  O  O35  1  0.672318  0.488299  0.883133  1
  O  O36  1  0.720316  0.803704  0.182126  1
  O  O37  1  0.279684  0.196296  0.817874  1
  O  O38  1  0.285196  0.700520  0.737275  1
  O  O39  1  0.714804  0.299480  0.262725  1
  O  O40  1  0.953653  0.722934  0.500413  1
  O  O41  1  0.046347  0.277066  0.499587  1
  O  O42  1  0.763631  0.505644  0.574949  1
  O  O43  1  0.236369  0.494356  0.425051  1
  O  O44  1  0.471330  0.970489  0.300007  1
  O  O45  1  0.528670  0.029511  0.699993  1
  F  F46  1  0.133972  0.875942  0.398383  1
  F  F47  1  0.866028  0.124058  0.601617  1
  F  F48  1  0.515829  0.734468  0.416567  1
  F  F49  1  0.484171  0.265532  0.583433  1
  F  F50  1  0.716862  0.785470  0.780289  1
  F  F51  1  0.283138  0.214530  0.219711  1
  F  F52  1  0.218909  0.999164  0.910311  1
  F  F53  1  0.781091  0.000836  0.089689  1
  F  F54  1  0.076253  0.796888  0.029982  1
  F  F55  1  0.923747  0.203112  0.970018  1
