# generated using pymatgen
data_V6O5F19
_symmetry_space_group_name_H-M   'P 1'
_cell_length_a   5.62311408
_cell_length_b   5.37837679
_cell_length_c   14.83136265
_cell_angle_alpha   89.58446990
_cell_angle_beta   100.38171778
_cell_angle_gamma   93.35485410
_symmetry_Int_Tables_number   1
_chemical_formula_structural   V6O5F19
_chemical_formula_sum   'V6 O5 F19'
_cell_volume   440.44648921
_cell_formula_units_Z   1
loop_
 _symmetry_equiv_pos_site_id
 _symmetry_equiv_pos_as_xyz
  1  'x, y, z'
loop_
 _atom_site_type_symbol
 _atom_site_label
 _atom_site_symmetry_multiplicity
 _atom_site_fract_x
 _atom_site_fract_y
 _atom_site_fract_z
 _atom_site_occupancy
  V  V0  1  0.058295  0.959611  0.004128  1
  V  V1  1  0.200517  0.456431  0.329381  1
  V  V2  1  0.264870  0.032181  0.662817  1
  V  V3  1  0.514285  0.489958  0.998797  1
  V  V4  1  0.711849  0.965339  0.337302  1
  V  V5  1  0.775777  0.484669  0.665377  1
  O  O6  1  0.029923  0.205580  0.641724  1
  O  O7  1  0.360368  0.228831  0.310768  1
  O  O8  1  0.530550  0.293901  0.643962  1
  O  O9  1  0.294627  0.789307  0.023166  1
  O  O10  1  0.943590  0.796253  0.355940  1
  F  F11  1  0.208289  0.273180  0.977118  1
  F  F12  1  0.135835  0.727784  0.690374  1
  F  F13  1  0.029288  0.084380  0.111154  1
  F  F14  1  0.191241  0.437064  0.447951  1
  F  F15  1  0.396132  0.087385  0.778978  1
  F  F16  1  0.118427  0.597129  0.220649  1
  F  F17  1  0.311755  0.928870  0.554439  1
  F  F18  1  0.445226  0.600444  0.884995  1
  F  F19  1  0.676682  0.221510  0.975291  1
  F  F20  1  0.463919  0.712574  0.360177  1
  F  F21  1  0.650445  0.765736  0.693244  1
  F  F22  1  0.530916  0.441101  0.117957  1
  F  F23  1  0.704015  0.096837  0.445924  1
  F  F24  1  0.905716  0.411883  0.779271  1
  F  F25  1  0.595085  0.929300  0.218829  1
  F  F26  1  0.814859  0.574164  0.553696  1
  F  F27  1  0.939731  0.929629  0.886403  1
  F  F28  1  0.881268  0.275169  0.306827  1
  F  F29  1  0.816521  0.703800  0.023357  1
