# generated using pymatgen
data_H9PtN2ClO2
_symmetry_space_group_name_H-M   'P 1'
_cell_length_a   8.02793942
_cell_length_b   4.39303277
_cell_length_c   17.85596842
_cell_angle_alpha   89.99995709
_cell_angle_beta   92.15231533
_cell_angle_gamma   89.99992505
_symmetry_Int_Tables_number   1
_chemical_formula_structural   H9PtN2ClO2
_chemical_formula_sum   'H36 Pt4 N8 Cl4 O8'
_cell_volume   629.28219541
_cell_formula_units_Z   4
loop_
 _symmetry_equiv_pos_site_id
 _symmetry_equiv_pos_as_xyz
  1  'x, y, z'
loop_
 _atom_site_type_symbol
 _atom_site_label
 _atom_site_symmetry_multiplicity
 _atom_site_fract_x
 _atom_site_fract_y
 _atom_site_fract_z
 _atom_site_occupancy
  H  H0  1  0.720953  0.232664  0.740375  1
  H  H1  1  0.220953  0.267339  0.240375  1
  H  H2  1  0.279046  0.767336  0.259625  1
  H  H3  1  0.779047  0.732662  0.759625  1
  H  H4  1  0.038785  0.725686  0.756646  1
  H  H5  1  0.538785  0.774313  0.256646  1
  H  H6  1  0.961215  0.274314  0.243354  1
  H  H7  1  0.461214  0.225687  0.743354  1
  H  H8  1  0.230096  0.661411  0.744123  1
  H  H9  1  0.730095  0.838587  0.244123  1
  H  H10  1  0.769905  0.338588  0.255877  1
  H  H11  1  0.269904  0.161411  0.755877  1
  H  H12  1  0.493139  0.511211  0.575391  1
  H  H13  1  0.993138  0.988789  0.075391  1
  H  H14  1  0.506861  0.488790  0.424609  1
  H  H15  1  0.006862  0.011211  0.924609  1
  H  H16  1  0.461801  0.599282  0.662953  1
  H  H17  1  0.961801  0.900719  0.162953  1
  H  H18  1  0.538199  0.400719  0.337047  1
  H  H19  1  0.038199  0.099281  0.837047  1
  H  H20  1  0.384480  0.820139  0.593859  1
  H  H21  1  0.884480  0.679861  0.093858  1
  H  H22  1  0.615520  0.179861  0.406142  1
  H  H23  1  0.115520  0.320137  0.906141  1
  H  H24  1  0.882423  0.439511  0.630934  1
  H  H25  1  0.382423  0.060490  0.130934  1
  H  H26  1  0.117578  0.560489  0.369066  1
  H  H27  1  0.617576  0.939513  0.869066  1
  H  H28  1  0.993816  0.143120  0.663804  1
  H  H29  1  0.493816  0.356881  0.163804  1
  H  H30  1  0.006184  0.856881  0.336195  1
  H  H31  1  0.506184  0.643120  0.836196  1
  H  H32  1  0.973872  0.202928  0.572184  1
  H  H33  1  0.473871  0.297073  0.072183  1
  H  H34  1  0.026129  0.797073  0.427816  1
  H  H35  1  0.526128  0.702927  0.927817  1
  Pt  Pt36  1  0.699169  0.953008  0.615840  1
  Pt  Pt37  1  0.199170  0.546993  0.115840  1
  Pt  Pt38  1  0.300832  0.046992  0.384160  1
  Pt  Pt39  1  0.800831  0.453008  0.884160  1
  N  N40  1  0.485641  0.692092  0.611697  1
  N  N41  1  0.985641  0.807908  0.111697  1
  N  N42  1  0.514359  0.307909  0.388304  1
  N  N43  1  0.014358  0.192091  0.888304  1
  N  N44  1  0.912257  0.215047  0.621705  1
  N  N45  1  0.412256  0.284953  0.121705  1
  N  N46  1  0.087744  0.784953  0.378295  1
  N  N47  1  0.587744  0.715048  0.878295  1
  Cl  Cl48  1  0.757658  0.805040  0.494654  1
  Cl  Cl49  1  0.257660  0.694965  0.994654  1
  Cl  Cl50  1  0.242339  0.194966  0.505345  1
  Cl  Cl51  1  0.742345  0.305034  0.005347  1
  O  O52  1  0.642932  0.070092  0.722999  1
  O  O53  1  0.142933  0.429905  0.222999  1
  O  O54  1  0.357067  0.929903  0.277001  1
  O  O55  1  0.857065  0.570092  0.777000  1
  O  O56  1  0.146494  0.829102  0.744100  1
  O  O57  1  0.646494  0.670901  0.244101  1
  O  O58  1  0.853506  0.170897  0.255899  1
  O  O59  1  0.353506  0.329100  0.755900  1
