# generated using pymatgen
data_Ag2PHO4
_symmetry_space_group_name_H-M   'P 1'
_cell_length_a   6.28261851
_cell_length_b   6.28261828
_cell_length_c   9.08983088
_cell_angle_alpha   90.00000000
_cell_angle_beta   90.00000000
_cell_angle_gamma   120.00000120
_symmetry_Int_Tables_number   1
_chemical_formula_structural   Ag2PHO4
_chemical_formula_sum   'Ag6 P3 H3 O12'
_cell_volume   310.71898737
_cell_formula_units_Z   3
loop_
 _symmetry_equiv_pos_site_id
 _symmetry_equiv_pos_as_xyz
  1  'x, y, z'
loop_
 _atom_site_type_symbol
 _atom_site_label
 _atom_site_symmetry_multiplicity
 _atom_site_fract_x
 _atom_site_fract_y
 _atom_site_fract_z
 _atom_site_occupancy
  Ag  Ag0  1  0.152159  0.076084  0.000029  1
  Ag  Ag1  1  0.923916  0.076076  0.333363  1
  Ag  Ag2  1  0.923924  0.847841  0.666696  1
  Ag  Ag3  1  0.595574  0.797783  0.000010  1
  Ag  Ag4  1  0.202217  0.797790  0.333344  1
  Ag  Ag5  1  0.202210  0.404426  0.666677  1
  P  P6  1  0.974561  0.487292  0.000005  1
  P  P7  1  0.512708  0.487269  0.333339  1
  P  P8  1  0.512731  0.025439  0.666672  1
  H  H9  1  0.640551  0.281006  0.166647  1
  H  H10  1  0.718994  0.359545  0.499981  1
  H  H11  1  0.640455  0.359449  0.833314  1
  O  O12  1  0.136802  0.405665  0.916287  1
  O  O13  1  0.594335  0.731137  0.249621  1
  O  O14  1  0.268863  0.863198  0.582954  1
  O  O15  1  0.136806  0.731131  0.083749  1
  O  O16  1  0.594324  0.863194  0.750415  1
  O  O17  1  0.268869  0.405676  0.417082  1
  O  O18  1  0.806940  0.272019  0.106963  1
  O  O19  1  0.727981  0.534921  0.440297  1
  O  O20  1  0.465079  0.193060  0.773630  1
  O  O21  1  0.806970  0.534950  0.893043  1
  O  O22  1  0.727980  0.193030  0.559709  1
  O  O23  1  0.465050  0.272020  0.226376  1
