# generated using pymatgen
data_Li8Fe3Co5O16
_symmetry_space_group_name_H-M   'P 1'
_cell_length_a   2.89597656
_cell_length_b   5.08732357
_cell_length_c   18.95017642
_cell_angle_alpha   85.38636571
_cell_angle_beta   90.00000000
_cell_angle_gamma   90.00000000
_symmetry_Int_Tables_number   1
_chemical_formula_structural   Li8Fe3Co5O16
_chemical_formula_sum   'Li8 Fe3 Co5 O16'
_cell_volume   278.28395087
_cell_formula_units_Z   1
loop_
 _symmetry_equiv_pos_site_id
 _symmetry_equiv_pos_as_xyz
  1  'x, y, z'
loop_
 _atom_site_type_symbol
 _atom_site_label
 _atom_site_symmetry_multiplicity
 _atom_site_fract_x
 _atom_site_fract_y
 _atom_site_fract_z
 _atom_site_occupancy
  Li  Li0  1  0.499996  0.875016  0.877790  1
  Li  Li1  1  0.999981  0.749998  0.750000  1
  Li  Li2  1  0.499996  0.624984  0.622210  1
  Li  Li3  1  0.000001  0.499309  0.497010  1
  Li  Li4  1  0.500024  0.374669  0.372130  1
  Li  Li5  1  0.000045  0.250000  0.250000  1
  Li  Li6  1  0.000001  0.000691  0.002990  1
  Li  Li7  1  0.500024  0.125331  0.127870  1
  Fe  Fe8  1  -0.000002  0.379441  0.880598  1
  Fe  Fe9  1  -0.000002  0.120559  0.619402  1
  Fe  Fe10  1  0.500005  0.250000  0.750000  1
  Co  Co11  1  0.500001  0.995919  0.494473  1
  Co  Co12  1  0.000004  0.874056  0.372208  1
  Co  Co13  1  0.000004  0.625944  0.127792  1
  Co  Co14  1  0.500001  0.504081  0.005527  1
  Co  Co15  1  0.500006  0.750000  0.250000  1
  O  O16  1  0.500000  0.949834  0.683418  1
  O  O17  1  0.000000  0.830647  0.552205  1
  O  O18  1  0.000006  0.906620  0.191575  1
  O  O19  1  0.000000  0.669353  0.947795  1
  O  O20  1  0.500003  0.719139  0.430355  1
  O  O21  1  0.500003  0.780861  0.069645  1
  O  O22  1  0.500000  0.550166  0.816582  1
  O  O23  1  0.000006  0.593380  0.308425  1
  O  O24  1  1.000000  0.422646  0.686461  1
  O  O25  1  0.500005  0.469317  0.186198  1
  O  O26  1  0.500001  0.209980  0.943422  1
  O  O27  1  0.500001  0.290020  0.556578  1
  O  O28  1  0.000001  0.347806  0.063679  1
  O  O29  1  1.000000  0.077354  0.813539  1
  O  O30  1  0.000001  0.152194  0.436321  1
  O  O31  1  0.500005  0.030683  0.313802  1
