# generated using pymatgen
data_Na6Ni2P(CO4)4
_symmetry_space_group_name_H-M   'P 1'
_cell_length_a   9.81049234
_cell_length_b   9.81049208
_cell_length_c   9.81049187
_cell_angle_alpha   90.00000287
_cell_angle_beta   60.00000177
_cell_angle_gamma   60.00000250
_symmetry_Int_Tables_number   1
_chemical_formula_structural   Na6Ni2P(CO4)4
_chemical_formula_sum   'Na12 Ni4 P2 C8 O32'
_cell_volume   667.66313280
_cell_formula_units_Z   2
loop_
 _symmetry_equiv_pos_site_id
 _symmetry_equiv_pos_as_xyz
  1  'x, y, z'
loop_
 _atom_site_type_symbol
 _atom_site_label
 _atom_site_symmetry_multiplicity
 _atom_site_fract_x
 _atom_site_fract_y
 _atom_site_fract_z
 _atom_site_occupancy
  Na  Na0  1  0.750000  0.662357  0.912357  1
  Na  Na1  1  0.675286  0.912357  0.662357  1
  Na  Na2  1  0.750000  0.662357  0.337643  1
  Na  Na3  1  0.750000  0.087643  0.912357  1
  Na  Na4  1  0.824714  0.337643  0.087643  1
  Na  Na5  1  0.250000  0.912357  0.662357  1
  Na  Na6  1  0.175286  0.662357  0.912357  1
  Na  Na7  1  0.750000  0.087643  0.337643  1
  Na  Na8  1  0.250000  0.912357  0.087643  1
  Na  Na9  1  0.250000  0.337643  0.662357  1
  Na  Na10  1  0.324714  0.087643  0.337643  1
  Na  Na11  1  0.250000  0.337643  0.087643  1
  Ni  Ni12  1  0.500000  0.500000  0.500000  1
  Ni  Ni13  1  0.500000  0.500000  0.000000  1
  Ni  Ni14  1  0.000000  0.500000  0.500000  1
  Ni  Ni15  1  0.000000  0.000000  0.500000  1
  P  P16  1  0.750000  0.875000  0.125000  1
  P  P17  1  0.250000  0.125000  0.875000  1
  C  C18  1  0.933731  0.283135  0.716865  1
  C  C19  1  0.566269  0.650596  0.716865  1
  C  C20  1  0.933731  0.283135  0.349404  1
  C  C21  1  0.566269  0.283135  0.716865  1
  C  C22  1  0.433731  0.716865  0.283135  1
  C  C23  1  0.066269  0.716865  0.650596  1
  C  C24  1  0.433731  0.349404  0.283135  1
  C  C25  1  0.066269  0.716865  0.283135  1
  O  O26  1  0.946055  0.860508  0.653323  1
  O  O27  1  0.946055  0.693437  0.400622  1
  O  O28  1  0.792815  0.400622  0.860508  1
  O  O29  1  0.707185  0.653323  0.693437  1
  O  O30  1  0.959886  0.139492  0.693437  1
  O  O31  1  0.879333  0.939667  0.060333  1
  O  O32  1  0.959886  0.400622  0.346677  1
  O  O33  1  0.620667  0.939667  0.319001  1
  O  O34  1  0.879333  0.680999  0.060333  1
  O  O35  1  0.446055  0.653323  0.860508  1
  O  O36  1  0.540114  0.653323  0.599378  1
  O  O37  1  0.620667  0.939667  0.060333  1
  O  O38  1  0.540114  0.306563  0.860508  1
  O  O39  1  0.792815  0.306563  0.346677  1
  O  O40  1  0.707185  0.139492  0.599378  1
  O  O41  1  0.553945  0.599378  0.306563  1
  O  O42  1  0.446055  0.400622  0.693437  1
  O  O43  1  0.292815  0.860508  0.400622  1
  O  O44  1  0.207185  0.693437  0.653323  1
  O  O45  1  0.459886  0.693437  0.139492  1
  O  O46  1  0.379333  0.060333  0.939667  1
  O  O47  1  0.459886  0.346677  0.400622  1
  O  O48  1  0.553945  0.346677  0.139492  1
  O  O49  1  0.120667  0.319001  0.939667  1
  O  O50  1  0.379333  0.060333  0.680999  1
  O  O51  1  0.040114  0.599378  0.653323  1
  O  O52  1  0.120667  0.060333  0.939667  1
  O  O53  1  0.040114  0.860508  0.306563  1
  O  O54  1  0.292815  0.346677  0.306563  1
  O  O55  1  0.207185  0.599378  0.139492  1
  O  O56  1  0.053945  0.306563  0.599378  1
  O  O57  1  0.053945  0.139492  0.346677  1
