# generated using pymatgen
data_Li2FePCO7
_symmetry_space_group_name_H-M   'P 1'
_cell_length_a   9.38609882
_cell_length_b   10.16284478
_cell_length_c   6.49422290
_cell_angle_alpha   90.00000000
_cell_angle_beta   90.00000000
_cell_angle_gamma   62.19374004
_symmetry_Int_Tables_number   1
_chemical_formula_structural   Li2FePCO7
_chemical_formula_sum   'Li8 Fe4 P4 C4 O28'
_cell_volume   547.94905144
_cell_formula_units_Z   4
loop_
 _symmetry_equiv_pos_site_id
 _symmetry_equiv_pos_as_xyz
  1  'x, y, z'
loop_
 _atom_site_type_symbol
 _atom_site_label
 _atom_site_symmetry_multiplicity
 _atom_site_fract_x
 _atom_site_fract_y
 _atom_site_fract_z
 _atom_site_occupancy
  Li  Li0  1  0.904289  0.428885  0.742316  1
  Li  Li1  1  0.904289  0.928885  0.757684  1
  Li  Li2  1  0.724885  0.264283  0.533192  1
  Li  Li3  1  0.724885  0.764283  0.966808  1
  Li  Li4  1  0.275115  0.235717  0.033192  1
  Li  Li5  1  0.275115  0.735717  0.466808  1
  Li  Li6  1  0.095711  0.071115  0.242316  1
  Li  Li7  1  0.095711  0.571115  0.257684  1
  Fe  Fe8  1  0.670482  0.064700  0.243684  1
  Fe  Fe9  1  0.670482  0.564700  0.256316  1
  Fe  Fe10  1  0.329518  0.435300  0.743684  1
  Fe  Fe11  1  0.329518  0.935300  0.756316  1
  P  P12  1  0.579844  0.070713  0.754098  1
  P  P13  1  0.579844  0.570713  0.745902  1
  P  P14  1  0.420156  0.429287  0.254098  1
  P  P15  1  0.420156  0.929287  0.245902  1
  C  C16  1  0.960619  0.370806  0.242114  1
  C  C17  1  0.960619  0.870806  0.257886  1
  C  C18  1  0.039381  0.129194  0.742114  1
  C  C19  1  0.039381  0.629194  0.757886  1
  O  O20  1  0.922333  0.013019  0.263553  1
  O  O21  1  0.922333  0.513019  0.236447  1
  O  O22  1  0.897000  0.233725  0.723312  1
  O  O23  1  0.838163  0.343590  0.266466  1
  O  O24  1  0.897000  0.733725  0.776688  1
  O  O25  1  0.838163  0.843590  0.233534  1
  O  O26  1  0.694952  0.050557  0.937005  1
  O  O27  1  0.682593  0.065147  0.563357  1
  O  O28  1  0.682593  0.565147  0.936643  1
  O  O29  1  0.694952  0.550557  0.562995  1
  O  O30  1  0.579738  0.283561  0.271692  1
  O  O31  1  0.539244  0.438409  0.740432  1
  O  O32  1  0.579738  0.783561  0.228308  1
  O  O33  1  0.539244  0.938409  0.759568  1
  O  O34  1  0.460756  0.061591  0.240432  1
  O  O35  1  0.420262  0.216439  0.771692  1
  O  O36  1  0.460756  0.561591  0.259568  1
  O  O37  1  0.420262  0.716439  0.728308  1
  O  O38  1  0.305048  0.449443  0.437005  1
  O  O39  1  0.317407  0.434853  0.063357  1
  O  O40  1  0.305048  0.949443  0.062995  1
  O  O41  1  0.317407  0.934853  0.436643  1
  O  O42  1  0.161837  0.156410  0.766466  1
  O  O43  1  0.103000  0.266275  0.223312  1
  O  O44  1  0.161837  0.656410  0.733534  1
  O  O45  1  0.103000  0.766275  0.276688  1
  O  O46  1  0.077667  0.486981  0.763553  1
  O  O47  1  0.077667  0.986981  0.736447  1
