# generated using pymatgen
data_LiMnV(P2O7)2
_symmetry_space_group_name_H-M   'P 1'
_cell_length_a   18.39287067
_cell_length_b   8.15945752
_cell_length_c   7.03218969
_cell_angle_alpha   92.04150385
_cell_angle_beta   87.40314447
_cell_angle_gamma   89.73944948
_symmetry_Int_Tables_number   1
_chemical_formula_structural   LiMnV(P2O7)2
_chemical_formula_sum   'Li4 Mn4 V4 P16 O56'
_cell_volume   1053.58879436
_cell_formula_units_Z   4
loop_
 _symmetry_equiv_pos_site_id
 _symmetry_equiv_pos_as_xyz
  1  'x, y, z'
loop_
 _atom_site_type_symbol
 _atom_site_label
 _atom_site_symmetry_multiplicity
 _atom_site_fract_x
 _atom_site_fract_y
 _atom_site_fract_z
 _atom_site_occupancy
  Li  Li0  1  0.291958  0.863388  0.380349  1
  Li  Li1  1  0.542089  0.863175  0.129916  1
  Li  Li2  1  0.792640  0.863314  0.878970  1
  Li  Li3  1  0.956703  0.358001  0.372147  1
  Mn  Mn4  1  0.195593  0.006900  0.071061  1
  Mn  Mn5  1  0.445571  0.006628  0.820813  1
  Mn  Mn6  1  0.695606  0.007092  0.570140  1
  Mn  Mn7  1  0.948471  0.993080  0.329687  1
  V  V8  1  0.055019  0.506011  0.670220  1
  V  V9  1  0.301079  0.493839  0.418347  1
  V  V10  1  0.550811  0.493958  0.168262  1
  V  V11  1  0.800797  0.495563  0.918460  1
  P  P12  1  0.100178  0.174805  0.418132  1
  P  P13  1  0.055051  0.781069  0.035133  1
  P  P14  1  0.196093  0.286066  0.717633  1
  P  P15  1  0.151147  0.678638  0.333238  1
  P  P16  1  0.304560  0.781541  0.787393  1
  P  P17  1  0.351089  0.176367  0.169507  1
  P  P18  1  0.446257  0.287237  0.468550  1
  P  P19  1  0.400628  0.679130  0.083704  1
  P  P20  1  0.601123  0.176397  0.919408  1
  P  P21  1  0.554537  0.781484  0.537086  1
  P  P22  1  0.650558  0.679306  0.833748  1
  P  P23  1  0.696206  0.287532  0.218395  1
  P  P24  1  0.851576  0.177019  0.671111  1
  P  P25  1  0.804898  0.781780  0.287431  1
  P  P26  1  0.947276  0.290721  0.962150  1
  P  P27  1  0.899688  0.681961  0.583963  1
  O  O28  1  0.011247  0.339232  0.828332  1
  O  O29  1  0.033994  0.679292  0.859554  1
  O  O30  1  0.099844  0.932131  0.990137  1
  O  O31  1  0.044328  0.038209  0.426078  1
  O  O32  1  0.062431  0.344798  0.450633  1
  O  O33  1  0.097623  0.662609  0.508480  1
  O  O34  1  0.147753  0.440095  0.760017  1
  O  O35  1  0.149547  0.151894  0.598822  1
  O  O36  1  0.102067  0.652329  0.151600  1
  O  O37  1  0.220779  0.200141  0.886653  1
  O  O38  1  0.150324  0.174662  0.240142  1
  O  O39  1  0.236138  0.825545  0.909095  1
  O  O40  1  0.187390  0.844173  0.324872  1
  O  O41  1  0.205507  0.535204  0.321577  1
  O  O42  1  0.260927  0.335642  0.583113  1
  O  O43  1  0.285137  0.687044  0.603437  1
  O  O44  1  0.352432  0.652496  0.898902  1
  O  O45  1  0.349516  0.932387  0.735664  1
  O  O46  1  0.399552  0.172779  0.988990  1
  O  O47  1  0.295151  0.038668  0.187375  1
  O  O48  1  0.316339  0.347776  0.200016  1
  O  O49  1  0.346843  0.671839  0.259133  1
  O  O50  1  0.396605  0.439528  0.505324  1
  O  O51  1  0.401271  0.149937  0.349331  1
  O  O52  1  0.470860  0.202234  0.638359  1
  O  O53  1  0.485902  0.825867  0.657975  1
  O  O54  1  0.545237  0.038701  0.937379  1
  O  O55  1  0.437705  0.844212  0.071889  1
  O  O56  1  0.566306  0.347692  0.950060  1
  O  O57  1  0.454664  0.535287  0.073591  1
  O  O58  1  0.511109  0.336517  0.333727  1
  O  O59  1  0.534980  0.687016  0.353342  1
  O  O60  1  0.602149  0.652606  0.649249  1
  O  O61  1  0.599448  0.932296  0.485374  1
  O  O62  1  0.649664  0.172702  0.738834  1
  O  O63  1  0.687776  0.844314  0.821306  1
  O  O64  1  0.704519  0.535374  0.823433  1
  O  O65  1  0.596798  0.671939  0.009209  1
  O  O66  1  0.646495  0.439477  0.255368  1
  O  O67  1  0.651460  0.149971  0.099032  1
  O  O68  1  0.721073  0.202298  0.388080  1
  O  O69  1  0.736087  0.827689  0.406939  1
  O  O70  1  0.796230  0.038869  0.685454  1
  O  O71  1  0.816488  0.347860  0.700748  1
  O  O72  1  0.846469  0.669604  0.760401  1
  O  O73  1  0.761168  0.337673  0.084397  1
  O  O74  1  0.784919  0.689881  0.102369  1
  O  O75  1  0.901866  0.150400  0.850301  1
  O  O76  1  0.850496  0.648877  0.398910  1
  O  O77  1  0.851608  0.931331  0.240253  1
  O  O78  1  0.900619  0.176462  0.489306  1
  O  O79  1  0.932926  0.848230  0.573334  1
  O  O80  1  0.953862  0.537230  0.565300  1
  O  O81  1  0.896712  0.441349  0.005130  1
  O  O82  1  0.969340  0.214110  0.142385  1
  O  O83  1  0.985116  0.822044  0.153588  1
