# generated using pymatgen
data_V4O7F5
_symmetry_space_group_name_H-M   'P 1'
_cell_length_a   5.23917080
_cell_length_b   5.32672754
_cell_length_c   9.14692716
_cell_angle_alpha   71.82546181
_cell_angle_beta   89.03245758
_cell_angle_gamma   61.75585929
_symmetry_Int_Tables_number   1
_chemical_formula_structural   V4O7F5
_chemical_formula_sum   'V4 O7 F5'
_cell_volume   211.03578034
_cell_formula_units_Z   1
loop_
 _symmetry_equiv_pos_site_id
 _symmetry_equiv_pos_as_xyz
  1  'x, y, z'
loop_
 _atom_site_type_symbol
 _atom_site_label
 _atom_site_symmetry_multiplicity
 _atom_site_fract_x
 _atom_site_fract_y
 _atom_site_fract_z
 _atom_site_occupancy
  V  V0  1  0.788541  0.470777  0.268685  1
  V  V1  1  0.542555  0.992362  0.496153  1
  V  V2  1  0.295398  0.494679  0.760181  1
  V  V3  1  0.041953  0.958550  0.020201  1
  O  O4  1  0.883317  0.766188  0.586461  1
  O  O5  1  0.905422  0.767824  0.151853  1
  O  O6  1  0.398719  0.758768  0.084859  1
  O  O7  1  0.391054  0.749550  0.656617  1
  O  O8  1  0.572332  0.253677  0.341100  1
  O  O9  1  0.575288  0.258724  0.902358  1
  O  O10  1  0.075588  0.250633  0.408304  1
  F  F11  1  0.949205  0.265143  0.113037  1
  F  F12  1  0.537307  0.750102  0.377518  1
  F  F13  1  0.425675  0.252986  0.624402  1
  F  F14  1  0.044448  0.750949  0.874196  1
  F  F15  1  0.073200  0.259089  0.834076  1
