# generated using pymatgen
data_Na8Co5O14
_symmetry_space_group_name_H-M   'P 1'
_cell_length_a   10.32211635
_cell_length_b   8.26357634
_cell_length_c   8.46594064
_cell_angle_alpha   112.55229225
_cell_angle_beta   103.75275777
_cell_angle_gamma   103.28577502
_symmetry_Int_Tables_number   1
_chemical_formula_structural   Na8Co5O14
_chemical_formula_sum   'Na16 Co10 O28'
_cell_volume   604.89396873
_cell_formula_units_Z   2
loop_
 _symmetry_equiv_pos_site_id
 _symmetry_equiv_pos_as_xyz
  1  'x, y, z'
loop_
 _atom_site_type_symbol
 _atom_site_label
 _atom_site_symmetry_multiplicity
 _atom_site_fract_x
 _atom_site_fract_y
 _atom_site_fract_z
 _atom_site_occupancy
  Na  Na0  1  0.012144  0.441971  0.666069  1
  Na  Na1  1  0.000000  0.000000  0.000000  1
  Na  Na2  1  0.156611  0.151208  0.647754  1
  Na  Na3  1  0.160365  0.295939  0.364594  1
  Na  Na4  1  0.107379  0.372672  0.015342  1
  Na  Na5  1  0.297162  0.709121  0.416385  1
  Na  Na6  1  0.382090  0.103519  0.474450  1
  Na  Na7  1  0.432102  0.560612  0.123935  1
  Na  Na8  1  0.500000  0.500000  0.500000  1
  Na  Na9  1  0.567898  0.439388  0.876065  1
  Na  Na10  1  0.617910  0.896481  0.525550  1
  Na  Na11  1  0.702838  0.290879  0.583615  1
  Na  Na12  1  0.892621  0.627328  0.984658  1
  Na  Na13  1  0.839635  0.704061  0.635406  1
  Na  Na14  1  0.843389  0.848792  0.352246  1
  Na  Na15  1  0.987856  0.558029  0.333931  1
  Co  Co16  1  0.170813  0.862952  0.747636  1
  Co  Co17  1  0.225821  0.794374  0.066445  1
  Co  Co18  1  0.338922  0.609999  0.765564  1
  Co  Co19  1  0.333248  0.169233  0.105302  1
  Co  Co20  1  0.471298  0.033806  0.836444  1
  Co  Co21  1  0.528702  0.966194  0.163556  1
  Co  Co22  1  0.666752  0.830767  0.894698  1
  Co  Co23  1  0.661078  0.390001  0.234436  1
  Co  Co24  1  0.774179  0.205626  0.933555  1
  Co  Co25  1  0.829187  0.137048  0.252364  1
  O  O26  1  0.022816  0.837020  0.567764  1
  O  O27  1  0.064745  0.749908  0.856570  1
  O  O28  1  0.190382  0.628681  0.603917  1
  O  O29  1  0.240356  0.566376  0.911018  1
  O  O30  1  0.125330  0.693656  0.167873  1
  O  O31  1  0.181965  0.104703  0.900800  1
  O  O32  1  0.308240  0.978962  0.661535  1
  O  O33  1  0.352158  0.927335  0.962512  1
  O  O34  1  0.349664  0.390898  0.642952  1
  O  O35  1  0.228503  0.041114  0.196698  1
  O  O36  1  0.311288  0.392909  0.234775  1
  O  O37  1  0.528488  0.737020  0.989393  1
  O  O38  1  0.483821  0.790832  0.713352  1
  O  O39  1  0.409804  0.853283  0.254578  1
  O  O40  1  0.590196  0.146717  0.745422  1
  O  O41  1  0.516179  0.209168  0.286648  1
  O  O42  1  0.471512  0.262980  0.010607  1
  O  O43  1  0.688712  0.607091  0.765225  1
  O  O44  1  0.771497  0.958886  0.803302  1
  O  O45  1  0.650336  0.609102  0.357048  1
  O  O46  1  0.647842  0.072665  0.037488  1
  O  O47  1  0.691760  0.021038  0.338465  1
  O  O48  1  0.818035  0.895297  0.099200  1
  O  O49  1  0.874670  0.306344  0.832127  1
  O  O50  1  0.759644  0.433624  0.088982  1
  O  O51  1  0.809618  0.371319  0.396083  1
  O  O52  1  0.935255  0.250092  0.143430  1
  O  O53  1  0.977184  0.162980  0.432236  1
