# generated using pymatgen
data_LiVSiO4
_symmetry_space_group_name_H-M   'P 1'
_cell_length_a   10.04366449
_cell_length_b   10.24638849
_cell_length_c   17.28046904
_cell_angle_alpha   105.87261088
_cell_angle_beta   106.89432389
_cell_angle_gamma   60.65235000
_symmetry_Int_Tables_number   1
_chemical_formula_structural   LiVSiO4
_chemical_formula_sum   'Li16 V16 Si16 O64'
_cell_volume   1464.79538086
_cell_formula_units_Z   16
loop_
 _symmetry_equiv_pos_site_id
 _symmetry_equiv_pos_as_xyz
  1  'x, y, z'
loop_
 _atom_site_type_symbol
 _atom_site_label
 _atom_site_symmetry_multiplicity
 _atom_site_fract_x
 _atom_site_fract_y
 _atom_site_fract_z
 _atom_site_occupancy
  Li  Li0  1  0.626873  0.995089  0.184472  1
  Li  Li1  1  0.064756  0.988839  0.687313  1
  Li  Li2  1  0.817932  0.882463  0.436056  1
  Li  Li3  1  0.382002  0.819947  0.436708  1
  Li  Li4  1  0.737012  0.883400  0.936023  1
  Li  Li5  1  0.235150  0.820013  0.937246  1
  Li  Li6  1  0.118904  0.565021  0.187967  1
  Li  Li7  1  0.633719  0.488839  0.187313  1
  Li  Li8  1  0.005555  0.555279  0.687883  1
  Li  Li9  1  0.562511  0.495089  0.684472  1
  Li  Li10  1  0.315610  0.383400  0.436023  1
  Li  Li11  1  0.882082  0.320013  0.437246  1
  Li  Li12  1  0.735660  0.382463  0.936056  1
  Li  Li13  1  0.234760  0.319947  0.936709  1
  Li  Li14  1  0.127048  0.055279  0.187883  1
  Li  Li15  1  0.504043  0.065021  0.687967  1
  V  V16  1  0.498473  0.941787  0.312559  1
  V  V17  1  0.374408  0.001049  0.813597  1
  V  V18  1  0.869355  0.944892  0.813285  1
  V  V19  1  0.764082  0.679493  0.062578  1
  V  V20  1  0.261599  0.614985  0.064481  1
  V  V21  1  0.120794  0.681725  0.563140  1
  V  V22  1  0.687527  0.614302  0.563647  1
  V  V23  1  0.438140  0.501049  0.313597  1
  V  V24  1  0.999038  0.444892  0.313285  1
  V  V25  1  0.370204  0.506101  0.812923  1
  V  V26  1  0.872299  0.441787  0.812559  1
  V  V27  1  0.760621  0.181725  0.063140  1
  V  V28  1  0.261818  0.114301  0.063647  1
  V  V29  1  0.619005  0.179493  0.562578  1
  V  V30  1  0.187897  0.114985  0.564481  1
  V  V31  1  0.936618  0.006101  0.312923  1
  Si  Si32  1  0.938892  0.872512  0.122169  1
  Si  Si33  1  0.440903  0.809848  0.123967  1
  Si  Si34  1  0.812956  0.869111  0.622945  1
  Si  Si35  1  0.373466  0.814093  0.624407  1
  Si  Si36  1  0.125190  0.687977  0.373817  1
  Si  Si37  1  0.685586  0.625925  0.374786  1
  Si  Si38  1  0.563364  0.683735  0.873744  1
  Si  Si39  1  0.061542  0.628372  0.875404  1
  Si  Si40  1  0.940877  0.369111  0.122945  1
  Si  Si41  1  0.436848  0.314093  0.124407  1
  Si  Si42  1  0.310765  0.372512  0.622169  1
  Si  Si43  1  0.873215  0.309848  0.623967  1
  Si  Si44  1  0.626646  0.183735  0.373744  1
  Si  Si45  1  0.185491  0.128372  0.375404  1
  Si  Si46  1  0.560650  0.187977  0.873817  1
  Si  Si47  1  0.063274  0.125925  0.874786  1
  O  O48  1  0.364611  0.993519  0.388887  1
  O  O49  1  0.323249  0.897761  0.045800  1
  O  O50  1  0.859569  0.925963  0.203592  1
  O  O51  1  0.370005  0.919656  0.206166  1
  O  O52  1  0.822184  0.822935  0.044780  1
  O  O53  1  0.616254  0.794189  0.134964  1
  O  O54  1  0.987607  0.862732  0.383666  1
  O  O55  1  0.031585  0.991893  0.888736  1
  O  O56  1  0.322908  0.898387  0.544323  1
  O  O57  1  0.414674  0.931309  0.703047  1
  O  O58  1  0.921240  0.914053  0.707383  1
  O  O59  1  0.110991  0.726274  0.135839  1
  O  O60  1  0.901668  0.825785  0.546396  1
  O  O61  1  0.685715  0.775644  0.357151  1
  O  O62  1  0.227386  0.794998  0.636142  1
  O  O63  1  0.449141  0.641150  0.110721  1
  O  O64  1  0.540170  0.857418  0.883016  1
  O  O65  1  0.278532  0.689689  0.358481  1
  O  O66  1  0.800480  0.721993  0.634868  1
  O  O67  1  0.605843  0.666362  0.454543  1
  O  O68  1  0.893369  0.778274  0.857659  1
  O  O69  1  0.071692  0.577505  0.295738  1
  O  O70  1  0.578436  0.565112  0.296570  1
  O  O71  1  0.167008  0.608237  0.454281  1
  O  O72  1  0.952399  0.513856  0.106636  1
  O  O73  1  0.520796  0.645579  0.611993  1
  O  O74  1  0.390137  0.692120  0.859041  1
  O  O75  1  0.180878  0.668162  0.955239  1
  O  O76  1  0.865259  0.491893  0.388736  1
  O  O77  1  0.323027  0.398387  0.044323  1
  O  O78  1  0.357063  0.431309  0.203047  1
  O  O79  1  0.872089  0.414053  0.207383  1
  O  O80  1  0.147539  0.571202  0.795855  1
  O  O81  1  0.649131  0.568962  0.796631  1
  O  O82  1  0.137700  0.516010  0.605149  1
  O  O83  1  0.679516  0.605540  0.954900  1
  O  O84  1  0.818943  0.325785  0.046396  1
  O  O85  1  0.613758  0.294998  0.136142  1
  O  O86  1  0.030758  0.493519  0.888887  1
  O  O87  1  0.485428  0.357418  0.383016  1
  O  O88  1  0.824790  0.397761  0.545800  1
  O  O89  1  0.418061  0.425963  0.703592  1
  O  O90  1  0.916505  0.419656  0.706166  1
  O  O91  1  0.112394  0.221993  0.134868  1
  O  O92  1  0.186017  0.278274  0.357659  1
  O  O93  1  0.399662  0.322935  0.544780  1
  O  O94  1  0.445618  0.145579  0.111993  1
  O  O95  1  0.724521  0.294189  0.634964  1
  O  O96  1  0.533328  0.362732  0.883666  1
  O  O97  1  0.776783  0.192120  0.359041  1
  O  O98  1  0.298574  0.226274  0.635839  1
  O  O99  1  0.106199  0.168163  0.455239  1
  O  O100  1  0.895792  0.275644  0.857151  1
  O  O101  1  0.077114  0.071202  0.295855  1
  O  O102  1  0.578538  0.068962  0.296631  1
  O  O103  1  0.951439  0.016010  0.105149  1
  O  O104  1  0.669842  0.105540  0.454900  1
  O  O105  1  0.020430  0.141150  0.610721  1
  O  O106  1  0.390260  0.189689  0.858481  1
  O  O107  1  0.182338  0.166362  0.954543  1
  O  O108  1  0.646542  0.077505  0.795738  1
  O  O109  1  0.153021  0.065112  0.796570  1
  O  O110  1  0.679037  0.108237  0.954281  1
  O  O111  1  0.640380  0.013857  0.606636  1
