# generated using pymatgen
data_Li3MnFe2(BO3)3
_symmetry_space_group_name_H-M   'P 1'
_cell_length_a   8.25457421
_cell_length_b   8.84652513
_cell_length_c   6.30263758
_cell_angle_alpha   69.13170297
_cell_angle_beta   90.00000000
_cell_angle_gamma   62.06484343
_symmetry_Int_Tables_number   1
_chemical_formula_structural   Li3MnFe2(BO3)3
_chemical_formula_sum   'Li6 Mn2 Fe4 B6 O18'
_cell_volume   372.09961720
_cell_formula_units_Z   2
loop_
 _symmetry_equiv_pos_site_id
 _symmetry_equiv_pos_as_xyz
  1  'x, y, z'
loop_
 _atom_site_type_symbol
 _atom_site_label
 _atom_site_symmetry_multiplicity
 _atom_site_fract_x
 _atom_site_fract_y
 _atom_site_fract_z
 _atom_site_occupancy
  Li  Li0  1  0.715656  0.982903  0.756939  1
  Li  Li1  1  0.715656  0.982903  0.260160  1
  Li  Li2  1  0.982660  0.301494  0.597933  1
  Li  Li3  1  0.982660  0.301494  0.100573  1
  Li  Li4  1  0.301386  0.714589  0.892231  1
  Li  Li5  1  0.301386  0.714589  0.393179  1
  Mn  Mn6  1  0.628351  0.359033  0.820484  1
  Mn  Mn7  1  0.358822  0.012339  0.993830  1
  Fe  Fe8  1  0.630867  0.361672  0.319163  1
  Fe  Fe9  1  0.360869  0.007596  0.496202  1
  Fe  Fe10  1  0.007483  0.633776  0.183111  1
  Fe  Fe11  1  0.008114  0.631813  0.684093  1
  B  B12  1  0.668148  0.666728  0.416739  1
  B  B13  1  0.668148  0.666728  0.916533  1
  B  B14  1  0.331632  0.334438  0.580139  1
  B  B15  1  0.331632  0.334438  0.085423  1
  B  B16  1  0.001926  0.997314  0.001343  1
  B  B17  1  0.999802  -0.000049  0.500025  1
  O  O18  1  0.891964  0.913913  0.543044  1
  O  O19  1  0.887593  0.917317  0.041341  1
  O  O20  1  0.862616  0.580379  0.959784  1
  O  O21  1  0.862616  0.580379  0.459837  1
  O  O22  1  0.921653  0.191402  0.904298  1
  O  O23  1  0.912741  0.194768  0.402616  1
  O  O24  1  0.559727  0.860907  0.323192  1
  O  O25  1  0.559727  0.860907  0.815901  1
  O  O26  1  0.581685  0.558880  0.973787  1
  O  O27  1  0.581685  0.558880  0.467333  1
  O  O28  1  0.526171  0.253232  0.619940  1
  O  O29  1  0.526171  0.253232  0.126828  1
  O  O30  1  0.194903  0.892082  0.553959  1
  O  O31  1  0.195764  0.882609  0.058695  1
  O  O32  1  0.218056  0.528075  0.486020  1
  O  O33  1  0.218056  0.528075  0.985905  1
  O  O34  1  0.251837  0.220584  0.636384  1
  O  O35  1  0.251837  0.220584  0.143033  1
