# generated using pymatgen
data_Al11TlO17
_symmetry_space_group_name_H-M   'P 1'
_cell_length_a   5.65335629
_cell_length_b   5.65447346
_cell_length_c   23.08250682
_cell_angle_alpha   90.00024989
_cell_angle_beta   90.00003303
_cell_angle_gamma   119.99353670
_symmetry_Int_Tables_number   1
_chemical_formula_structural   Al11TlO17
_chemical_formula_sum   'Al22 Tl2 O34'
_cell_volume   639.05820075
_cell_formula_units_Z   2
loop_
 _symmetry_equiv_pos_site_id
 _symmetry_equiv_pos_as_xyz
  1  'x, y, z'
loop_
 _atom_site_type_symbol
 _atom_site_label
 _atom_site_symmetry_multiplicity
 _atom_site_fract_x
 _atom_site_fract_y
 _atom_site_fract_z
 _atom_site_occupancy
  Al  Al0  1  0.167248  0.832606  0.894614  1
  Al  Al1  1  0.167247  0.832606  0.605386  1
  Al  Al2  1  0.333834  0.666218  0.175199  1
  Al  Al3  1  0.333306  0.666677  0.024713  1
  Al  Al4  1  0.333823  0.666197  0.324800  1
  Al  Al5  1  0.000164  0.000000  0.000001  1
  Al  Al6  1  0.000159  0.000000  0.500000  1
  Al  Al7  1  0.333298  0.666672  0.475287  1
  Al  Al8  1  0.167232  0.334602  0.605382  1
  Al  Al9  1  0.167232  0.334603  0.894619  1
  Al  Al10  1  0.665502  0.832746  0.605154  1
  Al  Al11  1  0.665501  0.832746  0.894847  1
  Al  Al12  1  0.334643  0.167400  0.394613  1
  Al  Al13  1  0.334656  0.167407  0.105387  1
  Al  Al14  1  0.832633  0.665399  0.394618  1
  Al  Al15  1  0.667638  0.333817  0.675199  1
  Al  Al16  1  0.667637  0.333815  0.824801  1
  Al  Al17  1  0.666629  0.333327  0.975288  1
  Al  Al18  1  0.666627  0.333330  0.524712  1
  Al  Al19  1  0.832639  0.665401  0.105382  1
  Al  Al20  1  0.832775  0.167261  0.105153  1
  Al  Al21  1  0.832755  0.167254  0.394847  1
  Tl  Tl22  1  0.357821  0.678933  0.750000  1
  Tl  Tl23  1  0.678921  0.321100  0.250000  1
  O  O24  1  0.157085  0.842948  0.049018  1
  O  O25  1  0.157090  0.842956  0.450982  1
  O  O26  1  0.003600  0.501810  0.856367  1
  O  O27  1  0.003601  0.501809  0.643635  1
  O  O28  1  0.332831  0.667169  0.250001  1
  O  O29  1  0.157039  0.314143  0.451013  1
  O  O30  1  0.333393  0.666684  0.945190  1
  O  O31  1  0.999922  0.000091  0.139567  1
  O  O32  1  0.999904  0.000083  0.360432  1
  O  O33  1  0.999824  0.999916  0.639567  1
  O  O34  1  0.999821  0.999913  0.860431  1
  O  O35  1  0.333391  0.666681  0.554809  1
  O  O36  1  0.498907  0.997302  0.856443  1
  O  O37  1  0.157068  0.314144  0.048988  1
  O  O38  1  0.498907  0.997305  0.643556  1
  O  O39  1  0.314133  0.157074  0.549020  1
  O  O40  1  0.314135  0.157072  0.950980  1
  O  O41  1  0.498901  0.501629  0.856447  1
  O  O42  1  0.498901  0.501627  0.643553  1
  O  O43  1  0.501798  0.498206  0.143633  1
  O  O44  1  0.501790  0.498193  0.356365  1
  O  O45  1  0.685879  0.842938  0.048989  1
  O  O46  1  0.685869  0.842944  0.451011  1
  O  O47  1  0.501607  0.002702  0.356445  1
  O  O48  1  0.665741  0.332916  0.750000  1
  O  O49  1  0.666709  0.333322  0.445191  1
  O  O50  1  0.501625  0.002719  0.143556  1
  O  O51  1  0.842926  0.685858  0.951012  1
  O  O52  1  0.842931  0.685863  0.548986  1
  O  O53  1  0.666724  0.333300  0.054809  1
  O  O54  1  0.997286  0.498382  0.143551  1
  O  O55  1  0.997274  0.498373  0.356447  1
  O  O56  1  0.842893  0.157021  0.548990  1
  O  O57  1  0.842897  0.157025  0.951011  1
