# generated using pymatgen
data_Ce2UO6
_symmetry_space_group_name_H-M   'P 1'
_cell_length_a   3.87184497
_cell_length_b   6.65022333
_cell_length_c   5.46651104
_cell_angle_alpha   65.61471389
_cell_angle_beta   89.75498369
_cell_angle_gamma   72.93105137
_symmetry_Int_Tables_number   1
_chemical_formula_structural   Ce2UO6
_chemical_formula_sum   'Ce2 U1 O6'
_cell_volume   121.44169549
_cell_formula_units_Z   1
loop_
 _symmetry_equiv_pos_site_id
 _symmetry_equiv_pos_as_xyz
  1  'x, y, z'
loop_
 _atom_site_type_symbol
 _atom_site_label
 _atom_site_symmetry_multiplicity
 _atom_site_fract_x
 _atom_site_fract_y
 _atom_site_fract_z
 _atom_site_occupancy
  Ce  Ce0  1  0.671279  0.667579  0.666408  1
  Ce  Ce1  1  0.338376  0.332490  0.332917  1
  U  U2  1  0.003428  0.000017  -0.000152  1
  O  O3  1  0.163814  0.679787  0.914261  1
  O  O4  1  0.500659  0.999771  0.765754  1
  O  O5  1  0.165953  0.680562  0.399235  1
  O  O6  1  0.840893  0.319581  0.598878  1
  O  O7  1  0.507364  0.000033  0.237158  1
  O  O8  1  0.845166  0.320576  0.084122  1
