# generated using pymatgen
data_CeMgAu
_symmetry_space_group_name_H-M   'P 1'
_cell_length_a   7.68653664
_cell_length_b   7.68236346
_cell_length_c   4.23295946
_cell_angle_alpha   90.00000000
_cell_angle_beta   90.00000000
_cell_angle_gamma   119.98204412
_symmetry_Int_Tables_number   1
_chemical_formula_structural   CeMgAu
_chemical_formula_sum   'Ce3 Mg3 Au3'
_cell_volume   216.51044036
_cell_formula_units_Z   3
loop_
 _symmetry_equiv_pos_site_id
 _symmetry_equiv_pos_as_xyz
  1  'x, y, z'
loop_
 _atom_site_type_symbol
 _atom_site_label
 _atom_site_symmetry_multiplicity
 _atom_site_fract_x
 _atom_site_fract_y
 _atom_site_fract_z
 _atom_site_occupancy
  Ce  Ce0  1  0.000000  0.584134  0.000000  1
  Ce  Ce1  1  0.415907  0.415889  0.000000  1
  Ce  Ce2  1  0.584093  0.999981  0.000000  1
  Mg  Mg3  1  0.000000  0.241839  0.500000  1
  Mg  Mg4  1  0.241861  0.000027  0.500000  1
  Mg  Mg5  1  0.758139  0.758166  0.500000  1
  Au  Au6  1  0.333405  0.666700  0.500000  1
  Au  Au7  1  0.000000  0.000068  0.000000  1
  Au  Au8  1  0.666595  0.333296  0.500000  1
