# generated using pymatgen
data_BeAlSiHO5
_symmetry_space_group_name_H-M   'P 1'
_cell_length_a   4.82987173
_cell_length_b   14.51954012
_cell_length_c   4.67303389
_cell_angle_alpha   90.00000000
_cell_angle_beta   100.27165181
_cell_angle_gamma   90.00000000
_symmetry_Int_Tables_number   1
_chemical_formula_structural   BeAlSiHO5
_chemical_formula_sum   'Be4 Al4 Si4 H4 O20'
_cell_volume   322.45620603
_cell_formula_units_Z   4
loop_
 _symmetry_equiv_pos_site_id
 _symmetry_equiv_pos_as_xyz
  1  'x, y, z'
loop_
 _atom_site_type_symbol
 _atom_site_label
 _atom_site_symmetry_multiplicity
 _atom_site_fract_x
 _atom_site_fract_y
 _atom_site_fract_z
 _atom_site_occupancy
  Be  Be0  1  0.176365  0.301401  0.459204  1
  Be  Be1  1  0.323635  0.801401  0.540796  1
  Be  Be2  1  0.676365  0.198599  0.459204  1
  Be  Be3  1  0.823635  0.698599  0.540796  1
  Al  Al4  1  0.249801  0.445326  0.959426  1
  Al  Al5  1  0.250199  0.945326  0.040574  1
  Al  Al6  1  0.749801  0.054674  0.959426  1
  Al  Al7  1  0.750199  0.554674  0.040574  1
  Si  Si8  1  0.177863  0.100639  0.537990  1
  Si  Si9  1  0.322137  0.600639  0.462010  1
  Si  Si10  1  0.677863  0.399361  0.537990  1
  Si  Si11  1  0.822137  0.899361  0.462010  1
  H  H12  1  0.037785  0.295386  0.987300  1
  H  H13  1  0.462215  0.795386  0.012700  1
  H  H14  1  0.537785  0.204614  0.987300  1
  H  H15  1  0.962215  0.704614  0.012700  1
  O  O16  1  0.118969  0.876350  0.344766  1
  O  O17  1  0.101100  0.052111  0.214187  1
  O  O18  1  0.155112  0.700182  0.473446  1
  O  O19  1  0.117419  0.533384  0.234045  1
  O  O20  1  0.164188  0.333221  0.126359  1
  O  O21  1  0.335812  0.833221  0.873641  1
  O  O22  1  0.382581  0.033384  0.765955  1
  O  O23  1  0.344888  0.200182  0.526554  1
  O  O24  1  0.398900  0.552111  0.785813  1
  O  O25  1  0.381031  0.376350  0.655234  1
  O  O26  1  0.618969  0.623650  0.344766  1
  O  O27  1  0.601100  0.447889  0.214187  1
  O  O28  1  0.655112  0.799818  0.473446  1
  O  O29  1  0.617419  0.966616  0.234045  1
  O  O30  1  0.664188  0.166779  0.126359  1
  O  O31  1  0.835812  0.666779  0.873641  1
  O  O32  1  0.882581  0.466616  0.765955  1
  O  O33  1  0.844888  0.299818  0.526554  1
  O  O34  1  0.898900  0.947889  0.785813  1
  O  O35  1  0.881031  0.123650  0.655234  1
