# generated using pymatgen
data_K2InSi4HO11
_symmetry_space_group_name_H-M   'P 1'
_cell_length_a   11.58017219
_cell_length_b   8.50646804
_cell_length_c   11.81239534
_cell_angle_alpha   90.00000000
_cell_angle_beta   112.41698612
_cell_angle_gamma   90.00000000
_symmetry_Int_Tables_number   1
_chemical_formula_structural   K2InSi4HO11
_chemical_formula_sum   'K8 In4 Si16 H4 O44'
_cell_volume   1075.66667657
_cell_formula_units_Z   4
loop_
 _symmetry_equiv_pos_site_id
 _symmetry_equiv_pos_as_xyz
  1  'x, y, z'
loop_
 _atom_site_type_symbol
 _atom_site_label
 _atom_site_symmetry_multiplicity
 _atom_site_fract_x
 _atom_site_fract_y
 _atom_site_fract_z
 _atom_site_occupancy
  K  K0  1  0.083023  0.250000  0.583060  1
  K  K1  1  0.012211  0.750000  0.026359  1
  K  K2  1  0.564712  0.250000  0.938835  1
  K  K3  1  0.471043  0.250000  0.540177  1
  K  K4  1  0.528957  0.750000  0.459823  1
  K  K5  1  0.435288  0.750000  0.061165  1
  K  K6  1  0.987789  0.250000  0.973641  1
  K  K7  1  0.916977  0.750000  0.416940  1
  In  In8  1  0.287257  0.005251  0.213082  1
  In  In9  1  0.287257  0.494749  0.213082  1
  In  In10  1  0.712743  0.505251  0.786918  1
  In  In11  1  0.712743  0.994749  0.786918  1
  Si  Si12  1  0.249901  0.063292  0.896969  1
  Si  Si13  1  0.249901  0.436708  0.896969  1
  Si  Si14  1  0.008959  0.069410  0.254515  1
  Si  Si15  1  0.008959  0.430590  0.254515  1
  Si  Si16  1  0.222068  0.563593  0.469662  1
  Si  Si17  1  0.222068  0.936407  0.469662  1
  Si  Si18  1  0.391634  0.558849  0.736735  1
  Si  Si19  1  0.391634  0.941151  0.736735  1
  Si  Si20  1  0.608366  0.058849  0.263265  1
  Si  Si21  1  0.608366  0.441151  0.263265  1
  Si  Si22  1  0.777932  0.063593  0.530339  1
  Si  Si23  1  0.777932  0.436407  0.530339  1
  Si  Si24  1  0.991041  0.569410  0.745485  1
  Si  Si25  1  0.991041  0.930590  0.745485  1
  Si  Si26  1  0.750099  0.563292  0.103031  1
  Si  Si27  1  0.750099  0.936708  0.103031  1
  H  H28  1  0.235416  0.750000  0.280749  1
  H  H29  1  0.577014  0.750000  0.743934  1
  H  H30  1  0.422986  0.250000  0.256066  1
  H  H31  1  0.764584  0.250000  0.719251  1
  O  O32  1  0.045520  0.750000  0.754810  1
  O  O33  1  0.112129  0.051020  0.782295  1
  O  O34  1  0.112129  0.448980  0.782295  1
  O  O35  1  0.089183  0.034211  0.402670  1
  O  O36  1  0.089183  0.465789  0.402670  1
  O  O37  1  0.291124  0.250000  0.904162  1
  O  O38  1  0.178405  0.750000  0.463356  1
  O  O39  1  0.088369  0.039362  0.171372  1
  O  O40  1  0.088369  0.460638  0.171372  1
  O  O41  1  0.354145  0.530053  0.856652  1
  O  O42  1  0.354145  0.969947  0.856652  1
  O  O43  1  0.270075  0.995803  0.613606  1
  O  O44  1  0.270075  0.504197  0.613606  1
  O  O45  1  0.411894  0.750000  0.726203  1
  O  O46  1  0.323653  0.532144  0.410957  1
  O  O47  1  0.323653  0.967856  0.410957  1
  O  O48  1  0.252115  0.750000  0.205597  1
  O  O49  1  0.513780  0.036984  0.746865  1
  O  O50  1  0.513780  0.463016  0.746865  1
  O  O51  1  0.334831  0.250000  0.246960  1
  O  O52  1  0.246820  0.990358  0.019632  1
  O  O53  1  0.246820  0.509642  0.019632  1
  O  O54  1  0.753180  0.009642  0.980368  1
  O  O55  1  0.753180  0.490358  0.980368  1
  O  O56  1  0.665169  0.750000  0.753040  1
  O  O57  1  0.486220  0.536984  0.253135  1
  O  O58  1  0.486220  0.963016  0.253135  1
  O  O59  1  0.747885  0.250000  0.794403  1
  O  O60  1  0.676347  0.032144  0.589043  1
  O  O61  1  0.676347  0.467856  0.589043  1
  O  O62  1  0.588106  0.250000  0.273797  1
  O  O63  1  0.729925  0.004197  0.386394  1
  O  O64  1  0.729925  0.495803  0.386394  1
  O  O65  1  0.645855  0.030053  0.143348  1
  O  O66  1  0.645855  0.469947  0.143348  1
  O  O67  1  0.911631  0.539362  0.828628  1
  O  O68  1  0.911631  0.960638  0.828628  1
  O  O69  1  0.821595  0.250000  0.536644  1
  O  O70  1  0.708876  0.750000  0.095838  1
  O  O71  1  0.910817  0.534211  0.597330  1
  O  O72  1  0.910817  0.965789  0.597330  1
  O  O73  1  0.887871  0.551020  0.217705  1
  O  O74  1  0.887871  0.948980  0.217705  1
  O  O75  1  0.954480  0.250000  0.245190  1
