# generated using pymatgen
data_LiVPO5
_symmetry_space_group_name_H-M   'P 1'
_cell_length_a   6.33390302
_cell_length_b   11.20317275
_cell_length_c   6.06026277
_cell_angle_alpha   90.00000000
_cell_angle_beta   100.18438181
_cell_angle_gamma   90.00000000
_symmetry_Int_Tables_number   1
_chemical_formula_structural   LiVPO5
_chemical_formula_sum   'Li4 V4 P4 O20'
_cell_volume   423.25939222
_cell_formula_units_Z   4
loop_
 _symmetry_equiv_pos_site_id
 _symmetry_equiv_pos_as_xyz
  1  'x, y, z'
loop_
 _atom_site_type_symbol
 _atom_site_label
 _atom_site_symmetry_multiplicity
 _atom_site_fract_x
 _atom_site_fract_y
 _atom_site_fract_z
 _atom_site_occupancy
  Li  Li0  1  0.969119  0.386949  0.610429  1
  Li  Li1  1  0.969119  0.113051  0.110429  1
  Li  Li2  1  0.030881  0.886949  0.889571  1
  Li  Li3  1  0.030881  0.613051  0.389571  1
  V  V4  1  0.298602  0.169271  0.515654  1
  V  V5  1  0.298602  0.330729  0.015654  1
  V  V6  1  0.701398  0.669271  0.984346  1
  V  V7  1  0.701398  0.830729  0.484346  1
  P  P8  1  0.204190  0.598940  0.924563  1
  P  P9  1  0.204190  0.901060  0.424563  1
  P  P10  1  0.795810  0.098940  0.575437  1
  P  P11  1  0.795810  0.401060  0.075437  1
  O  O12  1  0.041935  0.833687  0.544053  1
  O  O13  1  0.107547  0.549623  0.695268  1
  O  O14  1  0.041935  0.666313  0.044053  1
  O  O15  1  0.107547  0.950377  0.195268  1
  O  O16  1  0.268373  0.284900  0.736065  1
  O  O17  1  0.298754  0.007105  0.588241  1
  O  O18  1  0.268373  0.215100  0.236065  1
  O  O19  1  0.298754  0.492895  0.088241  1
  O  O20  1  0.394338  0.684877  0.910247  1
  O  O21  1  0.394338  0.815123  0.410247  1
  O  O22  1  0.605662  0.184877  0.589753  1
  O  O23  1  0.605662  0.315123  0.089753  1
  O  O24  1  0.701246  0.507105  0.911759  1
  O  O25  1  0.731627  0.784900  0.763935  1
  O  O26  1  0.701246  0.992895  0.411759  1
  O  O27  1  0.731627  0.715100  0.263935  1
  O  O28  1  0.892453  0.049623  0.804732  1
  O  O29  1  0.958065  0.333687  0.955947  1
  O  O30  1  0.892453  0.450377  0.304732  1
  O  O31  1  0.958065  0.166313  0.455947  1
