# generated using pymatgen
data_Sr3Hf2O7
_symmetry_space_group_name_H-M   'P 1'
_cell_length_a   5.77065526
_cell_length_b   5.77096007
_cell_length_c   11.06580918
_cell_angle_alpha   90.00000000
_cell_angle_beta   105.11412873
_cell_angle_gamma   90.00000000
_symmetry_Int_Tables_number   1
_chemical_formula_structural   Sr3Hf2O7
_chemical_formula_sum   'Sr6 Hf4 O14'
_cell_volume   355.76845140
_cell_formula_units_Z   2
loop_
 _symmetry_equiv_pos_site_id
 _symmetry_equiv_pos_as_xyz
  1  'x, y, z'
loop_
 _atom_site_type_symbol
 _atom_site_label
 _atom_site_symmetry_multiplicity
 _atom_site_fract_x
 _atom_site_fract_y
 _atom_site_fract_z
 _atom_site_occupancy
  Sr  Sr0  1  0.061542  0.250000  0.623085  1
  Sr  Sr1  1  0.438458  0.250000  0.376915  1
  Sr  Sr2  1  0.561542  0.750000  0.623085  1
  Sr  Sr3  1  0.250000  0.250000  0.000000  1
  Sr  Sr4  1  0.750000  0.750000  0.000000  1
  Sr  Sr5  1  0.938458  0.750000  0.376915  1
  Hf  Hf6  1  0.151462  0.750000  0.802925  1
  Hf  Hf7  1  0.651462  0.250000  0.802925  1
  Hf  Hf8  1  0.348538  0.750000  0.197075  1
  Hf  Hf9  1  0.848538  0.250000  0.197075  1
  O  O10  1  0.053789  0.750000  0.607579  1
  O  O11  1  0.048385  0.548762  0.194347  1
  O  O12  1  0.354038  0.048762  0.805653  1
  O  O13  1  0.145962  0.048762  0.194347  1
  O  O14  1  0.451615  0.548762  0.805653  1
  O  O15  1  0.250000  0.750000  0.000000  1
  O  O16  1  0.553789  0.250000  0.607579  1
  O  O17  1  0.446211  0.750000  0.392421  1
  O  O18  1  0.548385  0.451238  0.194347  1
  O  O19  1  0.854038  0.951238  0.805653  1
  O  O20  1  0.951615  0.451238  0.805653  1
  O  O21  1  0.645962  0.951238  0.194347  1
  O  O22  1  0.750000  0.250000  0.000000  1
  O  O23  1  0.946211  0.250000  0.392421  1
