# generated using pymatgen
data_Li5Fe5Si7O24
_symmetry_space_group_name_H-M   'P 1'
_cell_length_a   7.94624599
_cell_length_b   7.86413054
_cell_length_c   9.50522798
_cell_angle_alpha   89.68223423
_cell_angle_beta   89.03556840
_cell_angle_gamma   89.50975304
_symmetry_Int_Tables_number   1
_chemical_formula_structural   Li5Fe5Si7O24
_chemical_formula_sum   'Li5 Fe5 Si7 O24'
_cell_volume   593.87014338
_cell_formula_units_Z   1
loop_
 _symmetry_equiv_pos_site_id
 _symmetry_equiv_pos_as_xyz
  1  'x, y, z'
loop_
 _atom_site_type_symbol
 _atom_site_label
 _atom_site_symmetry_multiplicity
 _atom_site_fract_x
 _atom_site_fract_y
 _atom_site_fract_z
 _atom_site_occupancy
  Li  Li0  1  0.417850  0.693250  0.265862  1
  Li  Li1  1  0.502810  0.259396  0.743993  1
  Li  Li2  1  0.744746  0.472469  0.722112  1
  Li  Li3  1  0.762743  0.978770  0.019246  1
  Li  Li4  1  0.994787  0.760008  0.996871  1
  Fe  Fe5  1  0.384623  0.817227  0.999308  1
  Fe  Fe6  1  0.619524  0.169335  0.473048  1
  Fe  Fe7  1  0.676982  0.885169  0.742292  1
  Fe  Fe8  1  0.819712  0.377777  0.999141  1
  Fe  Fe9  1  0.876389  0.664688  0.271316  1
  Si  Si10  1  0.092978  0.923562  0.753941  1
  Si  Si11  1  0.121495  0.325501  0.754476  1
  Si  Si12  1  0.172514  0.626934  0.527846  1
  Si  Si13  1  0.324706  0.110369  0.232661  1
  Si  Si14  1  0.407958  0.397597  0.993015  1
  Si  Si15  1  0.571820  0.585825  0.506895  1
  Si  Si16  1  0.926934  0.080181  0.238796  1
  O  O17  1  0.053700  0.622810  0.392702  1
  O  O18  1  0.128422  0.123634  0.710224  1
  O  O19  1  0.122391  0.130051  0.260444  1
  O  O20  1  0.150515  0.451177  0.619543  1
  O  O21  1  0.138233  0.799716  0.620463  1
  O  O22  1  0.195546  0.859560  0.891888  1
  O  O23  1  0.285988  0.353761  0.856425  1
  O  O24  1  0.377848  0.250528  0.110307  1
  O  O25  1  0.368210  0.916051  0.180171  1
  O  O26  1  0.371876  0.633207  0.472622  1
  O  O27  1  0.377825  0.584359  0.061699  1
  O  O28  1  0.424860  0.148344  0.373594  1
  O  O29  1  0.583088  0.893032  0.924561  1
  O  O30  1  0.600028  0.390596  0.562916  1
  O  O31  1  0.596465  0.380036  0.916515  1
  O  O32  1  0.590872  0.069786  0.651052  1
  O  O33  1  0.650019  0.683721  0.641393  1
  O  O34  1  0.658613  0.632397  0.354535  1
  O  O35  1  0.820578  0.117299  0.381017  1
  O  O36  1  0.847287  0.180449  0.101986  1
  O  O37  1  0.894876  0.565726  0.091409  1
  O  O38  1  0.900490  0.896204  0.812931  1
  O  O39  1  0.905804  0.882978  0.181245  1
  O  O40  1  0.939665  0.378909  0.822362  1
