# generated using pymatgen
data_Fe4Sn(CO)16
_symmetry_space_group_name_H-M   'P 1'
_cell_length_a   10.99276732
_cell_length_b   11.93818948
_cell_length_c   19.34370645
_cell_angle_alpha   90.00000000
_cell_angle_beta   90.00000000
_cell_angle_gamma   91.06338178
_symmetry_Int_Tables_number   1
_chemical_formula_structural   Fe4Sn(CO)16
_chemical_formula_sum   'Fe16 Sn4 C64 O64'
_cell_volume   2538.10973119
_cell_formula_units_Z   4
loop_
 _symmetry_equiv_pos_site_id
 _symmetry_equiv_pos_as_xyz
  1  'x, y, z'
loop_
 _atom_site_type_symbol
 _atom_site_label
 _atom_site_symmetry_multiplicity
 _atom_site_fract_x
 _atom_site_fract_y
 _atom_site_fract_z
 _atom_site_occupancy
  Fe  Fe0  1  0.450867  0.361680  0.153117  1
  Fe  Fe1  1  0.534902  0.767409  0.397238  1
  Fe  Fe2  1  0.049133  0.138320  0.653117  1
  Fe  Fe3  1  0.549133  0.638320  0.846883  1
  Fe  Fe4  1  0.174413  0.229770  0.977582  1
  Fe  Fe5  1  0.825587  0.770230  0.022418  1
  Fe  Fe6  1  0.577919  0.882884  0.836853  1
  Fe  Fe7  1  0.422081  0.117116  0.163147  1
  Fe  Fe8  1  0.034902  0.267409  0.102762  1
  Fe  Fe9  1  0.465098  0.232591  0.602762  1
  Fe  Fe10  1  0.077919  0.382884  0.663147  1
  Fe  Fe11  1  0.325587  0.270230  0.477582  1
  Fe  Fe12  1  0.950867  0.861680  0.346883  1
  Fe  Fe13  1  0.674413  0.729770  0.522418  1
  Fe  Fe14  1  0.965098  0.732591  0.897238  1
  Fe  Fe15  1  0.922081  0.617116  0.336853  1
  Sn  Sn16  1  0.730222  0.751298  0.899416  1
  Sn  Sn17  1  0.269778  0.248702  0.100584  1
  Sn  Sn18  1  0.230222  0.251298  0.600584  1
  Sn  Sn19  1  0.769778  0.748702  0.399416  1
  C  C20  1  0.213827  0.376372  0.967360  1
  C  C21  1  0.498318  0.359942  0.063414  1
  C  C22  1  0.681252  0.871953  0.764707  1
  C  C23  1  0.888933  0.264226  0.059852  1
  C  C24  1  0.318748  0.128047  0.235293  1
  C  C25  1  0.492172  0.200226  0.690467  1
  C  C26  1  0.643206  0.016189  0.859141  1
  C  C27  1  0.545687  0.734573  0.580706  1
  C  C28  1  0.490332  0.882628  0.916052  1
  C  C29  1  0.966540  0.879754  0.874816  1
  C  C30  1  0.653576  0.583110  0.502324  1
  C  C31  1  0.805083  0.695479  0.571249  1
  C  C32  1  0.077161  0.992506  0.647959  1
  C  C33  1  0.846424  0.916890  0.002324  1
  C  C34  1  0.466540  0.379754  0.625184  1
  C  C35  1  0.992172  0.700226  0.809533  1
  C  C36  1  0.998318  0.859942  0.436586  1
  C  C37  1  0.862993  0.862026  0.268141  1
  C  C38  1  0.560250  0.914681  0.415435  1
  C  C39  1  0.713827  0.876372  0.532640  1
  C  C40  1  0.305083  0.195479  0.928751  1
  C  C41  1  0.600474  0.353799  0.190846  1
  C  C42  1  0.922839  0.007494  0.352041  1
  C  C43  1  0.045687  0.234573  0.919294  1
  C  C44  1  0.100474  0.853799  0.309154  1
  C  C45  1  0.507828  0.799774  0.309533  1
  C  C46  1  0.286173  0.123628  0.467360  1
  C  C47  1  0.533460  0.620246  0.374816  1
  C  C48  1  0.946840  0.405798  0.716797  1
  C  C49  1  0.954313  0.765427  0.080706  1
  C  C50  1  0.153576  0.083110  0.997676  1
  C  C51  1  0.362993  0.362026  0.231859  1
  C  C52  1  0.899526  0.146201  0.690846  1
  C  C53  1  0.509668  0.117372  0.083948  1
  C  C54  1  0.939750  0.585319  0.915435  1
  C  C55  1  0.637007  0.637974  0.768141  1
  C  C56  1  0.001682  0.140058  0.563414  1
  C  C57  1  0.577161  0.492506  0.852041  1
  C  C58  1  0.553160  0.094202  0.216797  1
  C  C59  1  0.399526  0.646201  0.809154  1
  C  C60  1  0.786173  0.623628  0.032640  1
  C  C61  1  0.611067  0.235774  0.559852  1
  C  C62  1  0.111067  0.735774  0.940148  1
  C  C63  1  0.346424  0.416890  0.497676  1
  C  C64  1  0.143206  0.516189  0.640859  1
  C  C65  1  0.388933  0.764226  0.440148  1
  C  C66  1  0.439750  0.085319  0.584565  1
  C  C67  1  0.181252  0.371953  0.735293  1
  C  C68  1  0.446840  0.905798  0.783203  1
  C  C69  1  0.033460  0.120246  0.125184  1
  C  C70  1  0.990332  0.382628  0.583948  1
  C  C71  1  0.356794  0.983811  0.140859  1
  C  C72  1  0.501682  0.640058  0.936586  1
  C  C73  1  0.009668  0.617372  0.416052  1
  C  C74  1  0.060250  0.414681  0.084565  1
  C  C75  1  0.137007  0.137974  0.731859  1
  C  C76  1  0.007828  0.299774  0.190467  1
  C  C77  1  0.856794  0.483811  0.359141  1
  C  C78  1  0.454313  0.265427  0.419294  1
  C  C79  1  0.053160  0.594202  0.283203  1
  C  C80  1  0.818748  0.628047  0.264707  1
  C  C81  1  0.422839  0.507494  0.147959  1
  C  C82  1  0.194917  0.304521  0.428751  1
  C  C83  1  0.694917  0.804521  0.071249  1
  O  O84  1  0.430771  0.989162  0.576487  1
  O  O85  1  0.569229  0.010838  0.423513  1
  O  O86  1  0.316242  0.896153  0.127301  1
  O  O87  1  0.966909  0.237274  0.879634  1
  O  O88  1  0.512032  0.176579  0.747390  1
  O  O89  1  0.802132  0.149081  0.713767  1
  O  O90  1  0.744964  0.967391  0.545671  1
  O  O91  1  0.293040  0.764267  0.464756  1
  O  O92  1  0.755036  0.532609  0.045671  1
  O  O93  1  0.793040  0.264267  0.035244  1
  O  O94  1  0.012032  0.676579  0.752610  1
  O  O95  1  0.861961  0.420538  0.751187  1
  O  O96  1  0.206960  0.735733  0.964756  1
  O  O97  1  0.361961  0.920538  0.748813  1
  O  O98  1  0.246012  0.371971  0.782873  1
  O  O99  1  0.706960  0.235733  0.535244  1
  O  O100  1  0.903921  0.102473  0.353160  1
  O  O101  1  0.029885  0.865737  0.493757  1
  O  O102  1  0.064732  0.608542  0.466907  1
  O  O103  1  0.138039  0.579462  0.248813  1
  O  O104  1  0.096079  0.897527  0.646840  1
  O  O105  1  0.470115  0.634263  0.993757  1
  O  O106  1  0.746012  0.871971  0.717127  1
  O  O107  1  0.564732  0.108542  0.033093  1
  O  O108  1  0.596079  0.397527  0.853160  1
  O  O109  1  0.525958  0.528805  0.354604  1
  O  O110  1  0.244964  0.467391  0.954329  1
  O  O111  1  0.683758  0.103847  0.872699  1
  O  O112  1  0.190849  0.126171  0.782904  1
  O  O113  1  0.610378  0.829687  0.103124  1
  O  O114  1  0.644870  0.486954  0.494154  1
  O  O115  1  0.855130  0.013046  0.994154  1
  O  O116  1  0.466909  0.737274  0.620366  1
  O  O117  1  0.309151  0.373829  0.282904  1
  O  O118  1  0.474042  0.471195  0.645396  1
  O  O119  1  0.697868  0.350919  0.213767  1
  O  O120  1  0.033091  0.762726  0.120366  1
  O  O121  1  0.302132  0.649081  0.786233  1
  O  O122  1  0.435268  0.891458  0.966907  1
  O  O123  1  0.255036  0.032609  0.454329  1
  O  O124  1  0.110378  0.329687  0.396876  1
  O  O125  1  0.144870  0.986954  0.005846  1
  O  O126  1  0.816242  0.396153  0.372699  1
  O  O127  1  0.403921  0.602473  0.146840  1
  O  O128  1  0.935268  0.391458  0.533093  1
  O  O129  1  0.690849  0.626171  0.717096  1
  O  O130  1  0.487968  0.823421  0.252610  1
  O  O131  1  0.355130  0.513046  0.505846  1
  O  O132  1  0.809151  0.873829  0.217096  1
  O  O133  1  0.389622  0.170313  0.896876  1
  O  O134  1  0.970115  0.134263  0.506243  1
  O  O135  1  0.753988  0.628029  0.217127  1
  O  O136  1  0.025958  0.028805  0.145396  1
  O  O137  1  0.533091  0.262726  0.379634  1
  O  O138  1  0.987968  0.323421  0.247390  1
  O  O139  1  0.069229  0.510838  0.076487  1
  O  O140  1  0.889622  0.670313  0.603124  1
  O  O141  1  0.930771  0.489162  0.923513  1
  O  O142  1  0.638039  0.079462  0.251187  1
  O  O143  1  0.529885  0.365737  0.006243  1
  O  O144  1  0.197868  0.850919  0.286233  1
  O  O145  1  0.974042  0.971195  0.854604  1
  O  O146  1  0.183758  0.603847  0.627301  1
  O  O147  1  0.253988  0.128029  0.282873  1
