# generated using pymatgen
data_Li3Fe4(BO3)4
_symmetry_space_group_name_H-M   'P 1'
_cell_length_a   5.26669266
_cell_length_b   9.00577152
_cell_length_c   10.27240695
_cell_angle_alpha   90.00000074
_cell_angle_beta   91.81741188
_cell_angle_gamma   90.00000295
_symmetry_Int_Tables_number   1
_chemical_formula_structural   Li3Fe4(BO3)4
_chemical_formula_sum   'Li6 Fe8 B8 O24'
_cell_volume   486.98165001
_cell_formula_units_Z   2
loop_
 _symmetry_equiv_pos_site_id
 _symmetry_equiv_pos_as_xyz
  1  'x, y, z'
loop_
 _atom_site_type_symbol
 _atom_site_label
 _atom_site_symmetry_multiplicity
 _atom_site_fract_x
 _atom_site_fract_y
 _atom_site_fract_z
 _atom_site_occupancy
  Li  Li0  1  0.343283  0.011539  0.836953  1
  Li  Li1  1  0.663325  0.005349  0.083227  1
  Li  Li2  1  0.149339  0.495502  0.579337  1
  Li  Li3  1  0.149339  0.504498  0.079337  1
  Li  Li4  1  0.343283  0.988461  0.336953  1
  Li  Li5  1  0.663325  0.994651  0.583227  1
  Fe  Fe6  1  0.162284  0.163250  0.113389  1
  Fe  Fe7  1  0.847772  0.179009  0.361547  1
  Fe  Fe8  1  0.335395  0.348193  0.868158  1
  Fe  Fe9  1  0.663530  0.331923  0.627441  1
  Fe  Fe10  1  0.335395  0.651807  0.368158  1
  Fe  Fe11  1  0.162284  0.836750  0.613389  1
  Fe  Fe12  1  0.663530  0.668077  0.127441  1
  Fe  Fe13  1  0.847772  0.820990  0.861547  1
  B  B14  1  0.169232  0.171480  0.627651  1
  B  B15  1  0.332369  0.321876  0.381651  1
  B  B16  1  0.831810  0.160097  0.868886  1
  B  B17  1  0.656801  0.337987  0.118343  1
  B  B18  1  0.332369  0.678124  0.881651  1
  B  B19  1  0.656801  0.662013  0.618343  1
  B  B20  1  0.169232  0.828520  0.127651  1
  B  B21  1  0.831810  0.839903  0.368886  1
  O  O22  1  0.309479  0.042074  0.635416  1
  O  O23  1  0.092117  0.165511  0.900240  1
  O  O24  1  0.695426  0.031588  0.889484  1
  O  O25  1  0.221738  0.192299  0.329296  1
  O  O26  1  0.287718  0.308312  0.653429  1
  O  O27  1  0.776116  0.203228  0.150334  1
  O  O28  1  0.911774  0.169068  0.594355  1
  O  O29  1  0.400849  0.339313  0.081186  1
  O  O30  1  0.198632  0.450641  0.385776  1
  O  O31  1  0.578978  0.310847  0.435078  1
  O  O32  1  0.703646  0.285095  0.818923  1
  O  O33  1  0.198632  0.549359  0.885776  1
  O  O34  1  0.793074  0.469140  0.123574  1
  O  O35  1  0.287718  0.691688  0.153429  1
  O  O36  1  0.400849  0.660687  0.581186  1
  O  O37  1  0.793074  0.530860  0.623574  1
  O  O38  1  0.578978  0.689153  0.935078  1
  O  O39  1  0.092117  0.834489  0.400240  1
  O  O40  1  0.221738  0.807701  0.829296  1
  O  O41  1  0.703646  0.714905  0.318923  1
  O  O42  1  0.776116  0.796772  0.650334  1
  O  O43  1  0.309479  0.957926  0.135416  1
  O  O44  1  0.911774  0.830932  0.094355  1
  O  O45  1  0.695426  0.968412  0.389484  1
