# generated using pymatgen
data_ZrH6NOF5
_symmetry_space_group_name_H-M   'P 1'
_cell_length_a   10.74547830
_cell_length_b   7.60824899
_cell_length_c   6.87155207
_cell_angle_alpha   90.00000000
_cell_angle_beta   77.73648146
_cell_angle_gamma   90.00000000
_symmetry_Int_Tables_number   1
_chemical_formula_structural   ZrH6NOF5
_chemical_formula_sum   'Zr4 H24 N4 O4 F20'
_cell_volume   548.95953457
_cell_formula_units_Z   4
loop_
 _symmetry_equiv_pos_site_id
 _symmetry_equiv_pos_as_xyz
  1  'x, y, z'
loop_
 _atom_site_type_symbol
 _atom_site_label
 _atom_site_symmetry_multiplicity
 _atom_site_fract_x
 _atom_site_fract_y
 _atom_site_fract_z
 _atom_site_occupancy
  Zr  Zr0  1  0.543725  0.558138  0.734921  1
  Zr  Zr1  1  0.043725  0.941862  0.234921  1
  Zr  Zr2  1  0.456275  0.441862  0.265079  1
  Zr  Zr3  1  0.956275  0.058138  0.765079  1
  H  H4  1  0.807106  0.453594  0.729645  1
  H  H5  1  0.307106  0.046406  0.229645  1
  H  H6  1  0.192894  0.546406  0.270355  1
  H  H7  1  0.692894  0.953594  0.770355  1
  H  H8  1  0.807644  0.657826  0.689872  1
  H  H9  1  0.307644  0.842174  0.189872  1
  H  H10  1  0.192356  0.342174  0.310128  1
  H  H11  1  0.692356  0.157826  0.810128  1
  H  H12  1  0.295174  0.065875  0.871045  1
  H  H13  1  0.795174  0.434125  0.371045  1
  H  H14  1  0.704826  0.934125  0.128955  1
  H  H15  1  0.204826  0.565875  0.628955  1
  H  H16  1  0.394041  0.935997  0.721912  1
  H  H17  1  0.894041  0.564003  0.221912  1
  H  H18  1  0.605959  0.064003  0.278088  1
  H  H19  1  0.105959  0.435997  0.778088  1
  H  H20  1  0.434442  0.151977  0.742334  1
  H  H21  1  0.934442  0.348023  0.242334  1
  H  H22  1  0.565558  0.848023  0.257666  1
  H  H23  1  0.065558  0.651977  0.757666  1
  H  H24  1  0.318447  0.101848  0.624496  1
  H  H25  1  0.818447  0.398152  0.124496  1
  H  H26  1  0.681553  0.898152  0.375504  1
  H  H27  1  0.181553  0.601848  0.875504  1
  N  N28  1  0.361352  0.064778  0.738253  1
  N  N29  1  0.861352  0.435222  0.238253  1
  N  N30  1  0.638648  0.935222  0.261747  1
  N  N31  1  0.138648  0.564778  0.761747  1
  O  O32  1  0.765327  0.546898  0.663327  1
  O  O33  1  0.265327  0.953102  0.163327  1
  O  O34  1  0.234673  0.453102  0.336673  1
  O  O35  1  0.734673  0.046898  0.836673  1
  F  F36  1  0.596695  0.571102  0.414643  1
  F  F37  1  0.096695  0.928898  0.914643  1
  F  F38  1  0.403305  0.428898  0.585357  1
  F  F39  1  0.903305  0.071102  0.085357  1
  F  F40  1  0.600677  0.297382  0.707408  1
  F  F41  1  0.100677  0.202618  0.207408  1
  F  F42  1  0.399323  0.702618  0.292592  1
  F  F43  1  0.899323  0.797382  0.792592  1
  F  F44  1  0.611256  0.816897  0.675328  1
  F  F45  1  0.111256  0.683103  0.175328  1
  F  F46  1  0.388744  0.183103  0.324672  1
  F  F47  1  0.888744  0.316897  0.824672  1
  F  F48  1  0.383667  0.708239  0.808420  1
  F  F49  1  0.883667  0.791761  0.308420  1
  F  F50  1  0.616333  0.291761  0.191580  1
  F  F51  1  0.116333  0.208239  0.691580  1
  F  F52  1  0.587729  0.598243  0.015918  1
  F  F53  1  0.087729  0.901757  0.515918  1
  F  F54  1  0.412271  0.401757  0.984082  1
  F  F55  1  0.912271  0.098243  0.484082  1
