# generated using pymatgen
data_Li3Co2(SiO4)2
_symmetry_space_group_name_H-M   'P 1'
_cell_length_a   5.26194768
_cell_length_b   5.25646120
_cell_length_c   6.41289883
_cell_angle_alpha   89.48978893
_cell_angle_beta   89.84214046
_cell_angle_gamma   88.55308982
_symmetry_Int_Tables_number   1
_chemical_formula_structural   Li3Co2(SiO4)2
_chemical_formula_sum   'Li3 Co2 Si2 O8'
_cell_volume   177.31164971
_cell_formula_units_Z   1
loop_
 _symmetry_equiv_pos_site_id
 _symmetry_equiv_pos_as_xyz
  1  'x, y, z'
loop_
 _atom_site_type_symbol
 _atom_site_label
 _atom_site_symmetry_multiplicity
 _atom_site_fract_x
 _atom_site_fract_y
 _atom_site_fract_z
 _atom_site_occupancy
  Li  Li0  1  0.816520  0.813064  0.752589  1
  Li  Li1  1  0.680337  0.315351  0.502760  1
  Li  Li2  1  0.193219  0.191195  0.248183  1
  Co  Co3  1  0.823834  0.819044  0.242288  1
  Co  Co4  1  0.186697  0.180038  0.757359  1
  Si  Si5  1  0.673313  0.318897  0.001577  1
  Si  Si6  1  0.312278  0.681028  0.498099  1
  O  O7  1  0.803080  0.205705  0.785893  1
  O  O8  1  0.800687  0.182265  0.217332  1
  O  O9  1  0.738172  0.625847  0.015805  1
  O  O10  1  0.628659  0.722439  0.479913  1
  O  O11  1  0.370879  0.272317  0.003908  1
  O  O12  1  0.292745  0.367825  0.500775  1
  O  O13  1  0.190663  0.812049  0.703790  1
  O  O14  1  0.173404  0.808449  0.289734  1
