# generated using pymatgen
data_Zr5N5O2
_symmetry_space_group_name_H-M   'P 1'
_cell_length_a   3.12499295
_cell_length_b   5.50567254
_cell_length_c   17.91018150
_cell_angle_alpha   92.12677072
_cell_angle_beta   95.03593174
_cell_angle_gamma   73.54409908
_symmetry_Int_Tables_number   1
_chemical_formula_structural   Zr5N5O2
_chemical_formula_sum   'Zr10 N10 O4'
_cell_volume   294.36073771
_cell_formula_units_Z   2
loop_
 _symmetry_equiv_pos_site_id
 _symmetry_equiv_pos_as_xyz
  1  'x, y, z'
loop_
 _atom_site_type_symbol
 _atom_site_label
 _atom_site_symmetry_multiplicity
 _atom_site_fract_x
 _atom_site_fract_y
 _atom_site_fract_z
 _atom_site_occupancy
  Zr  Zr0  1  0.705711  0.751695  0.155075  1
  Zr  Zr1  1  0.887596  0.763024  0.542151  1
  Zr  Zr2  1  0.296477  0.755328  0.346895  1
  Zr  Zr3  1  0.987294  0.774735  0.753618  1
  Zr  Zr4  1  0.114875  0.742033  0.960953  1
  Zr  Zr5  1  0.891809  0.267070  0.041527  1
  Zr  Zr6  1  0.002566  0.253991  0.252035  1
  Zr  Zr7  1  0.699528  0.254134  0.651111  1
  Zr  Zr8  1  0.111126  0.237030  0.463562  1
  Zr  Zr9  1  0.307595  0.235170  0.852295  1
  N  N10  1  0.509984  0.994302  0.005618  1
  N  N11  1  0.659351  0.967385  0.279374  1
  N  N12  1  0.735974  0.952954  0.429001  1
  N  N13  1  0.954147  0.950288  0.858784  1
  N  N14  1  0.272619  0.541313  0.077303  1
  N  N15  1  0.345595  0.540233  0.225268  1
  N  N16  1  0.505531  0.492413  0.506478  1
  N  N17  1  0.741409  0.452110  0.928783  1
  N  N18  1  0.264176  0.046147  0.575990  1
  N  N19  1  0.339617  0.043230  0.723967  1
  O  O20  1  0.047015  0.556263  0.647572  1
  O  O21  1  0.955783  0.450527  0.359096  1
  O  O22  1  0.656915  0.464861  0.776302  1
  O  O23  1  0.049673  0.054848  0.146578  1
