# generated using pymatgen
data_Li2Cr2(Si2O5)3
_symmetry_space_group_name_H-M   'P 1'
_cell_length_a   11.44334593
_cell_length_b   11.44334593
_cell_length_c   10.26334727
_cell_angle_alpha   90.00000000
_cell_angle_beta   90.00000000
_cell_angle_gamma   79.22104116
_symmetry_Int_Tables_number   1
_chemical_formula_structural   Li2Cr2(Si2O5)3
_chemical_formula_sum   'Li8 Cr8 Si24 O60'
_cell_volume   1320.27372010
_cell_formula_units_Z   4
loop_
 _symmetry_equiv_pos_site_id
 _symmetry_equiv_pos_as_xyz
  1  'x, y, z'
loop_
 _atom_site_type_symbol
 _atom_site_label
 _atom_site_symmetry_multiplicity
 _atom_site_fract_x
 _atom_site_fract_y
 _atom_site_fract_z
 _atom_site_occupancy
  Li  Li0  1  0.999576  0.499576  0.750000  1
  Li  Li1  1  0.500424  0.000424  0.250000  1
  Li  Li2  1  0.600593  0.600593  0.726285  1
  Li  Li3  1  0.100593  0.100593  0.773715  1
  Li  Li4  1  0.899407  0.899407  0.226285  1
  Li  Li5  1  0.399407  0.399407  0.273715  1
  Li  Li6  1  0.499576  0.999576  0.750000  1
  Li  Li7  1  0.000424  0.500424  0.250000  1
  Cr  Cr8  1  0.242917  0.757083  0.000000  1
  Cr  Cr9  1  0.159560  0.659560  0.250000  1
  Cr  Cr10  1  0.340440  0.840440  0.750000  1
  Cr  Cr11  1  0.257083  0.742917  0.500000  1
  Cr  Cr12  1  0.742917  0.257083  0.500000  1
  Cr  Cr13  1  0.659560  0.159560  0.250000  1
  Cr  Cr14  1  0.840440  0.340440  0.750000  1
  Cr  Cr15  1  0.757083  0.242917  0.000000  1
  Si  Si16  1  0.186616  0.965722  0.192340  1
  Si  Si17  1  0.034279  0.813384  0.807660  1
  Si  Si18  1  0.083509  0.304763  0.962888  1
  Si  Si19  1  0.195237  0.416491  0.462888  1
  Si  Si20  1  0.583509  0.804763  0.537112  1
  Si  Si21  1  0.695237  0.916491  0.037112  1
  Si  Si22  1  0.313384  0.534278  0.692340  1
  Si  Si23  1  0.465722  0.686616  0.307660  1
  Si  Si24  1  0.020255  0.237660  0.489289  1
  Si  Si25  1  0.520255  0.737660  0.010711  1
  Si  Si26  1  0.762340  0.979745  0.510711  1
  Si  Si27  1  0.262340  0.479745  0.989289  1
  Si  Si28  1  0.979745  0.762340  0.510711  1
  Si  Si29  1  0.237660  0.020255  0.489289  1
  Si  Si30  1  0.737660  0.520255  0.010711  1
  Si  Si31  1  0.479745  0.262340  0.989289  1
  Si  Si32  1  0.686616  0.465722  0.307660  1
  Si  Si33  1  0.534278  0.313384  0.692340  1
  Si  Si34  1  0.416491  0.195237  0.462888  1
  Si  Si35  1  0.304763  0.083509  0.962888  1
  Si  Si36  1  0.804763  0.583509  0.537112  1
  Si  Si37  1  0.916491  0.695237  0.037112  1
  Si  Si38  1  0.813384  0.034279  0.807660  1
  Si  Si39  1  0.965722  0.186616  0.192340  1
  O  O40  1  0.026408  0.752402  0.662974  1
  O  O41  1  0.247598  0.973592  0.337026  1
  O  O42  1  0.150975  0.839421  0.158270  1
  O  O43  1  0.160579  0.849025  0.841730  1
  O  O44  1  0.245272  0.907878  0.585996  1
  O  O45  1  0.092122  0.754728  0.414004  1
  O  O46  1  0.254728  0.592122  0.085996  1
  O  O47  1  0.407878  0.745272  0.914004  1
  O  O48  1  0.349025  0.660579  0.658270  1
  O  O49  1  0.339421  0.650975  0.341730  1
  O  O50  1  0.154981  0.483068  0.329237  1
  O  O51  1  0.016932  0.345019  0.829237  1
  O  O52  1  0.654981  0.983068  0.170763  1
  O  O53  1  0.516932  0.845019  0.670763  1
  O  O54  1  0.214618  0.503907  0.586282  1
  O  O55  1  0.996093  0.285382  0.086282  1
  O  O56  1  0.714618  0.003907  0.913718  1
  O  O57  1  0.496093  0.785382  0.413718  1
  O  O58  1  0.094072  0.344067  0.517591  1
  O  O59  1  0.155933  0.405928  0.017591  1
  O  O60  1  0.594072  0.844067  0.982409  1
  O  O61  1  0.655933  0.905928  0.482409  1
  O  O62  1  0.473592  0.747598  0.162974  1
  O  O63  1  0.252402  0.526408  0.837026  1
  O  O64  1  0.934168  0.934168  0.814034  1
  O  O65  1  0.609769  0.609769  0.979694  1
  O  O66  1  0.065832  0.065832  0.185966  1
  O  O67  1  0.324779  0.324779  0.433618  1
  O  O68  1  0.109769  0.109769  0.520306  1
  O  O69  1  0.175221  0.175221  0.933618  1
  O  O70  1  0.434168  0.434168  0.685966  1
  O  O71  1  0.390231  0.390231  0.020306  1
  O  O72  1  0.565832  0.565832  0.314034  1
  O  O73  1  0.824779  0.824779  0.066382  1
  O  O74  1  0.890231  0.890231  0.479694  1
  O  O75  1  0.675221  0.675221  0.566382  1
  O  O76  1  0.747598  0.473592  0.162974  1
  O  O77  1  0.526408  0.252402  0.837026  1
  O  O78  1  0.844067  0.594072  0.982409  1
  O  O79  1  0.405928  0.155933  0.017591  1
  O  O80  1  0.344067  0.094072  0.517591  1
  O  O81  1  0.905928  0.655933  0.482409  1
  O  O82  1  0.785382  0.496093  0.413718  1
  O  O83  1  0.285382  0.996093  0.086282  1
  O  O84  1  0.503907  0.214618  0.586282  1
  O  O85  1  0.003907  0.714618  0.913718  1
  O  O86  1  0.345019  0.016932  0.829237  1
  O  O87  1  0.845019  0.516932  0.670763  1
  O  O88  1  0.483068  0.154981  0.329237  1
  O  O89  1  0.983068  0.654981  0.170763  1
  O  O90  1  0.650975  0.339421  0.341730  1
  O  O91  1  0.660579  0.349025  0.658270  1
  O  O92  1  0.592122  0.254728  0.085996  1
  O  O93  1  0.745272  0.407878  0.914004  1
  O  O94  1  0.754728  0.092122  0.414004  1
  O  O95  1  0.907878  0.245272  0.585996  1
  O  O96  1  0.839421  0.150975  0.158270  1
  O  O97  1  0.849025  0.160579  0.841730  1
  O  O98  1  0.973592  0.247598  0.337026  1
  O  O99  1  0.752402  0.026408  0.662974  1
