# generated using pymatgen
data_LiFeSiO4
_symmetry_space_group_name_H-M   'P 1'
_cell_length_a   8.74980343
_cell_length_b   8.08128132
_cell_length_c   15.19865637
_cell_angle_alpha   90.00000000
_cell_angle_beta   89.64103347
_cell_angle_gamma   90.00000000
_symmetry_Int_Tables_number   1
_chemical_formula_structural   LiFeSiO4
_chemical_formula_sum   'Li12 Fe12 Si12 O48'
_cell_volume   1074.67016968
_cell_formula_units_Z   12
loop_
 _symmetry_equiv_pos_site_id
 _symmetry_equiv_pos_as_xyz
  1  'x, y, z'
loop_
 _atom_site_type_symbol
 _atom_site_label
 _atom_site_symmetry_multiplicity
 _atom_site_fract_x
 _atom_site_fract_y
 _atom_site_fract_z
 _atom_site_occupancy
  Li  Li0  1  0.219531  0.024748  0.559426  1
  Li  Li1  1  0.223313  0.961991  0.908054  1
  Li  Li2  1  0.248974  0.155245  0.249960  1
  Li  Li3  1  0.251026  0.655245  0.250040  1
  Li  Li4  1  0.276687  0.461991  0.591946  1
  Li  Li5  1  0.280469  0.524748  0.940574  1
  Li  Li6  1  0.719531  0.475252  0.059426  1
  Li  Li7  1  0.723313  0.538009  0.408054  1
  Li  Li8  1  0.748974  0.344755  0.749960  1
  Li  Li9  1  0.751026  0.844755  0.750040  1
  Li  Li10  1  0.776687  0.038009  0.091946  1
  Li  Li11  1  0.780469  0.975252  0.440574  1
  Fe  Fe12  1  0.046113  0.724361  0.094096  1
  Fe  Fe13  1  0.086812  0.790132  0.729918  1
  Fe  Fe14  1  0.111721  0.719465  0.427846  1
  Fe  Fe15  1  0.388279  0.219465  0.072154  1
  Fe  Fe16  1  0.413188  0.290132  0.770082  1
  Fe  Fe17  1  0.453887  0.224361  0.405904  1
  Fe  Fe18  1  0.546113  0.775639  0.594096  1
  Fe  Fe19  1  0.586812  0.709868  0.229918  1
  Fe  Fe20  1  0.611721  0.780535  0.927846  1
  Fe  Fe21  1  0.888279  0.280535  0.572154  1
  Fe  Fe22  1  0.913188  0.209868  0.270082  1
  Fe  Fe23  1  0.953887  0.275639  0.905904  1
  Si  Si24  1  0.054362  0.328480  0.091699  1
  Si  Si25  1  0.086390  0.175792  0.726999  1
  Si  Si26  1  0.110909  0.326569  0.424755  1
  Si  Si27  1  0.389091  0.826569  0.075245  1
  Si  Si28  1  0.413610  0.675792  0.773001  1
  Si  Si29  1  0.445638  0.828480  0.408301  1
  Si  Si30  1  0.554362  0.171520  0.591699  1
  Si  Si31  1  0.586390  0.324208  0.226999  1
  Si  Si32  1  0.610909  0.173431  0.924755  1
  Si  Si33  1  0.889091  0.673431  0.575245  1
  Si  Si34  1  0.913610  0.824208  0.273001  1
  Si  Si35  1  0.945638  0.671520  0.908301  1
  O  O36  1  0.032332  0.492845  0.891884  1
  O  O37  1  0.042623  0.646279  0.635750  1
  O  O38  1  0.056227  0.783115  0.973318  1
  O  O39  1  0.068997  0.726119  0.304326  1
  O  O40  1  0.069808  0.213626  0.512524  1
  O  O41  1  0.093334  0.998783  0.673223  1
  O  O42  1  0.083942  0.140158  0.834446  1
  O  O43  1  0.077412  0.229307  0.185612  1
  O  O44  1  0.177065  0.504942  0.461195  1
  O  O45  1  0.222266  0.360659  0.043739  1
  O  O46  1  0.246010  0.231534  0.367400  1
  O  O47  1  0.237319  0.285295  0.698523  1
  O  O48  1  0.253990  0.731534  0.132600  1
  O  O49  1  0.262681  0.785295  0.801477  1
  O  O50  1  0.277734  0.860659  0.456261  1
  O  O51  1  0.322935  0.004942  0.038805  1
  O  O52  1  0.422588  0.729307  0.314388  1
  O  O53  1  0.416058  0.640158  0.665554  1
  O  O54  1  0.406666  0.498783  0.826777  1
  O  O55  1  0.431003  0.226119  0.195674  1
  O  O56  1  0.430192  0.713626  0.987476  1
  O  O57  1  0.443773  0.283115  0.526682  1
  O  O58  1  0.457377  0.146279  0.864250  1
  O  O59  1  0.467668  0.992845  0.608116  1
  O  O60  1  0.532332  0.007155  0.391884  1
  O  O61  1  0.542623  0.853721  0.135750  1
  O  O62  1  0.556227  0.716885  0.473318  1
  O  O63  1  0.569808  0.286374  0.012523  1
  O  O64  1  0.568997  0.773881  0.804326  1
  O  O65  1  0.593334  0.501217  0.173223  1
  O  O66  1  0.583942  0.359842  0.334446  1
  O  O67  1  0.577412  0.270693  0.685612  1
  O  O68  1  0.677065  0.995058  0.961195  1
  O  O69  1  0.722266  0.139341  0.543739  1
  O  O70  1  0.737319  0.214705  0.198523  1
  O  O71  1  0.746010  0.268466  0.867400  1
  O  O72  1  0.762681  0.714705  0.301477  1
  O  O73  1  0.753990  0.768466  0.632600  1
  O  O74  1  0.777734  0.639341  0.956261  1
  O  O75  1  0.822935  0.495058  0.538805  1
  O  O76  1  0.922588  0.770693  0.814388  1
  O  O77  1  0.916058  0.859842  0.165554  1
  O  O78  1  0.906666  0.001217  0.326777  1
  O  O79  1  0.930192  0.786374  0.487476  1
  O  O80  1  0.931003  0.273881  0.695674  1
  O  O81  1  0.943773  0.216885  0.026682  1
  O  O82  1  0.957377  0.353721  0.364250  1
  O  O83  1  0.967668  0.507155  0.108116  1
