# generated using pymatgen
data_Bi4O5F2
_symmetry_space_group_name_H-M   'P 1'
_cell_length_a   14.22942299
_cell_length_b   5.62128733
_cell_length_c   10.66786998
_cell_angle_alpha   90.00000813
_cell_angle_beta   97.45305329
_cell_angle_gamma   90.00000144
_symmetry_Int_Tables_number   1
_chemical_formula_structural   Bi4O5F2
_chemical_formula_sum   'Bi16 O20 F8'
_cell_volume   846.08901158
_cell_formula_units_Z   4
loop_
 _symmetry_equiv_pos_site_id
 _symmetry_equiv_pos_as_xyz
  1  'x, y, z'
loop_
 _atom_site_type_symbol
 _atom_site_label
 _atom_site_symmetry_multiplicity
 _atom_site_fract_x
 _atom_site_fract_y
 _atom_site_fract_z
 _atom_site_occupancy
  Bi  Bi0  1  0.035560  0.682018  0.389013  1
  Bi  Bi1  1  0.116736  0.699130  0.741660  1
  Bi  Bi2  1  0.167365  0.284785  0.190292  1
  Bi  Bi3  1  0.226278  0.185203  0.565921  1
  Bi  Bi4  1  0.292430  0.236069  0.913543  1
  Bi  Bi5  1  0.314069  0.786762  0.330312  1
  Bi  Bi6  1  0.384244  0.716399  0.720878  1
  Bi  Bi7  1  0.448603  0.749590  0.082956  1
  Bi  Bi8  1  0.551398  0.249590  0.917045  1
  Bi  Bi9  1  0.615756  0.216398  0.279121  1
  Bi  Bi10  1  0.685931  0.286762  0.669688  1
  Bi  Bi11  1  0.707570  0.736069  0.086457  1
  Bi  Bi12  1  0.773722  0.685202  0.434079  1
  Bi  Bi13  1  0.832635  0.784786  0.809708  1
  Bi  Bi14  1  0.883264  0.199129  0.258341  1
  Bi  Bi15  1  0.964440  0.182018  0.610987  1
  O  O16  1  0.034799  0.342719  0.262600  1
  O  O17  1  0.096073  0.974752  0.577372  1
  O  O18  1  0.085980  0.477610  0.569074  1
  O  O19  1  0.189563  0.997693  0.318528  1
  O  O20  1  0.220425  0.499488  0.346418  1
  O  O21  1  0.262050  0.984361  0.751308  1
  O  O22  1  0.265050  0.478306  0.738741  1
  O  O23  1  0.317056  0.845158  0.528815  1
  O  O24  1  0.420293  0.002947  0.922995  1
  O  O25  1  0.416717  0.492846  0.924108  1
  O  O26  1  0.583283  0.992846  0.075892  1
  O  O27  1  0.579707  0.502948  0.077005  1
  O  O28  1  0.682944  0.345158  0.471184  1
  O  O29  1  0.734950  0.978306  0.261259  1
  O  O30  1  0.737950  0.484360  0.248692  1
  O  O31  1  0.779574  0.999489  0.653582  1
  O  O32  1  0.810437  0.497693  0.681472  1
  O  O33  1  0.914020  0.977610  0.430926  1
  O  O34  1  0.903927  0.474752  0.422628  1
  O  O35  1  0.965201  0.842719  0.737400  1
  F  F36  1  0.079975  0.324891  0.822189  1
  F  F37  1  0.274299  0.759800  0.077455  1
  F  F38  1  0.347064  0.242733  0.163016  1
  F  F39  1  0.443903  0.349059  0.665801  1
  F  F40  1  0.556097  0.849058  0.334199  1
  F  F41  1  0.652936  0.742733  0.836984  1
  F  F42  1  0.725701  0.259800  0.922545  1
  F  F43  1  0.920025  0.824891  0.177811  1
