# generated using pymatgen
data_La3Bi3O11
_symmetry_space_group_name_H-M   'P 1'
_cell_length_a   10.17042596
_cell_length_b   10.17042596
_cell_length_c   10.17042596
_cell_angle_alpha   90.00000000
_cell_angle_beta   90.00000000
_cell_angle_gamma   90.00000000
_symmetry_Int_Tables_number   1
_chemical_formula_structural   La3Bi3O11
_chemical_formula_sum   'La12 Bi12 O44'
_cell_volume   1052.00408826
_cell_formula_units_Z   4
loop_
 _symmetry_equiv_pos_site_id
 _symmetry_equiv_pos_as_xyz
  1  'x, y, z'
loop_
 _atom_site_type_symbol
 _atom_site_label
 _atom_site_symmetry_multiplicity
 _atom_site_fract_x
 _atom_site_fract_y
 _atom_site_fract_z
 _atom_site_occupancy
  La  La0  1  0.000000  0.000000  0.500000  1
  La  La1  1  0.000000  0.500000  0.000000  1
  La  La2  1  0.123290  0.123290  0.123290  1
  La  La3  1  0.123290  0.376710  0.376710  1
  La  La4  1  0.376710  0.123290  0.376710  1
  La  La5  1  0.376710  0.376710  0.123290  1
  La  La6  1  0.500000  0.500000  0.500000  1
  La  La7  1  0.500000  0.000000  0.000000  1
  La  La8  1  0.623290  0.623290  0.876710  1
  La  La9  1  0.623290  0.876710  0.623290  1
  La  La10  1  0.876710  0.623290  0.623290  1
  La  La11  1  0.876710  0.876710  0.876710  1
  Bi  Bi12  1  0.084309  0.750000  0.250000  1
  Bi  Bi13  1  0.250000  0.084309  0.750000  1
  Bi  Bi14  1  0.250000  0.750000  0.584309  1
  Bi  Bi15  1  0.250000  0.750000  0.915691  1
  Bi  Bi16  1  0.250000  0.415691  0.750000  1
  Bi  Bi17  1  0.415691  0.750000  0.250000  1
  Bi  Bi18  1  0.584309  0.250000  0.750000  1
  Bi  Bi19  1  0.750000  0.250000  0.084309  1
  Bi  Bi20  1  0.750000  0.250000  0.415691  1
  Bi  Bi21  1  0.750000  0.584309  0.250000  1
  Bi  Bi22  1  0.750000  0.915691  0.250000  1
  Bi  Bi23  1  0.915691  0.250000  0.750000  1
  O  O24  1  0.031515  0.062016  0.746159  1
  O  O25  1  0.031515  0.437984  0.753841  1
  O  O26  1  0.062016  0.746159  0.031515  1
  O  O27  1  0.062016  0.753841  0.468485  1
  O  O28  1  0.111156  0.750000  0.750000  1
  O  O29  1  0.147860  0.147860  0.352140  1
  O  O30  1  0.147860  0.352140  0.147860  1
  O  O31  1  0.253841  0.968485  0.937984  1
  O  O32  1  0.253841  0.531515  0.562016  1
  O  O33  1  0.250000  0.888844  0.250000  1
  O  O34  1  0.250000  0.611156  0.250000  1
  O  O35  1  0.250000  0.250000  0.611156  1
  O  O36  1  0.250000  0.250000  0.888844  1
  O  O37  1  0.246159  0.531515  0.937984  1
  O  O38  1  0.246159  0.968485  0.562016  1
  O  O39  1  0.352140  0.147860  0.147860  1
  O  O40  1  0.352140  0.352140  0.352140  1
  O  O41  1  0.388844  0.750000  0.750000  1
  O  O42  1  0.437984  0.753841  0.031515  1
  O  O43  1  0.437984  0.746159  0.468485  1
  O  O44  1  0.468485  0.062016  0.753841  1
  O  O45  1  0.468485  0.437984  0.746159  1
  O  O46  1  0.531515  0.562016  0.253841  1
  O  O47  1  0.531515  0.937984  0.246159  1
  O  O48  1  0.562016  0.253841  0.531515  1
  O  O49  1  0.562016  0.246159  0.968485  1
  O  O50  1  0.611156  0.250000  0.250000  1
  O  O51  1  0.647860  0.647860  0.647860  1
  O  O52  1  0.647860  0.852140  0.852140  1
  O  O53  1  0.753841  0.031515  0.437984  1
  O  O54  1  0.753841  0.468485  0.062016  1
  O  O55  1  0.750000  0.111156  0.750000  1
  O  O56  1  0.750000  0.388844  0.750000  1
  O  O57  1  0.750000  0.750000  0.111156  1
  O  O58  1  0.750000  0.750000  0.388844  1
  O  O59  1  0.746159  0.031515  0.062016  1
  O  O60  1  0.746159  0.468485  0.437984  1
  O  O61  1  0.852140  0.647860  0.852140  1
  O  O62  1  0.852140  0.852140  0.647860  1
  O  O63  1  0.888844  0.250000  0.250000  1
  O  O64  1  0.937984  0.253841  0.968485  1
  O  O65  1  0.937984  0.246159  0.531515  1
  O  O66  1  0.968485  0.937984  0.253841  1
  O  O67  1  0.968485  0.562016  0.246159  1
