# generated using pymatgen
data_Li7TiFe3(PO4)6
_symmetry_space_group_name_H-M   'P 1'
_cell_length_a   8.82016430
_cell_length_b   8.82016443
_cell_length_c   8.87568729
_cell_angle_alpha   60.20671377
_cell_angle_beta   60.20671888
_cell_angle_gamma   59.99999788
_symmetry_Int_Tables_number   1
_chemical_formula_structural   Li7TiFe3(PO4)6
_chemical_formula_sum   'Li7 Ti1 Fe3 P6 O24'
_cell_volume   489.76783719
_cell_formula_units_Z   1
loop_
 _symmetry_equiv_pos_site_id
 _symmetry_equiv_pos_as_xyz
  1  'x, y, z'
loop_
 _atom_site_type_symbol
 _atom_site_label
 _atom_site_symmetry_multiplicity
 _atom_site_fract_x
 _atom_site_fract_y
 _atom_site_fract_z
 _atom_site_occupancy
  Li  Li0  1  0.067854  0.798586  0.881617  1
  Li  Li1  1  0.251941  0.067854  0.881617  1
  Li  Li2  1  0.468747  0.468747  0.593761  1
  Li  Li3  1  0.798586  0.251941  0.881617  1
  Li  Li4  1  0.272915  0.611163  0.333891  1
  Li  Li5  1  0.611163  0.782031  0.333891  1
  Li  Li6  1  0.782031  0.272915  0.333891  1
  Ti  Ti7  1  0.854696  0.854696  0.435913  1
  Fe  Fe8  1  0.352648  0.352648  0.942056  1
  Fe  Fe9  1  0.146560  0.146560  0.560322  1
  Fe  Fe10  1  0.646338  0.646338  0.060987  1
  P  P11  1  0.042204  0.454457  0.751773  1
  P  P12  1  0.454457  0.751566  0.751773  1
  P  P13  1  0.751566  0.042204  0.751773  1
  P  P14  1  0.248345  0.955611  0.255329  1
  P  P15  1  0.540716  0.248345  0.255329  1
  P  P16  1  0.955611  0.540716  0.255329  1
  O  O17  1  0.066567  0.267429  0.746920  1
  O  O18  1  0.003364  0.617575  0.572356  1
  O  O19  1  0.226562  0.441203  0.743705  1
  O  O20  1  0.475954  0.719453  0.925609  1
  O  O21  1  0.267429  0.919085  0.746920  1
  O  O22  1  0.441203  0.588530  0.743705  1
  O  O23  1  0.719453  0.878984  0.925609  1
  O  O24  1  0.588530  0.226562  0.743705  1
  O  O25  1  0.193725  0.008244  0.418728  1
  O  O26  1  0.093830  0.899162  0.274663  1
  O  O27  1  0.878984  0.475954  0.925609  1
  O  O28  1  0.379304  0.193725  0.418728  1
  O  O29  1  0.617575  0.806704  0.572356  1
  O  O30  1  0.111389  0.542268  0.069622  1
  O  O31  1  0.919085  0.066567  0.746920  1
  O  O32  1  0.806704  0.003364  0.572356  1
  O  O33  1  0.418760  0.773830  0.268496  1
  O  O34  1  0.276723  0.111389  0.069622  1
  O  O35  1  0.538914  0.418760  0.268496  1
  O  O36  1  0.732345  0.093830  0.274663  1
  O  O37  1  0.542268  0.276723  0.069622  1
  O  O38  1  0.008244  0.379304  0.418728  1
  O  O39  1  0.773830  0.538914  0.268496  1
  O  O40  1  0.899162  0.732345  0.274663  1
