# generated using pymatgen
data_Li3Mn3NiO8
_symmetry_space_group_name_H-M   'P 1'
_cell_length_a   5.88517180
_cell_length_b   5.77509556
_cell_length_c   5.95460170
_cell_angle_alpha   61.02430217
_cell_angle_beta   60.40018962
_cell_angle_gamma   90.25534369
_symmetry_Int_Tables_number   1
_chemical_formula_structural   Li3Mn3NiO8
_chemical_formula_sum   'Li3 Mn3 Ni1 O8'
_cell_volume   145.82586745
_cell_formula_units_Z   1
loop_
 _symmetry_equiv_pos_site_id
 _symmetry_equiv_pos_as_xyz
  1  'x, y, z'
loop_
 _atom_site_type_symbol
 _atom_site_label
 _atom_site_symmetry_multiplicity
 _atom_site_fract_x
 _atom_site_fract_y
 _atom_site_fract_z
 _atom_site_occupancy
  Li  Li0  1  0.500001  0.000001  0.999999  1
  Li  Li1  1  0.499999  0.500000  0.000000  1
  Li  Li2  1  0.500000  0.499999  0.500000  1
  Mn  Mn3  1  0.000000  0.000001  0.500000  1
  Mn  Mn4  1  0.000000  0.500000  0.000001  1
  Mn  Mn5  1  0.000000  0.499999  0.500000  1
  Ni  Ni6  1  0.000000  0.000000  0.000000  1
  O  O7  1  0.214943  0.240306  0.043091  1
  O  O8  1  0.206496  0.711550  0.052318  1
  O  O9  1  0.218671  0.251562  0.504726  1
  O  O10  1  0.230533  0.758538  0.478509  1
  O  O11  1  0.769468  0.241461  0.521492  1
  O  O12  1  0.781329  0.748439  0.495274  1
  O  O13  1  0.793503  0.288451  0.947682  1
  O  O14  1  0.785057  0.759694  0.956908  1
