# generated using pymatgen
data_Fe10O19F
_symmetry_space_group_name_H-M   'P 1'
_cell_length_a   4.63142472
_cell_length_b   12.83676236
_cell_length_c   5.49853287
_cell_angle_alpha   103.46757934
_cell_angle_beta   90.67640837
_cell_angle_gamma   89.48250819
_symmetry_Int_Tables_number   1
_chemical_formula_structural   Fe10O19F
_chemical_formula_sum   'Fe10 O19 F1'
_cell_volume   317.88354592
_cell_formula_units_Z   1
loop_
 _symmetry_equiv_pos_site_id
 _symmetry_equiv_pos_as_xyz
  1  'x, y, z'
loop_
 _atom_site_type_symbol
 _atom_site_label
 _atom_site_symmetry_multiplicity
 _atom_site_fract_x
 _atom_site_fract_y
 _atom_site_fract_z
 _atom_site_occupancy
  Fe  Fe0  1  0.501664  0.999373  0.502074  1
  Fe  Fe1  1  0.495250  0.399051  0.300658  1
  Fe  Fe2  1  0.500061  0.200302  0.898781  1
  Fe  Fe3  1  0.496074  0.600099  0.699412  1
  Fe  Fe4  1  0.519718  0.803540  0.091187  1
  Fe  Fe5  1  0.997254  0.399125  0.799198  1
  Fe  Fe6  1  0.995849  0.801274  0.608952  1
  Fe  Fe7  1  0.998377  0.200189  0.400927  1
  Fe  Fe8  1  0.985165  0.593666  0.198653  1
  Fe  Fe9  1  0.006798  0.002569  0.002191  1
  O  O10  1  0.810736  0.261921  0.713061  1
  O  O11  1  0.814731  0.867855  0.921958  1
  O  O12  1  0.811468  0.662899  0.513429  1
  O  O13  1  0.813728  0.062600  0.314868  1
  O  O14  1  0.802299  0.454917  0.107503  1
  O  O15  1  0.690936  0.063207  0.814718  1
  O  O16  1  0.686609  0.461486  0.611918  1
  O  O17  1  0.691947  0.662141  0.015586  1
  O  O18  1  0.695954  0.861064  0.415099  1
  O  O19  1  0.686968  0.260811  0.214766  1
  O  O20  1  0.306381  0.336796  0.986437  1
  O  O21  1  0.309690  0.739199  0.784683  1
  O  O22  1  0.310818  0.138018  0.585900  1
  O  O23  1  0.314488  0.938536  0.187896  1
  O  O24  1  0.305456  0.538493  0.382580  1
  O  O25  1  0.187992  0.139437  0.087996  1
  O  O26  1  0.193202  0.938985  0.688417  1
  O  O27  1  0.183474  0.535296  0.883657  1
  O  O28  1  0.188455  0.337897  0.488556  1
  F  F29  1  0.198455  0.739253  0.278937  1
