# generated using pymatgen
data_Li2CuSiO4
_symmetry_space_group_name_H-M   'P 1'
_cell_length_a   10.80651726
_cell_length_b   4.96732743
_cell_length_c   6.33111807
_cell_angle_alpha   90.00122707
_cell_angle_beta   90.00864118
_cell_angle_gamma   89.96556604
_symmetry_Int_Tables_number   1
_chemical_formula_structural   Li2CuSiO4
_chemical_formula_sum   'Li8 Cu4 Si4 O16'
_cell_volume   339.85124745
_cell_formula_units_Z   4
loop_
 _symmetry_equiv_pos_site_id
 _symmetry_equiv_pos_as_xyz
  1  'x, y, z'
loop_
 _atom_site_type_symbol
 _atom_site_label
 _atom_site_symmetry_multiplicity
 _atom_site_fract_x
 _atom_site_fract_y
 _atom_site_fract_z
 _atom_site_occupancy
  Li  Li0  1  0.090281  0.705985  0.870143  1
  Li  Li1  1  0.165424  0.204084  0.118032  1
  Li  Li2  1  0.334727  0.703829  0.618232  1
  Li  Li3  1  0.409660  0.206107  0.370151  1
  Li  Li4  1  0.590263  0.794045  0.870148  1
  Li  Li5  1  0.665315  0.296003  0.118077  1
  Li  Li6  1  0.834599  0.796086  0.618221  1
  Li  Li7  1  0.909606  0.293801  0.370158  1
  Cu  Cu8  1  0.084809  0.714526  0.370530  1
  Cu  Cu9  1  0.415330  0.214466  0.870736  1
  Cu  Cu10  1  0.584675  0.785538  0.370776  1
  Cu  Cu11  1  0.915328  0.285552  0.870753  1
  Si  Si12  1  0.166746  0.196196  0.615706  1
  Si  Si13  1  0.332998  0.696647  0.116332  1
  Si  Si14  1  0.666879  0.303851  0.615666  1
  Si  Si15  1  0.832982  0.803376  0.116196  1
  O  O16  1  0.094501  0.302605  0.829969  1
  O  O17  1  0.093601  0.297818  0.401262  1
  O  O18  1  0.168350  0.863519  0.616937  1
  O  O19  1  0.188799  0.808372  0.119134  1
  O  O20  1  0.311358  0.308692  0.618758  1
  O  O21  1  0.331591  0.363221  0.117262  1
  O  O22  1  0.406421  0.797673  0.901090  1
  O  O23  1  0.405473  0.802551  0.329742  1
  O  O24  1  0.594518  0.197359  0.830099  1
  O  O25  1  0.593628  0.202334  0.401342  1
  O  O26  1  0.668376  0.636415  0.617114  1
  O  O27  1  0.688855  0.691567  0.118941  1
  O  O28  1  0.811312  0.191425  0.618920  1
  O  O29  1  0.831595  0.136679  0.117136  1
  O  O30  1  0.906425  0.702236  0.901111  1
  O  O31  1  0.905574  0.697444  0.329729  1
