# generated using pymatgen
data_Li2FeH12(SO7)2
_symmetry_space_group_name_H-M   'P 1'
_cell_length_a   8.92982491
_cell_length_b   11.79557001
_cell_length_c   5.96759300
_cell_angle_alpha   90.00000000
_cell_angle_beta   101.74340682
_cell_angle_gamma   90.00000000
_symmetry_Int_Tables_number   1
_chemical_formula_structural   Li2FeH12(SO7)2
_chemical_formula_sum   'Li4 Fe2 H24 S4 O28'
_cell_volume   615.42385595
_cell_formula_units_Z   2
loop_
 _symmetry_equiv_pos_site_id
 _symmetry_equiv_pos_as_xyz
  1  'x, y, z'
loop_
 _atom_site_type_symbol
 _atom_site_label
 _atom_site_symmetry_multiplicity
 _atom_site_fract_x
 _atom_site_fract_y
 _atom_site_fract_z
 _atom_site_occupancy
  Li  Li0  1  0.133571  0.386203  0.305644  1
  Li  Li1  1  0.366429  0.886203  0.694356  1
  Li  Li2  1  0.633571  0.113797  0.305644  1
  Li  Li3  1  0.866429  0.613797  0.694356  1
  Fe  Fe4  1  0.000000  0.000000  0.000000  1
  Fe  Fe5  1  0.500000  0.500000  0.000000  1
  H  H6  1  0.099744  0.061188  0.648510  1
  H  H7  1  0.035311  0.846823  0.351619  1
  H  H8  1  0.217885  0.401578  0.926576  1
  H  H9  1  0.255678  0.640637  0.902193  1
  H  H10  1  0.344052  0.307603  0.018389  1
  H  H11  1  0.207150  0.102156  0.331235  1
  H  H12  1  0.292850  0.602156  0.668765  1
  H  H13  1  0.155948  0.807603  0.981611  1
  H  H14  1  0.244322  0.140637  0.097807  1
  H  H15  1  0.282115  0.901578  0.073424  1
  H  H16  1  0.464689  0.346823  0.648381  1
  H  H17  1  0.400256  0.561188  0.351490  1
  H  H18  1  0.599744  0.438812  0.648510  1
  H  H19  1  0.535311  0.653177  0.351619  1
  H  H20  1  0.717885  0.098422  0.926576  1
  H  H21  1  0.755678  0.859363  0.902193  1
  H  H22  1  0.844052  0.192397  0.018389  1
  H  H23  1  0.707150  0.397844  0.331235  1
  H  H24  1  0.792850  0.897844  0.668765  1
  H  H25  1  0.655948  0.692397  0.981611  1
  H  H26  1  0.744322  0.359363  0.097807  1
  H  H27  1  0.782115  0.598422  0.073424  1
  H  H28  1  0.964689  0.153177  0.648381  1
  H  H29  1  0.900256  0.938812  0.351490  1
  S  S30  1  0.084561  0.627769  0.273850  1
  S  S31  1  0.415439  0.127769  0.726150  1
  S  S32  1  0.584561  0.872231  0.273850  1
  S  S33  1  0.915439  0.372231  0.726150  1
  O  O34  1  0.998959  0.073424  0.690567  1
  O  O35  1  0.062836  0.432843  0.735479  1
  O  O36  1  0.191886  0.884297  0.947521  1
  O  O37  1  0.099465  0.725236  0.434421  1
  O  O38  1  0.096410  0.666023  0.038240  1
  O  O39  1  0.158460  0.130905  0.178434  1
  O  O40  1  0.289386  0.044372  0.634043  1
  O  O41  1  0.210614  0.544372  0.365957  1
  O  O42  1  0.341540  0.630905  0.821566  1
  O  O43  1  0.403590  0.166023  0.961760  1
  O  O44  1  0.400535  0.225236  0.565579  1
  O  O45  1  0.308114  0.384297  0.052479  1
  O  O46  1  0.498959  0.426576  0.690567  1
  O  O47  1  0.562836  0.067157  0.735479  1
  O  O48  1  0.437164  0.932843  0.264521  1
  O  O49  1  0.501041  0.573424  0.309433  1
  O  O50  1  0.691886  0.615703  0.947521  1
  O  O51  1  0.599465  0.774764  0.434421  1
  O  O52  1  0.596410  0.833977  0.038240  1
  O  O53  1  0.658460  0.369095  0.178434  1
  O  O54  1  0.789386  0.455628  0.634043  1
  O  O55  1  0.710614  0.955628  0.365957  1
  O  O56  1  0.841540  0.869095  0.821566  1
  O  O57  1  0.903590  0.333977  0.961760  1
  O  O58  1  0.900535  0.274764  0.565579  1
  O  O59  1  0.808114  0.115703  0.052479  1
  O  O60  1  0.937164  0.567157  0.264521  1
  O  O61  1  0.001041  0.926576  0.309433  1
