# generated using pymatgen
data_Li2TiCuO4
_symmetry_space_group_name_H-M   'P 1'
_cell_length_a   6.16534934
_cell_length_b   6.16534880
_cell_length_c   5.78823991
_cell_angle_alpha   117.93223403
_cell_angle_beta   117.93224202
_cell_angle_gamma   97.44267398
_symmetry_Int_Tables_number   1
_chemical_formula_structural   Li2TiCuO4
_chemical_formula_sum   'Li4 Ti2 Cu2 O8'
_cell_volume   153.62482128
_cell_formula_units_Z   2
loop_
 _symmetry_equiv_pos_site_id
 _symmetry_equiv_pos_as_xyz
  1  'x, y, z'
loop_
 _atom_site_type_symbol
 _atom_site_label
 _atom_site_symmetry_multiplicity
 _atom_site_fract_x
 _atom_site_fract_y
 _atom_site_fract_z
 _atom_site_occupancy
  Li  Li0  1  0.000000  0.500000  0.500000  1
  Li  Li1  1  0.500000  0.500000  0.500000  1
  Li  Li2  1  0.500000  0.000000  0.000000  1
  Li  Li3  1  0.500000  0.500000  0.000000  1
  Ti  Ti4  1  0.000000  0.000000  0.500000  1
  Ti  Ti5  1  0.000000  0.000000  0.000000  1
  Cu  Cu6  1  0.000000  0.500000  0.000000  1
  Cu  Cu7  1  0.500000  0.000000  0.500000  1
  O  O8  1  0.217013  0.781614  0.016677  1
  O  O9  1  0.218759  0.252537  0.484860  1
  O  O10  1  0.218386  0.782987  0.483323  1
  O  O11  1  0.747463  0.781241  0.015140  1
  O  O12  1  0.252537  0.218759  0.984860  1
  O  O13  1  0.781614  0.217013  0.516677  1
  O  O14  1  0.781241  0.747463  0.515140  1
  O  O15  1  0.782987  0.218386  0.983323  1
