# generated using pymatgen
data_LiMnF3
_symmetry_space_group_name_H-M   'P 1'
_cell_length_a   19.71679985
_cell_length_b   9.31454483
_cell_length_c   5.73988611
_cell_angle_alpha   90.00000000
_cell_angle_beta   90.00000000
_cell_angle_gamma   90.00000000
_symmetry_Int_Tables_number   1
_chemical_formula_structural   LiMnF3
_chemical_formula_sum   'Li16 Mn16 F48'
_cell_volume   1054.14739621
_cell_formula_units_Z   16
loop_
 _symmetry_equiv_pos_site_id
 _symmetry_equiv_pos_as_xyz
  1  'x, y, z'
loop_
 _atom_site_type_symbol
 _atom_site_label
 _atom_site_symmetry_multiplicity
 _atom_site_fract_x
 _atom_site_fract_y
 _atom_site_fract_z
 _atom_site_occupancy
  Li  Li0  1  0.031130  0.666773  0.331329  1
  Li  Li1  1  0.031130  0.833227  0.831329  1
  Li  Li2  1  0.226884  0.664826  0.544702  1
  Li  Li3  1  0.226884  0.835174  0.044702  1
  Li  Li4  1  0.273116  0.164826  0.544702  1
  Li  Li5  1  0.273116  0.335174  0.044702  1
  Li  Li6  1  0.468870  0.166773  0.331329  1
  Li  Li7  1  0.468870  0.333227  0.831329  1
  Li  Li8  1  0.531130  0.666773  0.168671  1
  Li  Li9  1  0.531130  0.833227  0.668671  1
  Li  Li10  1  0.726884  0.664826  0.955298  1
  Li  Li11  1  0.726884  0.835174  0.455298  1
  Li  Li12  1  0.773116  0.164826  0.955298  1
  Li  Li13  1  0.773116  0.335174  0.455298  1
  Li  Li14  1  0.968870  0.166773  0.168671  1
  Li  Li15  1  0.968870  0.333227  0.668671  1
  Mn  Mn16  1  0.120504  0.962617  0.337867  1
  Mn  Mn17  1  0.120504  0.537383  0.837867  1
  Mn  Mn18  1  0.121774  0.344577  0.342518  1
  Mn  Mn19  1  0.121774  0.155423  0.842518  1
  Mn  Mn20  1  0.378226  0.655423  0.842518  1
  Mn  Mn21  1  0.378226  0.844577  0.342518  1
  Mn  Mn22  1  0.379496  0.037383  0.837867  1
  Mn  Mn23  1  0.379496  0.462617  0.337867  1
  Mn  Mn24  1  0.620504  0.537383  0.662133  1
  Mn  Mn25  1  0.620504  0.962617  0.162133  1
  Mn  Mn26  1  0.621774  0.155423  0.657482  1
  Mn  Mn27  1  0.621774  0.344577  0.157482  1
  Mn  Mn28  1  0.878226  0.655423  0.657482  1
  Mn  Mn29  1  0.878226  0.844577  0.157482  1
  Mn  Mn30  1  0.879496  0.037383  0.662133  1
  Mn  Mn31  1  0.879496  0.462617  0.162133  1
  F  F32  1  0.051568  0.665877  0.655338  1
  F  F33  1  0.051568  0.834123  0.155338  1
  F  F34  1  0.067957  0.164727  0.181054  1
  F  F35  1  0.067957  0.335273  0.681054  1
  F  F36  1  0.072343  0.513771  0.164534  1
  F  F37  1  0.072343  0.986229  0.664534  1
  F  F38  1  0.175024  0.159090  0.509992  1
  F  F39  1  0.175024  0.340910  0.009992  1
  F  F40  1  0.180409  0.014684  0.032455  1
  F  F41  1  0.180409  0.485316  0.532456  1
  F  F42  1  0.194084  0.805949  0.352964  1
  F  F43  1  0.194084  0.694051  0.852964  1
  F  F44  1  0.305916  0.194051  0.852964  1
  F  F45  1  0.305916  0.305949  0.352964  1
  F  F46  1  0.319591  0.514684  0.032455  1
  F  F47  1  0.319591  0.985316  0.532456  1
  F  F48  1  0.324976  0.659090  0.509992  1
  F  F49  1  0.324976  0.840910  0.009992  1
  F  F50  1  0.427657  0.013771  0.164534  1
  F  F51  1  0.427657  0.486229  0.664534  1
  F  F52  1  0.432043  0.664727  0.181054  1
  F  F53  1  0.432043  0.835273  0.681054  1
  F  F54  1  0.448432  0.165877  0.655338  1
  F  F55  1  0.448432  0.334123  0.155338  1
  F  F56  1  0.551568  0.665877  0.844662  1
  F  F57  1  0.551568  0.834123  0.344662  1
  F  F58  1  0.567957  0.164727  0.318946  1
  F  F59  1  0.567957  0.335273  0.818946  1
  F  F60  1  0.572343  0.513771  0.335466  1
  F  F61  1  0.572343  0.986229  0.835466  1
  F  F62  1  0.675024  0.159090  0.990008  1
  F  F63  1  0.675024  0.340910  0.490008  1
  F  F64  1  0.680409  0.014684  0.467545  1
  F  F65  1  0.680409  0.485316  0.967544  1
  F  F66  1  0.694084  0.694051  0.647036  1
  F  F67  1  0.694084  0.805949  0.147036  1
  F  F68  1  0.805916  0.194051  0.647036  1
  F  F69  1  0.805916  0.305949  0.147036  1
  F  F70  1  0.819591  0.514684  0.467545  1
  F  F71  1  0.819591  0.985316  0.967544  1
  F  F72  1  0.824976  0.659090  0.990008  1
  F  F73  1  0.824976  0.840910  0.490008  1
  F  F74  1  0.927657  0.013771  0.335466  1
  F  F75  1  0.927657  0.486229  0.835466  1
  F  F76  1  0.932043  0.664727  0.318946  1
  F  F77  1  0.932043  0.835273  0.818946  1
  F  F78  1  0.948432  0.165877  0.844662  1
  F  F79  1  0.948432  0.334123  0.344662  1
