# generated using pymatgen
data_KFe2H(SeO3)4
_symmetry_space_group_name_H-M   'P 1'
_cell_length_a   10.21099162
_cell_length_b   5.37103050
_cell_length_c   10.78569330
_cell_angle_alpha   90.00000000
_cell_angle_beta   96.77445312
_cell_angle_gamma   90.00000000
_symmetry_Int_Tables_number   1
_chemical_formula_structural   KFe2H(SeO3)4
_chemical_formula_sum   'K2 Fe4 H2 Se8 O24'
_cell_volume   587.39576997
_cell_formula_units_Z   2
loop_
 _symmetry_equiv_pos_site_id
 _symmetry_equiv_pos_as_xyz
  1  'x, y, z'
loop_
 _atom_site_type_symbol
 _atom_site_label
 _atom_site_symmetry_multiplicity
 _atom_site_fract_x
 _atom_site_fract_y
 _atom_site_fract_z
 _atom_site_occupancy
  K  K0  1  0.500000  0.570144  0.000000  1
  K  K1  1  0.000000  0.495090  0.500000  1
  Fe  Fe2  1  0.253819  0.002495  0.740467  1
  Fe  Fe3  1  0.746181  0.002495  0.259533  1
  Fe  Fe4  1  0.744358  0.513918  0.757612  1
  Fe  Fe5  1  0.255642  0.513918  0.242388  1
  H  H6  1  0.985050  0.187982  0.734922  1
  H  H7  1  0.014950  0.187982  0.265078  1
  Se  Se8  1  0.771980  0.018432  0.936563  1
  Se  Se9  1  0.228020  0.018432  0.063437  1
  Se  Se10  1  0.737053  0.007456  0.576337  1
  Se  Se11  1  0.262947  0.007456  0.423663  1
  Se  Se12  1  0.405089  0.491274  0.644840  1
  Se  Se13  1  0.594911  0.491274  0.355160  1
  Se  Se14  1  0.092192  0.533195  0.847676  1
  Se  Se15  1  0.907808  0.533195  0.152324  1
  O  O16  1  0.694292  0.299558  0.901866  1
  O  O17  1  0.305708  0.299558  0.098134  1
  O  O18  1  0.288952  0.933913  0.925560  1
  O  O19  1  0.711048  0.933913  0.074440  1
  O  O20  1  0.677865  0.815861  0.837296  1
  O  O21  1  0.322135  0.815861  0.162704  1
  O  O22  1  0.807315  0.721644  0.614474  1
  O  O23  1  0.192685  0.721644  0.385526  1
  O  O24  1  0.191576  0.081240  0.557322  1
  O  O25  1  0.808424  0.081240  0.442678  1
  O  O26  1  0.832405  0.207371  0.682000  1
  O  O27  1  0.167595  0.207371  0.318000  1
  O  O28  1  0.573051  0.445462  0.652600  1
  O  O29  1  0.426949  0.445462  0.347400  1
  O  O30  1  0.358372  0.320416  0.769950  1
  O  O31  1  0.641628  0.320416  0.230050  1
  O  O32  1  0.401200  0.793238  0.700989  1
  O  O33  1  0.598800  0.793238  0.299011  1
  O  O34  1  0.929195  0.569046  0.863646  1
  O  O35  1  0.070805  0.569046  0.136354  1
  O  O36  1  0.117801  0.712714  0.722253  1
  O  O37  1  0.882199  0.712714  0.277747  1
  O  O38  1  0.080694  0.220699  0.773001  1
  O  O39  1  0.919306  0.220699  0.226999  1
