# generated using pymatgen
data_Li4Ti2V3Co3O16
_symmetry_space_group_name_H-M   'P 1'
_cell_length_a   5.83435339
_cell_length_b   5.82939102
_cell_length_c   9.48247169
_cell_angle_alpha   89.91678406
_cell_angle_beta   89.86531911
_cell_angle_gamma   120.03208234
_symmetry_Int_Tables_number   1
_chemical_formula_structural   Li4Ti2V3Co3O16
_chemical_formula_sum   'Li4 Ti2 V3 Co3 O16'
_cell_volume   279.20578510
_cell_formula_units_Z   1
loop_
 _symmetry_equiv_pos_site_id
 _symmetry_equiv_pos_as_xyz
  1  'x, y, z'
loop_
 _atom_site_type_symbol
 _atom_site_label
 _atom_site_symmetry_multiplicity
 _atom_site_fract_x
 _atom_site_fract_y
 _atom_site_fract_z
 _atom_site_occupancy
  Li  Li0  1  0.328240  0.661958  0.904153  1
  Li  Li1  1  0.009914  0.006058  0.995330  1
  Li  Li2  1  0.004705  0.003517  0.493133  1
  Li  Li3  1  0.672145  0.336538  0.389136  1
  Ti  Ti4  1  0.307295  0.653141  0.494319  1
  Ti  Ti5  1  0.670901  0.337208  0.004049  1
  V  V6  1  0.657103  0.829413  0.224035  1
  V  V7  1  0.813713  0.650370  0.720769  1
  V  V8  1  0.805552  0.158219  0.718539  1
  Co  Co9  1  0.175526  0.831511  0.212821  1
  Co  Co10  1  0.175238  0.344228  0.212698  1
  Co  Co11  1  0.341173  0.168848  0.709332  1
  O  O12  1  0.151192  0.818241  0.591443  1
  O  O13  1  0.046285  0.522974  0.331024  1
  O  O14  1  0.336467  0.668815  0.109429  1
  O  O15  1  0.007571  0.003743  0.303094  1
  O  O16  1  0.988288  0.994462  0.804929  1
  O  O17  1  0.147533  0.334242  0.591792  1
  O  O18  1  0.480757  0.962865  0.335695  1
  O  O19  1  0.480595  0.518525  0.335908  1
  O  O20  1  0.339512  0.169843  0.098328  1
  O  O21  1  0.658239  0.828729  0.595979  1
  O  O22  1  0.535414  0.495237  0.848441  1
  O  O23  1  0.535933  0.034138  0.847254  1
  O  O24  1  0.685986  0.346125  0.597583  1
  O  O25  1  0.839560  0.669532  0.100334  1
  O  O26  1  0.965660  0.482502  0.838171  1
  O  O27  1  0.839503  0.169316  0.100125  1
