# generated using pymatgen
data_LiMnOF2
_symmetry_space_group_name_H-M   'P 1'
_cell_length_a   5.21870938
_cell_length_b   9.85364469
_cell_length_c   5.21111343
_cell_angle_alpha   105.03955857
_cell_angle_beta   120.51037536
_cell_angle_gamma   75.59145751
_symmetry_Int_Tables_number   1
_chemical_formula_structural   LiMnOF2
_chemical_formula_sum   'Li4 Mn4 O4 F8'
_cell_volume   220.74145418
_cell_formula_units_Z   4
loop_
 _symmetry_equiv_pos_site_id
 _symmetry_equiv_pos_as_xyz
  1  'x, y, z'
loop_
 _atom_site_type_symbol
 _atom_site_label
 _atom_site_symmetry_multiplicity
 _atom_site_fract_x
 _atom_site_fract_y
 _atom_site_fract_z
 _atom_site_occupancy
  Li  Li0  1  0.570905  0.298772  0.451705  1
  Li  Li1  1  0.929095  0.201228  0.048295  1
  Li  Li2  1  0.455853  0.701155  0.578417  1
  Li  Li3  1  0.044147  0.798845  0.921583  1
  Mn  Mn4  1  0.359201  0.013796  0.683130  1
  Mn  Mn5  1  0.140799  0.486204  0.816870  1
  Mn  Mn6  1  0.836568  0.513687  0.178428  1
  Mn  Mn7  1  0.663432  0.986313  0.321572  1
  O  O8  1  0.624008  0.101770  0.655771  1
  O  O9  1  0.834206  0.605623  0.546694  1
  O  O10  1  0.665794  0.894377  0.953306  1
  O  O11  1  0.875992  0.398230  0.844229  1
  F  F12  1  0.118075  0.634286  0.205258  1
  F  F13  1  0.318642  0.130751  0.070079  1
  F  F14  1  0.181358  0.369249  0.429921  1
  F  F15  1  0.531693  0.379656  0.102829  1
  F  F16  1  0.068694  0.885564  0.617786  1
  F  F17  1  0.381925  0.865714  0.294742  1
  F  F18  1  0.968307  0.120344  0.397171  1
  F  F19  1  0.431306  0.614436  0.882214  1
