# generated using pymatgen
data_Li4Cr2TeWO12
_symmetry_space_group_name_H-M   'P 1'
_cell_length_a   5.34732053
_cell_length_b   10.69453986
_cell_length_c   9.38460049
_cell_angle_alpha   28.49768299
_cell_angle_beta   51.77239804
_cell_angle_gamma   57.01616805
_symmetry_Int_Tables_number   1
_chemical_formula_structural   Li4Cr2TeWO12
_chemical_formula_sum   'Li4 Cr2 Te1 W1 O12'
_cell_volume   201.15131313
_cell_formula_units_Z   1
loop_
 _symmetry_equiv_pos_site_id
 _symmetry_equiv_pos_as_xyz
  1  'x, y, z'
loop_
 _atom_site_type_symbol
 _atom_site_label
 _atom_site_symmetry_multiplicity
 _atom_site_fract_x
 _atom_site_fract_y
 _atom_site_fract_z
 _atom_site_occupancy
  Li  Li0  1  0.288154  0.005104  0.279033  1
  Li  Li1  1  0.282367  0.495142  0.291061  1
  Li  Li2  1  0.774731  0.998833  0.782392  1
  Li  Li3  1  0.785915  0.499839  0.780987  1
  Cr  Cr4  1  0.496368  0.999010  0.506001  1
  Cr  Cr5  1  0.510592  0.504317  0.494522  1
  Te  Te6  1  0.001612  0.499435  0.999507  1
  W  W7  1  0.999314  0.003984  0.000553  1
  O  O8  1  0.375231  0.302787  0.124022  1
  O  O9  1  0.243172  0.109976  0.636326  1
  O  O10  1  0.135092  0.314404  0.734176  1
  O  O11  1  0.875751  0.200358  0.226362  1
  O  O12  1  0.360717  0.803258  0.133380  1
  O  O13  1  0.733302  0.374208  0.373074  1
  O  O14  1  0.233647  0.628616  0.620799  1
  O  O15  1  0.635706  0.187024  0.861995  1
  O  O16  1  0.118864  0.816129  0.740245  1
  O  O17  1  0.860831  0.689450  0.249439  1
  O  O18  1  0.738295  0.884406  0.364299  1
  O  O19  1  0.621539  0.683721  0.873029  1
