# generated using pymatgen
data_Li2SiNiO4
_symmetry_space_group_name_H-M   'P 1'
_cell_length_a   4.91930362
_cell_length_b   6.27495511
_cell_length_c   10.70880831
_cell_angle_alpha   90.00028025
_cell_angle_beta   89.99973680
_cell_angle_gamma   90.00711481
_symmetry_Int_Tables_number   1
_chemical_formula_structural   Li2SiNiO4
_chemical_formula_sum   'Li8 Si4 Ni4 O16'
_cell_volume   330.56387632
_cell_formula_units_Z   4
loop_
 _symmetry_equiv_pos_site_id
 _symmetry_equiv_pos_as_xyz
  1  'x, y, z'
loop_
 _atom_site_type_symbol
 _atom_site_label
 _atom_site_symmetry_multiplicity
 _atom_site_fract_x
 _atom_site_fract_y
 _atom_site_fract_z
 _atom_site_occupancy
  Li  Li0  1  0.185221  0.999204  0.589325  1
  Li  Li1  1  0.685513  0.000835  0.911695  1
  Li  Li2  1  0.815103  0.997709  0.411463  1
  Li  Li3  1  0.684899  0.502289  0.911462  1
  Li  Li4  1  0.314780  0.500794  0.089326  1
  Li  Li5  1  0.814489  0.499165  0.411695  1
  Li  Li6  1  0.185117  0.498008  0.589084  1
  Li  Li7  1  0.314882  0.001993  0.089085  1
  Si  Si8  1  0.826507  0.750931  0.166334  1
  Si  Si9  1  0.673494  0.749069  0.666334  1
  Si  Si10  1  0.172975  0.251162  0.834362  1
  Si  Si11  1  0.327029  0.248838  0.334366  1
  Ni  Ni12  1  0.314919  0.748605  0.339110  1
  Ni  Ni13  1  0.185091  0.751397  0.839126  1
  Ni  Ni14  1  0.815599  0.251416  0.161539  1
  Ni  Ni15  1  0.684398  0.248581  0.661544  1
  O  O16  1  0.720783  0.966774  0.093570  1
  O  O17  1  0.778985  0.964388  0.593093  1
  O  O18  1  0.160412  0.751303  0.168286  1
  O  O19  1  0.784564  0.750921  0.811980  1
  O  O20  1  0.715440  0.749077  0.311977  1
  O  O21  1  0.339586  0.748701  0.668291  1
  O  O22  1  0.721021  0.535607  0.093092  1
  O  O23  1  0.779213  0.533223  0.593571  1
  O  O24  1  0.278822  0.466760  0.907160  1
  O  O25  1  0.221335  0.464225  0.407518  1
  O  O26  1  0.283925  0.249440  0.688624  1
  O  O27  1  0.660983  0.248642  0.332333  1
  O  O28  1  0.839020  0.251356  0.832335  1
  O  O29  1  0.216076  0.250562  0.188623  1
  O  O30  1  0.278671  0.035783  0.907520  1
  O  O31  1  0.221177  0.033241  0.407159  1
