# generated using pymatgen
data_Na3CoPCO7
_symmetry_space_group_name_H-M   'P 1'
_cell_length_a   9.00190855
_cell_length_b   5.31415758
_cell_length_c   6.61034078
_cell_angle_alpha   90.00000000
_cell_angle_beta   90.00000000
_cell_angle_gamma   90.58114291
_symmetry_Int_Tables_number   1
_chemical_formula_structural   Na3CoPCO7
_chemical_formula_sum   'Na6 Co2 P2 C2 O14'
_cell_volume   316.20631169
_cell_formula_units_Z   2
loop_
 _symmetry_equiv_pos_site_id
 _symmetry_equiv_pos_as_xyz
  1  'x, y, z'
loop_
 _atom_site_type_symbol
 _atom_site_label
 _atom_site_symmetry_multiplicity
 _atom_site_fract_x
 _atom_site_fract_y
 _atom_site_fract_z
 _atom_site_occupancy
  Na  Na0  1  0.007415  0.999097  0.489193  1
  Na  Na1  1  0.166148  0.456983  0.182194  1
  Na  Na2  1  0.486496  0.510782  0.491480  1
  Na  Na3  1  0.513504  0.489218  0.991480  1
  Na  Na4  1  0.833852  0.543017  0.682194  1
  Na  Na5  1  0.992585  0.000903  0.989193  1
  Co  Co6  1  0.293483  0.016375  0.753733  1
  Co  Co7  1  0.706517  0.983625  0.253733  1
  P  P8  1  0.347510  0.976849  0.241542  1
  P  P9  1  0.652490  0.023151  0.741542  1
  C  C10  1  0.152665  0.486009  0.738610  1
  C  C11  1  0.847335  0.513991  0.238610  1
  O  O12  1  0.045997  0.318624  0.742616  1
  O  O13  1  0.119054  0.725473  0.748424  1
  O  O14  1  0.252032  0.075475  0.058072  1
  O  O15  1  0.255963  0.040315  0.434006  1
  O  O16  1  0.289180  0.416706  0.729641  1
  O  O17  1  0.371049  0.692568  0.220982  1
  O  O18  1  0.498586  0.124165  0.244107  1
  O  O19  1  0.501414  0.875835  0.744107  1
  O  O20  1  0.628951  0.307432  0.720982  1
  O  O21  1  0.710820  0.583294  0.229641  1
  O  O22  1  0.744037  0.959685  0.934006  1
  O  O23  1  0.747968  0.924525  0.558072  1
  O  O24  1  0.880946  0.274527  0.248424  1
  O  O25  1  0.954003  0.681376  0.242616  1
