# generated using pymatgen
data_Li4VP6(H4O11)2
_symmetry_space_group_name_H-M   'P 1'
_cell_length_a   7.55078258
_cell_length_b   8.50755971
_cell_length_c   7.00158286
_cell_angle_alpha   103.39817175
_cell_angle_beta   94.18611930
_cell_angle_gamma   84.74528901
_symmetry_Int_Tables_number   1
_chemical_formula_structural   Li4VP6(H4O11)2
_chemical_formula_sum   'Li4 V1 P6 H8 O22'
_cell_volume   435.06993057
_cell_formula_units_Z   1
loop_
 _symmetry_equiv_pos_site_id
 _symmetry_equiv_pos_as_xyz
  1  'x, y, z'
loop_
 _atom_site_type_symbol
 _atom_site_label
 _atom_site_symmetry_multiplicity
 _atom_site_fract_x
 _atom_site_fract_y
 _atom_site_fract_z
 _atom_site_occupancy
  Li  Li0  1  0.345168  0.585759  0.929756  1
  Li  Li1  1  0.435831  0.227892  0.669934  1
  Li  Li2  1  0.564169  0.772108  0.330066  1
  Li  Li3  1  0.654832  0.414241  0.070244  1
  V  V4  1  0.000000  0.000000  0.000000  1
  P  P5  1  0.018926  0.304225  0.779113  1
  P  P6  1  0.211331  0.834905  0.559741  1
  P  P7  1  0.292905  0.507657  0.341060  1
  P  P8  1  0.707095  0.492343  0.658940  1
  P  P9  1  0.788669  0.165095  0.440259  1
  P  P10  1  0.981074  0.695775  0.220887  1
  H  H11  1  0.240225  0.189896  0.259533  1
  H  H12  1  0.269998  0.008344  0.275544  1
  H  H13  1  0.393239  0.887982  0.979682  1
  H  H14  1  0.411481  0.187141  0.034878  1
  H  H15  1  0.588519  0.812859  0.965122  1
  H  H16  1  0.606761  0.112018  0.020318  1
  H  H17  1  0.730002  0.991656  0.724456  1
  H  H18  1  0.759775  0.810104  0.740467  1
  O  O19  1  0.020547  0.814745  0.436747  1
  O  O20  1  0.091726  0.527720  0.245650  1
  O  O21  1  0.211850  0.334355  0.801030  1
  O  O22  1  0.065899  0.758852  0.067631  1
  O  O23  1  0.177897  0.908116  0.770137  1
  O  O24  1  0.231940  0.076365  0.179077  1
  O  O25  1  0.281409  0.645526  0.545606  1
  O  O26  1  0.318302  0.347737  0.396805  1
  O  O27  1  0.339105  0.911276  0.460053  1
  O  O28  1  0.524827  0.196699  0.980748  1
  O  O29  1  0.421701  0.550495  0.208902  1
  O  O30  1  0.578299  0.449505  0.791098  1
  O  O31  1  0.475173  0.803301  0.019252  1
  O  O32  1  0.660895  0.088724  0.539947  1
  O  O33  1  0.681698  0.652263  0.603195  1
  O  O34  1  0.718591  0.354474  0.454394  1
  O  O35  1  0.768060  0.923635  0.820923  1
  O  O36  1  0.822103  0.091884  0.229863  1
  O  O37  1  0.934101  0.241148  0.932369  1
  O  O38  1  0.788150  0.665645  0.198970  1
  O  O39  1  0.908274  0.472280  0.754350  1
  O  O40  1  0.979453  0.185255  0.563253  1
