# generated using pymatgen
data_Sr5Nb5O16
_symmetry_space_group_name_H-M   'P 1'
_cell_length_a   4.04835243
_cell_length_b   33.20085272
_cell_length_c   5.74999858
_cell_angle_alpha   90.00000000
_cell_angle_beta   90.00000000
_cell_angle_gamma   90.00000000
_symmetry_Int_Tables_number   1
_chemical_formula_structural   Sr5Nb5O16
_chemical_formula_sum   'Sr10 Nb10 O32'
_cell_volume   772.85013767
_cell_formula_units_Z   2
loop_
 _symmetry_equiv_pos_site_id
 _symmetry_equiv_pos_as_xyz
  1  'x, y, z'
loop_
 _atom_site_type_symbol
 _atom_site_label
 _atom_site_symmetry_multiplicity
 _atom_site_fract_x
 _atom_site_fract_y
 _atom_site_fract_z
 _atom_site_occupancy
  Sr  Sr0  1  0.000000  0.529688  0.023693  1
  Sr  Sr1  1  0.000000  0.751402  0.074811  1
  Sr  Sr2  1  0.000000  0.664695  0.569430  1
  Sr  Sr3  1  0.000000  0.841859  0.564903  1
  Sr  Sr4  1  0.000000  0.967636  0.129277  1
  Sr  Sr5  1  0.500000  0.032364  0.629277  1
  Sr  Sr6  1  0.500000  0.158141  0.064903  1
  Sr  Sr7  1  0.500000  0.248598  0.574811  1
  Sr  Sr8  1  0.500000  0.335305  0.069430  1
  Sr  Sr9  1  0.500000  0.470312  0.523693  1
  Nb  Nb10  1  0.000000  0.072957  0.099519  1
  Nb  Nb11  1  0.000000  0.159335  0.574864  1
  Nb  Nb12  1  0.000000  0.248066  0.074161  1
  Nb  Nb13  1  0.000000  0.423484  0.045073  1
  Nb  Nb14  1  0.000000  0.338033  0.564382  1
  Nb  Nb15  1  0.500000  0.576516  0.545073  1
  Nb  Nb16  1  0.500000  0.661967  0.064382  1
  Nb  Nb17  1  0.500000  0.751934  0.574161  1
  Nb  Nb18  1  0.500000  0.840665  0.074864  1
  Nb  Nb19  1  0.500000  0.927043  0.599519  1
  O  O20  1  0.000000  0.040170  0.363274  1
  O  O21  1  0.000000  0.128990  0.278932  1
  O  O22  1  0.000000  0.029792  0.880133  1
  O  O23  1  0.000000  0.117449  0.799144  1
  O  O24  1  0.000000  0.212915  0.362461  1
  O  O25  1  0.000000  0.296595  0.296850  1
  O  O26  1  0.000000  0.200680  0.854500  1
  O  O27  1  0.000000  0.381048  0.328225  1
  O  O28  1  0.000000  0.286604  0.794542  1
  O  O29  1  0.000000  0.466545  0.264436  1
  O  O30  1  0.000000  0.370442  0.864796  1
  O  O31  1  0.000000  0.458216  0.785457  1
  O  O32  1  0.000000  0.666107  0.074449  1
  O  O33  1  0.000000  0.834400  0.066614  1
  O  O34  1  0.000000  0.751570  0.573674  1
  O  O35  1  0.000000  0.919655  0.573029  1
  O  O36  1  0.500000  0.080345  0.073029  1
  O  O37  1  0.500000  0.165600  0.566614  1
  O  O38  1  0.500000  0.248430  0.073674  1
  O  O39  1  0.500000  0.333893  0.574449  1
  O  O40  1  0.500000  0.541784  0.285457  1
  O  O41  1  0.500000  0.533455  0.764436  1
  O  O42  1  0.500000  0.713396  0.294542  1
  O  O43  1  0.500000  0.618952  0.828225  1
  O  O44  1  0.500000  0.629558  0.364796  1
  O  O45  1  0.500000  0.703405  0.796850  1
  O  O46  1  0.500000  0.787085  0.862461  1
  O  O47  1  0.500000  0.799320  0.354500  1
  O  O48  1  0.500000  0.882551  0.299144  1
  O  O49  1  0.500000  0.871010  0.778932  1
  O  O50  1  0.500000  0.970208  0.380133  1
  O  O51  1  0.500000  0.959830  0.863274  1
