# generated using pymatgen
data_LiCu5(PO4)2
_symmetry_space_group_name_H-M   'P 1'
_cell_length_a   6.26006024
_cell_length_b   5.50968465
_cell_length_c   10.46439894
_cell_angle_alpha   89.89433707
_cell_angle_beta   90.03162336
_cell_angle_gamma   89.57275428
_symmetry_Int_Tables_number   1
_chemical_formula_structural   LiCu5(PO4)2
_chemical_formula_sum   'Li2 Cu10 P4 O16'
_cell_volume   360.91643610
_cell_formula_units_Z   2
loop_
 _symmetry_equiv_pos_site_id
 _symmetry_equiv_pos_as_xyz
  1  'x, y, z'
loop_
 _atom_site_type_symbol
 _atom_site_label
 _atom_site_symmetry_multiplicity
 _atom_site_fract_x
 _atom_site_fract_y
 _atom_site_fract_z
 _atom_site_occupancy
  Li  Li0  1  0.247814  0.328438  0.496022  1
  Li  Li1  1  0.251245  0.674152  0.248665  1
  Cu  Cu2  1  0.002932  0.188699  0.749251  1
  Cu  Cu3  1  0.995625  0.186027  0.245768  1
  Cu  Cu4  1  0.243180  0.335004  0.002472  1
  Cu  Cu5  1  0.255340  0.654176  0.750766  1
  Cu  Cu6  1  0.504327  0.815410  0.998835  1
  Cu  Cu7  1  0.498276  0.811708  0.496326  1
  Cu  Cu8  1  0.743893  0.660324  0.747903  1
  Cu  Cu9  1  0.742890  0.665084  0.246258  1
  Cu  Cu10  1  0.757038  0.334839  0.494604  1
  Cu  Cu11  1  0.755626  0.339557  0.999971  1
  P  P12  1  0.003174  0.825673  0.002685  1
  P  P13  1  0.007997  0.827305  0.497125  1
  P  P14  1  0.490988  0.174047  0.253187  1
  P  P15  1  0.498294  0.173755  0.746243  1
  O  O16  1  0.005816  0.822421  0.645748  1
  O  O17  1  0.014679  0.095083  0.449062  1
  O  O18  1  0.008375  0.818177  0.150928  1
  O  O19  1  -0.000401  0.089199  0.949440  1
  O  O20  1  0.203713  0.682256  0.442486  1
  O  O21  1  0.207544  0.694550  0.949326  1
  O  O22  1  0.292595  0.322025  0.203305  1
  O  O23  1  0.297657  0.304387  0.687245  1
  O  O24  1  0.494867  0.177069  0.894648  1
  O  O25  1  0.501723  0.908591  0.695474  1
  O  O26  1  0.491211  0.183277  0.401599  1
  O  O27  1  0.482961  0.908001  0.203959  1
  O  O28  1  0.704119  0.305097  0.696421  1
  O  O29  1  0.697120  0.300053  0.200065  1
  O  O30  1  0.799976  0.700675  0.446227  1
  O  O31  1  0.799407  0.694941  0.950575  1
