# generated using pymatgen
data_Nb2O5
_symmetry_space_group_name_H-M   'P 1'
_cell_length_a   11.57883381
_cell_length_b   7.78651459
_cell_length_c   11.48582723
_cell_angle_alpha   99.73815405
_cell_angle_beta   91.98050723
_cell_angle_gamma   80.32455935
_symmetry_Int_Tables_number   1
_chemical_formula_structural   Nb2O5
_chemical_formula_sum   'Nb20 O50'
_cell_volume   1006.08892406
_cell_formula_units_Z   10
loop_
 _symmetry_equiv_pos_site_id
 _symmetry_equiv_pos_as_xyz
  1  'x, y, z'
loop_
 _atom_site_type_symbol
 _atom_site_label
 _atom_site_symmetry_multiplicity
 _atom_site_fract_x
 _atom_site_fract_y
 _atom_site_fract_z
 _atom_site_occupancy
  Nb  Nb0  1  0.882450  0.108293  0.320780  1
  Nb  Nb1  1  0.890389  0.610090  0.325728  1
  Nb  Nb2  1  0.558834  0.169945  0.207022  1
  Nb  Nb3  1  0.561118  0.654254  0.209042  1
  Nb  Nb4  1  0.800906  0.437760  0.553641  1
  Nb  Nb5  1  0.786450  0.942549  0.555988  1
  Nb  Nb6  1  0.323962  0.946319  0.113540  1
  Nb  Nb7  1  0.322105  0.448649  0.113666  1
  Nb  Nb8  1  0.477881  0.984392  0.414597  1
  Nb  Nb9  1  0.001061  0.999184  0.997822  1
  Nb  Nb10  1  0.998939  0.500816  0.002178  1
  Nb  Nb11  1  0.522119  0.515608  0.585403  1
  Nb  Nb12  1  0.676038  0.553681  0.886460  1
  Nb  Nb13  1  0.677895  0.051351  0.886334  1
  Nb  Nb14  1  0.199094  0.062240  0.446359  1
  Nb  Nb15  1  0.213550  0.557451  0.444012  1
  Nb  Nb16  1  0.441166  0.330055  0.792978  1
  Nb  Nb17  1  0.438882  0.845746  0.790958  1
  Nb  Nb18  1  0.117550  0.391707  0.679220  1
  Nb  Nb19  1  0.109611  0.889910  0.674272  1
  O  O20  1  0.931961  0.558358  0.164519  1
  O  O21  1  0.931962  0.058352  0.165251  1
  O  O22  1  0.609217  0.101569  0.039025  1
  O  O23  1  0.608255  0.612762  0.037474  1
  O  O24  1  0.861743  0.875719  0.360991  1
  O  O25  1  0.863038  0.374502  0.364055  1
  O  O26  1  0.708446  0.144077  0.268151  1
  O  O27  1  0.709676  0.635295  0.267774  1
  O  O28  1  0.959531  0.413284  0.612915  1
  O  O29  1  0.958710  0.912731  0.611186  1
  O  O30  1  0.510011  0.420549  0.191643  1
  O  O31  1  0.511866  0.923326  0.206517  1
  O  O32  1  0.811658  0.173000  0.510517  1
  O  O33  1  0.812106  0.675923  0.509592  1
  O  O34  1  0.363118  0.192877  0.135500  1
  O  O35  1  0.361703  0.693807  0.137068  1
  O  O36  1  0.638457  0.457935  0.471098  1
  O  O37  1  0.632417  0.961471  0.478014  1
  O  O38  1  0.478598  0.734430  0.360290  1
  O  O39  1  0.478354  0.206355  0.359763  1
  O  O40  1  0.165130  0.475213  0.067331  1
  O  O41  1  0.166159  0.976438  0.072082  1
  O  O42  1  0.715116  0.494915  0.694565  1
  O  O43  1  0.730797  0.993878  0.706853  1
  O  O44  1  0.000000  0.250000  0.000000  1
  O  O45  1  0.000000  0.750000  0.000000  1
  O  O46  1  0.284884  0.005085  0.305435  1
  O  O47  1  0.269203  0.506122  0.293147  1
  O  O48  1  0.834870  0.024787  0.932669  1
  O  O49  1  0.833841  0.523562  0.927918  1
  O  O50  1  0.521646  0.293645  0.640237  1
  O  O51  1  0.521402  0.765570  0.639710  1
  O  O52  1  0.361543  0.042065  0.528902  1
  O  O53  1  0.367583  0.538529  0.521986  1
  O  O54  1  0.638297  0.806193  0.862932  1
  O  O55  1  0.636882  0.307123  0.864500  1
  O  O56  1  0.188341  0.327000  0.489483  1
  O  O57  1  0.187894  0.824077  0.490408  1
  O  O58  1  0.488134  0.576674  0.793483  1
  O  O59  1  0.489989  0.079451  0.808357  1
  O  O60  1  0.040469  0.086716  0.387085  1
  O  O61  1  0.041290  0.587269  0.388814  1
  O  O62  1  0.291554  0.355923  0.731849  1
  O  O63  1  0.290324  0.864705  0.732226  1
  O  O64  1  0.136962  0.125498  0.635945  1
  O  O65  1  0.138257  0.624281  0.639009  1
  O  O66  1  0.390783  0.398431  0.960975  1
  O  O67  1  0.391745  0.887238  0.962526  1
  O  O68  1  0.068038  0.441648  0.834749  1
  O  O69  1  0.068039  0.941642  0.835481  1
