# generated using pymatgen
data_FeSb3(PO4)4
_symmetry_space_group_name_H-M   'P 1'
_cell_length_a   4.98520645
_cell_length_b   10.23788266
_cell_length_c   6.92817314
_cell_angle_alpha   90.00000000
_cell_angle_beta   90.00000000
_cell_angle_gamma   92.82566620
_symmetry_Int_Tables_number   1
_chemical_formula_structural   FeSb3(PO4)4
_chemical_formula_sum   'Fe1 Sb3 P4 O16'
_cell_volume   353.16989167
_cell_formula_units_Z   1
loop_
 _symmetry_equiv_pos_site_id
 _symmetry_equiv_pos_as_xyz
  1  'x, y, z'
loop_
 _atom_site_type_symbol
 _atom_site_label
 _atom_site_symmetry_multiplicity
 _atom_site_fract_x
 _atom_site_fract_y
 _atom_site_fract_z
 _atom_site_occupancy
  Fe  Fe0  1  0.968944  0.268730  0.250000  1
  Sb  Sb1  1  0.045621  0.718682  0.750000  1
  Sb  Sb2  1  0.454665  0.216586  0.750000  1
  Sb  Sb3  1  0.546074  0.777115  0.250000  1
  P  P4  1  0.089832  0.586841  0.250000  1
  P  P5  1  0.377835  0.108474  0.250000  1
  P  P6  1  0.631221  0.908824  0.750000  1
  P  P7  1  0.899735  0.400344  0.750000  1
  O  O8  1  0.135169  0.439587  0.250000  1
  O  O9  1  0.241498  0.660014  0.077140  1
  O  O10  1  0.241498  0.660014  0.422860  1
  O  O11  1  0.206133  0.398990  0.750000  1
  O  O12  1  0.324895  0.902494  0.750000  1
  O  O13  1  0.238462  0.178905  0.076977  1
  O  O14  1  0.238462  0.178905  0.423023  1
  O  O15  1  0.314855  0.961530  0.250000  1
  O  O16  1  0.739448  0.051660  0.750000  1
  O  O17  1  0.753618  0.826540  0.577134  1
  O  O18  1  0.753618  0.826540  0.922866  1
  O  O19  1  0.683171  0.140404  0.250000  1
  O  O20  1  0.787892  0.605665  0.250000  1
  O  O21  1  0.763923  0.321275  0.574340  1
  O  O22  1  0.763923  0.321275  0.925660  1
  O  O23  1  0.799511  0.540607  0.750000  1
