# generated using pymatgen
data_Li4Ti2Nb3Fe3O16
_symmetry_space_group_name_H-M   'P 1'
_cell_length_a   6.14062137
_cell_length_b   6.07433335
_cell_length_c   9.82833229
_cell_angle_alpha   90.27797957
_cell_angle_beta   88.59256249
_cell_angle_gamma   119.60704390
_symmetry_Int_Tables_number   1
_chemical_formula_structural   Li4Ti2Nb3Fe3O16
_chemical_formula_sum   'Li4 Ti2 Nb3 Fe3 O16'
_cell_volume   318.62599281
_cell_formula_units_Z   1
loop_
 _symmetry_equiv_pos_site_id
 _symmetry_equiv_pos_as_xyz
  1  'x, y, z'
loop_
 _atom_site_type_symbol
 _atom_site_label
 _atom_site_symmetry_multiplicity
 _atom_site_fract_x
 _atom_site_fract_y
 _atom_site_fract_z
 _atom_site_occupancy
  Li  Li0  1  0.332269  0.663981  0.903111  1
  Li  Li1  1  0.006512  0.003021  0.996292  1
  Li  Li2  1  0.020632  0.009545  0.484515  1
  Li  Li3  1  0.673275  0.337658  0.393327  1
  Ti  Ti4  1  0.288386  0.640152  0.484191  1
  Ti  Ti5  1  0.661701  0.328754  0.008714  1
  Nb  Nb6  1  0.638861  0.821361  0.228143  1
  Nb  Nb7  1  0.818602  0.651396  0.718990  1
  Nb  Nb8  1  0.813555  0.169034  0.716639  1
  Fe  Fe9  1  0.172250  0.831503  0.208532  1
  Fe  Fe10  1  0.173247  0.340982  0.208497  1
  Fe  Fe11  1  0.338994  0.163393  0.707737  1
  O  O12  1  0.161454  0.823090  0.593811  1
  O  O13  1  0.051737  0.526406  0.351652  1
  O  O14  1  0.362716  0.680435  0.098588  1
  O  O15  1  0.980045  0.990458  0.298968  1
  O  O16  1  0.992627  0.998836  0.808961  1
  O  O17  1  0.156790  0.338738  0.592196  1
  O  O18  1  0.494038  0.966364  0.353050  1
  O  O19  1  0.493958  0.530996  0.354256  1
  O  O20  1  0.343471  0.171664  0.088825  1
  O  O21  1  0.677734  0.840110  0.603025  1
  O  O22  1  0.529463  0.483890  0.839336  1
  O  O23  1  0.536375  0.043066  0.845944  1
  O  O24  1  0.684181  0.345404  0.590208  1
  O  O25  1  0.810834  0.648693  0.092882  1
  O  O26  1  0.974621  0.489221  0.842907  1
  O  O27  1  0.811672  0.162150  0.094543  1
