# generated using pymatgen
data_Li2CuSiO4
_symmetry_space_group_name_H-M   'P 1'
_cell_length_a   6.27267495
_cell_length_b   5.32572622
_cell_length_c   4.97345864
_cell_angle_alpha   89.98632455
_cell_angle_beta   90.00003065
_cell_angle_gamma   90.00002032
_symmetry_Int_Tables_number   1
_chemical_formula_structural   Li2CuSiO4
_chemical_formula_sum   'Li4 Cu2 Si2 O8'
_cell_volume   166.14608705
_cell_formula_units_Z   2
loop_
 _symmetry_equiv_pos_site_id
 _symmetry_equiv_pos_as_xyz
  1  'x, y, z'
loop_
 _atom_site_type_symbol
 _atom_site_label
 _atom_site_symmetry_multiplicity
 _atom_site_fract_x
 _atom_site_fract_y
 _atom_site_fract_z
 _atom_site_occupancy
  Li  Li0  1  0.248726  0.331263  0.995687  1
  Li  Li1  1  0.251241  0.668736  0.495695  1
  Li  Li2  1  0.751274  0.331263  0.995687  1
  Li  Li3  1  0.748758  0.668736  0.495695  1
  Cu  Cu4  1  0.000003  0.819232  0.986385  1
  Cu  Cu5  1  0.500000  0.180735  0.486326  1
  Si  Si6  1  1.000000  0.158834  0.501366  1
  Si  Si7  1  0.499999  0.841753  0.001898  1
  O  O8  1  1.000000  0.165290  0.833941  1
  O  O9  1  0.999999  0.863823  0.396677  1
  O  O10  1  0.284434  0.692076  0.895049  1
  O  O11  1  0.215406  0.307773  0.395150  1
  O  O12  1  0.500000  0.135931  0.896695  1
  O  O13  1  0.500000  0.834707  0.333548  1
  O  O14  1  0.784594  0.307774  0.395149  1
  O  O15  1  0.715567  0.692075  0.895048  1
