# generated using pymatgen
data_LiMn(SiO3)2
_symmetry_space_group_name_H-M   'P 1'
_cell_length_a   18.24353763
_cell_length_b   8.65787439
_cell_length_c   5.38540254
_cell_angle_alpha   90.00000000
_cell_angle_beta   90.00000000
_cell_angle_gamma   90.00000000
_symmetry_Int_Tables_number   1
_chemical_formula_structural   LiMn(SiO3)2
_chemical_formula_sum   'Li8 Mn8 Si16 O48'
_cell_volume   850.62571648
_cell_formula_units_Z   8
loop_
 _symmetry_equiv_pos_site_id
 _symmetry_equiv_pos_as_xyz
  1  'x, y, z'
loop_
 _atom_site_type_symbol
 _atom_site_label
 _atom_site_symmetry_multiplicity
 _atom_site_fract_x
 _atom_site_fract_y
 _atom_site_fract_z
 _atom_site_occupancy
  Li  Li0  1  0.124253  0.993828  0.371211  1
  Li  Li1  1  0.124253  0.506172  0.871211  1
  Li  Li2  1  0.375747  0.006172  0.871211  1
  Li  Li3  1  0.375747  0.493828  0.371211  1
  Li  Li4  1  0.624253  0.506172  0.628789  1
  Li  Li5  1  0.624253  0.993828  0.128789  1
  Li  Li6  1  0.875747  0.006172  0.628789  1
  Li  Li7  1  0.875747  0.493828  0.128789  1
  Mn  Mn8  1  0.124928  0.346091  0.369367  1
  Mn  Mn9  1  0.124928  0.153909  0.869367  1
  Mn  Mn10  1  0.375072  0.653909  0.869367  1
  Mn  Mn11  1  0.375072  0.846091  0.369367  1
  Mn  Mn12  1  0.624928  0.153909  0.630633  1
  Mn  Mn13  1  0.624928  0.346091  0.130633  1
  Mn  Mn14  1  0.875072  0.653909  0.630633  1
  Mn  Mn15  1  0.875072  0.846091  0.130633  1
  Si  Si16  1  0.025893  0.665865  0.281036  1
  Si  Si17  1  0.025893  0.834135  0.781036  1
  Si  Si18  1  0.223763  0.663350  0.535921  1
  Si  Si19  1  0.223763  0.836650  0.035921  1
  Si  Si20  1  0.276237  0.163350  0.535921  1
  Si  Si21  1  0.276237  0.336650  0.035921  1
  Si  Si22  1  0.474107  0.165865  0.281036  1
  Si  Si23  1  0.474107  0.334135  0.781036  1
  Si  Si24  1  0.525893  0.665865  0.218964  1
  Si  Si25  1  0.525893  0.834135  0.718964  1
  Si  Si26  1  0.723763  0.663350  0.964079  1
  Si  Si27  1  0.723763  0.836650  0.464079  1
  Si  Si28  1  0.776237  0.163350  0.964079  1
  Si  Si29  1  0.776237  0.336650  0.464079  1
  Si  Si30  1  0.974107  0.165865  0.218964  1
  Si  Si31  1  0.974107  0.334135  0.718964  1
  O  O32  1  0.052868  0.790989  0.066377  1
  O  O33  1  0.052868  0.709011  0.566377  1
  O  O34  1  0.064800  0.173098  0.220944  1
  O  O35  1  0.064800  0.326902  0.720944  1
  O  O36  1  0.063514  0.502603  0.205480  1
  O  O37  1  0.063514  0.997397  0.705480  1
  O  O38  1  0.185899  0.167778  0.526239  1
  O  O39  1  0.185899  0.332222  0.026239  1
  O  O40  1  0.188756  0.008644  0.030095  1
  O  O41  1  0.188756  0.491356  0.530095  1
  O  O42  1  0.193466  0.727366  0.808131  1
  O  O43  1  0.193466  0.772634  0.308131  1
  O  O44  1  0.306534  0.227366  0.808131  1
  O  O45  1  0.306534  0.272634  0.308131  1
  O  O46  1  0.311244  0.508644  0.030095  1
  O  O47  1  0.311244  0.991356  0.530095  1
  O  O48  1  0.314101  0.667778  0.526239  1
  O  O49  1  0.314101  0.832222  0.026239  1
  O  O50  1  0.436486  0.002603  0.205480  1
  O  O51  1  0.436486  0.497397  0.705480  1
  O  O52  1  0.435200  0.673098  0.220944  1
  O  O53  1  0.435200  0.826902  0.720944  1
  O  O54  1  0.447132  0.209011  0.566377  1
  O  O55  1  0.447132  0.290989  0.066377  1
  O  O56  1  0.552868  0.709011  0.933623  1
  O  O57  1  0.552868  0.790989  0.433623  1
  O  O58  1  0.564800  0.173098  0.279056  1
  O  O59  1  0.564800  0.326902  0.779056  1
  O  O60  1  0.563514  0.502603  0.294520  1
  O  O61  1  0.563514  0.997397  0.794520  1
  O  O62  1  0.685899  0.167778  0.973761  1
  O  O63  1  0.685899  0.332222  0.473761  1
  O  O64  1  0.688756  0.008644  0.469905  1
  O  O65  1  0.688756  0.491356  0.969905  1
  O  O66  1  0.693466  0.727366  0.691869  1
  O  O67  1  0.693466  0.772634  0.191869  1
  O  O68  1  0.806534  0.227366  0.691869  1
  O  O69  1  0.806534  0.272634  0.191869  1
  O  O70  1  0.811244  0.508644  0.469905  1
  O  O71  1  0.811244  0.991356  0.969905  1
  O  O72  1  0.814101  0.667778  0.973761  1
  O  O73  1  0.814101  0.832222  0.473761  1
  O  O74  1  0.936486  0.002603  0.294520  1
  O  O75  1  0.936486  0.497397  0.794520  1
  O  O76  1  0.935200  0.673098  0.279056  1
  O  O77  1  0.935200  0.826902  0.779056  1
  O  O78  1  0.947132  0.209011  0.933623  1
  O  O79  1  0.947132  0.290989  0.433623  1
