# generated using pymatgen
data_Bi10(Pb2O7)3
_symmetry_space_group_name_H-M   'P 1'
_cell_length_a   7.69576881
_cell_length_b   14.39603608
_cell_length_c   7.35964598
_cell_angle_alpha   97.40212563
_cell_angle_beta   118.96676635
_cell_angle_gamma   80.50425038
_symmetry_Int_Tables_number   1
_chemical_formula_structural   Bi10(Pb2O7)3
_chemical_formula_sum   'Bi10 Pb6 O21'
_cell_volume   702.45626949
_cell_formula_units_Z   1
loop_
 _symmetry_equiv_pos_site_id
 _symmetry_equiv_pos_as_xyz
  1  'x, y, z'
loop_
 _atom_site_type_symbol
 _atom_site_label
 _atom_site_symmetry_multiplicity
 _atom_site_fract_x
 _atom_site_fract_y
 _atom_site_fract_z
 _atom_site_occupancy
  Bi  Bi0  1  0.067580  0.187116  0.714589  1
  Bi  Bi1  1  0.234820  0.455200  0.720551  1
  Bi  Bi2  1  0.230599  0.023538  0.296896  1
  Bi  Bi3  1  0.312729  0.927323  0.805292  1
  Bi  Bi4  1  0.514888  0.675169  0.773388  1
  Bi  Bi5  1  0.485112  0.324831  0.226612  1
  Bi  Bi6  1  0.687271  0.072677  0.194708  1
  Bi  Bi7  1  0.769401  0.976462  0.703104  1
  Bi  Bi8  1  0.765180  0.544800  0.279449  1
  Bi  Bi9  1  0.932420  0.812884  0.285411  1
  Pb  Pb10  1  0.016499  0.707217  0.743617  1
  Pb  Pb11  1  0.525700  0.205706  0.722300  1
  Pb  Pb12  1  0.212856  0.556615  0.237567  1
  Pb  Pb13  1  0.787144  0.443385  0.762433  1
  Pb  Pb14  1  0.474300  0.794294  0.277700  1
  Pb  Pb15  1  0.983501  0.292783  0.256383  1
  O  O16  1  0.036807  0.027272  0.727197  1
  O  O17  1  0.083434  0.325123  0.598067  1
  O  O18  1  0.401364  0.210243  0.992720  1
  O  O19  1  0.261629  0.120935  0.594892  1
  O  O20  1  0.053949  0.467480  0.340379  1
  O  O21  1  0.321906  0.622124  0.856970  1
  O  O22  1  0.176991  0.803984  0.634246  1
  O  O23  1  0.748861  0.099636  0.939595  1
  O  O24  1  0.242106  0.427539  0.026451  1
  O  O25  1  0.590426  0.083299  0.491159  1
  O  O26  1  0.500000  0.500000  0.500000  1
  O  O27  1  0.409574  0.916701  0.508841  1
  O  O28  1  0.757894  0.572461  0.973549  1
  O  O29  1  0.251139  0.900364  0.060405  1
  O  O30  1  0.823009  0.196016  0.365754  1
  O  O31  1  0.678094  0.377876  0.143030  1
  O  O32  1  0.946051  0.532520  0.659621  1
  O  O33  1  0.738371  0.879065  0.405108  1
  O  O34  1  0.598636  0.789757  0.007280  1
  O  O35  1  0.916566  0.674877  0.401933  1
  O  O36  1  0.963193  0.972728  0.272803  1
