# generated using pymatgen
data_Na3FeBSO7
_symmetry_space_group_name_H-M   'P 1'
_cell_length_a   9.11217018
_cell_length_b   6.76520545
_cell_length_c   5.31811056
_cell_angle_alpha   90.00000000
_cell_angle_beta   89.05586248
_cell_angle_gamma   90.00000000
_symmetry_Int_Tables_number   1
_chemical_formula_structural   Na3FeBSO7
_chemical_formula_sum   'Na6 Fe2 B2 S2 O14'
_cell_volume   327.79415738
_cell_formula_units_Z   2
loop_
 _symmetry_equiv_pos_site_id
 _symmetry_equiv_pos_as_xyz
  1  'x, y, z'
loop_
 _atom_site_type_symbol
 _atom_site_label
 _atom_site_symmetry_multiplicity
 _atom_site_fract_x
 _atom_site_fract_y
 _atom_site_fract_z
 _atom_site_occupancy
  Na  Na0  1  0.063526  0.250000  0.749195  1
  Na  Na1  1  0.238629  0.990337  0.246648  1
  Na  Na2  1  0.238629  0.509663  0.246648  1
  Na  Na3  1  0.761371  0.490337  0.753352  1
  Na  Na4  1  0.761371  0.009663  0.753352  1
  Na  Na5  1  0.936474  0.750000  0.250805  1
  Fe  Fe6  1  0.334307  0.750000  0.767137  1
  Fe  Fe7  1  0.665693  0.250000  0.232863  1
  B  B8  1  0.062154  0.750000  0.734448  1
  B  B9  1  0.937846  0.250000  0.265552  1
  S  S10  1  0.419252  0.250000  0.705548  1
  S  S11  1  0.580748  0.750000  0.294452  1
  O  O12  1  0.086400  0.250000  0.287280  1
  O  O13  1  0.134430  0.750000  0.966242  1
  O  O14  1  0.158263  0.750000  0.524188  1
  O  O15  1  0.329553  0.073174  0.778164  1
  O  O16  1  0.329553  0.426826  0.778164  1
  O  O17  1  0.446487  0.250000  0.426680  1
  O  O18  1  0.438649  0.750000  0.161393  1
  O  O19  1  0.561351  0.250000  0.838607  1
  O  O20  1  0.553513  0.750000  0.573320  1
  O  O21  1  0.670447  0.573174  0.221836  1
  O  O22  1  0.670447  0.926826  0.221836  1
  O  O23  1  0.841737  0.250000  0.475812  1
  O  O24  1  0.865570  0.250000  0.033758  1
  O  O25  1  0.913600  0.750000  0.712720  1
