# generated using pymatgen
data_Na2H4PtC4Br2(N2O)2
_symmetry_space_group_name_H-M   'P 1'
_cell_length_a   12.04962249
_cell_length_b   15.24194492
_cell_length_c   6.54963278
_cell_angle_alpha   90.00000000
_cell_angle_beta   90.00000000
_cell_angle_gamma   90.00000000
_symmetry_Int_Tables_number   1
_chemical_formula_structural   Na2H4PtC4Br2(N2O)2
_chemical_formula_sum   'Na8 H16 Pt4 C16 Br8 N16 O8'
_cell_volume   1202.90347555
_cell_formula_units_Z   4
loop_
 _symmetry_equiv_pos_site_id
 _symmetry_equiv_pos_as_xyz
  1  'x, y, z'
loop_
 _atom_site_type_symbol
 _atom_site_label
 _atom_site_symmetry_multiplicity
 _atom_site_fract_x
 _atom_site_fract_y
 _atom_site_fract_z
 _atom_site_occupancy
  Na  Na0  1  0.739104  0.024499  0.547854  1
  Na  Na1  1  0.239104  0.475501  0.952146  1
  Na  Na2  1  0.260896  0.524499  0.452146  1
  Na  Na3  1  0.760896  0.975501  0.047854  1
  Na  Na4  1  0.260896  0.975501  0.452146  1
  Na  Na5  1  0.760896  0.524499  0.047854  1
  Na  Na6  1  0.739104  0.475501  0.547854  1
  Na  Na7  1  0.239104  0.024499  0.952146  1
  H  H8  1  0.963263  0.987141  0.759546  1
  H  H9  1  0.463263  0.512859  0.740454  1
  H  H10  1  0.036737  0.487141  0.240454  1
  H  H11  1  0.536737  0.012859  0.259546  1
  H  H12  1  0.036737  0.012859  0.240454  1
  H  H13  1  0.536737  0.487141  0.259546  1
  H  H14  1  0.963263  0.512859  0.759546  1
  H  H15  1  0.463263  0.987141  0.740454  1
  H  H16  1  0.914783  0.077665  0.823573  1
  H  H17  1  0.414783  0.422335  0.676427  1
  H  H18  1  0.085217  0.577665  0.176427  1
  H  H19  1  0.585217  0.922335  0.323573  1
  H  H20  1  0.085217  0.922335  0.176427  1
  H  H21  1  0.585217  0.577665  0.323573  1
  H  H22  1  0.914783  0.422335  0.823573  1
  H  H23  1  0.414783  0.077665  0.676427  1
  Pt  Pt24  1  0.492800  0.750000  0.935599  1
  Pt  Pt25  1  0.992800  0.750000  0.564401  1
  Pt  Pt26  1  0.507200  0.250000  0.064401  1
  Pt  Pt27  1  0.007200  0.250000  0.435599  1
  C  C28  1  0.399315  0.656724  0.070886  1
  C  C29  1  0.899315  0.843276  0.429114  1
  C  C30  1  0.600685  0.156724  0.929114  1
  C  C31  1  0.100685  0.343276  0.570886  1
  C  C32  1  0.600685  0.343276  0.929114  1
  C  C33  1  0.100685  0.156724  0.570886  1
  C  C34  1  0.399315  0.843276  0.070886  1
  C  C35  1  0.899315  0.656724  0.429114  1
  C  C36  1  0.585667  0.654588  0.806918  1
  C  C37  1  0.085667  0.845412  0.693082  1
  C  C38  1  0.414333  0.154588  0.193082  1
  C  C39  1  0.914333  0.345412  0.306918  1
  C  C40  1  0.414333  0.345412  0.193082  1
  C  C41  1  0.914333  0.154588  0.306918  1
  C  C42  1  0.585667  0.845412  0.806918  1
  C  C43  1  0.085667  0.654588  0.693082  1
  Br  Br44  1  0.632576  0.250000  0.372669  1
  Br  Br45  1  0.132576  0.250000  0.127331  1
  Br  Br46  1  0.367424  0.750000  0.627331  1
  Br  Br47  1  0.867424  0.750000  0.872669  1
  Br  Br48  1  0.877156  0.250000  0.739153  1
  Br  Br49  1  0.377156  0.250000  0.760847  1
  Br  Br50  1  0.122844  0.750000  0.260847  1
  Br  Br51  1  0.622844  0.750000  0.239153  1
  N  N52  1  0.346548  0.602587  0.152152  1
  N  N53  1  0.846548  0.897413  0.347848  1
  N  N54  1  0.653452  0.102587  0.847848  1
  N  N55  1  0.153452  0.397413  0.652152  1
  N  N56  1  0.653452  0.397413  0.847848  1
  N  N57  1  0.153452  0.102587  0.652152  1
  N  N58  1  0.346548  0.897413  0.152152  1
  N  N59  1  0.846548  0.602587  0.347848  1
  N  N60  1  0.638002  0.596288  0.741386  1
  N  N61  1  0.138002  0.903712  0.758614  1
  N  N62  1  0.361998  0.096288  0.258614  1
  N  N63  1  0.861998  0.403712  0.241386  1
  N  N64  1  0.361998  0.403712  0.258614  1
  N  N65  1  0.861998  0.096288  0.241386  1
  N  N66  1  0.638002  0.903712  0.741386  1
  N  N67  1  0.138002  0.596288  0.758614  1
  O  O68  1  0.893614  0.017400  0.788916  1
  O  O69  1  0.393614  0.482600  0.711084  1
  O  O70  1  0.106386  0.517400  0.211084  1
  O  O71  1  0.606386  0.982600  0.288916  1
  O  O72  1  0.106386  0.982600  0.211084  1
  O  O73  1  0.606386  0.517400  0.288916  1
  O  O74  1  0.893614  0.482600  0.788916  1
  O  O75  1  0.393614  0.017400  0.711084  1
