# generated using pymatgen
data_Li3Ti2(PO4)3
_symmetry_space_group_name_H-M   'P 1'
_cell_length_a   8.47641132
_cell_length_b   9.10340901
_cell_length_c   8.49786112
_cell_angle_alpha   117.54796744
_cell_angle_beta   60.10798692
_cell_angle_gamma   117.61951738
_symmetry_Int_Tables_number   1
_chemical_formula_structural   Li3Ti2(PO4)3
_chemical_formula_sum   'Li6 Ti4 P6 O24'
_cell_volume   480.30629082
_cell_formula_units_Z   2
loop_
 _symmetry_equiv_pos_site_id
 _symmetry_equiv_pos_as_xyz
  1  'x, y, z'
loop_
 _atom_site_type_symbol
 _atom_site_label
 _atom_site_symmetry_multiplicity
 _atom_site_fract_x
 _atom_site_fract_y
 _atom_site_fract_z
 _atom_site_occupancy
  Li  Li0  1  0.244044  0.644974  0.569281  1
  Li  Li1  1  0.330492  0.137135  0.071868  1
  Li  Li2  1  0.076390  0.135493  0.733067  1
  Li  Li3  1  0.924516  0.860500  0.268695  1
  Li  Li4  1  0.669859  0.861127  0.923302  1
  Li  Li5  1  0.732817  0.140582  0.331547  1
  Ti  Ti6  1  0.144347  0.436922  0.143383  1
  Ti  Ti7  1  0.346280  0.042862  0.350826  1
  Ti  Ti8  1  0.645111  0.956404  0.654543  1
  Ti  Ti9  1  0.846557  0.561288  0.856273  1
  P  P10  1  0.044146  0.249959  0.456655  1
  P  P11  1  0.542085  0.749566  0.251499  1
  P  P12  1  0.250130  0.748081  0.957398  1
  P  P13  1  0.747708  0.249926  0.042966  1
  P  P14  1  0.460580  0.250710  0.748363  1
  P  P15  1  0.957029  0.750387  0.539908  1
  O  O16  1  0.205548  0.899745  0.150233  1
  O  O17  1  0.151415  0.900898  0.532428  1
  O  O18  1  0.017736  0.425078  0.604956  1
  O  O19  1  0.143729  0.267535  0.252573  1
  O  O20  1  0.126910  0.721037  0.853498  1
  O  O21  1  0.541425  0.900132  0.208104  1
  O  O22  1  0.385377  0.582432  0.207465  1
  O  O23  1  0.164731  0.193181  0.495834  1
  O  O24  1  0.504976  0.801543  0.466894  1
  O  O25  1  0.200652  0.582321  0.997358  1
  O  O26  1  0.747373  0.733410  0.128738  1
  O  O27  1  0.465752  0.804943  0.835148  1
  O  O28  1  0.531548  0.191020  0.166496  1
  O  O29  1  0.256149  0.268481  0.870801  1
  O  O30  1  0.799983  0.417562  0.004189  1
  O  O31  1  0.496296  0.192221  0.533403  1
  O  O32  1  0.831527  0.807845  0.506416  1
  O  O33  1  0.613538  0.422434  0.799303  1
  O  O34  1  0.472688  0.110422  0.797629  1
  O  O35  1  0.870527  0.268293  0.142843  1
  O  O36  1  0.857748  0.732926  0.744563  1
  O  O37  1  0.996654  0.582646  0.389771  1
  O  O38  1  0.847173  0.103360  0.461784  1
  O  O39  1  0.790451  0.098619  0.849001  1
