# generated using pymatgen
data_LiMn2(BO3)2
_symmetry_space_group_name_H-M   'P 1'
_cell_length_a   5.79367844
_cell_length_b   5.29448528
_cell_length_c   17.94741775
_cell_angle_alpha   97.79914943
_cell_angle_beta   83.83727805
_cell_angle_gamma   113.91445295
_symmetry_Int_Tables_number   1
_chemical_formula_structural   LiMn2(BO3)2
_chemical_formula_sum   'Li4 Mn8 B8 O24'
_cell_volume   497.77823854
_cell_formula_units_Z   4
loop_
 _symmetry_equiv_pos_site_id
 _symmetry_equiv_pos_as_xyz
  1  'x, y, z'
loop_
 _atom_site_type_symbol
 _atom_site_label
 _atom_site_symmetry_multiplicity
 _atom_site_fract_x
 _atom_site_fract_y
 _atom_site_fract_z
 _atom_site_occupancy
  Li  Li0  1  0.902540  0.934332  0.766833  1
  Li  Li1  1  0.848887  0.576576  0.485483  1
  Li  Li2  1  0.348189  0.573302  0.986655  1
  Li  Li3  1  0.100996  0.078135  0.236283  1
  Mn  Mn4  1  0.893512  0.464293  0.851555  1
  Mn  Mn5  1  0.854671  0.037017  0.402843  1
  Mn  Mn6  1  0.348305  0.036538  0.902464  1
  Mn  Mn7  1  0.590196  0.529361  0.658101  1
  Mn  Mn8  1  0.407319  0.470740  0.348233  1
  Mn  Mn9  1  0.658407  0.969659  0.096468  1
  Mn  Mn10  1  0.155021  0.963104  0.597334  1
  Mn  Mn11  1  0.102510  0.538085  0.154064  1
  B  B12  1  0.694171  0.052005  0.564068  1
  B  B13  1  0.939342  0.546501  0.315356  1
  B  B14  1  0.806875  0.943896  0.930390  1
  B  B15  1  0.437140  0.555681  0.820880  1
  B  B16  1  0.560980  0.451047  0.181720  1
  B  B17  1  0.185991  0.047051  0.066017  1
  B  B18  1  0.060047  0.453067  0.688051  1
  B  B19  1  0.311137  0.949289  0.431744  1
  O  O20  1  0.981706  0.304358  0.747852  1
  O  O21  1  0.713176  0.134962  0.915161  1
  O  O22  1  0.965639  0.654093  0.676538  1
  O  O23  1  0.985163  0.902977  0.873725  1
  O  O24  1  0.781929  0.201005  0.502610  1
  O  O25  1  0.716849  0.791775  0.988860  1
  O  O26  1  0.545046  0.137534  0.619419  1
  O  O27  1  0.802379  0.627491  0.376688  1
  O  O28  1  0.511354  0.351157  0.834147  1
  O  O29  1  0.756612  0.831423  0.574298  1
  O  O30  1  0.748344  0.405545  0.131306  1
  O  O31  1  0.532843  0.706309  0.760185  1
  O  O32  1  0.463131  0.304757  0.241309  1
  O  O33  1  0.278973  0.624490  0.878252  1
  O  O34  1  0.217915  0.137429  0.412930  1
  O  O35  1  0.466901  0.637692  0.162005  1
  O  O36  1  0.234513  0.404164  0.633710  1
  O  O37  1  0.498853  0.904764  0.381612  1
  O  O38  1  0.256194  0.194851  0.004803  1
  O  O39  1  0.211849  0.798884  0.490784  1
  O  O40  1  0.048654  0.125691  0.127885  1
  O  O41  1  0.999737  0.321699  0.320531  1
  O  O42  1  0.252899  0.826094  0.071497  1
  O  O43  1  0.020441  0.700449  0.254986  1
