# generated using pymatgen
data_Na5Bi2As(CO4)4
_symmetry_space_group_name_H-M   'P 1'
_cell_length_a   10.50969607
_cell_length_b   10.53316043
_cell_length_c   10.50969607
_cell_angle_alpha   59.33705812
_cell_angle_beta   91.27496918
_cell_angle_gamma   120.66294188
_symmetry_Int_Tables_number   1
_chemical_formula_structural   Na5Bi2As(CO4)4
_chemical_formula_sum   'Na10 Bi4 As2 C8 O32'
_cell_volume   815.15142517
_cell_formula_units_Z   2
loop_
 _symmetry_equiv_pos_site_id
 _symmetry_equiv_pos_as_xyz
  1  'x, y, z'
loop_
 _atom_site_type_symbol
 _atom_site_label
 _atom_site_symmetry_multiplicity
 _atom_site_fract_x
 _atom_site_fract_y
 _atom_site_fract_z
 _atom_site_occupancy
  Na  Na0  1  0.687858  0.360416  0.071490  1
  Na  Na1  1  0.327158  0.259246  0.313393  1
  Na  Na2  1  0.927361  0.240754  0.932088  1
  Na  Na3  1  0.928510  0.860416  0.312142  1
  Na  Na4  1  0.067912  0.740754  0.072639  1
  Na  Na5  1  0.068094  0.139584  0.672558  1
  Na  Na6  1  0.686607  0.759246  0.672842  1
  Na  Na7  1  0.318717  0.250000  0.931283  1
  Na  Na8  1  0.327442  0.639584  0.931906  1
  Na  Na9  1  0.068717  0.750000  0.681283  1
  Bi  Bi10  1  0.501243  0.993114  0.003239  1
  Bi  Bi11  1  0.508129  0.006886  0.496353  1
  Bi  Bi12  1  0.503647  0.506886  0.491871  1
  Bi  Bi13  1  0.996761  0.493114  0.498757  1
  As  As14  1  0.125348  0.250000  0.124652  1
  As  As15  1  0.875348  0.750000  0.874652  1
  C  C16  1  0.720218  0.057299  0.725371  1
  C  C17  1  0.717330  0.442701  0.337081  1
  C  C18  1  0.337397  0.058518  0.719899  1
  C  C19  1  0.721582  0.441482  0.721122  1
  C  C20  1  0.662919  0.942701  0.282670  1
  C  C21  1  0.274629  0.557299  0.279782  1
  C  C22  1  0.278878  0.941482  0.278418  1
  C  C23  1  0.280101  0.558518  0.662603  1
  O  O24  1  0.666292  0.064430  0.151633  1
  O  O25  1  0.851776  0.179815  0.611706  1
  O  O26  1  0.708478  0.320185  0.328040  1
  O  O27  1  0.396670  0.061153  0.290951  1
  O  O28  1  0.848367  0.564430  0.333708  1
  O  O29  1  0.328865  0.384536  0.056575  1
  O  O30  1  0.058889  0.115464  0.055671  1
  O  O31  1  0.593935  0.442126  0.349473  1
  O  O32  1  0.708401  0.057874  0.848191  1
  O  O33  1  0.335147  0.043682  0.604072  1
  O  O34  1  0.852246  0.456318  0.708535  1
  O  O35  1  0.067428  0.392249  0.040621  1
  O  O36  1  0.067130  0.107751  0.324821  1
  O  O37  1  0.671960  0.820185  0.291522  1
  O  O38  1  0.388294  0.679815  0.148224  1
  O  O39  1  0.709049  0.561153  0.603330  1
  O  O40  1  0.283936  0.435570  0.398139  1
  O  O41  1  0.604861  0.310552  0.850580  1
  O  O42  1  0.338869  0.189448  0.705691  1
  O  O43  1  0.944329  0.615464  0.941111  1
  O  O44  1  0.943425  0.884536  0.671135  1
  O  O45  1  0.151809  0.557874  0.291599  1
  O  O46  1  0.650527  0.942126  0.406065  1
  O  O47  1  0.291465  0.956318  0.147754  1
  O  O48  1  0.395928  0.543682  0.664853  1
  O  O49  1  0.959379  0.892249  0.932572  1
  O  O50  1  0.675180  0.607751  0.932870  1
  O  O51  1  0.147894  0.438847  0.664483  1
  O  O52  1  0.601861  0.935570  0.716064  1
  O  O53  1  0.294309  0.689448  0.661131  1
  O  O54  1  0.149420  0.810552  0.395139  1
  O  O55  1  0.335517  0.938847  0.852106  1
