# generated using pymatgen
data_Na3SnPCO7
_symmetry_space_group_name_H-M   'P 1'
_cell_length_a   9.39793998
_cell_length_b   5.43318580
_cell_length_c   7.05115003
_cell_angle_alpha   90.00000000
_cell_angle_beta   90.00000000
_cell_angle_gamma   92.92505112
_symmetry_Int_Tables_number   1
_chemical_formula_structural   Na3SnPCO7
_chemical_formula_sum   'Na6 Sn2 P2 C2 O14'
_cell_volume   359.56795988
_cell_formula_units_Z   2
loop_
 _symmetry_equiv_pos_site_id
 _symmetry_equiv_pos_as_xyz
  1  'x, y, z'
loop_
 _atom_site_type_symbol
 _atom_site_label
 _atom_site_symmetry_multiplicity
 _atom_site_fract_x
 _atom_site_fract_y
 _atom_site_fract_z
 _atom_site_occupancy
  Na  Na0  1  0.015832  0.992519  0.475735  1
  Na  Na1  1  0.171428  0.503238  0.197416  1
  Na  Na2  1  0.489323  0.523766  0.477936  1
  Na  Na3  1  0.510677  0.476234  0.977936  1
  Na  Na4  1  0.828572  0.496762  0.697416  1
  Na  Na5  1  0.984168  0.007481  0.975735  1
  Sn  Sn6  1  0.315967  0.946983  0.751730  1
  Sn  Sn7  1  0.684033  0.053017  0.251730  1
  P  P8  1  0.326484  0.997429  0.238933  1
  P  P9  1  0.673516  0.002571  0.738933  1
  C  C10  1  0.143110  0.499736  0.740487  1
  C  C11  1  0.856890  0.500264  0.240487  1
  O  O12  1  0.068572  0.295794  0.724336  1
  O  O13  1  0.080733  0.707525  0.765270  1
  O  O14  1  0.202830  0.080257  0.114771  1
  O  O15  1  0.263219  0.927897  0.441000  1
  O  O16  1  0.282951  0.510639  0.732947  1
  O  O17  1  0.392764  0.761970  0.161200  1
  O  O18  1  0.441729  0.214564  0.252838  1
  O  O19  1  0.558271  0.785436  0.752838  1
  O  O20  1  0.607236  0.238030  0.661200  1
  O  O21  1  0.717049  0.489361  0.232947  1
  O  O22  1  0.736781  0.072103  0.941000  1
  O  O23  1  0.797170  0.919743  0.614771  1
  O  O24  1  0.919267  0.292475  0.265270  1
  O  O25  1  0.931428  0.704206  0.224336  1
