# generated using pymatgen
data_Fe4O5F3
_symmetry_space_group_name_H-M   'P 1'
_cell_length_a   4.72340805
_cell_length_b   9.40937333
_cell_length_c   6.10849482
_cell_angle_alpha   90.00000000
_cell_angle_beta   90.00000000
_cell_angle_gamma   91.82023020
_symmetry_Int_Tables_number   1
_chemical_formula_structural   Fe4O5F3
_chemical_formula_sum   'Fe8 O10 F6'
_cell_volume   271.35084502
_cell_formula_units_Z   2
loop_
 _symmetry_equiv_pos_site_id
 _symmetry_equiv_pos_as_xyz
  1  'x, y, z'
loop_
 _atom_site_type_symbol
 _atom_site_label
 _atom_site_symmetry_multiplicity
 _atom_site_fract_x
 _atom_site_fract_y
 _atom_site_fract_z
 _atom_site_occupancy
  Fe  Fe0  1  0.938016  0.005895  0.000000  1
  Fe  Fe1  1  0.971064  0.017338  0.500000  1
  Fe  Fe2  1  0.028936  0.482662  0.000000  1
  Fe  Fe3  1  0.061984  0.494105  0.500000  1
  Fe  Fe4  1  0.500000  0.250000  0.250000  1
  Fe  Fe5  1  0.500000  0.250000  0.750000  1
  Fe  Fe6  1  0.500000  0.750000  0.250000  1
  Fe  Fe7  1  0.500000  0.750000  0.750000  1
  O  O8  1  0.213169  0.397500  0.249536  1
  O  O9  1  0.213169  0.397500  0.750464  1
  O  O10  1  0.302244  0.157204  0.500000  1
  O  O11  1  0.313166  0.650335  0.000000  1
  O  O12  1  0.322053  0.656038  0.500000  1
  O  O13  1  0.697756  0.342796  0.000000  1
  O  O14  1  0.677947  0.843962  0.000000  1
  O  O15  1  0.686834  0.849665  0.500000  1
  O  O16  1  0.786831  0.102500  0.250464  1
  O  O17  1  0.786831  0.102500  0.749536  1
  F  F18  1  0.176699  0.906495  0.246698  1
  F  F19  1  0.176699  0.906495  0.753302  1
  F  F20  1  0.290168  0.143285  0.000000  1
  F  F21  1  0.709832  0.356715  0.500000  1
  F  F22  1  0.823301  0.593505  0.746698  1
  F  F23  1  0.823301  0.593505  0.253302  1
