# generated using pymatgen
data_RbV4O10
_symmetry_space_group_name_H-M   'P 1'
_cell_length_a   3.73096842
_cell_length_b   6.16083757
_cell_length_c   9.93959196
_cell_angle_alpha   79.69637590
_cell_angle_beta   90.00000000
_cell_angle_gamma   72.37431437
_symmetry_Int_Tables_number   1
_chemical_formula_structural   RbV4O10
_chemical_formula_sum   'Rb1 V4 O10'
_cell_volume   213.87577271
_cell_formula_units_Z   1
loop_
 _symmetry_equiv_pos_site_id
 _symmetry_equiv_pos_as_xyz
  1  'x, y, z'
loop_
 _atom_site_type_symbol
 _atom_site_label
 _atom_site_symmetry_multiplicity
 _atom_site_fract_x
 _atom_site_fract_y
 _atom_site_fract_z
 _atom_site_occupancy
  Rb  Rb0  1  0.500000  0.000000  0.500000  1
  V  V1  1  0.090481  0.819040  0.154693  1
  V  V2  1  0.206308  0.587385  0.843137  1
  V  V3  1  0.793692  0.412615  0.156863  1
  V  V4  1  0.909519  0.180960  0.845307  1
  O  O5  1  0.064950  0.870101  0.905016  1
  O  O6  1  0.102173  0.795655  0.321506  1
  O  O7  1  0.162502  0.674997  0.677139  1
  O  O8  1  0.620580  0.758839  0.126299  1
  O  O9  1  0.742189  0.515622  0.885893  1
  O  O10  1  0.257811  0.484378  0.114107  1
  O  O11  1  0.379420  0.241161  0.873701  1
  O  O12  1  0.837498  0.325003  0.322861  1
  O  O13  1  0.897827  0.204345  0.678494  1
  O  O14  1  0.935050  0.129899  0.094984  1
