# generated using pymatgen
data_Na3Mn2P2(CO7)2
_symmetry_space_group_name_H-M   'P 1'
_cell_length_a   9.03269650
_cell_length_b   13.16790799
_cell_length_c   5.22652090
_cell_angle_alpha   89.74588532
_cell_angle_beta   88.12316913
_cell_angle_gamma   91.05701155
_symmetry_Int_Tables_number   1
_chemical_formula_structural   Na3Mn2P2(CO7)2
_chemical_formula_sum   'Na6 Mn4 P4 C4 O28'
_cell_volume   621.20425077
_cell_formula_units_Z   2
loop_
 _symmetry_equiv_pos_site_id
 _symmetry_equiv_pos_as_xyz
  1  'x, y, z'
loop_
 _atom_site_type_symbol
 _atom_site_label
 _atom_site_symmetry_multiplicity
 _atom_site_fract_x
 _atom_site_fract_y
 _atom_site_fract_z
 _atom_site_occupancy
  Na  Na0  1  0.235789  0.998136  0.244246  1
  Na  Na1  1  0.235822  0.244190  0.247224  1
  Na  Na2  1  0.244909  0.518376  0.241478  1
  Na  Na3  1  0.755091  0.481624  0.758522  1
  Na  Na4  1  0.764178  0.755810  0.752776  1
  Na  Na5  1  0.764211  0.001864  0.755754  1
  Mn  Mn6  1  0.349256  0.374573  0.784258  1
  Mn  Mn7  1  0.346482  0.869278  0.784787  1
  Mn  Mn8  1  0.653518  0.130722  0.215213  1
  Mn  Mn9  1  0.650744  0.625427  0.215742  1
  P  P10  1  0.427178  0.122056  0.719417  1
  P  P11  1  0.427332  0.625866  0.715956  1
  P  P12  1  0.572668  0.374134  0.284044  1
  P  P13  1  0.572822  0.877944  0.280583  1
  C  C14  1  0.080674  0.374215  0.729476  1
  C  C15  1  0.079159  0.874840  0.731523  1
  C  C16  1  0.919326  0.625785  0.270524  1
  C  C17  1  0.920841  0.125160  0.268477  1
  O  O18  1  0.056793  0.119844  0.297569  1
  O  O19  1  0.053440  0.623574  0.298526  1
  O  O20  1  0.146458  0.371796  0.952712  1
  O  O21  1  0.142178  0.872352  0.953960  1
  O  O22  1  0.178282  0.871445  0.541463  1
  O  O23  1  0.181805  0.374628  0.537315  1
  O  O24  1  0.327375  0.026775  0.779181  1
  O  O25  1  0.331542  0.214168  0.787309  1
  O  O26  1  0.328088  0.533505  0.791491  1
  O  O27  1  0.334149  0.719492  0.781773  1
  O  O28  1  0.466784  0.123785  0.423458  1
  O  O29  1  0.467785  0.620329  0.423495  1
  O  O30  1  0.424248  0.374075  0.140127  1
  O  O31  1  0.427752  0.880392  0.132297  1
  O  O32  1  0.572248  0.119608  0.867703  1
  O  O33  1  0.575752  0.625925  0.859873  1
  O  O34  1  0.532215  0.379671  0.576505  1
  O  O35  1  0.533216  0.876215  0.576542  1
  O  O36  1  0.665851  0.280507  0.218227  1
  O  O37  1  0.671912  0.466495  0.208509  1
  O  O38  1  0.668458  0.785832  0.212691  1
  O  O39  1  0.672625  0.973225  0.220819  1
  O  O40  1  0.821718  0.128555  0.458537  1
  O  O41  1  0.818195  0.625372  0.462685  1
  O  O42  1  0.857822  0.127648  0.046040  1
  O  O43  1  0.853542  0.628204  0.047288  1
  O  O44  1  0.946560  0.376426  0.701474  1
  O  O45  1  0.943207  0.880156  0.702431  1
