# generated using pymatgen
data_Ce5Gd2O13
_symmetry_space_group_name_H-M   'P 1'
_cell_length_a   3.84417286
_cell_length_b   3.84417286
_cell_length_c   22.41177942
_cell_angle_alpha   94.91986327
_cell_angle_beta   94.91986327
_cell_angle_gamma   60.00000000
_symmetry_Int_Tables_number   1
_chemical_formula_structural   Ce5Gd2O13
_chemical_formula_sum   'Ce5 Gd2 O13'
_cell_volume   285.41233307
_cell_formula_units_Z   1
loop_
 _symmetry_equiv_pos_site_id
 _symmetry_equiv_pos_as_xyz
  1  'x, y, z'
loop_
 _atom_site_type_symbol
 _atom_site_label
 _atom_site_symmetry_multiplicity
 _atom_site_fract_x
 _atom_site_fract_y
 _atom_site_fract_z
 _atom_site_occupancy
  Ce  Ce0  1  0.428228  0.428228  0.284684  1
  Ce  Ce1  1  0.856525  0.856525  0.569575  1
  Ce  Ce2  1  0.142286  0.142286  0.426858  1
  Ce  Ce3  1  0.570784  0.570784  0.712352  1
  Ce  Ce4  1  0.284760  0.284760  0.854279  1
  Gd  Gd5  1  0.716391  0.716391  0.149172  1
  Gd  Gd6  1  0.998888  0.998888  0.996663  1
  O  O7  1  0.750701  0.750701  0.252104  1
  O  O8  1  0.393459  0.393459  0.180375  1
  O  O9  1  0.031021  0.031021  0.093063  1
  O  O10  1  0.821700  0.821700  0.465098  1
  O  O11  1  0.107577  0.107577  0.322732  1
  O  O12  1  0.464563  0.464563  0.393689  1
  O  O13  1  0.535972  0.535972  0.607916  1
  O  O14  1  0.893071  0.893071  0.679213  1
  O  O15  1  0.178802  0.178802  0.536405  1
  O  O16  1  0.963649  0.963649  0.890948  1
  O  O17  1  0.607079  0.607079  0.821237  1
  O  O18  1  0.250255  0.250255  0.750765  1
  O  O19  1  0.325720  0.325720  0.977160  1
