# generated using pymatgen
data_LiNi3OF5
_symmetry_space_group_name_H-M   'P 1'
_cell_length_a   5.13350246
_cell_length_b   5.55190034
_cell_length_c   5.18146459
_cell_angle_alpha   118.67663856
_cell_angle_beta   59.83312755
_cell_angle_gamma   117.11125157
_symmetry_Int_Tables_number   1
_chemical_formula_structural   LiNi3OF5
_chemical_formula_sum   'Li1 Ni3 O1 F5'
_cell_volume   107.43909885
_cell_formula_units_Z   1
loop_
 _symmetry_equiv_pos_site_id
 _symmetry_equiv_pos_as_xyz
  1  'x, y, z'
loop_
 _atom_site_type_symbol
 _atom_site_label
 _atom_site_symmetry_multiplicity
 _atom_site_fract_x
 _atom_site_fract_y
 _atom_site_fract_z
 _atom_site_occupancy
  Li  Li0  1  0.156835  0.439526  0.163774  1
  Ni  Ni1  1  0.364307  0.027568  0.330902  1
  Ni  Ni2  1  0.655009  0.951050  0.627769  1
  Ni  Ni3  1  0.835098  0.564375  0.873623  1
  O  O4  1  0.546634  0.750621  0.256017  1
  F  F5  1  0.060839  0.248056  0.451823  1
  F  F6  1  0.251829  0.761302  0.933300  1
  F  F7  1  0.752362  0.251800  0.053132  1
  F  F8  1  0.442086  0.257027  0.748084  1
  F  F9  1  0.935001  0.748677  0.561578  1
