# generated using pymatgen
data_CrH9(CN2)3
_symmetry_space_group_name_H-M   'P 1'
_cell_length_a   12.63725120
_cell_length_b   5.88568025
_cell_length_c   16.09216656
_cell_angle_alpha   62.56169125
_cell_angle_beta   149.45143581
_cell_angle_gamma   112.08441522
_symmetry_Int_Tables_number   1
_chemical_formula_structural   CrH9(CN2)3
_chemical_formula_sum   'Cr2 H18 C6 N12'
_cell_volume   539.34178350
_cell_formula_units_Z   2
loop_
 _symmetry_equiv_pos_site_id
 _symmetry_equiv_pos_as_xyz
  1  'x, y, z'
loop_
 _atom_site_type_symbol
 _atom_site_label
 _atom_site_symmetry_multiplicity
 _atom_site_fract_x
 _atom_site_fract_y
 _atom_site_fract_z
 _atom_site_occupancy
  Cr  Cr0  1  0.000000  0.000000  0.000000  1
  Cr  Cr1  1  0.000000  0.500000  0.000000  1
  H  H2  1  0.798419  0.971791  0.378998  1
  H  H3  1  0.092757  0.320630  0.000877  1
  H  H4  1  0.203713  0.592289  0.473002  1
  H  H5  1  0.201581  0.028209  0.621002  1
  H  H6  1  0.907243  0.679370  0.999123  1
  H  H7  1  0.796287  0.407711  0.526998  1
  H  H8  1  0.697442  0.962857  0.335579  1
  H  H9  1  0.687500  0.331237  0.014971  1
  H  H10  1  0.357650  0.815665  0.896869  1
  H  H11  1  0.302558  0.037143  0.664421  1
  H  H12  1  0.312500  0.668763  0.985029  1
  H  H13  1  0.642350  0.184335  0.103130  1
  H  H14  1  0.463184  0.625116  0.605889  1
  H  H15  1  0.055581  0.049760  0.660135  1
  H  H16  1  0.662239  0.121405  0.462817  1
  H  H17  1  0.536816  0.374884  0.394111  1
  H  H18  1  0.944419  0.950240  0.339865  1
  H  H19  1  0.337761  0.878595  0.537183  1
  C  C20  1  0.080260  0.921094  0.753339  1
  C  C21  1  0.850774  0.091014  0.777134  1
  C  C22  1  0.313801  0.728412  0.500066  1
  C  C23  1  0.919740  0.078906  0.246661  1
  C  C24  1  0.149226  0.908986  0.222866  1
  C  C25  1  0.686199  0.271588  0.499934  1
  N  N26  1  0.615717  0.722718  0.995684  1
  N  N27  1  0.232393  0.836605  0.352582  1
  N  N28  1  0.219217  0.308372  0.866965  1
  N  N29  1  0.384283  0.277282  0.004316  1
  N  N30  1  0.767607  0.163395  0.647418  1
  N  N31  1  0.780783  0.691628  0.133035  1
  N  N32  1  0.200588  0.745926  0.104500  1
  N  N33  1  0.701972  0.068717  0.849380  1
  N  N34  1  0.740114  0.201240  0.116043  1
  N  N35  1  0.799412  0.254074  0.895500  1
  N  N36  1  0.298028  0.931283  0.150620  1
  N  N37  1  0.259886  0.798760  0.883957  1
