# generated using pymatgen
data_LiVNiO4
_symmetry_space_group_name_H-M   'P 1'
_cell_length_a   5.82619338
_cell_length_b   5.86409474
_cell_length_c   5.86409474
_cell_angle_alpha   60.84707900
_cell_angle_beta   60.21357463
_cell_angle_gamma   60.21357463
_symmetry_Int_Tables_number   1
_chemical_formula_structural   LiVNiO4
_chemical_formula_sum   'Li2 V2 Ni2 O8'
_cell_volume   143.01702988
_cell_formula_units_Z   2
loop_
 _symmetry_equiv_pos_site_id
 _symmetry_equiv_pos_as_xyz
  1  'x, y, z'
loop_
 _atom_site_type_symbol
 _atom_site_label
 _atom_site_symmetry_multiplicity
 _atom_site_fract_x
 _atom_site_fract_y
 _atom_site_fract_z
 _atom_site_occupancy
  Li  Li0  1  0.000000  0.500000  0.500000  1
  Li  Li1  1  0.500000  0.500000  0.500000  1
  V  V2  1  0.126832  0.123168  0.123168  1
  V  V3  1  0.873168  0.876832  0.876832  1
  Ni  Ni4  1  0.500000  0.500000  0.000000  1
  Ni  Ni5  1  0.500000  0.000000  0.500000  1
  O  O6  1  0.751816  0.247041  0.247041  1
  O  O7  1  0.254103  0.247041  0.247041  1
  O  O8  1  0.751249  0.761033  0.236471  1
  O  O9  1  0.751249  0.236471  0.761033  1
  O  O10  1  0.248751  0.763529  0.238967  1
  O  O11  1  0.248751  0.238967  0.763529  1
  O  O12  1  0.745897  0.752959  0.752959  1
  O  O13  1  0.248184  0.752959  0.752959  1
