# generated using pymatgen
data_Li3Ni4SnO8
_symmetry_space_group_name_H-M   'P 1'
_cell_length_a   6.00955286
_cell_length_b   6.00955279
_cell_length_c   5.98198456
_cell_angle_alpha   89.89423254
_cell_angle_beta   60.09989978
_cell_angle_gamma   59.62647685
_symmetry_Int_Tables_number   1
_chemical_formula_structural   Li3Ni4SnO8
_chemical_formula_sum   'Li3 Ni4 Sn1 O8'
_cell_volume   152.26732985
_cell_formula_units_Z   1
loop_
 _symmetry_equiv_pos_site_id
 _symmetry_equiv_pos_as_xyz
  1  'x, y, z'
loop_
 _atom_site_type_symbol
 _atom_site_label
 _atom_site_symmetry_multiplicity
 _atom_site_fract_x
 _atom_site_fract_y
 _atom_site_fract_z
 _atom_site_occupancy
  Li  Li0  1  0.000000  0.000000  0.500000  1
  Li  Li1  1  0.500000  0.000000  0.500000  1
  Li  Li2  1  0.500000  0.500000  0.500000  1
  Ni  Ni3  1  0.000000  0.500000  0.500000  1
  Ni  Ni4  1  0.000000  0.000000  0.000000  1
  Ni  Ni5  1  0.500000  0.000000  0.000000  1
  Ni  Ni6  1  0.000000  0.500000  0.000000  1
  Sn  Sn7  1  0.500000  0.500000  0.000000  1
  O  O8  1  0.485620  0.254382  0.768762  1
  O  O9  1  0.991759  0.253320  0.754002  1
  O  O10  1  0.499318  0.745761  0.754002  1
  O  O11  1  0.977044  0.749254  0.772210  1
  O  O12  1  0.022956  0.250746  0.227790  1
  O  O13  1  0.500682  0.254239  0.245998  1
  O  O14  1  0.008241  0.746680  0.245998  1
  O  O15  1  0.514380  0.745618  0.231238  1
