# generated using pymatgen
data_ZnH3CNO3
_symmetry_space_group_name_H-M   'P 1'
_cell_length_a   9.44474173
_cell_length_b   5.23911266
_cell_length_c   8.31127882
_cell_angle_alpha   90.00000000
_cell_angle_beta   90.00000000
_cell_angle_gamma   90.00000000
_symmetry_Int_Tables_number   1
_chemical_formula_structural   ZnH3CNO3
_chemical_formula_sum   'Zn4 H12 C4 N4 O12'
_cell_volume   411.25924685
_cell_formula_units_Z   4
loop_
 _symmetry_equiv_pos_site_id
 _symmetry_equiv_pos_as_xyz
  1  'x, y, z'
loop_
 _atom_site_type_symbol
 _atom_site_label
 _atom_site_symmetry_multiplicity
 _atom_site_fract_x
 _atom_site_fract_y
 _atom_site_fract_z
 _atom_site_occupancy
  Zn  Zn0  1  0.618903  0.254392  0.316859  1
  Zn  Zn1  1  0.381097  0.754392  0.683141  1
  Zn  Zn2  1  0.881097  0.754392  0.816859  1
  Zn  Zn3  1  0.118903  0.254392  0.183141  1
  H  H4  1  0.849964  0.124799  0.603386  1
  H  H5  1  0.150036  0.624799  0.396614  1
  H  H6  1  0.650036  0.624799  0.103386  1
  H  H7  1  0.349964  0.124799  0.896614  1
  H  H8  1  0.007869  -0.006748  0.581773  1
  H  H9  1  -0.007869  0.493252  0.418227  1
  H  H10  1  0.492131  0.493252  0.081773  1
  H  H11  1  0.507869  -0.006748  0.918227  1
  H  H12  1  0.974175  0.189034  0.734925  1
  H  H13  1  0.025825  0.689034  0.265075  1
  H  H14  1  0.525825  0.689034  0.234925  1
  H  H15  1  0.474175  0.189034  0.765075  1
  C  C16  1  0.849625  0.985765  0.125185  1
  C  C17  1  0.150375  0.485765  0.874815  1
  C  C18  1  0.650375  0.485765  0.625185  1
  C  C19  1  0.349625  0.985765  0.374815  1
  N  N20  1  0.933018  0.043210  0.666263  1
  N  N21  1  0.066982  0.543210  0.333737  1
  N  N22  1  0.566982  0.543210  0.166263  1
  N  N23  1  0.433018  0.043210  0.833737  1
  O  O24  1  0.487728  -0.009744  0.392784  1
  O  O25  1  0.512272  0.490256  0.607216  1
  O  O26  1  0.012272  0.490256  0.892784  1
  O  O27  1  0.987728  -0.009744  0.107216  1
  O  O28  1  0.793702  0.069639  0.255480  1
  O  O29  1  0.206298  0.569639  0.744520  1
  O  O30  1  0.706298  0.569639  0.755480  1
  O  O31  1  0.293702  0.069639  0.244520  1
  O  O32  1  0.725861  0.383253  0.511585  1
  O  O33  1  0.274139  0.883253  0.488415  1
  O  O34  1  0.774139  0.883253  0.011585  1
  O  O35  1  0.225861  0.383253  0.988415  1
