# generated using pymatgen
data_Li4FeSi2O7
_symmetry_space_group_name_H-M   'P 1'
_cell_length_a   4.55073691
_cell_length_b   5.33476391
_cell_length_c   6.85226987
_cell_angle_alpha   80.66587266
_cell_angle_beta   90.00000000
_cell_angle_gamma   64.75327223
_symmetry_Int_Tables_number   1
_chemical_formula_structural   Li4FeSi2O7
_chemical_formula_sum   'Li4 Fe1 Si2 O7'
_cell_volume   148.02424349
_cell_formula_units_Z   1
loop_
 _symmetry_equiv_pos_site_id
 _symmetry_equiv_pos_as_xyz
  1  'x, y, z'
loop_
 _atom_site_type_symbol
 _atom_site_label
 _atom_site_symmetry_multiplicity
 _atom_site_fract_x
 _atom_site_fract_y
 _atom_site_fract_z
 _atom_site_occupancy
  Li  Li0  1  0.165282  0.702660  0.435945  1
  Li  Li1  1  0.719469  0.574152  0.147256  1
  Li  Li2  1  0.293621  0.425848  0.852744  1
  Li  Li3  1  0.867942  0.297340  0.564055  1
  Fe  Fe4  1  0.001122  0.000000  0.000000  1
  Si  Si5  1  0.565279  0.849329  0.708668  1
  Si  Si6  1  0.414608  0.150671  0.291332  1
  O  O7  1  0.338304  0.897441  0.228142  1
  O  O8  1  0.859850  0.735686  0.886079  1
  O  O9  1  0.497349  0.592631  0.655144  1
  O  O10  1  0.089980  0.407369  0.344856  1
  O  O11  1  0.595536  0.264314  0.113921  1
  O  O12  1  0.235746  0.102559  0.771858  1
  O  O13  1  0.682911  0.000000  0.500000  1
