# generated using pymatgen
data_TiMn3Te2(PO4)6
_symmetry_space_group_name_H-M   'P 1'
_cell_length_a   8.89045180
_cell_length_b   8.89045141
_cell_length_c   8.89045205
_cell_angle_alpha   59.83387972
_cell_angle_beta   59.83388276
_cell_angle_gamma   59.83387999
_symmetry_Int_Tables_number   1
_chemical_formula_structural   TiMn3Te2(PO4)6
_chemical_formula_sum   'Ti1 Mn3 Te2 P6 O24'
_cell_volume   495.01230590
_cell_formula_units_Z   1
loop_
 _symmetry_equiv_pos_site_id
 _symmetry_equiv_pos_as_xyz
  1  'x, y, z'
loop_
 _atom_site_type_symbol
 _atom_site_label
 _atom_site_symmetry_multiplicity
 _atom_site_fract_x
 _atom_site_fract_y
 _atom_site_fract_z
 _atom_site_occupancy
  Ti  Ti0  1  0.853212  0.853212  0.853212  1
  Mn  Mn1  1  0.162482  0.162482  0.162482  1
  Mn  Mn2  1  0.348932  0.348932  0.348932  1
  Mn  Mn3  1  0.656030  0.656030  0.656030  1
  Te  Te4  1  0.018666  0.018666  0.018666  1
  Te  Te5  1  0.511199  0.511199  0.511199  1
  P  P6  1  0.044311  0.748385  0.456346  1
  P  P7  1  0.456346  0.044311  0.748385  1
  P  P8  1  0.748385  0.456346  0.044311  1
  P  P9  1  0.244059  0.553507  0.943056  1
  P  P10  1  0.553507  0.943056  0.244059  1
  P  P11  1  0.943056  0.244059  0.553507  1
  O  O12  1  0.091661  0.299632  0.527934  1
  O  O13  1  0.299632  0.527934  0.091661  1
  O  O14  1  0.064354  0.918404  0.254935  1
  O  O15  1  0.527934  0.091661  0.299632  1
  O  O16  1  0.239777  0.605141  0.440038  1
  O  O17  1  0.979154  0.827761  0.607484  1
  O  O18  1  0.254935  0.064354  0.918404  1
  O  O19  1  0.440038  0.239777  0.605141  1
  O  O20  1  0.605141  0.440038  0.239777  1
  O  O21  1  0.197011  0.400510  0.967523  1
  O  O22  1  0.084421  0.745483  0.910578  1
  O  O23  1  0.400510  0.967523  0.197011  1
  O  O24  1  0.607484  0.979154  0.827761  1
  O  O25  1  0.918404  0.254935  0.064354  1
  O  O26  1  0.827761  0.607484  0.979154  1
  O  O27  1  0.407723  0.580078  0.743542  1
  O  O28  1  0.580078  0.743542  0.407723  1
  O  O29  1  0.745483  0.910578  0.084421  1
  O  O30  1  0.967523  0.197011  0.400510  1
  O  O31  1  0.743542  0.407723  0.580078  1
  O  O32  1  0.475170  0.906235  0.685268  1
  O  O33  1  0.910578  0.084421  0.745483  1
  O  O34  1  0.685268  0.475170  0.906235  1
  O  O35  1  0.906235  0.685268  0.475170  1
