# generated using pymatgen
data_Ag7(PbO3)3
_symmetry_space_group_name_H-M   'P 1'
_cell_length_a   8.91005257
_cell_length_b   8.86112357
_cell_length_c   8.86111895
_cell_angle_alpha   72.09392384
_cell_angle_beta   107.77839725
_cell_angle_gamma   107.77779825
_symmetry_Int_Tables_number   1
_chemical_formula_structural   Ag7(PbO3)3
_chemical_formula_sum   'Ag14 Pb6 O18'
_cell_volume   616.43067152
_cell_formula_units_Z   2
loop_
 _symmetry_equiv_pos_site_id
 _symmetry_equiv_pos_as_xyz
  1  'x, y, z'
loop_
 _atom_site_type_symbol
 _atom_site_label
 _atom_site_symmetry_multiplicity
 _atom_site_fract_x
 _atom_site_fract_y
 _atom_site_fract_z
 _atom_site_occupancy
  Ag  Ag0  1  0.833372  0.166640  0.666662  1
  Ag  Ag1  1  0.167253  0.331298  0.835537  1
  Ag  Ag2  1  0.666660  0.833317  0.833318  1
  Ag  Ag3  1  0.499388  0.002138  0.497740  1
  Ag  Ag4  1  0.079035  0.921023  0.921017  1
  Ag  Ag5  1  0.255020  0.744989  0.744986  1
  Ag  Ag6  1  0.411647  0.588376  0.588371  1
  Ag  Ag7  1  0.587675  0.412213  0.412215  1
  Ag  Ag8  1  0.739732  0.251358  0.251355  1
  Ag  Ag9  1  0.927003  0.081964  0.081966  1
  Ag  Ag10  1  0.000010  0.500058  0.500058  1
  Ag  Ag11  1  0.833374  0.666655  0.166643  1
  Ag  Ag12  1  0.167250  0.835530  0.331306  1
  Ag  Ag13  1  0.499392  0.497735  0.002141  1
  Pb  Pb14  1  0.498579  0.165739  0.838818  1
  Pb  Pb15  1  0.833288  0.499039  0.834243  1
  Pb  Pb16  1  0.168053  0.167545  0.494532  1
  Pb  Pb17  1  0.833283  0.834264  0.499019  1
  Pb  Pb18  1  0.168054  0.494548  0.167535  1
  Pb  Pb19  1  0.498575  0.838831  0.165717  1
  O  O20  1  0.770076  0.227732  0.851849  1
  O  O21  1  0.561762  0.438441  0.815087  1
  O  O22  1  0.896608  0.105604  0.481440  1
  O  O23  1  0.227457  0.147783  0.769209  1
  O  O24  1  0.851945  0.771563  0.771544  1
  O  O25  1  0.480136  0.893771  0.893754  1
  O  O26  1  0.104825  0.518239  0.894875  1
  O  O27  1  0.439243  0.185608  0.564119  1
  O  O28  1  0.814632  0.561775  0.561752  1
  O  O29  1  0.520203  0.104431  0.104415  1
  O  O30  1  0.186578  0.439623  0.439608  1
  O  O31  1  0.896608  0.481445  0.105582  1
  O  O32  1  0.561755  0.815092  0.438427  1
  O  O33  1  0.146511  0.228981  0.228966  1
  O  O34  1  0.770069  0.851849  0.227718  1
  O  O35  1  0.439237  0.564125  0.185600  1
  O  O36  1  0.104823  0.894891  0.518232  1
  O  O37  1  0.227455  0.769223  0.147778  1
