# generated using pymatgen
data_Li5Ni5(SbO6)2
_symmetry_space_group_name_H-M   'P 1'
_cell_length_a   5.26258858
_cell_length_b   5.26258917
_cell_length_c   10.02270407
_cell_angle_alpha   84.59287001
_cell_angle_beta   95.40713171
_cell_angle_gamma   59.41228779
_symmetry_Int_Tables_number   1
_chemical_formula_structural   Li5Ni5(SbO6)2
_chemical_formula_sum   'Li5 Ni5 Sb2 O12'
_cell_volume   234.59269807
_cell_formula_units_Z   1
loop_
 _symmetry_equiv_pos_site_id
 _symmetry_equiv_pos_as_xyz
  1  'x, y, z'
loop_
 _atom_site_type_symbol
 _atom_site_label
 _atom_site_symmetry_multiplicity
 _atom_site_fract_x
 _atom_site_fract_y
 _atom_site_fract_z
 _atom_site_occupancy
  Li  Li0  1  0.173174  0.675354  0.505003  1
  Li  Li1  1  0.325729  0.829039  0.993156  1
  Li  Li2  1  0.675354  0.173174  0.994997  1
  Li  Li3  1  0.829039  0.325729  0.506844  1
  Li  Li4  1  0.916057  0.916057  0.750000  1
  Ni  Ni5  1  0.081297  0.081297  0.250000  1
  Ni  Ni6  1  0.001052  0.503442  0.997261  1
  Ni  Ni7  1  0.503442  0.001052  0.502739  1
  Ni  Ni8  1  0.414234  0.414234  0.250000  1
  Ni  Ni9  1  0.585539  0.585539  0.750000  1
  Sb  Sb10  1  0.252074  0.252074  0.750000  1
  Sb  Sb11  1  0.747498  0.747498  0.250000  1
  O  O12  1  0.972083  0.227214  0.868444  1
  O  O13  1  0.227214  0.972083  0.631556  1
  O  O14  1  0.130028  0.365928  0.369627  1
  O  O15  1  0.365928  0.130028  0.130373  1
  O  O16  1  0.292241  0.523093  0.867737  1
  O  O17  1  0.523093  0.292241  0.632263  1
  O  O18  1  0.455381  0.714362  0.373440  1
  O  O19  1  0.714362  0.455381  0.126560  1
  O  O20  1  0.605744  0.886271  0.867909  1
  O  O21  1  0.886271  0.605744  0.632091  1
  O  O22  1  0.782899  0.040267  0.373628  1
  O  O23  1  0.040267  0.782899  0.126372  1
