# generated using pymatgen
data_Li2VO2F
_symmetry_space_group_name_H-M   'P 1'
_cell_length_a   2.94332976
_cell_length_b   5.19506813
_cell_length_c   7.97236983
_cell_angle_alpha   69.76410560
_cell_angle_beta   100.63624951
_cell_angle_gamma   90.00054899
_symmetry_Int_Tables_number   1
_chemical_formula_structural   Li2VO2F
_chemical_formula_sum   'Li4 V2 O4 F2'
_cell_volume   112.14475122
_cell_formula_units_Z   2
loop_
 _symmetry_equiv_pos_site_id
 _symmetry_equiv_pos_as_xyz
  1  'x, y, z'
loop_
 _atom_site_type_symbol
 _atom_site_label
 _atom_site_symmetry_multiplicity
 _atom_site_fract_x
 _atom_site_fract_y
 _atom_site_fract_z
 _atom_site_occupancy
  Li  Li0  1  0.836606  0.494693  0.673173  1
  Li  Li1  1  0.166664  0.500011  0.333362  1
  Li  Li2  1  0.666653  0.000083  0.333346  1
  Li  Li3  1  0.496707  0.505244  0.993416  1
  V  V4  1  0.330736  0.016044  0.661420  1
  V  V5  1  0.002632  0.983866  0.005298  1
  O  O6  1  0.912125  0.771442  0.824170  1
  O  O7  1  0.421210  0.228515  0.842477  1
  O  O8  1  0.580645  0.763549  0.161328  1
  O  O9  1  0.752712  0.236481  0.505378  1
  F  F10  1  0.252195  0.755336  0.504184  1
  F  F11  1  0.081115  0.244736  0.162448  1
