# generated using pymatgen
data_Ti3V2Fe(PO4)6
_symmetry_space_group_name_H-M   'P 1'
_cell_length_a   8.54931688
_cell_length_b   8.70420746
_cell_length_c   8.70420766
_cell_angle_alpha   59.99999996
_cell_angle_beta   59.39885345
_cell_angle_gamma   59.39885526
_symmetry_Int_Tables_number   1
_chemical_formula_structural   Ti3V2Fe(PO4)6
_chemical_formula_sum   'Ti3 V2 Fe1 P6 O24'
_cell_volume   453.80409441
_cell_formula_units_Z   1
loop_
 _symmetry_equiv_pos_site_id
 _symmetry_equiv_pos_as_xyz
  1  'x, y, z'
loop_
 _atom_site_type_symbol
 _atom_site_label
 _atom_site_symmetry_multiplicity
 _atom_site_fract_x
 _atom_site_fract_y
 _atom_site_fract_z
 _atom_site_occupancy
  Ti  Ti0  1  0.065773  0.644742  0.644742  1
  Ti  Ti1  1  0.426725  0.857759  0.857759  1
  Ti  Ti2  1  0.935204  0.354932  0.354932  1
  V  V3  1  0.996309  0.001231  0.001231  1
  V  V4  1  0.497014  0.500996  0.500996  1
  Fe  Fe5  1  0.569640  0.143454  0.143454  1
  P  P6  1  0.253491  0.248582  0.544096  1
  P  P7  1  0.253491  0.953831  0.248582  1
  P  P8  1  0.253491  0.544096  0.953831  1
  P  P9  1  0.749716  0.457175  0.044720  1
  P  P10  1  0.749716  0.044720  0.748388  1
  P  P11  1  0.749716  0.748388  0.457175  1
  O  O12  1  0.070084  0.118322  0.314501  1
  O  O13  1  0.070084  0.497093  0.118322  1
  O  O14  1  0.070084  0.314501  0.497093  1
  O  O15  1  0.224092  0.091377  0.742609  1
  O  O16  1  0.437813  0.182849  0.395257  1
  O  O17  1  0.263969  0.410608  0.567214  1
  O  O18  1  0.224092  0.941923  0.091377  1
  O  O19  1  0.263969  0.758208  0.410608  1
  O  O20  1  0.566202  0.618793  -0.000087  1
  O  O21  1  0.263969  0.567214  0.758208  1
  O  O22  1  0.782520  0.264599  0.051803  1
  O  O23  1  0.566202  -0.000087  0.815092  1
  O  O24  1  0.437813  0.984081  0.182849  1
  O  O25  1  0.224092  0.742609  0.941923  1
  O  O26  1  0.726771  0.446141  0.239807  1
  O  O27  1  0.437813  0.395257  0.984081  1
  O  O28  1  0.726771  0.239807  0.587281  1
  O  O29  1  0.782520  0.051803  0.901079  1
  O  O30  1  0.726771  0.587281  0.446141  1
  O  O31  1  0.566202  0.815092  0.618793  1
  O  O32  1  0.782520  0.901079  0.264599  1
  O  O33  1  0.928454  0.671117  0.513195  1
  O  O34  1  0.928454  0.513195  0.887235  1
  O  O35  1  0.928454  0.887235  0.671117  1
