# generated using pymatgen
data_ZnH6C2(NO)4
_symmetry_space_group_name_H-M   'P 1'
_cell_length_a   6.95075141
_cell_length_b   5.20365208
_cell_length_c   9.35014576
_cell_angle_alpha   90.00000000
_cell_angle_beta   112.37252235
_cell_angle_gamma   90.00000000
_symmetry_Int_Tables_number   1
_chemical_formula_structural   ZnH6C2(NO)4
_chemical_formula_sum   'Zn2 H12 C4 N8 O8'
_cell_volume   312.73228340
_cell_formula_units_Z   2
loop_
 _symmetry_equiv_pos_site_id
 _symmetry_equiv_pos_as_xyz
  1  'x, y, z'
loop_
 _atom_site_type_symbol
 _atom_site_label
 _atom_site_symmetry_multiplicity
 _atom_site_fract_x
 _atom_site_fract_y
 _atom_site_fract_z
 _atom_site_occupancy
  Zn  Zn0  1  0.996264  0.795891  0.749636  1
  Zn  Zn1  1  0.996264  0.204109  0.249636  1
  H  H2  1  0.499143  0.941557  0.093925  1
  H  H3  1  0.499143  0.058443  0.593925  1
  H  H4  1  0.351520  0.035218  0.804568  1
  H  H5  1  0.351520  0.964782  0.304568  1
  H  H6  1  0.232762  0.177603  0.909036  1
  H  H7  1  0.232762  0.822397  0.409036  1
  H  H8  1  0.628648  0.582472  0.343633  1
  H  H9  1  0.628648  0.417528  0.843633  1
  H  H10  1  0.922987  0.392798  0.556260  1
  H  H11  1  0.922987  0.607202  0.056260  1
  H  H12  1  0.719001  0.433570  0.606413  1
  H  H13  1  0.719001  0.566430  0.106413  1
  C  C14  1  0.311056  0.620102  0.028809  1
  C  C15  1  0.311056  0.379898  0.528809  1
  C  C16  1  0.827771  0.893906  0.425589  1
  C  C17  1  0.827771  0.106094  0.925589  1
  N  N18  1  0.389890  0.851378  0.001273  1
  N  N19  1  0.389890  0.148622  0.501273  1
  N  N20  1  0.269521  0.002247  0.873446  1
  N  N21  1  0.269521  0.997753  0.373446  1
  N  N22  1  0.727845  0.674495  0.441805  1
  N  N23  1  0.727845  0.325505  0.941805  1
  N  N24  1  0.828968  0.528795  0.577927  1
  N  N25  1  0.828968  0.471205  0.077927  1
  O  O26  1  0.143436  0.531852  0.921302  1
  O  O27  1  0.143436  0.468148  0.421302  1
  O  O28  1  0.412026  0.504156  0.153104  1
  O  O29  1  0.412026  0.495844  0.653104  1
  O  O30  1  0.969000  0.991156  0.544451  1
  O  O31  1  0.969000  0.008844  0.044451  1
  O  O32  1  0.768764  0.992784  0.288822  1
  O  O33  1  0.768764  0.007216  0.788822  1
