# generated using pymatgen
data_Fe3CoNi2(PO4)6
_symmetry_space_group_name_H-M   'P 1'
_cell_length_a   8.43322405
_cell_length_b   8.43322457
_cell_length_c   8.43322445
_cell_angle_alpha   61.02737339
_cell_angle_beta   61.02737514
_cell_angle_gamma   61.02737238
_symmetry_Int_Tables_number   1
_chemical_formula_structural   Fe3CoNi2(PO4)6
_chemical_formula_sum   'Fe3 Co1 Ni2 P6 O24'
_cell_volume   433.91016886
_cell_formula_units_Z   1
loop_
 _symmetry_equiv_pos_site_id
 _symmetry_equiv_pos_as_xyz
  1  'x, y, z'
loop_
 _atom_site_type_symbol
 _atom_site_label
 _atom_site_symmetry_multiplicity
 _atom_site_fract_x
 _atom_site_fract_y
 _atom_site_fract_z
 _atom_site_occupancy
  Fe  Fe0  1  0.142871  0.142871  0.142871  1
  Fe  Fe1  1  0.356001  0.356001  0.356001  1
  Fe  Fe2  1  0.643051  0.643051  0.643051  1
  Co  Co3  1  0.858308  0.858308  0.858308  1
  Ni  Ni4  1  0.000234  0.000234  0.000234  1
  Ni  Ni5  1  0.500443  0.500443  0.500443  1
  P  P6  1  0.042150  0.750556  0.458780  1
  P  P7  1  0.458780  0.042150  0.750556  1
  P  P8  1  0.750556  0.458780  0.042150  1
  P  P9  1  0.247358  0.545969  0.951179  1
  P  P10  1  0.545969  0.951179  0.247358  1
  P  P11  1  0.951179  0.247358  0.545969  1
  O  O12  1  0.109298  0.311484  0.511633  1
  O  O13  1  0.311484  0.511633  0.109298  1
  O  O14  1  0.057141  0.909155  0.259697  1
  O  O15  1  0.511633  0.109298  0.311484  1
  O  O16  1  0.004698  0.819878  0.619000  1
  O  O17  1  0.242400  0.592629  0.446767  1
  O  O18  1  0.259697  0.057141  0.909155  1
  O  O19  1  0.446767  0.242400  0.592629  1
  O  O20  1  0.177749  0.390076  0.993543  1
  O  O21  1  0.592629  0.446767  0.242400  1
  O  O22  1  0.081910  0.747767  0.938980  1
  O  O23  1  0.390076  0.993543  0.177749  1
  O  O24  1  0.619000  0.004698  0.819878  1
  O  O25  1  0.909155  0.259697  0.057141  1
  O  O26  1  0.405088  0.563612  0.752506  1
  O  O27  1  0.819878  0.619000  0.004698  1
  O  O28  1  0.563612  0.752506  0.405088  1
  O  O29  1  0.747767  0.938980  0.081910  1
  O  O30  1  0.752506  0.405088  0.563612  1
  O  O31  1  0.993543  0.177749  0.390076  1
  O  O32  1  0.500154  0.888200  0.679734  1
  O  O33  1  0.938980  0.081910  0.747767  1
  O  O34  1  0.679734  0.500154  0.888200  1
  O  O35  1  0.888200  0.679734  0.500154  1
