# generated using pymatgen
data_Na(FeO2)2
_symmetry_space_group_name_H-M   'P 1'
_cell_length_a   6.12190180
_cell_length_b   6.05522648
_cell_length_c   6.12913064
_cell_angle_alpha   60.49246839
_cell_angle_beta   60.52846685
_cell_angle_gamma   60.43255275
_symmetry_Int_Tables_number   1
_chemical_formula_structural   Na(FeO2)2
_chemical_formula_sum   'Na2 Fe4 O8'
_cell_volume   162.41643770
_cell_formula_units_Z   2
loop_
 _symmetry_equiv_pos_site_id
 _symmetry_equiv_pos_as_xyz
  1  'x, y, z'
loop_
 _atom_site_type_symbol
 _atom_site_label
 _atom_site_symmetry_multiplicity
 _atom_site_fract_x
 _atom_site_fract_y
 _atom_site_fract_z
 _atom_site_occupancy
  Na  Na0  1  0.125958  0.124599  0.125067  1
  Na  Na1  1  0.874015  0.875489  0.874908  1
  Fe  Fe2  1  0.499945  0.499941  0.000074  1
  Fe  Fe3  1  0.499846  0.000167  0.499979  1
  Fe  Fe4  1  0.000060  0.499920  0.499982  1
  Fe  Fe5  1  0.499954  0.499966  0.500040  1
  O  O6  1  0.275323  0.257883  0.274954  1
  O  O7  1  0.690576  0.262864  0.282607  1
  O  O8  1  0.277180  0.692186  0.276766  1
  O  O9  1  0.281791  0.264088  0.690614  1
  O  O10  1  0.718332  0.735802  0.309324  1
  O  O11  1  0.722754  0.307943  0.723226  1
  O  O12  1  0.724767  0.742052  0.725073  1
  O  O13  1  0.309500  0.737100  0.717387  1
