# generated using pymatgen
data_Li3TiCr3O8
_symmetry_space_group_name_H-M   'P 1'
_cell_length_a   5.94290735
_cell_length_b   5.98617865
_cell_length_c   5.98555536
_cell_angle_alpha   59.14104379
_cell_angle_beta   120.34494943
_cell_angle_gamma   120.35007066
_symmetry_Int_Tables_number   1
_chemical_formula_structural   Li3TiCr3O8
_chemical_formula_sum   'Li3 Ti1 Cr3 O8'
_cell_volume   148.78788533
_cell_formula_units_Z   1
loop_
 _symmetry_equiv_pos_site_id
 _symmetry_equiv_pos_as_xyz
  1  'x, y, z'
loop_
 _atom_site_type_symbol
 _atom_site_label
 _atom_site_symmetry_multiplicity
 _atom_site_fract_x
 _atom_site_fract_y
 _atom_site_fract_z
 _atom_site_occupancy
  Li  Li0  1  0.000000  0.499980  0.000022  1
  Li  Li1  1  0.999994  0.000008  0.499986  1
  Li  Li2  1  0.499972  0.499987  0.499988  1
  Ti  Ti3  1  0.000040  -0.000009  -0.000000  1
  Cr  Cr4  1  0.500029  0.500065  -0.000051  1
  Cr  Cr5  1  0.499922  0.000014  0.500017  1
  Cr  Cr6  1  0.000092  0.500076  0.499873  1
  O  O7  1  0.745092  0.265705  0.265693  1
  O  O8  1  0.250385  0.237833  0.237868  1
  O  O9  1  0.765150  0.743892  0.237748  1
  O  O10  1  0.765124  0.237608  0.743989  1
  O  O11  1  0.234804  0.762287  0.256062  1
  O  O12  1  0.234845  0.256091  0.762306  1
  O  O13  1  0.749624  0.762173  0.762106  1
  O  O14  1  0.254928  0.734292  0.734392  1
