# generated using pymatgen
data_Li6V3P8O29
_symmetry_space_group_name_H-M   'P 1'
_cell_length_a   9.82646477
_cell_length_b   9.79930253
_cell_length_c   13.92572919
_cell_angle_alpha   90.26466372
_cell_angle_beta   89.97285033
_cell_angle_gamma   59.90268742
_symmetry_Int_Tables_number   1
_chemical_formula_structural   Li6V3P8O29
_chemical_formula_sum   'Li12 V6 P16 O58'
_cell_volume   1160.13212547
_cell_formula_units_Z   2
loop_
 _symmetry_equiv_pos_site_id
 _symmetry_equiv_pos_as_xyz
  1  'x, y, z'
loop_
 _atom_site_type_symbol
 _atom_site_label
 _atom_site_symmetry_multiplicity
 _atom_site_fract_x
 _atom_site_fract_y
 _atom_site_fract_z
 _atom_site_occupancy
  Li  Li0  1  0.912114  0.779470  0.056156  1
  Li  Li1  1  0.901968  0.332128  0.561260  1
  Li  Li2  1  0.665863  0.672423  0.884999  1
  Li  Li3  1  0.776441  0.303384  0.060695  1
  Li  Li4  1  0.309511  0.915022  0.059716  1
  Li  Li5  1  0.663918  0.232166  0.442470  1
  Li  Li6  1  0.333077  0.761893  0.561088  1
  Li  Li7  1  0.223596  0.683095  0.940066  1
  Li  Li8  1  0.096075  0.664456  0.440023  1
  Li  Li9  1  0.234928  0.095396  0.441593  1
  Li  Li10  1  0.088152  0.228360  0.940447  1
  Li  Li11  1  0.966653  0.986213  0.508719  1
  V  V12  1  0.567272  0.431009  0.250251  1
  V  V13  1  0.438702  0.563077  0.750960  1
  V  V14  1  0.568089  0.998852  0.748426  1
  V  V15  1  0.439584  0.000648  0.251076  1
  V  V16  1  -0.000254  0.568000  0.249148  1
  V  V17  1  0.002413  0.436627  0.747139  1
  P  P18  1  0.907917  0.774168  0.840037  1
  P  P19  1  0.776751  0.917644  0.342608  1
  P  P20  1  0.911835  0.316524  0.342863  1
  P  P21  1  0.666681  0.666815  0.128047  1
  P  P22  1  0.665895  0.665375  0.629069  1
  P  P23  1  0.773599  0.320923  0.844172  1
  P  P24  1  0.689291  0.224516  0.659988  1
  P  P25  1  0.318948  0.911379  0.843032  1
  P  P26  1  0.684889  0.085174  0.155774  1
  P  P27  1  0.314474  0.772396  0.342662  1
  P  P28  1  0.232858  0.678576  0.158056  1
  P  P29  1  0.333608  0.333484  0.372125  1
  P  P30  1  0.331946  0.334078  0.869872  1
  P  P31  1  0.089480  0.687439  0.655906  1
  P  P32  1  0.229195  0.083648  0.656123  1
  P  P33  1  0.088170  0.230608  0.158646  1
  O  O34  1  0.011076  0.775238  0.565509  1
  O  O35  1  0.918484  0.745176  0.338746  1
  O  O36  1  0.767918  0.994624  0.068464  1
  O  O37  1  0.743523  0.918534  0.841655  1
  O  O38  1  0.887963  0.626835  0.823686  1
  O  O39  1  0.814531  0.672943  0.165105  1
  O  O40  1  0.907155  0.473652  0.329702  1
  O  O41  1  0.996146  0.248632  0.068640  1
  O  O42  1  0.923752  0.334473  0.842104  1
  O  O43  1  0.669046  0.809717  0.674687  1
  O  O44  1  0.621108  0.916658  0.334313  1
  O  O45  1  0.815205  0.511207  0.668707  1
  O  O46  1  0.660985  0.670195  0.020086  1
  O  O47  1  0.661345  0.659284  0.522541  1
  O  O48  1  0.672113  0.515078  0.167572  1
  O  O49  1  0.485904  0.886183  0.827424  1
  O  O50  1  0.515368  0.816476  0.170328  1
  O  O51  1  0.744443  0.337720  0.341774  1
  O  O52  1  0.793472  0.211284  0.752501  1
  O  O53  1  0.780754  0.220047  0.570500  1
  O  O54  1  0.754467  0.251289  0.934116  1
  O  O55  1  0.630762  0.489915  0.824346  1
  O  O56  1  0.512078  0.672975  0.672065  1
  O  O57  1  0.665353  0.253113  0.159535  1
  O  O58  1  0.471576  0.618730  0.328300  1
  O  O59  1  0.335626  0.917493  0.342512  1
  O  O60  1  0.795507  0.999756  0.248092  1
  O  O61  1  0.792102  0.004124  0.427350  1
  O  O62  1  0.225916  0.992429  0.568567  1
  O  O63  1  0.664348  0.083495  0.662675  1
  O  O64  1  0.532773  0.382056  0.668910  1
  O  O65  1  0.331458  0.748076  0.845979  1
  O  O66  1  0.490828  0.319689  0.333120  1
  O  O67  1  0.379880  0.517554  0.176904  1
  O  O68  1  0.246496  0.756217  0.068273  1
  O  O69  1  0.225000  0.771134  0.430992  1
  O  O70  1  0.208500  0.791911  0.248746  1
  O  O71  1  0.256209  0.665018  0.661858  1
  O  O72  1  0.471782  0.184621  0.823137  1
  O  O73  1  0.522979  0.100143  0.175003  1
  O  O74  1  0.335638  0.483408  0.829619  1
  O  O75  1  0.321465  0.338728  0.976057  1
  O  O76  1  0.332515  0.328760  0.479377  1
  O  O77  1  0.190136  0.488556  0.332060  1
  O  O78  1  0.382954  0.085864  0.666081  1
  O  O79  1  0.324246  0.187328  0.329099  1
  O  O80  1  0.082887  0.664408  0.156637  1
  O  O81  1  0.997948  0.793323  0.748842  1
  O  O82  1  0.004714  0.751765  0.928467  1
  O  O83  1  0.092206  0.529631  0.666322  1
  O  O84  1  0.179752  0.339762  0.825243  1
  O  O85  1  0.098742  0.380740  0.178990  1
  O  O86  1  0.252165  0.083381  0.157516  1
  O  O87  1  0.241057  0.007507  0.931977  1
  O  O88  1  0.210423  0.999575  0.751620  1
  O  O89  1  0.083454  0.250128  0.655689  1
  O  O90  1  0.999258  0.226270  0.431453  1
  O  O91  1  0.997747  0.208905  0.249060  1
