# generated using pymatgen
data_FePH6NO5
_symmetry_space_group_name_H-M   'P 1'
_cell_length_a   5.73206063
_cell_length_b   8.94420385
_cell_length_c   4.84051047
_cell_angle_alpha   90.00000000
_cell_angle_beta   90.00000000
_cell_angle_gamma   90.00000000
_symmetry_Int_Tables_number   1
_chemical_formula_structural   FePH6NO5
_chemical_formula_sum   'Fe2 P2 H12 N2 O10'
_cell_volume   248.16676992
_cell_formula_units_Z   2
loop_
 _symmetry_equiv_pos_site_id
 _symmetry_equiv_pos_as_xyz
  1  'x, y, z'
loop_
 _atom_site_type_symbol
 _atom_site_label
 _atom_site_symmetry_multiplicity
 _atom_site_fract_x
 _atom_site_fract_y
 _atom_site_fract_z
 _atom_site_occupancy
  Fe  Fe0  1  0.500000  0.022621  0.504409  1
  Fe  Fe1  1  0.000000  0.977379  0.004409  1
  P  P2  1  0.500000  0.804927  0.068590  1
  P  P3  1  0.000000  0.195073  0.568590  1
  H  H4  1  0.500000  0.538346  0.814412  1
  H  H5  1  0.000000  0.461654  0.314412  1
  H  H6  1  0.500000  0.544971  0.456967  1
  H  H7  1  0.000000  0.455029  0.956967  1
  H  H8  1  0.649098  0.408801  0.625716  1
  H  H9  1  0.350902  0.408801  0.625716  1
  H  H10  1  0.850902  0.591199  0.125716  1
  H  H11  1  0.149098  0.591199  0.125716  1
  H  H12  1  0.637324  0.197496  0.081048  1
  H  H13  1  0.362676  0.197496  0.081048  1
  H  H14  1  0.862676  0.802504  0.581048  1
  H  H15  1  0.137324  0.802504  0.581048  1
  N  N16  1  0.500000  0.474209  0.631122  1
  N  N17  1  0.000000  0.525791  0.131122  1
  O  O18  1  0.500000  0.829747  0.754034  1
  O  O19  1  0.000000  0.170253  0.254034  1
  O  O20  1  0.500000  0.634297  0.128873  1
  O  O21  1  0.000000  0.365703  0.628873  1
  O  O22  1  0.716790  0.880877  0.211304  1
  O  O23  1  0.283210  0.880877  0.211304  1
  O  O24  1  0.783210  0.119123  0.711304  1
  O  O25  1  0.216790  0.119123  0.711304  1
  O  O26  1  0.500000  0.213657  0.200158  1
  O  O27  1  0.000000  0.786343  0.700158  1
