# generated using pymatgen
data_Li2VO2F
_symmetry_space_group_name_H-M   'P 1'
_cell_length_a   2.94491891
_cell_length_b   5.17556821
_cell_length_c   7.35111280
_cell_angle_alpha   89.72029461
_cell_angle_beta   90.00000000
_cell_angle_gamma   90.00000000
_symmetry_Int_Tables_number   1
_chemical_formula_structural   Li2VO2F
_chemical_formula_sum   'Li4 V2 O4 F2'
_cell_volume   112.04159660
_cell_formula_units_Z   2
loop_
 _symmetry_equiv_pos_site_id
 _symmetry_equiv_pos_as_xyz
  1  'x, y, z'
loop_
 _atom_site_type_symbol
 _atom_site_label
 _atom_site_symmetry_multiplicity
 _atom_site_fract_x
 _atom_site_fract_y
 _atom_site_fract_z
 _atom_site_occupancy
  Li  Li0  1  0.000000  0.330619  0.672662  1
  Li  Li1  1  0.000000  0.681799  0.322062  1
  Li  Li2  1  0.500000  0.502714  0.994004  1
  Li  Li3  1  0.500000  0.151535  0.344605  1
  V  V4  1  0.500000  0.842232  0.661419  1
  V  V5  1  0.000000  0.991101  0.005248  1
  O  O6  1  0.000000  0.683094  0.821268  1
  O  O7  1  0.500000  0.150239  0.845399  1
  O  O8  1  0.500000  0.842247  0.155711  1
  O  O9  1  0.000000  0.991086  0.510955  1
  F  F10  1  0.500000  0.503063  0.499071  1
  F  F11  1  0.000000  0.330270  0.167596  1
