# generated using pymatgen
data_Li2FeSiO4
_symmetry_space_group_name_H-M   'P 1'
_cell_length_a   5.10395988
_cell_length_b   5.10393975
_cell_length_c   11.64121534
_cell_angle_alpha   90.00058977
_cell_angle_beta   89.99899292
_cell_angle_gamma   120.00331853
_symmetry_Int_Tables_number   1
_chemical_formula_structural   Li2FeSiO4
_chemical_formula_sum   'Li6 Fe3 Si3 O12'
_cell_volume   262.61965213
_cell_formula_units_Z   3
loop_
 _symmetry_equiv_pos_site_id
 _symmetry_equiv_pos_as_xyz
  1  'x, y, z'
loop_
 _atom_site_type_symbol
 _atom_site_label
 _atom_site_symmetry_multiplicity
 _atom_site_fract_x
 _atom_site_fract_y
 _atom_site_fract_z
 _atom_site_occupancy
  Li  Li0  1  0.332705  0.894784  0.586148  1
  Li  Li1  1  0.105317  0.437930  0.919603  1
  Li  Li2  1  0.562005  0.667354  0.252845  1
  Li  Li3  1  0.437939  0.105322  0.080398  1
  Li  Li4  1  0.667365  0.561985  0.747142  1
  Li  Li5  1  0.894794  0.332701  0.413859  1
  Fe  Fe6  1  0.999890  0.449729  0.166682  1
  Fe  Fe7  1  0.550240  0.550266  0.499993  1
  Fe  Fe8  1  0.449650  0.999824  0.833295  1
  Si  Si9  1  0.000010  0.198305  0.666710  1
  Si  Si10  1  0.198315  0.000022  0.333293  1
  Si  Si11  1  0.801678  0.801693  0.999995  1
  O  O12  1  0.134123  0.850086  0.959564  1
  O  O13  1  0.122587  0.443156  0.559031  1
  O  O14  1  0.320494  0.877469  0.225587  1
  O  O15  1  0.149975  0.284160  0.292930  1
  O  O16  1  0.284135  0.149962  0.707080  1
  O  O17  1  0.715914  0.865825  0.626284  1
  O  O18  1  0.556863  0.679460  0.892309  1
  O  O19  1  0.679395  0.556839  0.107667  1
  O  O20  1  0.443173  0.122563  0.440968  1
  O  O21  1  0.865840  0.715919  0.373722  1
  O  O22  1  0.850130  0.134143  0.040447  1
  O  O23  1  0.877463  0.320504  0.774410  1
