# generated using pymatgen
data_Li3FePCO7
_symmetry_space_group_name_H-M   'P 1'
_cell_length_a   8.55555879
_cell_length_b   9.78586546
_cell_length_c   6.44485424
_cell_angle_alpha   90.00000000
_cell_angle_beta   90.00000000
_cell_angle_gamma   85.04269499
_symmetry_Int_Tables_number   1
_chemical_formula_structural   Li3FePCO7
_chemical_formula_sum   'Li12 Fe4 P4 C4 O28'
_cell_volume   537.56766527
_cell_formula_units_Z   4
loop_
 _symmetry_equiv_pos_site_id
 _symmetry_equiv_pos_as_xyz
  1  'x, y, z'
loop_
 _atom_site_type_symbol
 _atom_site_label
 _atom_site_symmetry_multiplicity
 _atom_site_fract_x
 _atom_site_fract_y
 _atom_site_fract_z
 _atom_site_occupancy
  Li  Li0  1  0.101119  0.385123  0.249070  1
  Li  Li1  1  0.101119  0.885123  0.250930  1
  Li  Li2  1  0.283313  0.117624  0.486813  1
  Li  Li3  1  0.283313  0.617623  0.013187  1
  Li  Li4  1  0.351263  0.390682  0.753613  1
  Li  Li5  1  0.351263  0.890682  0.746387  1
  Li  Li6  1  0.648737  0.109318  0.246387  1
  Li  Li7  1  0.648737  0.609318  0.253613  1
  Li  Li8  1  0.716687  0.382377  0.513187  1
  Li  Li9  1  0.716687  0.882377  0.986813  1
  Li  Li10  1  0.898881  0.114877  0.750930  1
  Li  Li11  1  0.898881  0.614877  0.749070  1
  Fe  Fe12  1  0.268270  0.129035  0.998914  1
  Fe  Fe13  1  0.268270  0.629035  0.501086  1
  Fe  Fe14  1  0.731730  0.370965  0.001086  1
  Fe  Fe15  1  0.731730  0.870965  0.498914  1
  P  P16  1  0.408442  0.360080  0.248871  1
  P  P17  1  0.408442  0.860080  0.251129  1
  P  P18  1  0.591558  0.139920  0.751129  1
  P  P19  1  0.591558  0.639920  0.748871  1
  C  C20  1  0.041017  0.351012  0.756196  1
  C  C21  1  0.041017  0.851012  0.743804  1
  C  C22  1  0.958983  0.148988  0.243804  1
  C  C23  1  0.958983  0.648988  0.256196  1
  O  O24  1  0.071295  0.476427  0.742705  1
  O  O25  1  0.105811  0.181682  0.243549  1
  O  O26  1  0.071295  0.976427  0.757295  1
  O  O27  1  0.152410  0.251789  0.764891  1
  O  O28  1  0.105811  0.681682  0.256451  1
  O  O29  1  0.152410  0.751789  0.735109  1
  O  O30  1  0.309069  0.410326  0.058790  1
  O  O31  1  0.311661  0.418249  0.440519  1
  O  O32  1  0.311661  0.918249  0.059481  1
  O  O33  1  0.309069  0.910326  0.441210  1
  O  O34  1  0.423927  0.090899  0.747422  1
  O  O35  1  0.421537  0.199782  0.251933  1
  O  O36  1  0.423927  0.590899  0.752578  1
  O  O37  1  0.421537  0.699782  0.248067  1
  O  O38  1  0.578463  0.300218  0.748067  1
  O  O39  1  0.576073  0.409101  0.252578  1
  O  O40  1  0.578463  0.800218  0.751933  1
  O  O41  1  0.576073  0.909101  0.247422  1
  O  O42  1  0.690931  0.089674  0.941210  1
  O  O43  1  0.688339  0.081751  0.559481  1
  O  O44  1  0.690931  0.589674  0.558790  1
  O  O45  1  0.688339  0.581751  0.940519  1
  O  O46  1  0.847590  0.248211  0.235109  1
  O  O47  1  0.894189  0.318318  0.756451  1
  O  O48  1  0.847590  0.748211  0.264891  1
  O  O49  1  0.928705  0.023573  0.257295  1
  O  O50  1  0.894189  0.818318  0.743549  1
  O  O51  1  0.928705  0.523573  0.242705  1
