# generated using pymatgen
data_Li4V3P8O29
_symmetry_space_group_name_H-M   'P 1'
_cell_length_a   9.78756931
_cell_length_b   9.78625024
_cell_length_c   14.07521753
_cell_angle_alpha   90.11177627
_cell_angle_beta   90.12750599
_cell_angle_gamma   60.10848289
_symmetry_Int_Tables_number   1
_chemical_formula_structural   Li4V3P8O29
_chemical_formula_sum   'Li8 V6 P16 O58'
_cell_volume   1168.82460204
_cell_formula_units_Z   2
loop_
 _symmetry_equiv_pos_site_id
 _symmetry_equiv_pos_as_xyz
  1  'x, y, z'
loop_
 _atom_site_type_symbol
 _atom_site_label
 _atom_site_symmetry_multiplicity
 _atom_site_fract_x
 _atom_site_fract_y
 _atom_site_fract_z
 _atom_site_occupancy
  Li  Li0  1  0.091699  0.680202  0.439272  1
  Li  Li1  1  0.320685  0.776623  0.558037  1
  Li  Li2  1  0.680984  0.091753  0.939322  1
  Li  Li3  1  0.314005  0.911460  0.057267  1
  Li  Li4  1  0.776067  0.321614  0.058299  1
  Li  Li5  1  0.911518  0.313211  0.557307  1
  Li  Li6  1  0.769315  0.914361  0.559746  1
  Li  Li7  1  0.914198  0.769839  0.059455  1
  V  V8  1  0.999775  0.566860  0.247515  1
  V  V9  1  0.430401  0.001331  0.252913  1
  V  V10  1  0.431640  0.567067  0.753057  1
  V  V11  1  0.566818  0.431187  0.253449  1
  V  V12  1  0.566818  0.999883  0.748672  1
  V  V13  1  0.001454  0.430142  0.752588  1
  P  P14  1  0.087076  0.229678  0.159495  1
  P  P15  1  0.230024  0.087091  0.659317  1
  P  P16  1  0.087794  0.680633  0.659493  1
  P  P17  1  0.332665  0.334643  0.371422  1
  P  P18  1  0.334458  0.333430  0.871355  1
  P  P19  1  0.232498  0.682158  0.157618  1
  P  P20  1  0.317870  0.768743  0.341355  1
  P  P21  1  0.680620  0.087753  0.159407  1
  P  P22  1  0.319732  0.913489  0.841982  1
  P  P23  1  0.682407  0.231894  0.657971  1
  P  P24  1  0.768984  0.317865  0.841457  1
  P  P25  1  0.663605  0.668616  0.128803  1
  P  P26  1  0.668447  0.663954  0.628556  1
  P  P27  1  0.913488  0.320241  0.342077  1
  P  P28  1  0.769182  0.912481  0.342735  1
  P  P29  1  0.912703  0.768748  0.842797  1
  O  O30  1  0.987705  0.248664  0.434093  1
  O  O31  1  0.080775  0.256179  0.662073  1
  O  O32  1  0.206003  0.008507  0.755082  1
  O  O33  1  0.249533  0.987659  0.933928  1
  O  O34  1  0.100218  0.378636  0.175381  1
  O  O35  1  0.256218  0.080918  0.161988  1
  O  O36  1  0.184676  0.335787  0.824932  1
  O  O37  1  0.096666  0.520529  0.676956  1
  O  O38  1  0.995876  0.754237  0.933550  1
  O  O39  1  0.085543  0.661295  0.158538  1
  O  O40  1  0.335810  0.184544  0.324752  1
  O  O41  1  0.185502  0.486082  0.332795  1
  O  O42  1  0.377821  0.100924  0.675664  1
  O  O43  1  0.340708  0.329716  0.476529  1
  O  O44  1  0.330354  0.341089  0.976497  1
  O  O45  1  0.520721  0.096313  0.177039  1
  O  O46  1  0.333677  0.482702  0.824433  1
  O  O47  1  0.486346  0.185465  0.833224  1
  O  O48  1  0.254944  0.661760  0.659839  1
  O  O49  1  0.205960  0.787013  0.253903  1
  O  O50  1  0.243340  0.766279  0.073381  1
  O  O51  1  0.245145  0.756024  0.432013  1
  O  O52  1  0.383021  0.522141  0.178006  1
  O  O53  1  0.482186  0.333893  0.324755  1
  O  O54  1  0.660527  0.085488  0.659441  1
  O  O55  1  0.342251  0.744375  0.829480  1
  O  O56  1  0.522788  0.383026  0.677975  1
  O  O57  1  0.232547  0.995313  0.574744  1
  O  O58  1  0.754878  0.995323  0.433582  1
  O  O59  1  0.479446  0.617000  0.323797  1
  O  O60  1  0.661668  0.254880  0.159628  1
  O  O61  1  0.789287  0.001275  0.250914  1
  O  O62  1  0.341198  0.913386  0.335750  1
  O  O63  1  0.516560  0.667531  0.671067  1
  O  O64  1  0.617143  0.479338  0.823760  1
  O  O65  1  0.756388  0.245376  0.932192  1
  O  O66  1  0.766827  0.241509  0.573475  1
  O  O67  1  0.787254  0.205573  0.754149  1
  O  O68  1  0.744501  0.342003  0.329223  1
  O  O69  1  0.511844  0.818376  0.171538  1
  O  O70  1  0.480762  0.902450  0.821746  1
  O  O71  1  0.666519  0.516930  0.170482  1
  O  O72  1  0.668466  0.656880  0.522728  1
  O  O73  1  0.657809  0.670342  0.022952  1
  O  O74  1  0.617812  0.902221  0.320430  1
  O  O75  1  0.818267  0.511689  0.671156  1
  O  O76  1  0.675507  0.811004  0.666765  1
  O  O77  1  0.913518  0.341216  0.835647  1
  O  O78  1  0.008712  0.206079  0.255154  1
  O  O79  1  0.995276  0.233172  0.074715  1
  O  O80  1  0.902271  0.480596  0.321984  1
  O  O81  1  0.811060  0.675287  0.167398  1
  O  O82  1  0.746960  0.917002  0.839077  1
  O  O83  1  0.902303  0.617586  0.820237  1
  O  O84  1  0.757669  0.000319  0.069565  1
  O  O85  1  0.917178  0.746491  0.338515  1
  O  O86  1  0.000673  0.757778  0.569543  1
  O  O87  1  0.000974  0.789383  0.750813  1
