# generated using pymatgen
data_Hf2N2O
_symmetry_space_group_name_H-M   'P 1'
_cell_length_a   8.72431661
_cell_length_b   8.73437387
_cell_length_c   8.72327759
_cell_angle_alpha   109.29064335
_cell_angle_beta   109.41605348
_cell_angle_gamma   109.57742705
_symmetry_Int_Tables_number   1
_chemical_formula_structural   Hf2N2O
_chemical_formula_sum   'Hf16 N16 O8'
_cell_volume   512.52057282
_cell_formula_units_Z   8
loop_
 _symmetry_equiv_pos_site_id
 _symmetry_equiv_pos_as_xyz
  1  'x, y, z'
loop_
 _atom_site_type_symbol
 _atom_site_label
 _atom_site_symmetry_multiplicity
 _atom_site_fract_x
 _atom_site_fract_y
 _atom_site_fract_z
 _atom_site_occupancy
  Hf  Hf0  1  0.751862  0.967368  0.207448  1
  Hf  Hf1  1  0.995709  0.988513  0.990003  1
  Hf  Hf2  1  0.029925  0.775546  0.243705  1
  Hf  Hf3  1  0.528478  0.278967  0.253796  1
  Hf  Hf4  1  0.502191  0.502741  0.003219  1
  Hf  Hf5  1  0.489169  0.991385  0.488770  1
  Hf  Hf6  1  0.258943  0.541922  0.289747  1
  Hf  Hf7  1  0.297228  0.266746  0.547733  1
  Hf  Hf8  1  0.712369  0.746403  0.461578  1
  Hf  Hf9  1  0.785634  0.251316  0.044475  1
  Hf  Hf10  1  0.205925  0.747281  0.959804  1
  Hf  Hf11  1  0.749794  0.462196  0.715748  1
  Hf  Hf12  1  0.010262  0.499042  0.500925  1
  Hf  Hf13  1  0.972911  0.216502  0.750106  1
  Hf  Hf14  1  0.466236  0.716374  0.743959  1
  Hf  Hf15  1  0.240776  0.028093  0.787181  1
  N  N16  1  0.731797  0.968725  0.960778  1
  N  N17  1  0.757109  0.226177  0.274191  1
  N  N18  1  0.452521  0.481963  0.224813  1
  N  N19  1  0.771988  0.734393  0.241318  1
  N  N20  1  0.493116  0.229133  0.460569  1
  N  N21  1  0.228832  0.270967  0.763686  1
  N  N22  1  0.986547  0.531711  0.257184  1
  N  N23  1  0.513015  0.776907  0.545163  1
  N  N24  1  0.953145  0.729100  0.967401  1
  N  N25  1  0.548538  0.515444  0.778540  1
  N  N26  1  0.225370  0.449876  0.484333  1
  N  N27  1  0.278976  0.767211  0.228010  1
  N  N28  1  0.961612  0.950576  0.725982  1
  N  N29  1  0.240264  0.773018  0.724841  1
  N  N30  1  0.006202  0.462805  0.737030  1
  N  N31  1  0.272336  0.037538  0.043213  1
  O  O32  1  0.539274  0.264410  0.983651  1
  O  O33  1  0.739066  0.016502  0.469503  1
  O  O34  1  0.041224  0.273545  0.027580  1
  O  O35  1  0.724781  0.234786  0.774891  1
  O  O36  1  0.772600  0.549509  0.516464  1
  O  O37  1  0.037055  0.047964  0.276616  1
  O  O38  1  0.465956  0.739333  0.014486  1
  O  O39  1  0.261263  0.988014  0.531557  1
