# generated using pymatgen
data_Co(IO3)2
_symmetry_space_group_name_H-M   'P 1'
_cell_length_a   14.77395424
_cell_length_b   7.07798121
_cell_length_c   5.23791952
_cell_angle_alpha   89.99999322
_cell_angle_beta   89.99192014
_cell_angle_gamma   90.00008681
_symmetry_Int_Tables_number   1
_chemical_formula_structural   Co(IO3)2
_chemical_formula_sum   'Co4 I8 O24'
_cell_volume   547.72803631
_cell_formula_units_Z   4
loop_
 _symmetry_equiv_pos_site_id
 _symmetry_equiv_pos_as_xyz
  1  'x, y, z'
loop_
 _atom_site_type_symbol
 _atom_site_label
 _atom_site_symmetry_multiplicity
 _atom_site_fract_x
 _atom_site_fract_y
 _atom_site_fract_z
 _atom_site_occupancy
  Co  Co0  1  1.000000  0.123529  0.250000  1
  Co  Co1  1  0.000000  0.876470  0.750000  1
  Co  Co2  1  0.500000  0.376359  0.750000  1
  Co  Co3  1  0.500000  0.623591  0.250000  1
  I  I4  1  0.147596  0.280911  0.730256  1
  I  I5  1  0.147596  0.719076  0.230288  1
  I  I6  1  0.352407  0.219148  0.230295  1
  I  I7  1  0.352415  0.780873  0.730332  1
  I  I8  1  0.647593  0.219148  0.269705  1
  I  I9  1  0.647585  0.780874  0.769668  1
  I  I10  1  0.852404  0.280911  0.769745  1
  I  I11  1  0.852404  0.719075  0.269713  1
  O  O12  1  0.079006  0.899606  0.408513  1
  O  O13  1  0.078989  0.100414  0.908495  1
  O  O14  1  0.079668  0.320939  0.437432  1
  O  O15  1  0.079645  0.679027  0.937515  1
  O  O16  1  0.262127  0.632464  0.607712  1
  O  O17  1  0.262111  0.367559  0.107709  1
  O  O18  1  0.237866  0.132543  0.607765  1
  O  O19  1  0.237845  0.867458  0.107729  1
  O  O20  1  0.420298  0.179074  0.937437  1
  O  O21  1  0.420318  0.820966  0.437511  1
  O  O22  1  0.421005  0.399586  0.408449  1
  O  O23  1  0.421019  0.600382  0.908479  1
  O  O24  1  0.578995  0.399586  0.091550  1
  O  O25  1  0.578981  0.600382  0.591521  1
  O  O26  1  0.579702  0.179074  0.562563  1
  O  O27  1  0.579682  0.820966  0.062490  1
  O  O28  1  0.762134  0.132543  0.892233  1
  O  O29  1  0.762155  0.867458  0.392271  1
  O  O30  1  0.737889  0.367559  0.392291  1
  O  O31  1  0.737873  0.632465  0.892289  1
  O  O32  1  0.920332  0.320938  0.062567  1
  O  O33  1  0.920355  0.679027  0.562485  1
  O  O34  1  0.921012  0.100411  0.591505  1
  O  O35  1  0.920994  0.899606  0.091488  1
