# generated using pymatgen
data_VOF3
_symmetry_space_group_name_H-M   'P 1'
_cell_length_a   4.97563209
_cell_length_b   12.45385386
_cell_length_c   4.90888739
_cell_angle_alpha   90.00000000
_cell_angle_beta   94.45464398
_cell_angle_gamma   90.00000000
_symmetry_Int_Tables_number   1
_chemical_formula_structural   VOF3
_chemical_formula_sum   'V4 O4 F12'
_cell_volume   303.26421206
_cell_formula_units_Z   4
loop_
 _symmetry_equiv_pos_site_id
 _symmetry_equiv_pos_as_xyz
  1  'x, y, z'
loop_
 _atom_site_type_symbol
 _atom_site_label
 _atom_site_symmetry_multiplicity
 _atom_site_fract_x
 _atom_site_fract_y
 _atom_site_fract_z
 _atom_site_occupancy
  V  V0  1  0.037856  0.840576  0.788327  1
  V  V1  1  0.037856  0.659424  0.288326  1
  V  V2  1  0.962144  0.340576  0.711673  1
  V  V3  1  0.962144  0.159424  0.211673  1
  O  O4  1  0.180556  0.422136  0.611917  1
  O  O5  1  0.180556  0.077864  0.111917  1
  O  O6  1  0.819444  0.922136  0.888083  1
  O  O7  1  0.819444  0.577864  0.388083  1
  F  F8  1  0.142909  0.206640  0.547468  1
  F  F9  1  0.142909  0.293360  0.047468  1
  F  F10  1  0.259272  0.691929  0.593043  1
  F  F11  1  0.268966  0.924564  0.639385  1
  F  F12  1  0.259272  0.808071  0.093043  1
  F  F13  1  0.268966  0.575436  0.139385  1
  F  F14  1  0.731034  0.424564  0.860615  1
  F  F15  1  0.740728  0.191929  0.906957  1
  F  F16  1  0.731034  0.075436  0.360615  1
  F  F17  1  0.740728  0.308071  0.406957  1
  F  F18  1  0.857091  0.706640  0.952532  1
  F  F19  1  0.857091  0.793360  0.452532  1
