# generated using pymatgen
data_Li2Ti3Sn(PO4)6
_symmetry_space_group_name_H-M   'P 1'
_cell_length_a   8.68457636
_cell_length_b   8.68457563
_cell_length_c   8.68457563
_cell_angle_alpha   59.79163531
_cell_angle_beta   59.79163385
_cell_angle_gamma   59.79163338
_symmetry_Int_Tables_number   1
_chemical_formula_structural   Li2Ti3Sn(PO4)6
_chemical_formula_sum   'Li2 Ti3 Sn1 P6 O24'
_cell_volume   460.96888694
_cell_formula_units_Z   1
loop_
 _symmetry_equiv_pos_site_id
 _symmetry_equiv_pos_as_xyz
  1  'x, y, z'
loop_
 _atom_site_type_symbol
 _atom_site_label
 _atom_site_symmetry_multiplicity
 _atom_site_fract_x
 _atom_site_fract_y
 _atom_site_fract_z
 _atom_site_occupancy
  Li  Li0  1  0.002483  0.002483  0.002483  1
  Li  Li1  1  0.500038  0.500038  0.500038  1
  Ti  Ti2  1  0.141800  0.141800  0.141800  1
  Ti  Ti3  1  0.357587  0.357587  0.357587  1
  Ti  Ti4  1  0.642130  0.642130  0.642130  1
  Sn  Sn5  1  0.857962  0.857962  0.857962  1
  P  P6  1  0.042553  0.749305  0.455042  1
  P  P7  1  0.455042  0.042553  0.749305  1
  P  P8  1  0.749305  0.455042  0.042553  1
  P  P9  1  0.252981  0.538147  0.959719  1
  P  P10  1  0.538147  0.959719  0.252981  1
  P  P11  1  0.959719  0.252981  0.538147  1
  O  O12  1  0.123425  0.307462  0.495908  1
  O  O13  1  0.307462  0.495908  0.123425  1
  O  O14  1  0.059068  0.916378  0.265925  1
  O  O15  1  0.495908  0.123425  0.307462  1
  O  O16  1  0.015243  0.800361  0.614270  1
  O  O17  1  0.230939  0.582732  0.434835  1
  O  O18  1  0.265925  0.059068  0.916378  1
  O  O19  1  0.434835  0.230939  0.582732  1
  O  O20  1  0.196216  0.375217  0.000319  1
  O  O21  1  0.582732  0.434835  0.230939  1
  O  O22  1  0.088327  0.730190  0.946333  1
  O  O23  1  0.375217  0.000319  0.196216  1
  O  O24  1  0.614270  0.015243  0.800361  1
  O  O25  1  0.916378  0.265925  0.059068  1
  O  O26  1  0.418529  0.555997  0.769991  1
  O  O27  1  0.800361  0.614270  0.015243  1
  O  O28  1  0.555997  0.769991  0.418529  1
  O  O29  1  0.730190  0.946333  0.088327  1
  O  O30  1  0.769991  0.418529  0.555997  1
  O  O31  1  0.000319  0.196216  0.375217  1
  O  O32  1  0.500695  0.874225  0.697661  1
  O  O33  1  0.946333  0.088327  0.730190  1
  O  O34  1  0.697661  0.500695  0.874225  1
  O  O35  1  0.874225  0.697661  0.500695  1
