# generated using pymatgen
data_LiCo2(PO4)2
_symmetry_space_group_name_H-M   'P 1'
_cell_length_a   8.46361392
_cell_length_b   5.18490705
_cell_length_c   8.24066160
_cell_angle_alpha   90.00000000
_cell_angle_beta   105.99236232
_cell_angle_gamma   90.00000000
_symmetry_Int_Tables_number   1
_chemical_formula_structural   LiCo2(PO4)2
_chemical_formula_sum   'Li2 Co4 P4 O16'
_cell_volume   347.62990740
_cell_formula_units_Z   2
loop_
 _symmetry_equiv_pos_site_id
 _symmetry_equiv_pos_as_xyz
  1  'x, y, z'
loop_
 _atom_site_type_symbol
 _atom_site_label
 _atom_site_symmetry_multiplicity
 _atom_site_fract_x
 _atom_site_fract_y
 _atom_site_fract_z
 _atom_site_occupancy
  Li  Li0  1  0.280934  0.329777  0.502173  1
  Li  Li1  1  0.780934  0.670223  0.502173  1
  Co  Co2  1  0.212531  0.313453  0.883228  1
  Co  Co3  1  0.380149  0.825708  0.355172  1
  Co  Co4  1  0.712531  0.686547  0.883228  1
  Co  Co5  1  0.880149  0.174292  0.355172  1
  P  P6  1  0.010743  0.669544  0.248649  1
  P  P7  1  0.333695  0.815471  0.737287  1
  P  P8  1  0.510743  0.330456  0.248649  1
  P  P9  1  0.833695  0.184529  0.737287  1
  O  O10  1  0.005323  0.193856  0.870393  1
  O  O11  1  0.055003  0.390962  0.314931  1
  O  O12  1  0.208125  0.663057  0.804852  1
  O  O13  1  0.157922  0.805229  0.214544  1
  O  O14  1  0.278187  0.105812  0.710390  1
  O  O15  1  0.347271  0.694808  0.570732  1
  O  O16  1  0.505323  0.806144  0.870393  1
  O  O17  1  0.438746  0.189719  0.379980  1
  O  O18  1  0.372821  0.333731  0.077576  1
  O  O19  1  0.555003  0.609037  0.314931  1
  O  O20  1  0.708125  0.336943  0.804852  1
  O  O21  1  0.657922  0.194771  0.214544  1
  O  O22  1  0.778187  0.894188  0.710390  1
  O  O23  1  0.847271  0.305192  0.570732  1
  O  O24  1  0.938746  0.810281  0.379980  1
  O  O25  1  0.872821  0.666269  0.077576  1
