# generated using pymatgen
data_Ho2(SO4)3
_symmetry_space_group_name_H-M   'P 1'
_cell_length_a   9.53388779
_cell_length_b   9.53386387
_cell_length_c   9.53377042
_cell_angle_alpha   57.93135882
_cell_angle_beta   57.93154170
_cell_angle_gamma   57.93138884
_symmetry_Int_Tables_number   1
_chemical_formula_structural   Ho2(SO4)3
_chemical_formula_sum   'Ho4 S6 O24'
_cell_volume   583.67110410
_cell_formula_units_Z   2
loop_
 _symmetry_equiv_pos_site_id
 _symmetry_equiv_pos_as_xyz
  1  'x, y, z'
loop_
 _atom_site_type_symbol
 _atom_site_label
 _atom_site_symmetry_multiplicity
 _atom_site_fract_x
 _atom_site_fract_y
 _atom_site_fract_z
 _atom_site_occupancy
  Ho  Ho0  1  0.643905  0.643909  0.643916  1
  Ho  Ho1  1  0.356092  0.356095  0.356083  1
  Ho  Ho2  1  0.143863  0.143866  0.143872  1
  Ho  Ho3  1  0.856125  0.856140  0.856134  1
  S  S4  1  0.037482  0.749849  0.462631  1
  S  S5  1  0.537368  0.962512  0.250156  1
  S  S6  1  0.250149  0.537371  0.962509  1
  S  S7  1  0.749848  0.462631  0.037487  1
  S  S8  1  0.462624  0.037493  0.749845  1
  S  S9  1  0.962512  0.250157  0.537371  1
  O  O10  1  0.064320  0.906963  0.303374  1
  O  O11  1  0.008706  0.774492  0.618235  1
  O  O12  1  0.381766  0.991288  0.225513  1
  O  O13  1  0.093030  0.696624  0.935674  1
  O  O14  1  0.196503  0.592779  0.436007  1
  O  O15  1  0.491471  0.881786  0.725571  1
  O  O16  1  0.274427  0.508538  0.118210  1
  O  O17  1  0.563996  0.803494  0.407218  1
  O  O18  1  0.696624  0.935679  0.093039  1
  O  O19  1  0.407212  0.564002  0.803484  1
  O  O20  1  0.225511  0.381766  0.991290  1
  O  O21  1  0.118216  0.274433  0.508526  1
  O  O22  1  0.881781  0.725573  0.491475  1
  O  O23  1  0.774486  0.618236  0.008713  1
  O  O24  1  0.592784  0.436000  0.196511  1
  O  O25  1  0.303373  0.064336  0.906957  1
  O  O26  1  0.436001  0.196509  0.592778  1
  O  O27  1  0.725571  0.491471  0.881787  1
  O  O28  1  0.508523  0.118220  0.274430  1
  O  O29  1  0.803494  0.407226  0.563999  1
  O  O30  1  0.906963  0.303380  0.064325  1
  O  O31  1  0.618231  0.008723  0.774478  1
  O  O32  1  0.991279  0.225518  0.381771  1
  O  O33  1  0.935665  0.093043  0.696632  1
