# generated using pymatgen
data_Ti17(NO4)6
_symmetry_space_group_name_H-M   'P 1'
_cell_length_a   10.39700234
_cell_length_b   10.71706765
_cell_length_c   10.03128263
_cell_angle_alpha   90.00000000
_cell_angle_beta   90.00000000
_cell_angle_gamma   95.25530524
_symmetry_Int_Tables_number   1
_chemical_formula_structural   Ti17(NO4)6
_chemical_formula_sum   'Ti34 N12 O48'
_cell_volume   1113.04098100
_cell_formula_units_Z   2
loop_
 _symmetry_equiv_pos_site_id
 _symmetry_equiv_pos_as_xyz
  1  'x, y, z'
loop_
 _atom_site_type_symbol
 _atom_site_label
 _atom_site_symmetry_multiplicity
 _atom_site_fract_x
 _atom_site_fract_y
 _atom_site_fract_z
 _atom_site_occupancy
  Ti  Ti0  1  0.753209  0.900593  0.750000  1
  Ti  Ti1  1  0.804051  0.878675  0.429221  1
  Ti  Ti2  1  0.804051  0.878675  0.070779  1
  Ti  Ti3  1  0.530531  0.789174  0.929000  1
  Ti  Ti4  1  0.293906  0.876611  0.422908  1
  Ti  Ti5  1  0.580567  0.768978  0.250000  1
  Ti  Ti6  1  0.530531  0.789174  0.571000  1
  Ti  Ti7  1  0.248147  0.894386  0.750000  1
  Ti  Ti8  1  0.293906  0.876611  0.077092  1
  Ti  Ti9  1  0.867030  0.452407  0.928220  1
  Ti  Ti10  1  0.031134  0.787181  0.941793  1
  Ti  Ti11  1  0.031134  0.787181  0.558207  1
  Ti  Ti12  1  0.632970  0.547593  0.428220  1
  Ti  Ti13  1  0.915005  0.433344  0.250000  1
  Ti  Ti14  1  0.632970  0.547593  0.071780  1
  Ti  Ti15  1  0.584995  0.566656  0.750000  1
  Ti  Ti16  1  0.867030  0.452407  0.571780  1
  Ti  Ti17  1  0.365030  0.448680  0.923310  1
  Ti  Ti18  1  0.969469  0.210826  0.429000  1
  Ti  Ti19  1  0.411613  0.431493  0.250000  1
  Ti  Ti20  1  0.365030  0.448680  0.576690  1
  Ti  Ti21  1  0.134969  0.551320  0.423310  1
  Ti  Ti22  1  0.969469  0.210826  0.071000  1
  Ti  Ti23  1  0.919433  0.231022  0.750000  1
  Ti  Ti24  1  0.134969  0.551320  0.076690  1
  Ti  Ti25  1  0.088387  0.568507  0.750000  1
  Ti  Ti26  1  0.695949  0.121325  0.570779  1
  Ti  Ti27  1  0.746791  0.099407  0.250000  1
  Ti  Ti28  1  0.695949  0.121325  0.929221  1
  Ti  Ti29  1  0.468866  0.212819  0.441793  1
  Ti  Ti30  1  0.468866  0.212819  0.058207  1
  Ti  Ti31  1  0.251853  0.105614  0.250000  1
  Ti  Ti32  1  0.206094  0.123389  0.922908  1
  Ti  Ti33  1  0.206094  0.123389  0.577092  1
  N  N34  1  0.720779  0.911136  0.250000  1
  N  N35  1  0.606319  0.756501  0.750000  1
  N  N36  1  0.240520  0.921008  0.250000  1
  N  N37  1  0.107595  0.755942  0.750000  1
  N  N38  1  0.942410  0.424794  0.750000  1
  N  N39  1  0.557590  0.575206  0.250000  1
  N  N40  1  0.060002  0.560587  0.250000  1
  N  N41  1  0.439998  0.439414  0.750000  1
  N  N42  1  0.893681  0.243499  0.250000  1
  N  N43  1  0.779221  0.088864  0.750000  1
  N  N44  1  0.392406  0.244058  0.250000  1
  N  N45  1  0.259480  0.078992  0.750000  1
  O  O46  1  0.953276  0.818664  0.390339  1
  O  O47  1  0.875283  0.850011  0.878438  1
  O  O48  1  0.654264  0.937616  0.565836  1
  O  O49  1  0.654264  0.937616  0.934164  1
  O  O50  1  0.953276  0.818664  0.109661  1
  O  O51  1  0.875283  0.850011  0.621562  1
  O  O52  1  0.990638  0.604120  0.563487  1
  O  O53  1  0.990638  0.604120  0.936513  1
  O  O54  1  0.676965  0.729288  0.435302  1
  O  O55  1  0.676965  0.729288  0.064698  1
  O  O56  1  0.158065  0.935012  0.561374  1
  O  O57  1  0.456353  0.816024  0.118389  1
  O  O58  1  0.456353  0.816024  0.381611  1
  O  O59  1  0.158065  0.935012  0.938626  1
  O  O60  1  0.378013  0.850525  0.879914  1
  O  O61  1  0.378013  0.850525  0.620086  1
  O  O62  1  0.710493  0.515132  0.881402  1
  O  O63  1  0.492520  0.604486  0.937520  1
  O  O64  1  0.710493  0.515132  0.618598  1
  O  O65  1  0.185988  0.725122  0.051088  1
  O  O66  1  0.185988  0.725122  0.448912  1
  O  O67  1  0.789507  0.484868  0.118598  1
  O  O68  1  0.492520  0.604486  0.562480  1
  O  O69  1  0.789507  0.484868  0.381402  1
  O  O70  1  0.823035  0.270712  0.935302  1
  O  O71  1  0.291034  0.486132  0.119923  1
  O  O72  1  0.509362  0.395880  0.063487  1
  O  O73  1  0.208966  0.513868  0.619923  1
  O  O74  1  0.208966  0.513868  0.880077  1
  O  O75  1  0.509362  0.395880  0.436513  1
  O  O76  1  0.823035  0.270712  0.564698  1
  O  O77  1  0.291034  0.486132  0.380077  1
  O  O78  1  0.845736  0.062384  0.434164  1
  O  O79  1  0.624717  0.149989  0.378438  1
  O  O80  1  0.546724  0.181336  0.609661  1
  O  O81  1  0.314013  0.274878  0.948912  1
  O  O82  1  0.624717  0.149989  0.121562  1
  O  O83  1  0.845736  0.062384  0.065836  1
  O  O84  1  0.546724  0.181336  0.890339  1
  O  O85  1  0.314013  0.274878  0.551088  1
  O  O86  1  0.007480  0.395514  0.062480  1
  O  O87  1  0.007480  0.395514  0.437520  1
  O  O88  1  0.121987  0.149475  0.120086  1
  O  O89  1  0.043647  0.183976  0.881611  1
  O  O90  1  0.341935  0.064988  0.438626  1
  O  O91  1  0.341935  0.064988  0.061374  1
  O  O92  1  0.121987  0.149475  0.379914  1
  O  O93  1  0.043647  0.183976  0.618389  1
