# generated using pymatgen
data_Na2MnPCO7
_symmetry_space_group_name_H-M   'P 1'
_cell_length_a   8.55763566
_cell_length_b   8.46700073
_cell_length_c   10.40545075
_cell_angle_alpha   71.34708485
_cell_angle_beta   108.20935074
_cell_angle_gamma   74.94144970
_symmetry_Int_Tables_number   1
_chemical_formula_structural   Na2MnPCO7
_chemical_formula_sum   'Na8 Mn4 P4 C4 O28'
_cell_volume   622.01085110
_cell_formula_units_Z   4
loop_
 _symmetry_equiv_pos_site_id
 _symmetry_equiv_pos_as_xyz
  1  'x, y, z'
loop_
 _atom_site_type_symbol
 _atom_site_label
 _atom_site_symmetry_multiplicity
 _atom_site_fract_x
 _atom_site_fract_y
 _atom_site_fract_z
 _atom_site_occupancy
  Na  Na0  1  0.004121  0.002975  0.759705  1
  Na  Na1  1  0.503011  0.513637  0.742081  1
  Na  Na2  1  0.238017  0.243124  0.742536  1
  Na  Na3  1  0.749512  0.743625  0.762284  1
  Na  Na4  1  0.240081  0.266448  0.248921  1
  Na  Na5  1  0.493749  0.506959  0.245103  1
  Na  Na6  1  0.004072  0.976474  0.251580  1
  Na  Na7  1  0.535369  0.202322  0.085358  1
  Mn  Mn8  1  0.588609  0.162285  0.648748  1
  Mn  Mn9  1  0.087502  0.661118  0.645146  1
  Mn  Mn10  1  0.905395  0.354384  0.346855  1
  Mn  Mn11  1  0.414360  0.842123  0.350033  1
  P  P12  1  0.770690  0.479969  0.579474  1
  P  P13  1  0.265631  0.982841  0.576975  1
  P  P14  1  0.731733  0.020046  0.421668  1
  P  P15  1  0.235350  0.517144  0.418649  1
  C  C16  1  0.700050  0.051682  0.928402  1
  C  C17  1  0.207110  0.542472  0.928615  1
  C  C18  1  0.792788  0.451825  0.072297  1
  C  C19  1  0.295175  0.955079  0.072076  1
  O  O20  1  0.226671  0.026338  0.931084  1
  O  O21  1  0.728636  0.510575  0.932091  1
  O  O22  1  0.274813  0.472176  0.850152  1
  O  O23  1  0.769964  0.976471  0.854455  1
  O  O24  1  0.549589  0.196915  0.838425  1
  O  O25  1  0.061671  0.688037  0.847173  1
  O  O26  1  0.945242  0.493782  0.668423  1
  O  O27  1  0.759047  0.306388  0.677293  1
  O  O28  1  0.439350  0.994700  0.669148  1
  O  O29  1  0.254949  0.804832  0.669593  1
  O  O30  1  0.742285  0.010673  0.575998  1
  O  O31  1  0.098230  0.149488  0.544876  1
  O  O32  1  0.604982  0.649412  0.546755  1
  O  O33  1  0.242197  0.504509  0.572769  1
  O  O34  1  0.758095  0.482766  0.427396  1
  O  O35  1  0.901348  0.854780  0.456505  1
  O  O36  1  0.409578  0.352322  0.453371  1
  O  O37  1  0.258610  0.991370  0.423906  1
  O  O38  1  0.555904  0.012710  0.328045  1
  O  O39  1  0.737176  0.195531  0.320899  1
  O  O40  1  0.073937  0.492522  0.325900  1
  O  O41  1  0.245984  0.694353  0.328890  1
  O  O42  1  0.940732  0.306639  0.167370  1
  O  O43  1  0.436979  0.806782  0.160883  1
  O  O44  1  0.715944  0.529268  0.140367  1
  O  O45  1  0.227566  0.032741  0.146840  1
  O  O46  1  0.769124  0.992873  0.067728  1
  O  O47  1  0.288236  0.463250  0.070434  1
