# generated using pymatgen
data_LiNiCO4
_symmetry_space_group_name_H-M   'P 1'
_cell_length_a   9.04641952
_cell_length_b   9.35510391
_cell_length_c   3.10686547
_cell_angle_alpha   90.00000000
_cell_angle_beta   92.82370683
_cell_angle_gamma   90.00000000
_symmetry_Int_Tables_number   1
_chemical_formula_structural   LiNiCO4
_chemical_formula_sum   'Li4 Ni4 C4 O16'
_cell_volume   262.61538502
_cell_formula_units_Z   4
loop_
 _symmetry_equiv_pos_site_id
 _symmetry_equiv_pos_as_xyz
  1  'x, y, z'
loop_
 _atom_site_type_symbol
 _atom_site_label
 _atom_site_symmetry_multiplicity
 _atom_site_fract_x
 _atom_site_fract_y
 _atom_site_fract_z
 _atom_site_occupancy
  Li  Li0  1  0.177161  0.404671  0.776432  1
  Li  Li1  1  0.322839  0.904671  0.723568  1
  Li  Li2  1  0.677161  0.095329  0.276432  1
  Li  Li3  1  0.822839  0.595329  0.223568  1
  Ni  Ni4  1  0.057192  0.118548  0.272516  1
  Ni  Ni5  1  0.442808  0.618548  0.227484  1
  Ni  Ni6  1  0.557192  0.381452  0.772516  1
  Ni  Ni7  1  0.942808  0.881452  0.727484  1
  C  C8  1  0.138282  0.666754  0.200424  1
  C  C9  1  0.361718  0.166754  0.299576  1
  C  C10  1  0.638282  0.833246  0.700424  1
  C  C11  1  0.861718  0.333246  0.799576  1
  O  O12  1  0.012856  0.739402  0.166724  1
  O  O13  1  0.111383  0.996204  0.736457  1
  O  O14  1  0.132906  0.535655  0.278908  1
  O  O15  1  0.237741  0.235581  0.339941  1
  O  O16  1  0.262259  0.735581  0.160059  1
  O  O17  1  0.367094  0.035655  0.221092  1
  O  O18  1  0.388617  0.496204  0.763543  1
  O  O19  1  0.487144  0.239402  0.333276  1
  O  O20  1  0.512856  0.760598  0.666724  1
  O  O21  1  0.611383  0.503796  0.236457  1
  O  O22  1  0.632906  0.964345  0.778908  1
  O  O23  1  0.737741  0.264419  0.839941  1
  O  O24  1  0.762259  0.764419  0.660059  1
  O  O25  1  0.867094  0.464345  0.721092  1
  O  O26  1  0.888617  0.003796  0.263543  1
  O  O27  1  0.987144  0.260598  0.833276  1
