# generated using pymatgen
data_CaH14I10O7
_symmetry_space_group_name_H-M   'P 1'
_cell_length_a   9.96935585
_cell_length_b   15.61368236
_cell_length_c   9.54554466
_cell_angle_alpha   90.65562331
_cell_angle_beta   108.84831488
_cell_angle_gamma   93.06476269
_symmetry_Int_Tables_number   1
_chemical_formula_structural   CaH14I10O7
_chemical_formula_sum   'Ca2 H28 I20 O14'
_cell_volume   1403.50908614
_cell_formula_units_Z   2
loop_
 _symmetry_equiv_pos_site_id
 _symmetry_equiv_pos_as_xyz
  1  'x, y, z'
loop_
 _atom_site_type_symbol
 _atom_site_label
 _atom_site_symmetry_multiplicity
 _atom_site_fract_x
 _atom_site_fract_y
 _atom_site_fract_z
 _atom_site_occupancy
  Ca  Ca0  1  0.626990  0.251200  0.782479  1
  Ca  Ca1  1  0.373010  0.748800  0.217521  1
  H  H2  1  0.379847  0.265868  0.482526  1
  H  H3  1  0.620153  0.734132  0.517474  1
  H  H4  1  0.393503  0.169004  0.518968  1
  H  H5  1  0.606497  0.830996  0.481032  1
  H  H6  1  0.371287  0.291854  0.894311  1
  H  H7  1  0.628713  0.708146  0.105689  1
  H  H8  1  0.376719  0.191941  0.882708  1
  H  H9  1  0.623281  0.808059  0.117292  1
  H  H10  1  0.695590  0.068545  0.692391  1
  H  H11  1  0.304410  0.931455  0.307609  1
  H  H12  1  0.736853  0.131253  0.584278  1
  H  H13  1  0.263147  0.868747  0.415722  1
  H  H14  1  0.687004  0.151700  0.069404  1
  H  H15  1  0.312996  0.848300  0.930596  1
  H  H16  1  0.715512  0.086344  0.958622  1
  H  H17  1  0.284488  0.913656  0.041378  1
  H  H18  1  0.846397  0.349915  0.670003  1
  H  H19  1  0.153603  0.650085  0.329997  1
  H  H20  1  0.943341  0.302820  0.805334  1
  H  H21  1  0.056659  0.697180  0.194666  1
  H  H22  1  0.757667  0.339696  0.099533  1
  H  H23  1  0.242333  0.660304  0.900467  1
  H  H24  1  0.809741  0.392920  0.986182  1
  H  H25  1  0.190259  0.607080  0.013818  1
  H  H26  1  0.633999  0.445044  0.702322  1
  H  H27  1  0.366001  0.554956  0.297677  1
  H  H28  1  0.476447  0.410004  0.627954  1
  H  H29  1  0.523553  0.589996  0.372047  1
  I  I30  1  0.916624  0.859401  0.034189  1
  I  I31  1  0.083376  0.140599  0.965811  1
  I  I32  1  0.930444  0.855620  0.737549  1
  I  I33  1  0.069556  0.144380  0.262451  1
  I  I34  1  0.939880  0.856060  0.417732  1
  I  I35  1  0.060120  0.143940  0.582268  1
  I  I36  1  0.692969  0.976058  0.312202  1
  I  I37  1  0.307031  0.023942  0.687798  1
  I  I38  1  0.442985  0.070010  0.204202  1
  I  I39  1  0.557015  0.929990  0.795798  1
  I  I40  1  0.815480  0.568168  0.219778  1
  I  I41  1  0.184520  0.431832  0.780222  1
  I  I42  1  0.818439  0.572171  0.519356  1
  I  I43  1  0.181561  0.427829  0.480644  1
  I  I44  1  0.826838  0.573383  0.866949  1
  I  I45  1  0.173162  0.426617  0.133051  1
  I  I46  1  0.528771  0.643630  0.755962  1
  I  I47  1  0.471229  0.356370  0.244038  1
  I  I48  1  0.255529  0.709966  0.651021  1
  I  I49  1  0.744471  0.290034  0.348979  1
  O  O50  1  0.436626  0.226175  0.551698  1
  O  O51  1  0.563374  0.773825  0.448302  1
  O  O52  1  0.428681  0.245937  0.877668  1
  O  O53  1  0.571319  0.754063  0.122332  1
  O  O54  1  0.696352  0.128622  0.664134  1
  O  O55  1  0.303648  0.871378  0.335866  1
  O  O56  1  0.692552  0.145609  0.969820  1
  O  O57  1  0.307448  0.854391  0.030180  1
  O  O58  1  0.844755  0.314403  0.753072  1
  O  O59  1  0.155245  0.685597  0.246928  1
  O  O60  1  0.750736  0.342546  0.995079  1
  O  O61  1  0.249264  0.657454  0.004921  1
  O  O62  1  0.572454  0.391846  0.675868  1
  O  O63  1  0.427546  0.608154  0.324132  1
