# generated using pymatgen
data_TaS2
_symmetry_space_group_name_H-M   'P 1'
_cell_length_a   12.75809153
_cell_length_b   3.36552443
_cell_length_c   37.83118614
_cell_angle_alpha   89.82654784
_cell_angle_beta   8.70264408
_cell_angle_gamma   97.31996879
_symmetry_Int_Tables_number   1
_chemical_formula_structural   TaS2
_chemical_formula_sum   'Ta2 S4'
_cell_volume   124.65010050
_cell_formula_units_Z   2
loop_
 _symmetry_equiv_pos_site_id
 _symmetry_equiv_pos_as_xyz
  1  'x, y, z'
loop_
 _atom_site_type_symbol
 _atom_site_label
 _atom_site_symmetry_multiplicity
 _atom_site_fract_x
 _atom_site_fract_y
 _atom_site_fract_z
 _atom_site_occupancy
  Ta  Ta0  1  0.029445  0.015983  0.906937  1
  Ta  Ta1  1  0.002125  0.000050  0.082396  1
  S  S2  1  0.995963  0.990829  0.791850  1
  S  S3  1  0.026314  0.021720  0.200617  1
  S  S4  1  0.998742  0.003576  0.376142  1
  S  S5  1  0.024656  0.009573  0.615896  1
