# generated using pymatgen
data_Li5Fe2P2(CO7)2
_symmetry_space_group_name_H-M   'P 1'
_cell_length_a   8.43464866
_cell_length_b   5.04697900
_cell_length_c   6.49638817
_cell_angle_alpha   90.00000000
_cell_angle_beta   90.00000000
_cell_angle_gamma   85.22058306
_symmetry_Int_Tables_number   1
_chemical_formula_structural   Li5Fe2P2(CO7)2
_chemical_formula_sum   'Li5 Fe2 P2 C2 O14'
_cell_volume   275.58636397
_cell_formula_units_Z   1
loop_
 _symmetry_equiv_pos_site_id
 _symmetry_equiv_pos_as_xyz
  1  'x, y, z'
loop_
 _atom_site_type_symbol
 _atom_site_label
 _atom_site_symmetry_multiplicity
 _atom_site_fract_x
 _atom_site_fract_y
 _atom_site_fract_z
 _atom_site_occupancy
  Li  Li0  1  0.259570  0.249398  0.016989  1
  Li  Li1  1  0.259570  0.249398  0.483011  1
  Li  Li2  1  0.741066  0.746248  0.514618  1
  Li  Li3  1  0.741066  0.746248  0.985382  1
  Li  Li4  1  0.910065  0.235638  0.750000  1
  Fe  Fe5  1  0.337122  0.787941  0.750000  1
  Fe  Fe6  1  0.663563  0.210895  0.250000  1
  P  P7  1  0.417692  0.736812  0.250000  1
  P  P8  1  0.585152  0.286093  0.750000  1
  C  C9  1  0.036909  0.698193  0.750000  1
  C  C10  1  0.953726  0.284988  0.250000  1
  O  O11  1  0.073508  0.941498  0.750000  1
  O  O12  1  0.098972  0.328161  0.250000  1
  O  O13  1  0.150992  0.507686  0.750000  1
  O  O14  1  0.325192  0.837025  0.059767  1
  O  O15  1  0.325192  0.837025  0.440233  1
  O  O16  1  0.418190  0.186604  0.750000  1
  O  O17  1  0.447431  0.422149  0.250000  1
  O  O18  1  0.574291  0.594671  0.750000  1
  O  O19  1  0.589898  0.838602  0.250000  1
  O  O20  1  0.687823  0.177239  0.562282  1
  O  O21  1  0.687823  0.177239  0.937718  1
  O  O22  1  0.837072  0.481501  0.250000  1
  O  O23  1  0.890434  0.638359  0.750000  1
  O  O24  1  0.900752  0.049645  0.250000  1
