# generated using pymatgen
data_Na4MgO3
_symmetry_space_group_name_H-M   'P 1'
_cell_length_a   6.33277707
_cell_length_b   6.33277707
_cell_length_c   8.11419011
_cell_angle_alpha   70.29970274
_cell_angle_beta   109.70029726
_cell_angle_gamma   124.05927005
_symmetry_Int_Tables_number   1
_chemical_formula_structural   Na4MgO3
_chemical_formula_sum   'Na8 Mg2 O6'
_cell_volume   249.18041989
_cell_formula_units_Z   2
loop_
 _symmetry_equiv_pos_site_id
 _symmetry_equiv_pos_as_xyz
  1  'x, y, z'
loop_
 _atom_site_type_symbol
 _atom_site_label
 _atom_site_symmetry_multiplicity
 _atom_site_fract_x
 _atom_site_fract_y
 _atom_site_fract_z
 _atom_site_occupancy
  Na  Na0  1  0.514084  0.921735  0.839005  1
  Na  Na1  1  0.078265  0.485916  0.339005  1
  Na  Na2  1  0.731874  0.971833  0.538025  1
  Na  Na3  1  0.968845  0.732609  0.931827  1
  Na  Na4  1  0.028167  0.268126  0.038025  1
  Na  Na5  1  0.267391  0.031155  0.431827  1
  Na  Na6  1  0.879046  0.448265  0.637569  1
  Na  Na7  1  0.551735  0.120954  0.137569  1
  Mg  Mg8  1  0.336707  0.380558  0.752744  1
  Mg  Mg9  1  0.619442  0.663293  0.252744  1
  O  O10  1  0.321078  0.685872  0.602103  1
  O  O11  1  0.314128  0.678922  0.102103  1
  O  O12  1  0.641436  0.346645  0.847741  1
  O  O13  1  0.653355  0.358564  0.347741  1
  O  O14  1  0.993699  0.114131  0.803356  1
  O  O15  1  0.885869  0.006301  0.303356  1
