# generated using pymatgen
data_Li3Mn2P2(CO7)2
_symmetry_space_group_name_H-M   'P 1'
_cell_length_a   8.28602202
_cell_length_b   8.25806900
_cell_length_c   8.20198597
_cell_angle_alpha   75.81646750
_cell_angle_beta   86.93651899
_cell_angle_gamma   92.45337552
_symmetry_Int_Tables_number   1
_chemical_formula_structural   Li3Mn2P2(CO7)2
_chemical_formula_sum   'Li6 Mn4 P4 C4 O28'
_cell_volume   542.44065905
_cell_formula_units_Z   2
loop_
 _symmetry_equiv_pos_site_id
 _symmetry_equiv_pos_as_xyz
  1  'x, y, z'
loop_
 _atom_site_type_symbol
 _atom_site_label
 _atom_site_symmetry_multiplicity
 _atom_site_fract_x
 _atom_site_fract_y
 _atom_site_fract_z
 _atom_site_occupancy
  Li  Li0  1  0.734950  0.114102  0.857782  1
  Li  Li1  1  0.728639  0.591462  0.357602  1
  Li  Li2  1  0.738667  0.883505  0.637813  1
  Li  Li3  1  0.266499  0.619076  0.847360  1
  Li  Li4  1  0.267000  0.105072  0.370560  1
  Li  Li5  1  0.094785  0.239914  0.003609  1
  Mn  Mn6  1  0.666917  0.025432  0.227077  1
  Mn  Mn7  1  0.671765  0.520562  0.731536  1
  Mn  Mn8  1  0.332428  0.480081  0.275060  1
  Mn  Mn9  1  0.325998  0.980992  0.777239  1
  P  P10  1  0.580308  0.233410  0.506706  1
  P  P11  1  0.577841  0.744559  0.011871  1
  P  P12  1  0.418917  0.269439  0.988446  1
  P  P13  1  0.422423  0.759610  0.485714  1
  C  C14  1  0.951791  0.474653  0.775570  1
  C  C15  1  0.954231  0.981671  0.272945  1
  C  C16  1  0.043073  0.012257  0.726846  1
  C  C17  1  0.049333  0.523414  0.231501  1
  O  O18  1  0.902648  0.597622  0.659428  1
  O  O19  1  0.906581  0.096052  0.145366  1
  O  O20  1  0.896287  0.037695  0.705478  1
  O  O21  1  0.831478  0.367363  0.851476  1
  O  O22  1  0.906387  0.556384  0.213314  1
  O  O23  1  0.829033  0.888307  0.360111  1
  O  O24  1  0.675391  0.380009  0.545470  1
  O  O25  1  0.686427  0.701947  0.873332  1
  O  O26  1  0.688827  0.171093  0.377015  1
  O  O27  1  0.676293  0.889482  0.061183  1
  O  O28  1  0.546576  0.086264  0.669988  1
  O  O29  1  0.591091  0.700368  0.544269  1
  O  O30  1  0.579537  0.192270  0.045407  1
  O  O31  1  0.543265  0.595003  0.171532  1
  O  O32  1  0.462000  0.432563  0.848937  1
  O  O33  1  0.415202  0.284743  0.436139  1
  O  O34  1  0.412882  0.799036  0.945728  1
  O  O35  1  0.460253  0.925057  0.341521  1
  O  O36  1  0.303362  0.149985  0.929395  1
  O  O37  1  0.318726  0.799676  0.628227  1
  O  O38  1  0.323511  0.624929  0.426630  1
  O  O39  1  0.312764  0.313300  0.134026  1
  O  O40  1  0.162667  0.099762  0.627346  1
  O  O41  1  0.093707  0.456273  0.819622  1
  O  O42  1  0.172610  0.605801  0.130989  1
  O  O43  1  0.096459  0.965174  0.309584  1
  O  O44  1  0.102103  0.404251  0.351188  1
  O  O45  1  0.094585  0.901272  0.852621  1
