# generated using pymatgen
data_Li3Mn2(FeO4)2
_symmetry_space_group_name_H-M   'P 1'
_cell_length_a   5.93866840
_cell_length_b   5.90097962
_cell_length_c   5.88394316
_cell_angle_alpha   59.06299540
_cell_angle_beta   59.62832694
_cell_angle_gamma   88.14758016
_symmetry_Int_Tables_number   1
_chemical_formula_structural   Li3Mn2(FeO4)2
_chemical_formula_sum   'Li3 Mn2 Fe2 O8'
_cell_volume   145.19335017
_cell_formula_units_Z   1
loop_
 _symmetry_equiv_pos_site_id
 _symmetry_equiv_pos_as_xyz
  1  'x, y, z'
loop_
 _atom_site_type_symbol
 _atom_site_label
 _atom_site_symmetry_multiplicity
 _atom_site_fract_x
 _atom_site_fract_y
 _atom_site_fract_z
 _atom_site_occupancy
  Li  Li0  1  0.000000  0.500000  0.000000  1
  Li  Li1  1  0.500000  0.000000  0.500000  1
  Li  Li2  1  0.500000  0.500000  0.000000  1
  Mn  Mn3  1  0.000000  0.500000  0.500000  1
  Mn  Mn4  1  0.500000  0.000000  0.000000  1
  Fe  Fe5  1  0.000000  0.000000  0.500000  1
  Fe  Fe6  1  0.000000  0.000000  0.000000  1
  O  O7  1  0.221683  0.731610  0.031098  1
  O  O8  1  0.763465  0.790660  0.981778  1
  O  O9  1  0.233453  0.746967  0.482906  1
  O  O10  1  0.215434  0.238459  0.523331  1
  O  O11  1  0.784566  0.761541  0.476669  1
  O  O12  1  0.766547  0.253033  0.517094  1
  O  O13  1  0.236535  0.209340  0.018222  1
  O  O14  1  0.778317  0.268390  0.968901  1
