# generated using pymatgen
data_Li9Fe7(PO4)12
_symmetry_space_group_name_H-M   'P 1'
_cell_length_a   8.68159184
_cell_length_b   8.81746000
_cell_length_c   12.25038863
_cell_angle_alpha   89.88464063
_cell_angle_beta   90.10387934
_cell_angle_gamma   89.98604649
_symmetry_Int_Tables_number   1
_chemical_formula_structural   Li9Fe7(PO4)12
_chemical_formula_sum   'Li9 Fe7 P12 O48'
_cell_volume   937.75874144
_cell_formula_units_Z   1
loop_
 _symmetry_equiv_pos_site_id
 _symmetry_equiv_pos_as_xyz
  1  'x, y, z'
loop_
 _atom_site_type_symbol
 _atom_site_label
 _atom_site_symmetry_multiplicity
 _atom_site_fract_x
 _atom_site_fract_y
 _atom_site_fract_z
 _atom_site_occupancy
  Li  Li0  1  0.217223  0.722263  0.181881  1
  Li  Li1  1  0.216574  0.778721  0.818493  1
  Li  Li2  1  0.283183  0.221357  0.317598  1
  Li  Li3  1  0.284399  0.278835  0.681433  1
  Li  Li4  1  0.716655  0.721422  0.319313  1
  Li  Li5  1  0.718762  0.768698  0.681661  1
  Li  Li6  1  0.748308  0.462104  0.616438  1
  Li  Li7  1  0.784355  0.221910  0.180793  1
  Li  Li8  1  0.782839  0.279236  0.813690  1
  Fe  Fe9  1  0.249518  0.961906  0.613574  1
  Fe  Fe10  1  0.247934  0.541285  0.386691  1
  Fe  Fe11  1  0.251027  0.040858  0.112935  1
  Fe  Fe12  1  0.251031  0.458806  0.887963  1
  Fe  Fe13  1  0.749003  0.540679  0.113768  1
  Fe  Fe14  1  0.748986  0.958851  0.885947  1
  Fe  Fe15  1  0.750541  0.040282  0.386781  1
  P  P16  1  0.105682  0.393142  0.147191  1
  P  P17  1  0.105342  0.107619  0.852419  1
  P  P18  1  0.392436  0.610593  0.646433  1
  P  P19  1  0.394001  0.892942  0.353786  1
  P  P20  1  0.605144  0.100462  0.648151  1
  P  P21  1  0.606133  0.392405  0.350660  1
  P  P22  1  0.895062  0.608410  0.856377  1
  P  P23  1  0.893744  0.892960  0.147007  1
  P  P24  1  0.040665  0.247810  0.498182  1
  P  P25  1  0.460387  0.749990  0.000439  1
  P  P26  1  0.539769  0.249761  0.999420  1
  P  P27  1  0.963457  0.752557  0.498453  1
  O  O28  1  0.059058  0.646168  0.427271  1
  O  O29  1  0.058718  0.859780  0.571552  1
  O  O30  1  0.072273  0.895571  0.155649  1
  O  O31  1  0.073530  0.605106  0.846327  1
  O  O32  1  0.147577  0.160634  0.580722  1
  O  O33  1  0.148134  0.336977  0.420409  1
  O  O34  1  0.156293  0.434492  0.030971  1
  O  O35  1  0.156376  0.065390  0.968374  1
  O  O36  1  0.162412  0.232594  0.179869  1
  O  O37  1  0.162586  0.267898  0.819735  1
  O  O38  1  0.174451  0.513548  0.226092  1
  O  O39  1  0.174411  0.986105  0.772368  1
  O  O40  1  0.325763  0.012982  0.274476  1
  O  O41  1  0.323051  0.489848  0.725525  1
  O  O42  1  0.329621  0.771203  0.678388  1
  O  O43  1  0.338601  0.732215  0.320818  1
  O  O44  1  0.343231  0.567342  0.530098  1
  O  O45  1  0.343331  0.934971  0.470825  1
  O  O46  1  0.352469  0.837381  0.079397  1
  O  O47  1  0.352733  0.662763  0.920716  1
  O  O48  1  0.424970  0.100460  0.655359  1
  O  O49  1  0.427813  0.395972  0.343295  1
  O  O50  1  0.443776  0.142844  0.070776  1
  O  O51  1  0.443456  0.357032  0.928493  1
  O  O52  1  0.556162  0.642380  0.071545  1
  O  O53  1  0.556476  0.857203  0.929548  1
  O  O54  1  0.567606  0.610932  0.656802  1
  O  O55  1  0.572296  0.895538  0.345396  1
  O  O56  1  0.647809  0.337110  0.078816  1
  O  O57  1  0.647513  0.162813  0.920095  1
  O  O58  1  0.656785  0.063020  0.531276  1
  O  O59  1  0.657131  0.435887  0.466921  1
  O  O60  1  0.661607  0.231811  0.319314  1
  O  O61  1  0.658937  0.259785  0.679926  1
  O  O62  1  0.675135  0.512508  0.271939  1
  O  O63  1  0.672505  0.977710  0.725837  1
  O  O64  1  0.825838  0.013369  0.225922  1
  O  O65  1  0.827244  0.487209  0.780316  1
  O  O66  1  0.837330  0.732838  0.180537  1
  O  O67  1  0.840079  0.768376  0.822561  1
  O  O68  1  0.846388  0.570521  0.973595  1
  O  O69  1  0.842660  0.934956  0.031016  1
  O  O70  1  0.857308  0.667433  0.578641  1
  O  O71  1  0.855181  0.839149  0.418741  1
  O  O72  1  0.927183  0.104661  0.843632  1
  O  O73  1  0.927559  0.395377  0.156493  1
  O  O74  1  0.944508  0.141164  0.427132  1
  O  O75  1  0.941969  0.353106  0.569013  1
