# generated using pymatgen
data_K4Li5Mn2O8
_symmetry_space_group_name_H-M   'P 1'
_cell_length_a   5.55544234
_cell_length_b   8.92256512
_cell_length_c   10.95176933
_cell_angle_alpha   89.09500177
_cell_angle_beta   79.98530190
_cell_angle_gamma   90.05913518
_symmetry_Int_Tables_number   1
_chemical_formula_structural   K4Li5Mn2O8
_chemical_formula_sum   'K8 Li10 Mn4 O16'
_cell_volume   534.52384353
_cell_formula_units_Z   2
loop_
 _symmetry_equiv_pos_site_id
 _symmetry_equiv_pos_as_xyz
  1  'x, y, z'
loop_
 _atom_site_type_symbol
 _atom_site_label
 _atom_site_symmetry_multiplicity
 _atom_site_fract_x
 _atom_site_fract_y
 _atom_site_fract_z
 _atom_site_occupancy
  K  K0  1  0.074781  0.990341  0.151179  1
  K  K1  1  0.166094  0.238540  0.635751  1
  K  K2  1  0.330558  0.507483  0.370120  1
  K  K3  1  0.403152  0.761999  0.853315  1
  K  K4  1  0.624833  0.240290  0.157270  1
  K  K5  1  0.710433  0.531170  0.647976  1
  K  K6  1  0.834264  0.767696  0.371798  1
  K  K7  1  0.934028  0.963656  0.815891  1
  Li  Li8  1  0.098688  0.253504  0.305327  1
  Li  Li9  1  0.100307  0.528053  0.800949  1
  Li  Li10  1  0.310304  0.513974  0.074226  1
  Li  Li11  1  0.229234  0.016837  0.423182  1
  Li  Li12  1  0.410710  0.757730  0.197504  1
  Li  Li13  1  0.592449  0.237714  0.798888  1
  Li  Li14  1  0.530902  0.023411  0.994442  1
  Li  Li15  1  0.686099  0.472795  0.933737  1
  Li  Li16  1  0.779068  0.985280  0.564778  1
  Li  Li17  1  0.910590  0.481874  0.201473  1
  Mn  Mn18  1  0.154364  0.287621  0.953171  1
  Mn  Mn19  1  0.840584  0.699453  0.050237  1
  Mn  Mn20  1  0.681715  0.227277  0.446965  1
  Mn  Mn21  1  0.299339  0.780633  0.554971  1
  O  O22  1  0.096677  0.679442  0.150527  1
  O  O23  1  0.150684  0.307339  0.128779  1
  O  O24  1  0.108068  0.940337  0.589178  1
  O  O25  1  0.216702  0.594422  0.623778  1
  O  O26  1  0.333596  0.805268  0.381911  1
  O  O27  1  0.323338  0.097016  0.903656  1
  O  O28  1  0.394332  0.216992  0.388269  1
  O  O29  1  0.354843  0.457141  0.891918  1
  O  O30  1  0.633535  0.535947  0.119301  1
  O  O31  1  0.584475  0.805581  0.606640  1
  O  O32  1  0.668566  0.894484  0.085073  1
  O  O33  1  0.675363  0.196987  0.612281  1
  O  O34  1  0.819606  0.398736  0.370309  1
  O  O35  1  0.897413  0.081962  0.385844  1
  O  O36  1  0.847940  0.669150  0.882001  1
  O  O37  1  0.893481  0.304762  0.859388  1
