# generated using pymatgen
data_Li13Mn3Nb2O16
_symmetry_space_group_name_H-M   'P 1'
_cell_length_a   6.08897735
_cell_length_b   6.02469992
_cell_length_c   9.99811444
_cell_angle_alpha   88.95392107
_cell_angle_beta   89.99831326
_cell_angle_gamma   120.35420337
_symmetry_Int_Tables_number   1
_chemical_formula_structural   Li13Mn3Nb2O16
_chemical_formula_sum   'Li13 Mn3 Nb2 O16'
_cell_volume   316.42440088
_cell_formula_units_Z   1
loop_
 _symmetry_equiv_pos_site_id
 _symmetry_equiv_pos_as_xyz
  1  'x, y, z'
loop_
 _atom_site_type_symbol
 _atom_site_label
 _atom_site_symmetry_multiplicity
 _atom_site_fract_x
 _atom_site_fract_y
 _atom_site_fract_z
 _atom_site_occupancy
  Li  Li0  1  0.003108  0.006246  0.017475  1
  Li  Li1  1  0.123417  0.246859  0.502083  1
  Li  Li2  1  0.346013  0.086085  0.225702  1
  Li  Li3  1  0.163232  0.326445  0.256132  1
  Li  Li4  1  0.172792  0.345608  0.743282  1
  Li  Li5  1  0.416304  0.240966  0.975258  1
  Li  Li6  1  0.740082  0.086112  0.225700  1
  Li  Li7  1  0.824630  0.240957  0.975256  1
  Li  Li8  1  0.669193  0.338407  0.750639  1
  Li  Li9  1  0.324825  0.649640  0.402211  1
  Li  Li10  1  0.119941  0.834275  0.457107  1
  Li  Li11  1  0.714339  0.834270  0.457100  1
  Li  Li12  1  0.818467  0.636965  0.943237  1
  Mn  Mn13  1  0.167595  0.829507  0.720361  1
  Mn  Mn14  1  0.661862  0.829516  0.720360  1
  Mn  Mn15  1  0.820243  0.640521  0.219563  1
  Nb  Nb16  1  0.649853  0.299695  0.480676  1
  Nb  Nb17  1  0.344550  0.689129  0.990557  1
  O  O18  1  0.334729  0.141989  0.599119  1
  O  O19  1  0.171884  0.343814  0.065828  1
  O  O20  1  0.496919  0.993844  0.368465  1
  O  O21  1  0.031742  0.535647  0.849087  1
  O  O22  1  0.807237  0.141988  0.599124  1
  O  O23  1  0.157831  0.821793  0.088197  1
  O  O24  1  0.489837  0.462867  0.360927  1
  O  O25  1  0.672757  0.345544  0.112925  1
  O  O26  1  0.340644  0.681339  0.621067  1
  O  O27  1  0.503863  0.535643  0.849088  1
  O  O28  1  0.973046  0.462828  0.360949  1
  O  O29  1  0.663914  0.821820  0.088191  1
  O  O30  1  0.504853  0.009747  0.866158  1
  O  O31  1  0.815112  0.630250  0.587505  1
  O  O32  1  0.981662  0.963317  0.319112  1
  O  O33  1  0.983972  0.968001  0.820044  1
