# generated using pymatgen
data_Co2OF3
_symmetry_space_group_name_H-M   'P 1'
_cell_length_a   4.67819880
_cell_length_b   13.40976967
_cell_length_c   5.61950883
_cell_angle_alpha   101.22816723
_cell_angle_beta   91.64780209
_cell_angle_gamma   88.72444095
_symmetry_Int_Tables_number   1
_chemical_formula_structural   Co2OF3
_chemical_formula_sum   'Co10 O5 F15'
_cell_volume   345.59131939
_cell_formula_units_Z   5
loop_
 _symmetry_equiv_pos_site_id
 _symmetry_equiv_pos_as_xyz
  1  'x, y, z'
loop_
 _atom_site_type_symbol
 _atom_site_label
 _atom_site_symmetry_multiplicity
 _atom_site_fract_x
 _atom_site_fract_y
 _atom_site_fract_z
 _atom_site_occupancy
  Co  Co0  1  0.458708  0.015656  0.498877  1
  Co  Co1  1  0.496575  0.402746  0.299167  1
  Co  Co2  1  0.505771  0.600626  0.700341  1
  Co  Co3  1  0.497920  0.198116  0.903113  1
  Co  Co4  1  0.553582  0.793987  0.093172  1
  Co  Co5  1  0.000185  0.399648  0.799852  1
  Co  Co6  1  0.993005  0.802295  0.614854  1
  Co  Co7  1  0.973878  0.203611  0.383135  1
  Co  Co8  1  0.017481  0.601145  0.202607  1
  Co  Co9  1  0.982553  0.990825  0.002857  1
  O  O10  1  0.803947  0.854362  0.928138  1
  O  O11  1  0.716435  0.652858  0.008526  1
  O  O12  1  0.696114  0.262093  0.223912  1
  O  O13  1  0.287375  0.138290  0.566461  1
  O  O14  1  0.305117  0.545208  0.388636  1
  F  F15  1  0.801541  0.259933  0.717611  1
  F  F16  1  0.791523  0.060344  0.318175  1
  F  F17  1  0.814181  0.462201  0.123764  1
  F  F18  1  0.804262  0.662358  0.510309  1
  F  F19  1  0.692732  0.056894  0.808435  1
  F  F20  1  0.694669  0.463559  0.623523  1
  F  F21  1  0.688525  0.868807  0.431037  1
  F  F22  1  0.311860  0.734505  0.781497  1
  F  F23  1  0.308173  0.936247  0.185666  1
  F  F24  1  0.303005  0.339531  0.982493  1
  F  F25  1  0.185009  0.134217  0.075229  1
  F  F26  1  0.200619  0.938758  0.683235  1
  F  F27  1  0.208467  0.538394  0.884619  1
  F  F28  1  0.212979  0.743457  0.280855  1
  F  F29  1  0.193809  0.339330  0.479901  1
