# generated using pymatgen
data_Li5V3P8O29
_symmetry_space_group_name_H-M   'P 1'
_cell_length_a   9.79916416
_cell_length_b   9.79979824
_cell_length_c   14.01313370
_cell_angle_alpha   90.50674547
_cell_angle_beta   90.29498881
_cell_angle_gamma   59.97577442
_symmetry_Int_Tables_number   1
_chemical_formula_structural   Li5V3P8O29
_chemical_formula_sum   'Li10 V6 P16 O58'
_cell_volume   1165.06152032
_cell_formula_units_Z   2
loop_
 _symmetry_equiv_pos_site_id
 _symmetry_equiv_pos_as_xyz
  1  'x, y, z'
loop_
 _atom_site_type_symbol
 _atom_site_label
 _atom_site_symmetry_multiplicity
 _atom_site_fract_x
 _atom_site_fract_y
 _atom_site_fract_z
 _atom_site_occupancy
  Li  Li0  1  0.772780  0.905622  0.555832  1
  Li  Li1  1  0.906817  0.325414  0.559492  1
  Li  Li2  1  0.671742  0.672465  0.889403  1
  Li  Li3  1  0.763041  0.327593  0.062456  1
  Li  Li4  1  0.319178  0.911999  0.062569  1
  Li  Li5  1  0.683118  0.223668  0.437764  1
  Li  Li6  1  0.311189  0.773386  0.558215  1
  Li  Li7  1  0.231945  0.663491  0.944640  1
  Li  Li8  1  0.228176  0.090680  0.439043  1
  Li  Li9  1  0.957385  0.005828  0.999762  1
  V  V10  1  0.566449  0.433269  0.252173  1
  V  V11  1  0.430166  0.568294  0.745835  1
  V  V12  1  0.566815  0.002023  0.755368  1
  V  V13  1  0.437123  0.000715  0.245096  1
  V  V14  1  0.999116  0.569364  0.247106  1
  V  V15  1  0.007011  0.431258  0.753070  1
  P  P16  1  0.916307  0.777457  0.843438  1
  P  P17  1  0.770810  0.910350  0.339522  1
  P  P18  1  0.914761  0.320868  0.344022  1
  P  P19  1  0.668517  0.663108  0.127564  1
  P  P20  1  0.667888  0.666633  0.629588  1
  P  P21  1  0.774548  0.319362  0.842328  1
  P  P22  1  0.683933  0.228803  0.658865  1
  P  P23  1  0.316563  0.908589  0.843515  1
  P  P24  1  0.693132  0.084836  0.156772  1
  P  P25  1  0.319787  0.772283  0.341689  1
  P  P26  1  0.226945  0.684766  0.160198  1
  P  P27  1  0.330860  0.332872  0.369750  1
  P  P28  1  0.333380  0.336148  0.872995  1
  P  P29  1  0.081408  0.686136  0.655455  1
  P  P30  1  0.232752  0.086527  0.659964  1
  P  P31  1  0.081421  0.226130  0.158280  1
  O  O32  1  0.989269  0.763757  0.568827  1
  O  O33  1  0.916976  0.743986  0.333329  1
  O  O34  1  0.794290  0.006048  0.073279  1
  O  O35  1  0.745758  0.912857  0.842166  1
  O  O36  1  0.908679  0.620908  0.831778  1
  O  O37  1  0.812623  0.669138  0.173358  1
  O  O38  1  0.903607  0.479913  0.323320  1
  O  O39  1  0.987252  0.215487  0.077402  1
  O  O40  1  0.919171  0.344195  0.832295  1
  O  O41  1  0.667131  0.816673  0.672641  1
  O  O42  1  0.621962  0.898208  0.319586  1
  O  O43  1  0.815525  0.517251  0.674470  1
  O  O44  1  0.674148  0.660322  0.020346  1
  O  O45  1  0.674535  0.660126  0.523487  1
  O  O46  1  0.675471  0.510010  0.164292  1
  O  O47  1  0.483401  0.888760  0.830376  1
  O  O48  1  0.512718  0.810881  0.163010  1
  O  O49  1  0.749329  0.336598  0.343447  1
  O  O50  1  0.791693  0.210080  0.750846  1
  O  O51  1  0.756516  0.247421  0.569467  1
  O  O52  1  0.785026  0.233960  0.932034  1
  O  O53  1  0.625140  0.482453  0.829779  1
  O  O54  1  0.512740  0.672460  0.667039  1
  O  O55  1  0.656507  0.259435  0.164810  1
  O  O56  1  0.480134  0.620911  0.319614  1
  O  O57  1  0.340526  0.918792  0.336822  1
  O  O58  1  0.790510  0.007664  0.254712  1
  O  O59  1  0.757809  0.996664  0.431358  1
  O  O60  1  0.237404  0.000037  0.569999  1
  O  O61  1  0.666324  0.082077  0.658209  1
  O  O62  1  0.523040  0.379542  0.679857  1
  O  O63  1  0.336779  0.739848  0.836023  1
  O  O64  1  0.485461  0.329268  0.334514  1
  O  O65  1  0.379824  0.527905  0.171675  1
  O  O66  1  0.221626  0.773226  0.071113  1
  O  O67  1  0.249926  0.760636  0.432475  1
  O  O68  1  0.206854  0.794128  0.251647  1
  O  O69  1  0.250249  0.663323  0.656349  1
  O  O70  1  0.479993  0.185416  0.829241  1
  O  O71  1  0.538140  0.081581  0.165167  1
  O  O72  1  0.329251  0.486258  0.833825  1
  O  O73  1  0.320183  0.338888  0.978011  1
  O  O74  1  0.319925  0.336327  0.475593  1
  O  O75  1  0.184976  0.475974  0.319077  1
  O  O76  1  0.381616  0.096849  0.676046  1
  O  O77  1  0.332092  0.182622  0.327346  1
  O  O78  1  0.083617  0.658906  0.164836  1
  O  O79  1  0.998538  0.794325  0.748301  1
  O  O80  1  0.009257  0.781653  0.926842  1
  O  O81  1  0.091555  0.526015  0.678409  1
  O  O82  1  0.186304  0.333832  0.823045  1
  O  O83  1  0.079909  0.383715  0.169206  1
  O  O84  1  0.253381  0.085633  0.157442  1
  O  O85  1  0.235567  0.985277  0.934077  1
  O  O86  1  0.210933  0.998679  0.751442  1
  O  O87  1  0.082771  0.253992  0.661791  1
  O  O88  1  0.002478  0.247015  0.434990  1
  O  O89  1  0.009580  0.203529  0.257418  1
