# generated using pymatgen
data_DyGaO3
_symmetry_space_group_name_H-M   'P 1'
_cell_length_a   5.30395863
_cell_length_b   5.59509072
_cell_length_c   7.64093833
_cell_angle_alpha   90.00000000
_cell_angle_beta   90.00000000
_cell_angle_gamma   90.00000000
_symmetry_Int_Tables_number   1
_chemical_formula_structural   DyGaO3
_chemical_formula_sum   'Dy4 Ga4 O12'
_cell_volume   226.75347699
_cell_formula_units_Z   4
loop_
 _symmetry_equiv_pos_site_id
 _symmetry_equiv_pos_as_xyz
  1  'x, y, z'
loop_
 _atom_site_type_symbol
 _atom_site_label
 _atom_site_symmetry_multiplicity
 _atom_site_fract_x
 _atom_site_fract_y
 _atom_site_fract_z
 _atom_site_occupancy
  Dy  Dy0  1  0.019391  0.067146  0.009163  1
  Dy  Dy1  1  0.480609  0.567146  0.009163  1
  Dy  Dy2  1  0.519391  0.432854  0.509163  1
  Dy  Dy3  1  0.980609  0.932854  0.509163  1
  Ga  Ga4  1  0.000036  0.499788  0.759084  1
  Ga  Ga5  1  0.499964  0.999788  0.759084  1
  Ga  Ga6  1  0.500036  0.000212  0.259084  1
  Ga  Ga7  1  0.999964  0.500212  0.259084  1
  O  O8  1  0.111638  0.539802  0.509079  1
  O  O9  1  0.195027  0.803020  0.816240  1
  O  O10  1  0.195257  0.803040  0.201805  1
  O  O11  1  0.304743  0.303040  0.201805  1
  O  O12  1  0.304973  0.303020  0.816240  1
  O  O13  1  0.388362  0.039802  0.509079  1
  O  O14  1  0.611638  0.960198  0.009079  1
  O  O15  1  0.695027  0.696980  0.316240  1
  O  O16  1  0.695257  0.696960  0.701805  1
  O  O17  1  0.804743  0.196960  0.701805  1
  O  O18  1  0.804973  0.196980  0.316240  1
  O  O19  1  0.888362  0.460198  0.009079  1
