# generated using pymatgen
data_K3Nb4Mo4(PO4)12
_symmetry_space_group_name_H-M   'P 1'
_cell_length_a   9.06052094
_cell_length_b   10.39570627
_cell_length_c   12.15110939
_cell_angle_alpha   90.32780122
_cell_angle_beta   89.65625120
_cell_angle_gamma   89.12066829
_symmetry_Int_Tables_number   1
_chemical_formula_structural   K3Nb4Mo4(PO4)12
_chemical_formula_sum   'K3 Nb4 Mo4 P12 O48'
_cell_volume   1144.34452091
_cell_formula_units_Z   1
loop_
 _symmetry_equiv_pos_site_id
 _symmetry_equiv_pos_as_xyz
  1  'x, y, z'
loop_
 _atom_site_type_symbol
 _atom_site_label
 _atom_site_symmetry_multiplicity
 _atom_site_fract_x
 _atom_site_fract_y
 _atom_site_fract_z
 _atom_site_occupancy
  K  K0  1  0.133973  0.838463  0.753336  1
  K  K1  1  0.829196  0.161447  0.254806  1
  K  K2  1  0.804869  0.333624  0.752658  1
  Nb  Nb3  1  0.215371  0.989908  0.097665  1
  Nb  Nb4  1  0.224498  0.008949  0.444022  1
  Nb  Nb5  1  0.219851  0.483167  0.561520  1
  Nb  Nb6  1  0.769862  0.497774  0.096314  1
  Mo  Mo7  1  0.244110  0.495220  0.895661  1
  Mo  Mo8  1  0.774060  0.520994  0.417137  1
  Mo  Mo9  1  0.773107  0.984262  0.598970  1
  Mo  Mo10  1  0.757984  0.003056  0.910339  1
  P  P11  1  0.002319  0.739125  0.990345  1
  P  P12  1  0.022828  0.753380  0.497303  1
  P  P13  1  0.545080  0.346909  0.009477  1
  P  P14  1  0.537485  0.143698  0.014362  1
  P  P15  1  0.555225  0.335034  0.543931  1
  P  P16  1  0.546255  0.130046  0.487914  1
  P  P17  1  0.440122  0.643536  0.409086  1
  P  P18  1  0.472660  0.872945  0.592882  1
  P  P19  1  0.450368  0.645909  0.996319  1
  P  P20  1  0.439134  0.849608  0.998270  1
  P  P21  1  0.996753  0.253718  0.992127  1
  P  P22  1  0.977311  0.250197  0.506560  1
  O  O23  1  0.092578  0.145370  0.049278  1
  O  O24  1  0.072165  0.156242  0.431543  1
  O  O25  1  0.089980  0.356065  0.932545  1
  O  O26  1  0.069862  0.337205  0.586182  1
  O  O27  1  0.091564  0.822433  0.073287  1
  O  O28  1  0.125851  0.838157  0.422828  1
  O  O29  1  0.115233  0.660917  0.574615  1
  O  O30  1  0.102260  0.655534  0.911301  1
  O  O31  1  0.229007  0.031482  0.262940  1
  O  O32  1  0.229723  0.485964  0.750408  1
  O  O33  1  0.301387  0.914560  0.943028  1
  O  O34  1  0.210446  0.032436  0.593174  1
  O  O35  1  0.192238  0.469067  0.413346  1
  O  O36  1  0.317683  0.577957  0.050289  1
  O  O37  1  0.192094  0.074743  0.694823  1
  O  O38  1  0.167970  0.456040  0.308875  1
  O  O39  1  0.384498  0.122625  0.066545  1
  O  O40  1  0.403013  0.127230  0.419821  1
  O  O41  1  0.395061  0.365783  0.949807  1
  O  O42  1  0.386600  0.351643  0.573905  1
  O  O43  1  0.406992  0.883652  0.123270  1
  O  O44  1  0.411325  0.883866  0.471566  1
  O  O45  1  0.407354  0.602656  0.531205  1
  O  O46  1  0.433771  0.608983  0.872186  1
  O  O47  1  0.535871  0.058288  0.604788  1
  O  O48  1  0.572303  0.395272  0.129555  1
  O  O49  1  0.591664  0.400519  0.431372  1
  O  O50  1  0.561554  0.117675  0.889567  1
  O  O51  1  0.606412  0.659208  0.391596  1
  O  O52  1  0.640267  0.831858  0.579339  1
  O  O53  1  0.602890  0.627282  0.050472  1
  O  O54  1  0.586914  0.870159  0.944152  1
  O  O55  1  0.819860  0.580693  0.668226  1
  O  O56  1  0.081611  0.986264  0.227198  1
  O  O57  1  0.678158  0.402530  0.945723  1
  O  O58  1  0.760248  0.520067  0.585816  1
  O  O59  1  0.684211  0.070144  0.433085  1
  O  O60  1  0.669655  0.080058  0.074354  1
  O  O61  1  0.789707  0.512013  0.242516  1
  O  O62  1  0.819928  0.976263  0.747998  1
  O  O63  1  0.908412  0.334095  0.082995  1
  O  O64  1  0.877427  0.168082  0.581399  1
  O  O65  1  0.892796  0.337889  0.426347  1
  O  O66  1  0.897255  0.181086  0.912537  1
  O  O67  1  0.927886  0.672341  0.421533  1
  O  O68  1  0.946811  0.850858  0.574922  1
  O  O69  1  0.909133  0.634662  0.052780  1
  O  O70  1  0.907529  0.831943  0.923958  1
