# generated using pymatgen
data_CrP2H16N3O10
_symmetry_space_group_name_H-M   'P 1'
_cell_length_a   8.43874462
_cell_length_b   10.93383266
_cell_length_c   15.57102530
_cell_angle_alpha   90.00000000
_cell_angle_beta   102.76651090
_cell_angle_gamma   90.00000000
_symmetry_Int_Tables_number   1
_chemical_formula_structural   CrP2H16N3O10
_chemical_formula_sum   'Cr4 P8 H64 N12 O40'
_cell_volume   1401.18735124
_cell_formula_units_Z   4
loop_
 _symmetry_equiv_pos_site_id
 _symmetry_equiv_pos_as_xyz
  1  'x, y, z'
loop_
 _atom_site_type_symbol
 _atom_site_label
 _atom_site_symmetry_multiplicity
 _atom_site_fract_x
 _atom_site_fract_y
 _atom_site_fract_z
 _atom_site_occupancy
  Cr  Cr0  1  0.366658  0.306733  0.576709  1
  Cr  Cr1  1  0.633342  0.806733  0.923291  1
  Cr  Cr2  1  0.633342  0.693267  0.423291  1
  Cr  Cr3  1  0.366658  0.193267  0.076709  1
  P  P4  1  0.639347  0.264252  0.435013  1
  P  P5  1  0.360653  0.764252  0.064987  1
  P  P6  1  0.360653  0.735748  0.564987  1
  P  P7  1  0.639347  0.235748  0.935013  1
  P  P8  1  0.628884  0.082409  0.663491  1
  P  P9  1  0.371116  0.582409  0.836509  1
  P  P10  1  0.371116  0.917591  0.336509  1
  P  P11  1  0.628884  0.417591  0.163491  1
  H  H12  1  0.238721  0.902214  0.443408  1
  H  H13  1  0.761279  0.402214  0.056592  1
  H  H14  1  0.761279  0.097786  0.556592  1
  H  H15  1  0.238721  0.597786  0.943408  1
  H  H16  1  0.200220  0.509447  0.497646  1
  H  H17  1  0.799780  0.009447  0.002354  1
  H  H18  1  0.799780  0.490553  0.502354  1
  H  H19  1  0.200220  0.990553  0.997646  1
  H  H20  1  0.200880  0.407352  0.421682  1
  H  H21  1  0.799120  0.907352  0.078318  1
  H  H22  1  0.799120  0.592648  0.578318  1
  H  H23  1  0.200880  0.092648  0.921682  1
  H  H24  1  0.224691  0.257990  0.707163  1
  H  H25  1  0.775309  0.757990  0.792837  1
  H  H26  1  0.775309  0.742010  0.292837  1
  H  H27  1  0.224691  0.242010  0.207163  1
  H  H28  1  0.178757  0.405377  0.673342  1
  H  H29  1  0.821243  0.905377  0.826658  1
  H  H30  1  0.821243  0.594623  0.326658  1
  H  H31  1  0.178757  0.094623  0.173342  1
  H  H32  1  0.827851  0.289742  0.557964  1
  H  H33  1  0.172149  0.789742  0.942036  1
  H  H34  1  0.172149  0.710258  0.442036  1
  H  H35  1  0.827851  0.210258  0.057964  1
  H  H36  1  0.440850  0.515023  0.654353  1
  H  H37  1  0.559150  0.015023  0.845647  1
  H  H38  1  0.559150  0.484977  0.345647  1
  H  H39  1  0.440850  0.984977  0.154353  1
  H  H40  1  0.559417  0.487875  0.588241  1
  H  H41  1  0.440583  0.987875  0.911759  1
  H  H42  1  0.440583  0.512125  0.411759  1
  H  H43  1  0.559417  0.012125  0.088241  1
  H  H44  1  0.640303  0.412789  0.720209  1
  H  H45  1  0.359697  0.912789  0.779791  1
  H  H46  1  0.359697  0.587211  0.279791  1
  H  H47  1  0.640303  0.087211  0.220209  1
  H  H48  1  0.234729  0.081586  0.521663  1
  H  H49  1  0.765271  0.581586  0.978337  1
  H  H50  1  0.765271  0.918414  0.478337  1
  H  H51  1  0.234729  0.418414  0.021663  1
  H  H52  1  0.238674  0.173129  0.437748  1
  H  H53  1  0.761326  0.673129  0.062252  1
  H  H54  1  0.761326  0.826871  0.562252  1
  H  H55  1  0.238674  0.326871  0.937748  1
  H  H56  1  0.090647  0.187006  0.491347  1
  H  H57  1  0.909353  0.687006  0.008653  1
  H  H58  1  0.909353  0.812994  0.508653  1
  H  H59  1  0.090647  0.312994  0.991347  1
  H  H60  1  0.205254  0.450853  0.287467  1
  H  H61  1  0.794746  0.950853  0.212533  1
  H  H62  1  0.794746  0.549147  0.712533  1
  H  H63  1  0.205254  0.049147  0.787467  1
  H  H64  1  0.043816  0.393839  0.301420  1
  H  H65  1  0.956184  0.893839  0.198580  1
  H  H66  1  0.956184  0.606161  0.698580  1
  H  H67  1  0.043816  0.106161  0.801420  1
  H  H68  1  0.776774  0.317220  0.770726  1
  H  H69  1  0.223226  0.817220  0.729274  1
  H  H70  1  0.223226  0.682780  0.229274  1
  H  H71  1  0.776774  0.182780  0.270726  1
  H  H72  1  0.714203  0.403141  0.877087  1
  H  H73  1  0.285797  0.903141  0.622913  1
  H  H74  1  0.285797  0.596859  0.122913  1
  H  H75  1  0.714203  0.096859  0.377087  1
  N  N76  1  0.233580  0.322722  0.660756  1
  N  N77  1  0.766420  0.822722  0.839244  1
  N  N78  1  0.766420  0.677278  0.339244  1
  N  N79  1  0.233580  0.177278  0.160756  1
  N  N80  1  0.509328  0.446603  0.635129  1
  N  N81  1  0.490672  0.946604  0.864871  1
  N  N82  1  0.490672  0.553396  0.364871  1
  N  N83  1  0.509328  0.053396  0.135129  1
  N  N84  1  0.211625  0.168726  0.498557  1
  N  N85  1  0.788375  0.668726  0.001443  1
  N  N86  1  0.788375  0.831274  0.501443  1
  N  N87  1  0.211625  0.331274  0.998557  1
  O  O88  1  0.509582  0.271622  0.491197  1
  O  O89  1  0.490418  0.771622  0.008803  1
  O  O90  1  0.490418  0.728378  0.508803  1
  O  O91  1  0.509582  0.228378  0.991197  1
  O  O92  1  0.808915  0.325399  0.498385  1
  O  O93  1  0.191085  0.825399  0.001615  1
  O  O94  1  0.191085  0.674601  0.501615  1
  O  O95  1  0.808915  0.174601  0.998385  1
  O  O96  1  0.697134  0.117114  0.438996  1
  O  O97  1  0.302866  0.617114  0.061004  1
  O  O98  1  0.302866  0.882886  0.561004  1
  O  O99  1  0.697134  0.382886  0.938996  1
  O  O100  1  0.775856  0.130781  0.617136  1
  O  O101  1  0.224144  0.630781  0.882864  1
  O  O102  1  0.224144  0.869219  0.382864  1
  O  O103  1  0.775856  0.369219  0.117136  1
  O  O104  1  0.488173  0.173702  0.653261  1
  O  O105  1  0.511827  0.673702  0.846739  1
  O  O106  1  0.511827  0.826298  0.346739  1
  O  O107  1  0.488173  0.326298  0.153261  1
  O  O108  1  0.728308  0.113175  0.768782  1
  O  O109  1  0.271692  0.613175  0.731218  1
  O  O110  1  0.271692  0.886825  0.231218  1
  O  O111  1  0.728308  0.386825  0.268782  1
  O  O112  1  0.873151  0.044396  0.793182  1
  O  O113  1  0.126849  0.544396  0.706818  1
  O  O114  1  0.126849  0.955604  0.206818  1
  O  O115  1  0.873151  0.455604  0.293182  1
  O  O116  1  0.216523  0.421167  0.487876  1
  O  O117  1  0.783477  0.921167  0.012124  1
  O  O118  1  0.783477  0.578833  0.512124  1
  O  O119  1  0.216523  0.078833  0.987876  1
  O  O120  1  0.165754  0.380956  0.317213  1
  O  O121  1  0.834246  0.880956  0.182787  1
  O  O122  1  0.834246  0.619044  0.682787  1
  O  O123  1  0.165754  0.119044  0.817213  1
  O  O124  1  0.739087  0.401559  0.776221  1
  O  O125  1  0.260913  0.901559  0.723779  1
  O  O126  1  0.260913  0.598441  0.223779  1
  O  O127  1  0.739087  0.098441  0.276221  1
