# generated using pymatgen
data_Li5Fe8(BO3)8
_symmetry_space_group_name_H-M   'P 1'
_cell_length_a   5.25764498
_cell_length_b   9.09987433
_cell_length_c   11.36067441
_cell_angle_alpha   66.88450032
_cell_angle_beta   77.31538927
_cell_angle_gamma   89.79384826
_symmetry_Int_Tables_number   1
_chemical_formula_structural   Li5Fe8(BO3)8
_chemical_formula_sum   'Li5 Fe8 B8 O24'
_cell_volume   485.62910709
_cell_formula_units_Z   1
loop_
 _symmetry_equiv_pos_site_id
 _symmetry_equiv_pos_as_xyz
  1  'x, y, z'
loop_
 _atom_site_type_symbol
 _atom_site_label
 _atom_site_symmetry_multiplicity
 _atom_site_fract_x
 _atom_site_fract_y
 _atom_site_fract_z
 _atom_site_occupancy
  Li  Li0  1  0.971337  0.969152  0.400750  1
  Li  Li1  1  0.512859  0.490224  0.664286  1
  Li  Li2  1  0.474625  0.471064  0.394004  1
  Li  Li3  1  0.011578  0.990350  0.667217  1
  Li  Li4  1  0.241844  0.253575  0.157807  1
  Fe  Fe5  1  0.978647  0.647656  0.370884  1
  Fe  Fe6  1  0.726572  0.062273  0.888835  1
  Fe  Fe7  1  0.529654  0.842791  0.630772  1
  Fe  Fe8  1  0.761083  0.446264  0.127127  1
  Fe  Fe9  1  0.228155  0.563503  0.885267  1
  Fe  Fe10  1  0.477418  0.150730  0.380878  1
  Fe  Fe11  1  0.029603  0.341897  0.631420  1
  Fe  Fe12  1  0.253692  0.932626  0.126605  1
  B  B13  1  0.974462  0.316663  0.376707  1
  B  B14  1  0.737917  0.398248  0.874188  1
  B  B15  1  0.521986  0.183971  0.626859  1
  B  B16  1  0.762814  0.109395  0.130274  1
  B  B17  1  0.480764  0.807494  0.381279  1
  B  B18  1  0.234102  0.898297  0.874611  1
  B  B19  1  0.027060  0.685801  0.622365  1
  B  B20  1  0.269236  0.596881  0.136207  1
  O  O21  1  0.987888  0.929819  0.856307  1
  O  O22  1  0.863373  0.282332  0.837961  1
  O  O23  1  0.867648  0.489219  0.919601  1
  O  O24  1  0.919254  0.829210  0.608447  1
  O  O25  1  0.913334  0.578335  0.583000  1
  O  O26  1  0.752732  0.151334  0.671534  1
  O  O27  1  0.733435  0.340332  0.347479  1
  O  O28  1  0.487086  0.425769  0.858990  1
  O  O29  1  0.357901  0.779572  0.840899  1
  O  O30  1  0.585476  0.920117  0.415601  1
  O  O31  1  0.612322  0.676301  0.381562  1
  O  O32  1  0.364773  0.985565  0.922366  1
  O  O33  1  0.651172  0.014687  0.079421  1
  O  O34  1  0.416111  0.328277  0.609805  1
  O  O35  1  0.402300  0.071693  0.595523  1
  O  O36  1  0.605333  0.214510  0.168667  1
  O  O37  1  0.514229  0.595289  0.149666  1
  O  O38  1  0.251967  0.649550  0.671567  1
  O  O39  1  0.233070  0.824378  0.349874  1
  O  O40  1  0.084992  0.426631  0.415548  1
  O  O41  1  0.107733  0.189913  0.366249  1
  O  O42  1  0.168264  0.496293  0.083836  1
  O  O43  1  0.097790  0.694783  0.180270  1
  O  O44  1  0.016259  0.098270  0.143446  1
