# generated using pymatgen
data_Na3CuPCO7
_symmetry_space_group_name_H-M   'P 1'
_cell_length_a   9.13290222
_cell_length_b   5.43932271
_cell_length_c   6.35911824
_cell_angle_alpha   90.00000000
_cell_angle_beta   90.00000000
_cell_angle_gamma   92.12800008
_symmetry_Int_Tables_number   1
_chemical_formula_structural   Na3CuPCO7
_chemical_formula_sum   'Na6 Cu2 P2 C2 O14'
_cell_volume   315.68280484
_cell_formula_units_Z   2
loop_
 _symmetry_equiv_pos_site_id
 _symmetry_equiv_pos_as_xyz
  1  'x, y, z'
loop_
 _atom_site_type_symbol
 _atom_site_label
 _atom_site_symmetry_multiplicity
 _atom_site_fract_x
 _atom_site_fract_y
 _atom_site_fract_z
 _atom_site_occupancy
  Na  Na0  1  0.005498  0.002200  0.491741  1
  Na  Na1  1  0.168232  0.439108  0.184871  1
  Na  Na2  1  0.490372  0.502934  0.486315  1
  Na  Na3  1  0.509628  0.497066  0.986315  1
  Na  Na4  1  0.831768  0.560892  0.684871  1
  Na  Na5  1  0.994502  0.997800  0.991741  1
  Cu  Cu6  1  0.291823  0.950397  0.747238  1
  Cu  Cu7  1  0.708177  0.049603  0.247238  1
  P  P8  1  0.349220  0.960380  0.242021  1
  P  P9  1  0.650780  0.039620  0.742021  1
  C  C10  1  0.142028  0.503055  0.737379  1
  C  C11  1  0.857972  0.496945  0.237379  1
  O  O12  1  0.040469  0.331374  0.742616  1
  O  O13  1  0.098090  0.734987  0.749739  1
  O  O14  1  0.256124  0.054647  0.051377  1
  O  O15  1  0.256302  0.022067  0.440558  1
  O  O16  1  0.278710  0.465136  0.726691  1
  O  O17  1  0.370975  0.683905  0.223120  1
  O  O18  1  0.496570  0.113594  0.250932  1
  O  O19  1  0.503430  0.886406  0.750932  1
  O  O20  1  0.629025  0.316095  0.723120  1
  O  O21  1  0.721290  0.534864  0.226691  1
  O  O22  1  0.743698  0.977933  0.940558  1
  O  O23  1  0.743876  0.945353  0.551377  1
  O  O24  1  0.901910  0.265013  0.249739  1
  O  O25  1  0.959531  0.668626  0.242616  1
