# generated using pymatgen
data_Dy(ClO4)3
_symmetry_space_group_name_H-M   'P 1'
_cell_length_a   9.49029582
_cell_length_b   9.49029582
_cell_length_c   9.49029625
_cell_angle_alpha   51.71795487
_cell_angle_beta   51.71795487
_cell_angle_gamma   51.71795198
_symmetry_Int_Tables_number   1
_chemical_formula_structural   Dy(ClO4)3
_chemical_formula_sum   'Dy2 Cl6 O24'
_cell_volume   486.61963468
_cell_formula_units_Z   2
loop_
 _symmetry_equiv_pos_site_id
 _symmetry_equiv_pos_as_xyz
  1  'x, y, z'
loop_
 _atom_site_type_symbol
 _atom_site_label
 _atom_site_symmetry_multiplicity
 _atom_site_fract_x
 _atom_site_fract_y
 _atom_site_fract_z
 _atom_site_occupancy
  Dy  Dy0  1  0.058274  0.058274  0.058274  1
  Dy  Dy1  1  0.558274  0.558274  0.558274  1
  Cl  Cl2  1  0.344943  0.966048  0.689751  1
  Cl  Cl3  1  0.466048  0.844943  0.189751  1
  Cl  Cl4  1  0.189751  0.466048  0.844943  1
  Cl  Cl5  1  0.966048  0.689751  0.344943  1
  Cl  Cl6  1  0.689751  0.344943  0.966048  1
  Cl  Cl7  1  0.844943  0.189751  0.466048  1
  O  O8  1  0.076006  0.752756  0.131627  1
  O  O9  1  0.282400  0.885395  0.202342  1
  O  O10  1  0.000215  0.573959  0.947634  1
  O  O11  1  0.392548  0.918409  0.840201  1
  O  O12  1  0.418409  0.892548  0.340201  1
  O  O13  1  0.073959  0.500215  0.447634  1
  O  O14  1  0.385395  0.782400  0.702342  1
  O  O15  1  0.573959  0.947634  0.000215  1
  O  O16  1  0.252756  0.576006  0.631627  1
  O  O17  1  0.202342  0.282400  0.885395  1
  O  O18  1  0.340201  0.418409  0.892548  1
  O  O19  1  0.576006  0.631627  0.252756  1
  O  O20  1  0.500215  0.447634  0.073959  1
  O  O21  1  0.131627  0.076006  0.752756  1
  O  O22  1  0.918409  0.840201  0.392548  1
  O  O23  1  0.782400  0.702342  0.385395  1
  O  O24  1  0.702342  0.385395  0.782400  1
  O  O25  1  0.447634  0.073959  0.500215  1
  O  O26  1  0.631627  0.252756  0.576006  1
  O  O27  1  0.840201  0.392548  0.918409  1
  O  O28  1  0.892548  0.340201  0.418409  1
  O  O29  1  0.752756  0.131627  0.076006  1
  O  O30  1  0.885395  0.202342  0.282400  1
  O  O31  1  0.947634  0.000215  0.573959  1
