# generated using pymatgen
data_LiMn3OF5
_symmetry_space_group_name_H-M   'P 1'
_cell_length_a   8.86170147
_cell_length_b   8.86170147
_cell_length_c   8.73846949
_cell_angle_alpha   109.43569137
_cell_angle_beta   109.64094954
_cell_angle_gamma   109.90295435
_symmetry_Int_Tables_number   1
_chemical_formula_structural   LiMn3OF5
_chemical_formula_sum   'Li4 Mn12 O4 F20'
_cell_volume   524.53142466
_cell_formula_units_Z   4
loop_
 _symmetry_equiv_pos_site_id
 _symmetry_equiv_pos_as_xyz
  1  'x, y, z'
loop_
 _atom_site_type_symbol
 _atom_site_label
 _atom_site_symmetry_multiplicity
 _atom_site_fract_x
 _atom_site_fract_y
 _atom_site_fract_z
 _atom_site_occupancy
  Li  Li0  1  0.494648  0.024069  0.987178  1
  Li  Li1  1  0.979253  0.523090  0.999428  1
  Li  Li2  1  0.463109  0.492530  0.487178  1
  Li  Li3  1  0.976336  0.020175  0.499428  1
  Mn  Mn4  1  0.979958  0.257184  0.224731  1
  Mn  Mn5  1  0.793965  0.044302  0.745480  1
  Mn  Mn6  1  0.703703  0.452312  0.231252  1
  Mn  Mn7  1  0.748867  0.269143  0.527079  1
  Mn  Mn8  1  0.757936  0.778213  0.027079  1
  Mn  Mn9  1  0.467547  0.244773  0.724731  1
  Mn  Mn10  1  0.551453  0.768095  0.298276  1
  Mn  Mn11  1  0.247332  0.700792  0.464120  1
  Mn  Mn12  1  0.263328  0.216788  0.964120  1
  Mn  Mn13  1  0.201179  0.951515  0.245480  1
  Mn  Mn14  1  0.278941  0.527549  0.731252  1
  Mn  Mn15  1  0.030181  0.746822  0.798276  1
  O  O16  1  0.960392  0.738527  0.996678  1
  O  O17  1  0.758151  0.036286  0.496678  1
  O  O18  1  0.221625  0.461832  0.463413  1
  O  O19  1  0.501580  0.241789  0.963413  1
  F  F20  1  0.005631  0.047084  0.289902  1
  F  F21  1  0.955768  0.507820  0.218559  1
  F  F22  1  0.740673  0.222226  0.263088  1
  F  F23  1  0.456933  0.479101  0.242041  1
  F  F24  1  0.460526  0.215289  0.458019  1
  F  F25  1  0.742730  0.997493  0.958019  1
  F  F26  1  0.774843  0.722826  0.262870  1
  F  F27  1  0.742818  0.284270  0.789902  1
  F  F28  1  0.779974  0.529260  0.524611  1
  F  F29  1  0.495351  0.744637  0.024611  1
  F  F30  1  0.281222  0.734150  0.232057  1
  F  F31  1  0.288481  0.020412  0.062218  1
  F  F32  1  0.541806  0.773737  0.562218  1
  F  F33  1  0.210739  0.262789  0.718559  1
  F  F34  1  0.540863  0.522415  0.763088  1
  F  F35  1  0.262941  0.785107  0.742041  1
  F  F36  1  0.244901  0.952634  0.509002  1
  F  F37  1  0.056368  0.264101  0.009002  1
  F  F38  1  0.040043  0.488027  0.762870  1
  F  F39  1  0.997906  0.950835  0.732057  1
