# generated using pymatgen
data_LiTi2P4H3O16
_symmetry_space_group_name_H-M   'P 1'
_cell_length_a   5.02172371
_cell_length_b   8.06822767
_cell_length_c   7.42692219
_cell_angle_alpha   89.81232488
_cell_angle_beta   102.25941243
_cell_angle_gamma   87.64813147
_symmetry_Int_Tables_number   1
_chemical_formula_structural   LiTi2P4H3O16
_chemical_formula_sum   'Li1 Ti2 P4 H3 O16'
_cell_volume   293.78045285
_cell_formula_units_Z   1
loop_
 _symmetry_equiv_pos_site_id
 _symmetry_equiv_pos_as_xyz
  1  'x, y, z'
loop_
 _atom_site_type_symbol
 _atom_site_label
 _atom_site_symmetry_multiplicity
 _atom_site_fract_x
 _atom_site_fract_y
 _atom_site_fract_z
 _atom_site_occupancy
  Li  Li0  1  0.393222  0.878734  0.850656  1
  Ti  Ti1  1  0.984683  0.998154  0.485869  1
  Ti  Ti2  1  0.493887  0.494821  0.006102  1
  P  P3  1  0.100654  0.334780  0.250678  1
  P  P4  1  0.388378  0.846933  0.236529  1
  P  P5  1  0.607086  0.156022  0.753876  1
  P  P6  1  0.896415  0.667766  0.751287  1
  H  H7  1  0.407202  0.446931  0.429977  1
  H  H8  1  0.596071  0.549341  0.573518  1
  H  H9  1  0.938533  0.019654  0.975577  1
  O  O10  1  0.146110  0.567673  0.858565  1
  O  O11  1  0.030135  0.162487  0.306044  1
  O  O12  1  0.200532  0.837042  0.377549  1
  O  O13  1  0.218740  0.428597  0.436948  1
  O  O14  1  0.348485  0.064969  0.667322  1
  O  O15  1  0.541912  0.333069  0.816684  1
  O  O16  1  0.256397  0.942596  0.062974  1
  O  O17  1  0.326314  0.332147  0.138252  1
  O  O18  1  0.661916  0.678309  0.856623  1
  O  O19  1  0.736465  0.046669  0.930348  1
  O  O20  1  0.466877  0.665858  0.184594  1
  O  O21  1  0.656828  0.926004  0.344439  1
  O  O22  1  0.780721  0.574811  0.564053  1
  O  O23  1  0.804201  0.164091  0.621293  1
  O  O24  1  0.991636  0.835570  0.697051  1
  O  O25  1  0.846848  0.432208  0.147937  1
