# generated using pymatgen
data_Li2Ni3SnO8
_symmetry_space_group_name_H-M   'P 1'
_cell_length_a   8.41563370
_cell_length_b   8.41506065
_cell_length_c   8.13467342
_cell_angle_alpha   90.00755826
_cell_angle_beta   89.98361515
_cell_angle_gamma   90.01622421
_symmetry_Int_Tables_number   1
_chemical_formula_structural   Li2Ni3SnO8
_chemical_formula_sum   'Li8 Ni12 Sn4 O32'
_cell_volume   576.08180360
_cell_formula_units_Z   4
loop_
 _symmetry_equiv_pos_site_id
 _symmetry_equiv_pos_as_xyz
  1  'x, y, z'
loop_
 _atom_site_type_symbol
 _atom_site_label
 _atom_site_symmetry_multiplicity
 _atom_site_fract_x
 _atom_site_fract_y
 _atom_site_fract_z
 _atom_site_occupancy
  Li  Li0  1  0.001118  0.999880  0.997554  1
  Li  Li1  1  0.250212  0.248766  0.252449  1
  Li  Li2  1  0.249814  0.751180  0.752347  1
  Li  Li3  1  0.498802  0.000301  0.497557  1
  Li  Li4  1  0.501259  0.500107  0.002262  1
  Li  Li5  1  0.750047  0.251094  0.747813  1
  Li  Li6  1  0.749913  0.748686  0.247742  1
  Li  Li7  1  0.998900  0.499984  0.502234  1
  Ni  Ni8  1  0.119585  0.130515  0.625067  1
  Ni  Ni9  1  0.124977  0.379601  0.865246  1
  Ni  Ni10  1  0.129603  0.625107  0.115177  1
  Ni  Ni11  1  0.370461  0.374902  0.615343  1
  Ni  Ni12  1  0.375078  0.620362  0.365189  1
  Ni  Ni13  1  0.380480  0.869469  0.125029  1
  Ni  Ni14  1  0.619607  0.369650  0.375040  1
  Ni  Ni15  1  0.624847  0.120404  0.134802  1
  Ni  Ni16  1  0.629564  0.874887  0.884695  1
  Ni  Ni17  1  0.870260  0.125088  0.384863  1
  Ni  Ni18  1  0.874970  0.879597  0.634749  1
  Ni  Ni19  1  0.880356  0.630422  0.874912  1
  Sn  Sn20  1  0.123093  0.873182  0.374959  1
  Sn  Sn21  1  0.376929  0.126907  0.874975  1
  Sn  Sn22  1  0.623019  0.626909  0.625020  1
  Sn  Sn23  1  0.876961  0.373076  0.124998  1
  O  O24  1  0.105046  0.121798  0.394929  1
  O  O25  1  0.117247  0.904323  0.627305  1
  O  O26  1  0.107792  0.615437  0.885073  1
  O  O27  1  0.128258  0.145139  0.855090  1
  O  O28  1  0.122084  0.381783  0.097634  1
  O  O29  1  0.134684  0.358066  0.635184  1
  O  O30  1  0.131790  0.628007  0.347557  1
  O  O31  1  0.154520  0.867393  0.122653  1
  O  O32  1  0.345754  0.132698  0.622779  1
  O  O33  1  0.368107  0.372053  0.847561  1
  O  O34  1  0.365551  0.642247  0.135112  1
  O  O35  1  0.377882  0.618143  0.597519  1
  O  O36  1  0.371793  0.854898  0.355055  1
  O  O37  1  0.392362  0.384425  0.385209  1
  O  O38  1  0.382688  0.095479  0.127301  1
  O  O39  1  0.395203  0.878185  0.894943  1
  O  O40  1  0.604918  0.378186  0.605073  1
  O  O41  1  0.617586  0.595434  0.372697  1
  O  O42  1  0.607754  0.884267  0.114948  1
  O  O43  1  0.628320  0.355207  0.144951  1
  O  O44  1  0.622080  0.118133  0.902442  1
  O  O45  1  0.634237  0.142413  0.364941  1
  O  O46  1  0.631784  0.872032  0.652273  1
  O  O47  1  0.654414  0.632620  0.877257  1
  O  O48  1  0.845496  0.367378  0.377371  1
  O  O49  1  0.868098  0.127937  0.152511  1
  O  O50  1  0.865306  0.857886  0.864747  1
  O  O51  1  0.877886  0.881880  0.402477  1
  O  O52  1  0.871663  0.645245  0.644975  1
  O  O53  1  0.891959  0.115380  0.614838  1
  O  O54  1  0.882746  0.404314  0.872719  1
  O  O55  1  0.895136  0.621676  0.104997  1
