# generated using pymatgen
data_Li4TiCo3O8
_symmetry_space_group_name_H-M   'P 1'
_cell_length_a   10.26384173
_cell_length_b   10.23904761
_cell_length_c   14.52229355
_cell_angle_alpha   19.12058626
_cell_angle_beta   19.08627276
_cell_angle_gamma   33.02776847
_symmetry_Int_Tables_number   1
_chemical_formula_structural   Li4TiCo3O8
_chemical_formula_sum   'Li4 Ti1 Co3 O8'
_cell_volume   140.73655205
_cell_formula_units_Z   1
loop_
 _symmetry_equiv_pos_site_id
 _symmetry_equiv_pos_as_xyz
  1  'x, y, z'
loop_
 _atom_site_type_symbol
 _atom_site_label
 _atom_site_symmetry_multiplicity
 _atom_site_fract_x
 _atom_site_fract_y
 _atom_site_fract_z
 _atom_site_occupancy
  Li  Li0  1  0.000000  0.999999  0.500001  1
  Li  Li1  1  0.000000  0.500001  0.500000  1
  Li  Li2  1  0.500000  0.000000  0.500000  1
  Li  Li3  1  0.499999  0.500000  0.500001  1
  Ti  Ti4  1  0.000000  0.000000  0.000000  1
  Co  Co5  1  0.000000  0.500000  0.000000  1
  Co  Co6  1  0.500001  0.000000  0.999999  1
  Co  Co7  1  0.500000  0.500000  0.000000  1
  O  O8  1  0.023998  0.021908  0.230534  1
  O  O9  1  0.978142  0.501544  0.269782  1
  O  O10  1  0.503482  0.977597  0.269153  1
  O  O11  1  0.976002  0.978091  0.769466  1
  O  O12  1  0.509144  0.507271  0.247889  1
  O  O13  1  0.021858  0.498457  0.730217  1
  O  O14  1  0.496520  0.022403  0.730847  1
  O  O15  1  0.490855  0.492728  0.752112  1
