# generated using pymatgen
data_Li8TiS6
_symmetry_space_group_name_H-M   'P 1'
_cell_length_a   6.89495203
_cell_length_b   6.89501184
_cell_length_c   13.46207679
_cell_angle_alpha   90.00028286
_cell_angle_beta   90.00051151
_cell_angle_gamma   120.00075273
_symmetry_Int_Tables_number   1
_chemical_formula_structural   Li8TiS6
_chemical_formula_sum   'Li16 Ti2 S12'
_cell_volume   554.24995465
_cell_formula_units_Z   2
loop_
 _symmetry_equiv_pos_site_id
 _symmetry_equiv_pos_as_xyz
  1  'x, y, z'
loop_
 _atom_site_type_symbol
 _atom_site_label
 _atom_site_symmetry_multiplicity
 _atom_site_fract_x
 _atom_site_fract_y
 _atom_site_fract_z
 _atom_site_occupancy
  Li  Li0  1  0.999991  0.683082  0.766079  1
  Li  Li1  1  0.999997  0.619719  0.130684  1
  Li  Li2  1  0.999985  0.380281  0.630684  1
  Li  Li3  1  0.999998  0.316914  0.266074  1
  Li  Li4  1  0.333317  0.666684  0.401485  1
  Li  Li5  1  0.333314  0.666636  0.901490  1
  Li  Li6  1  0.316887  0.316886  0.766077  1
  Li  Li7  1  0.380280  0.380295  0.130687  1
  Li  Li8  1  0.619700  0.619698  0.630682  1
  Li  Li9  1  0.316913  0.000020  0.266075  1
  Li  Li10  1  0.683089  0.683112  0.266074  1
  Li  Li11  1  0.380284  0.999983  0.630684  1
  Li  Li12  1  0.666641  0.333312  0.901490  1
  Li  Li13  1  0.666683  0.333367  0.401486  1
  Li  Li14  1  0.619714  0.000014  0.130686  1
  Li  Li15  1  0.683083  0.999988  0.766079  1
  Ti  Ti16  1  0.999991  0.999992  0.997996  1
  Ti  Ti17  1  0.999997  0.000006  0.497993  1
  S  S18  1  0.999981  0.685582  0.950124  1
  S  S19  1  0.000005  0.314382  0.450121  1
  S  S20  1  0.333328  0.666672  0.217326  1
  S  S21  1  0.000002  0.000015  0.169378  1
  S  S22  1  0.999983  0.999983  0.669356  1
  S  S23  1  0.333337  0.666662  0.717321  1
  S  S24  1  0.314398  0.314395  0.950126  1
  S  S25  1  0.314381  0.000024  0.450120  1
  S  S26  1  0.685607  0.685633  0.450114  1
  S  S27  1  0.666674  0.333340  0.717320  1
  S  S28  1  0.666663  0.333341  0.217329  1
  S  S29  1  0.685576  0.999983  0.950122  1
