# generated using pymatgen
data_Na2SiSnCO7
_symmetry_space_group_name_H-M   'P 1'
_cell_length_a   9.14667248
_cell_length_b   6.71044549
_cell_length_c   5.30787162
_cell_angle_alpha   90.00000000
_cell_angle_beta   89.25549250
_cell_angle_gamma   90.00000000
_symmetry_Int_Tables_number   1
_chemical_formula_structural   Na2SiSnCO7
_chemical_formula_sum   'Na4 Si2 Sn2 C2 O14'
_cell_volume   325.76035183
_cell_formula_units_Z   2
loop_
 _symmetry_equiv_pos_site_id
 _symmetry_equiv_pos_as_xyz
  1  'x, y, z'
loop_
 _atom_site_type_symbol
 _atom_site_label
 _atom_site_symmetry_multiplicity
 _atom_site_fract_x
 _atom_site_fract_y
 _atom_site_fract_z
 _atom_site_occupancy
  Na  Na0  1  0.225124  0.005918  0.235820  1
  Na  Na1  1  0.225124  0.494082  0.235820  1
  Na  Na2  1  0.774876  0.505918  0.764180  1
  Na  Na3  1  0.774876  0.994082  0.764180  1
  Si  Si4  1  0.424325  0.250000  0.710312  1
  Si  Si5  1  0.575675  0.750000  0.289688  1
  Sn  Sn6  1  0.357000  0.750000  0.788768  1
  Sn  Sn7  1  0.643000  0.250000  0.211232  1
  C  C8  1  0.072186  0.750000  0.729581  1
  C  C9  1  0.927814  0.250000  0.270419  1
  O  O10  1  0.062632  0.250000  0.305863  1
  O  O11  1  0.132649  0.750000  0.953448  1
  O  O12  1  0.169709  0.750000  0.538991  1
  O  O13  1  0.330104  0.053614  0.796506  1
  O  O14  1  0.330104  0.446386  0.796506  1
  O  O15  1  0.411382  0.750000  0.163797  1
  O  O16  1  0.446922  0.250000  0.398076  1
  O  O17  1  0.553078  0.750000  0.601924  1
  O  O18  1  0.588618  0.250000  0.836203  1
  O  O19  1  0.669896  0.553614  0.203494  1
  O  O20  1  0.669896  0.946386  0.203494  1
  O  O21  1  0.830291  0.250000  0.461009  1
  O  O22  1  0.867351  0.250000  0.046553  1
  O  O23  1  0.937368  0.750000  0.694137  1
