# generated using pymatgen
data_Li4Cr3GaO8
_symmetry_space_group_name_H-M   'P 1'
_cell_length_a   5.13888965
_cell_length_b   7.84337976
_cell_length_c   7.84203587
_cell_angle_alpha   81.78006970
_cell_angle_beta   70.94471597
_cell_angle_gamma   83.75558678
_symmetry_Int_Tables_number   1
_chemical_formula_structural   Li4Cr3GaO8
_chemical_formula_sum   'Li8 Cr6 Ga2 O16'
_cell_volume   295.04169246
_cell_formula_units_Z   2
loop_
 _symmetry_equiv_pos_site_id
 _symmetry_equiv_pos_as_xyz
  1  'x, y, z'
loop_
 _atom_site_type_symbol
 _atom_site_label
 _atom_site_symmetry_multiplicity
 _atom_site_fract_x
 _atom_site_fract_y
 _atom_site_fract_z
 _atom_site_occupancy
  Li  Li0  1  0.999631  0.999901  0.000137  1
  Li  Li1  1  -0.000033  0.250026  0.250122  1
  Li  Li2  1  0.000372  0.625098  0.124863  1
  Li  Li3  1  0.999896  0.125164  0.624979  1
  Li  Li4  1  0.000102  0.499835  0.500024  1
  Li  Li5  1  0.000289  0.875177  0.374718  1
  Li  Li6  1  0.000036  0.374974  0.874879  1
  Li  Li7  1  0.999712  0.749823  0.750282  1
  Cr  Cr8  1  0.500181  0.062248  0.312741  1
  Cr  Cr9  1  0.499973  0.437670  0.187674  1
  Cr  Cr10  1  0.500016  0.812503  0.062492  1
  Cr  Cr11  1  0.500005  0.312506  0.562497  1
  Cr  Cr12  1  0.500017  0.187324  0.937331  1
  Cr  Cr13  1  0.499837  0.562752  0.812258  1
  Ga  Ga14  1  0.499948  0.687642  0.437614  1
  Ga  Ga15  1  0.500009  0.937374  0.687366  1
  O  O16  1  0.275704  0.030157  0.150918  1
  O  O17  1  0.724193  0.219913  0.099220  1
  O  O18  1  0.275790  0.405108  0.025776  1
  O  O19  1  0.725798  0.094798  0.474003  1
  O  O20  1  0.275695  0.280025  0.400888  1
  O  O21  1  0.274410  0.655345  0.276348  1
  O  O22  1  0.725827  0.470059  0.349018  1
  O  O23  1  0.274148  0.154960  0.775983  1
  O  O24  1  0.274230  0.530181  0.650995  1
  O  O25  1  0.725725  0.844687  0.223970  1
  O  O26  1  0.724328  0.344950  0.724119  1
  O  O27  1  0.273536  0.904796  0.526758  1
  O  O28  1  0.726438  0.720226  0.598250  1
  O  O29  1  0.274298  0.780292  0.901033  1
  O  O30  1  0.724321  0.594818  0.974091  1
  O  O31  1  0.725567  0.969673  0.848651  1
