# generated using pymatgen
data_Rb(BH)5
_symmetry_space_group_name_H-M   'P 1'
_cell_length_a   14.09389642
_cell_length_b   11.46155331
_cell_length_c   7.28178718
_cell_angle_alpha   90.00000000
_cell_angle_beta   94.95183368
_cell_angle_gamma   90.00000000
_symmetry_Int_Tables_number   1
_chemical_formula_structural   Rb(BH)5
_chemical_formula_sum   'Rb8 B40 H40'
_cell_volume   1171.89459016
_cell_formula_units_Z   8
loop_
 _symmetry_equiv_pos_site_id
 _symmetry_equiv_pos_as_xyz
  1  'x, y, z'
loop_
 _atom_site_type_symbol
 _atom_site_label
 _atom_site_symmetry_multiplicity
 _atom_site_fract_x
 _atom_site_fract_y
 _atom_site_fract_z
 _atom_site_occupancy
  Rb  Rb0  1  0.055222  0.879268  0.699558  1
  Rb  Rb1  1  0.188151  0.570656  0.247090  1
  Rb  Rb2  1  0.311849  0.070656  0.252910  1
  Rb  Rb3  1  0.444778  0.379268  0.800442  1
  Rb  Rb4  1  0.555222  0.620732  0.199558  1
  Rb  Rb5  1  0.688151  0.929344  0.747090  1
  Rb  Rb6  1  0.811849  0.429344  0.752910  1
  Rb  Rb7  1  0.944778  0.120732  0.300442  1
  B  B8  1  0.023234  0.295973  0.661480  1
  B  B9  1  0.046618  0.327626  0.904605  1
  B  B10  1  0.048390  0.177214  0.820685  1
  B  B11  1  0.113373  0.404213  0.739554  1
  B  B12  1  0.117187  0.190965  0.622654  1
  B  B13  1  0.111752  0.220326  0.018788  1
  B  B14  1  0.116556  0.329939  0.537836  1
  B  B15  1  0.177154  0.328716  0.930852  1
  B  B16  1  0.179266  0.177718  0.848296  1
  B  B17  1  0.206564  0.297757  0.700195  1
  B  B18  1  0.293436  0.797757  0.799805  1
  B  B19  1  0.320734  0.677718  0.651704  1
  B  B20  1  0.322846  0.828716  0.569148  1
  B  B21  1  0.383445  0.829939  0.962164  1
  B  B22  1  0.382813  0.690965  0.877346  1
  B  B23  1  0.386627  0.904213  0.760446  1
  B  B24  1  0.388248  0.720326  0.481212  1
  B  B25  1  0.451610  0.677214  0.679315  1
  B  B26  1  0.453382  0.827626  0.595395  1
  B  B27  1  0.476766  0.795973  0.838520  1
  B  B28  1  0.523234  0.204027  0.161480  1
  B  B29  1  0.546618  0.172374  0.404605  1
  B  B30  1  0.548390  0.322786  0.320685  1
  B  B31  1  0.611752  0.279674  0.518788  1
  B  B32  1  0.613373  0.095787  0.239554  1
  B  B33  1  0.617187  0.309035  0.122654  1
  B  B34  1  0.616556  0.170061  0.037836  1
  B  B35  1  0.677154  0.171284  0.430852  1
  B  B36  1  0.679266  0.322282  0.348296  1
  B  B37  1  0.706564  0.202243  0.200195  1
  B  B38  1  0.793436  0.702243  0.299805  1
  B  B39  1  0.820734  0.822282  0.151704  1
  B  B40  1  0.822846  0.671284  0.069148  1
  B  B41  1  0.883444  0.670061  0.462164  1
  B  B42  1  0.888248  0.779674  0.981212  1
  B  B43  1  0.882813  0.809035  0.377346  1
  B  B44  1  0.886627  0.595787  0.260446  1
  B  B45  1  0.951610  0.822786  0.179315  1
  B  B46  1  0.953382  0.672374  0.095395  1
  B  B47  1  0.976766  0.704027  0.338520  1
  H  H48  1  0.010770  0.899225  0.176284  1
  H  H49  1  0.011229  0.618756  0.016556  1
  H  H50  1  0.056322  0.695268  0.413797  1
  H  H51  1  0.111943  0.508961  0.740683  1
  H  H52  1  0.113055  0.187440  0.174784  1
  H  H53  1  0.121077  0.108582  0.518878  1
  H  H54  1  0.117140  0.362293  0.381845  1
  H  H55  1  0.213424  0.807443  0.842433  1
  H  H56  1  0.236979  0.100616  0.871396  1
  H  H57  1  0.234076  0.381436  0.033589  1
  H  H58  1  0.263021  0.600616  0.628604  1
  H  H59  1  0.265924  0.881436  0.466411  1
  H  H60  1  0.286576  0.307443  0.657567  1
  H  H61  1  0.378923  0.608582  0.981122  1
  H  H62  1  0.388057  0.008961  0.759317  1
  H  H63  1  0.382860  0.862293  0.118155  1
  H  H64  1  0.386945  0.687440  0.325216  1
  H  H65  1  0.443678  0.195268  0.086203  1
  H  H66  1  0.488771  0.118756  0.483444  1
  H  H67  1  0.489230  0.399225  0.323716  1
  H  H68  1  0.510770  0.600775  0.676284  1
  H  H69  1  0.511229  0.881244  0.516556  1
  H  H70  1  0.556322  0.804732  0.913797  1
  H  H71  1  0.613055  0.312560  0.674784  1
  H  H72  1  0.617140  0.137707  0.881845  1
  H  H73  1  0.611943  0.991039  0.240683  1
  H  H74  1  0.621077  0.391418  0.018878  1
  H  H75  1  0.713424  0.692557  0.342433  1
  H  H76  1  0.734076  0.118564  0.533589  1
  H  H77  1  0.736979  0.399384  0.371396  1
  H  H78  1  0.765924  0.618564  0.966411  1
  H  H79  1  0.763021  0.899384  0.128604  1
  H  H80  1  0.786576  0.192557  0.157567  1
  H  H81  1  0.882860  0.637707  0.618155  1
  H  H82  1  0.878923  0.891418  0.481122  1
  H  H83  1  0.886945  0.812560  0.825216  1
  H  H84  1  0.888057  0.491039  0.259317  1
  H  H85  1  0.943678  0.304732  0.586203  1
  H  H86  1  0.988771  0.381244  0.983444  1
  H  H87  1  0.989230  0.100775  0.823716  1
