# generated using pymatgen
data_Na4Be2Si6Sn(HO5)4
_symmetry_space_group_name_H-M   'P 1'
_cell_length_a   11.13947734
_cell_length_b   11.13947734
_cell_length_c   12.15722447
_cell_angle_alpha   64.38400601
_cell_angle_beta   115.61599399
_cell_angle_gamma   140.62922248
_symmetry_Int_Tables_number   1
_chemical_formula_structural   Na4Be2Si6Sn(HO5)4
_chemical_formula_sum   'Na8 Be4 Si12 Sn2 H8 O40'
_cell_volume   850.09247093
_cell_formula_units_Z   2
loop_
 _symmetry_equiv_pos_site_id
 _symmetry_equiv_pos_as_xyz
  1  'x, y, z'
loop_
 _atom_site_type_symbol
 _atom_site_label
 _atom_site_symmetry_multiplicity
 _atom_site_fract_x
 _atom_site_fract_y
 _atom_site_fract_z
 _atom_site_occupancy
  Na  Na0  1  0.791601  0.304965  0.265059  1
  Na  Na1  1  0.304965  0.791601  0.234941  1
  Na  Na2  1  0.208399  0.695035  0.734941  1
  Na  Na3  1  0.695035  0.208399  0.765059  1
  Na  Na4  1  0.791404  0.685726  0.197652  1
  Na  Na5  1  0.685726  0.791404  0.302348  1
  Na  Na6  1  0.208596  0.314274  0.802348  1
  Na  Na7  1  0.314274  0.208596  0.697652  1
  Be  Be8  1  0.397011  0.397011  0.250000  1
  Be  Be9  1  0.602989  0.602989  0.750000  1
  Be  Be10  1  0.084465  0.084465  0.250000  1
  Be  Be11  1  0.915535  0.915535  0.750000  1
  Si  Si12  1  0.341997  0.549093  0.002803  1
  Si  Si13  1  0.549093  0.341997  0.497197  1
  Si  Si14  1  0.658003  0.450907  0.997197  1
  Si  Si15  1  0.450907  0.658003  0.502803  1
  Si  Si16  1  0.140363  0.373198  0.305817  1
  Si  Si17  1  0.373198  0.140363  0.194183  1
  Si  Si18  1  0.859637  0.626802  0.694183  1
  Si  Si19  1  0.626802  0.859637  0.805817  1
  Si  Si20  1  0.065506  0.855653  0.993522  1
  Si  Si21  1  0.855653  0.065506  0.506478  1
  Si  Si22  1  0.934494  0.144347  0.006478  1
  Si  Si23  1  0.144347  0.934494  0.493522  1
  Sn  Sn24  1  0.000000  0.500000  0.000000  1
  Sn  Sn25  1  0.500000  0.000000  0.500000  1
  H  H26  1  0.037383  0.660021  0.393446  1
  H  H27  1  0.660021  0.037383  0.106554  1
  H  H28  1  0.962617  0.339979  0.606554  1
  H  H29  1  0.339979  0.962617  0.893446  1
  H  H30  1  0.830170  0.457507  0.411810  1
  H  H31  1  0.457507  0.830170  0.088190  1
  H  H32  1  0.169830  0.542493  0.588190  1
  H  H33  1  0.542493  0.169830  0.911810  1
  O  O34  1  0.565857  0.477227  0.366321  1
  O  O35  1  0.477227  0.565857  0.133679  1
  O  O36  1  0.434143  0.522773  0.633679  1
  O  O37  1  0.522773  0.434143  0.866321  1
  O  O38  1  0.138769  0.772260  0.994320  1
  O  O39  1  0.772260  0.138769  0.505680  1
  O  O40  1  0.861231  0.227740  0.005680  1
  O  O41  1  0.227740  0.861231  0.494320  1
  O  O42  1  0.072862  0.469492  0.192881  1
  O  O43  1  0.469492  0.072862  0.307119  1
  O  O44  1  0.927138  0.530508  0.807119  1
  O  O45  1  0.530508  0.927138  0.692881  1
  O  O46  1  0.002043  0.918198  0.367547  1
  O  O47  1  0.918198  0.002043  0.132453  1
  O  O48  1  0.997957  0.081802  0.632453  1
  O  O49  1  0.081802  0.997957  0.867547  1
  O  O50  1  0.844592  0.674157  0.026699  1
  O  O51  1  0.674157  0.844592  0.473301  1
  O  O52  1  0.155408  0.325843  0.973301  1
  O  O53  1  0.325843  0.155408  0.526699  1
  O  O54  1  0.264572  0.636657  0.984610  1
  O  O55  1  0.636657  0.264572  0.515390  1
  O  O56  1  0.735428  0.363343  0.015390  1
  O  O57  1  0.363343  0.735428  0.484610  1
  O  O58  1  0.916558  0.551869  0.349615  1
  O  O59  1  0.551869  0.916558  0.150385  1
  O  O60  1  0.083442  0.448131  0.650385  1
  O  O61  1  0.448131  0.083442  0.849615  1
  O  O62  1  0.187821  0.294381  0.264403  1
  O  O63  1  0.294381  0.187821  0.235597  1
  O  O64  1  0.812179  0.705619  0.735597  1
  O  O65  1  0.705619  0.812179  0.764403  1
  O  O66  1  0.336507  0.544299  0.386414  1
  O  O67  1  0.544299  0.336507  0.113586  1
  O  O68  1  0.663493  0.455701  0.613586  1
  O  O69  1  0.455701  0.663493  0.886414  1
  O  O70  1  0.962959  0.197291  0.384363  1
  O  O71  1  0.197291  0.962959  0.115637  1
  O  O72  1  0.037041  0.802709  0.615637  1
  O  O73  1  0.802709  0.037041  0.884363  1
