# generated using pymatgen
data_LiNiBO3
_symmetry_space_group_name_H-M   'P 1'
_cell_length_a   5.77660557
_cell_length_b   5.10777159
_cell_length_c   5.04305139
_cell_angle_alpha   62.82826847
_cell_angle_beta   113.88977896
_cell_angle_gamma   87.51456765
_symmetry_Int_Tables_number   1
_chemical_formula_structural   LiNiBO3
_chemical_formula_sum   'Li2 Ni2 B2 O6'
_cell_volume   116.17074528
_cell_formula_units_Z   2
loop_
 _symmetry_equiv_pos_site_id
 _symmetry_equiv_pos_as_xyz
  1  'x, y, z'
loop_
 _atom_site_type_symbol
 _atom_site_label
 _atom_site_symmetry_multiplicity
 _atom_site_fract_x
 _atom_site_fract_y
 _atom_site_fract_z
 _atom_site_occupancy
  Li  Li0  1  0.683809  0.612332  0.447185  1
  Li  Li1  1  0.316191  0.387668  0.552815  1
  Ni  Ni2  1  0.750943  0.236544  0.170006  1
  Ni  Ni3  1  0.249057  0.763456  0.829994  1
  B  B4  1  0.746166  0.914062  0.812599  1
  B  B5  1  0.253834  0.085938  0.187401  1
  O  O6  1  0.667834  0.686087  0.016971  1
  O  O7  1  0.842046  0.856803  0.624094  1
  O  O8  1  0.710049  0.201425  0.773120  1
  O  O9  1  0.289951  0.798575  0.226880  1
  O  O10  1  0.157954  0.143197  0.375905  1
  O  O11  1  0.332166  0.313913  0.983029  1
