# generated using pymatgen
data_CoH10C4(N2O3)2
_symmetry_space_group_name_H-M   'P 1'
_cell_length_a   12.10769297
_cell_length_b   12.10769297
_cell_length_c   15.44687052
_cell_angle_alpha   67.49857966
_cell_angle_beta   112.50142034
_cell_angle_gamma   90.48670330
_symmetry_Int_Tables_number   1
_chemical_formula_structural   CoH10C4(N2O3)2
_chemical_formula_sum   'Co8 H80 C32 N32 O48'
_cell_volume   1907.37366798
_cell_formula_units_Z   8
loop_
 _symmetry_equiv_pos_site_id
 _symmetry_equiv_pos_as_xyz
  1  'x, y, z'
loop_
 _atom_site_type_symbol
 _atom_site_label
 _atom_site_symmetry_multiplicity
 _atom_site_fract_x
 _atom_site_fract_y
 _atom_site_fract_z
 _atom_site_occupancy
  Co  Co0  1  0.251187  0.758806  0.003187  1
  Co  Co1  1  0.758806  0.251187  0.496813  1
  Co  Co2  1  0.748813  0.241194  0.996813  1
  Co  Co3  1  0.241194  0.748813  0.503187  1
  Co  Co4  1  0.748507  0.743186  0.997342  1
  Co  Co5  1  0.743186  0.748507  0.502658  1
  Co  Co6  1  0.251493  0.256814  0.002658  1
  Co  Co7  1  0.256814  0.251493  0.497342  1
  H  H8  1  0.543811  0.652773  0.330974  1
  H  H9  1  0.652773  0.543811  0.169026  1
  H  H10  1  0.456189  0.347227  0.669026  1
  H  H11  1  0.347227  0.456189  0.830974  1
  H  H12  1  0.503744  0.513953  0.392800  1
  H  H13  1  0.513953  0.503744  0.107200  1
  H  H14  1  0.496256  0.486047  0.607200  1
  H  H15  1  0.486047  0.496256  0.892800  1
  H  H16  1  0.240563  0.539790  0.178848  1
  H  H17  1  0.539790  0.240563  0.321152  1
  H  H18  1  0.759437  0.460210  0.821152  1
  H  H19  1  0.460210  0.759437  0.678848  1
  H  H20  1  0.330255  0.457812  0.311506  1
  H  H21  1  0.457812  0.330255  0.188494  1
  H  H22  1  0.669745  0.542188  0.688494  1
  H  H23  1  0.542188  0.669745  0.811506  1
  H  H24  1  0.970733  0.981960  0.673054  1
  H  H25  1  0.981960  0.970733  0.826946  1
  H  H26  1  0.029267  0.018040  0.326946  1
  H  H27  1  0.018040  0.029267  0.173054  1
  H  H28  1  0.003799  0.901536  0.610728  1
  H  H29  1  0.901536  0.003799  0.889272  1
  H  H30  1  0.996201  0.098464  0.389272  1
  H  H31  1  0.098464  0.996201  0.110728  1
  H  H32  1  0.172872  0.757764  0.693438  1
  H  H33  1  0.757764  0.172872  0.806562  1
  H  H34  1  0.827128  0.242236  0.306562  1
  H  H35  1  0.242236  0.827128  0.193438  1
  H  H36  1  0.252015  0.701129  0.827518  1
  H  H37  1  0.701129  0.252015  0.672482  1
  H  H38  1  0.747985  0.298871  0.172482  1
  H  H39  1  0.298871  0.747985  0.327518  1
  H  H40  1  0.583669  0.955532  0.600983  1
  H  H41  1  0.955532  0.583669  0.899017  1
  H  H42  1  0.416331  0.044468  0.399017  1
  H  H43  1  0.044468  0.416331  0.100983  1
  H  H44  1  0.706645  0.836069  0.666052  1
  H  H45  1  0.836069  0.706645  0.833948  1
  H  H46  1  0.293355  0.163931  0.333948  1
  H  H47  1  0.163931  0.293355  0.166052  1
  H  H48  1  0.493625  0.011915  0.684276  1
  H  H49  1  0.011915  0.493625  0.815724  1
  H  H50  1  0.506375  0.988085  0.315724  1
  H  H51  1  0.988085  0.506375  0.184276  1
  H  H52  1  0.556066  0.947161  0.820087  1
  H  H53  1  0.947161  0.556066  0.679913  1
  H  H54  1  0.443934  0.052839  0.179913  1
  H  H55  1  0.052839  0.443934  0.320087  1
  H  H56  1  0.930718  0.556453  0.392355  1
  H  H57  1  0.556453  0.930718  0.107645  1
  H  H58  1  0.069282  0.443547  0.607645  1
  H  H59  1  0.443547  0.069282  0.892355  1
  H  H60  1  0.805002  0.501700  0.327613  1
  H  H61  1  0.501700  0.805002  0.172387  1
  H  H62  1  0.194998  0.498300  0.672387  1
  H  H63  1  0.498300  0.194998  0.827613  1
  H  H64  1  0.937991  0.784012  0.170638  1
  H  H65  1  0.784012  0.937991  0.329362  1
  H  H66  1  0.062009  0.215988  0.829362  1
  H  H67  1  0.215988  0.062009  0.670638  1
  H  H68  1  0.010858  0.706359  0.305841  1
  H  H69  1  0.706359  0.010858  0.194159  1
  H  H70  1  0.989142  0.293641  0.694159  1
  H  H71  1  0.293641  0.989142  0.805841  1
  H  H72  1  0.284305  0.025270  0.958647  1
  H  H73  1  0.025270  0.284305  0.541353  1
  H  H74  1  0.715695  0.974730  0.041353  1
  H  H75  1  0.974730  0.715695  0.458647  1
  H  H76  1  0.505735  0.695513  0.024873  1
  H  H77  1  0.695513  0.505735  0.475127  1
  H  H78  1  0.494265  0.304487  0.975127  1
  H  H79  1  0.304487  0.494265  0.524873  1
  H  H80  1  0.992613  0.808421  0.985302  1
  H  H81  1  0.808421  0.992613  0.514698  1
  H  H82  1  0.007387  0.191579  0.014698  1
  H  H83  1  0.191579  0.007387  0.485302  1
  H  H84  1  0.175936  0.518890  0.961089  1
  H  H85  1  0.518890  0.175936  0.538911  1
  H  H86  1  0.824064  0.481110  0.038911  1
  H  H87  1  0.481110  0.824064  0.461089  1
  C  C88  1  0.391213  0.609058  0.239970  1
  C  C89  1  0.609058  0.391213  0.260030  1
  C  C90  1  0.608787  0.390942  0.760030  1
  C  C91  1  0.390942  0.608787  0.739970  1
  C  C92  1  0.114885  0.843399  0.764462  1
  C  C93  1  0.843399  0.114885  0.735538  1
  C  C94  1  0.885116  0.156601  0.235538  1
  C  C95  1  0.156601  0.885116  0.264462  1
  C  C96  1  0.216957  0.011114  0.992636  1
  C  C97  1  0.011114  0.216957  0.507364  1
  C  C98  1  0.783043  0.988886  0.007364  1
  C  C99  1  0.988886  0.783043  0.492636  1
  C  C100  1  0.489739  0.794095  0.979963  1
  C  C101  1  0.794095  0.489739  0.520037  1
  C  C102  1  0.510261  0.205905  0.020037  1
  C  C103  1  0.205905  0.510261  0.479963  1
  C  C104  1  0.647228  0.885245  0.757456  1
  C  C105  1  0.885245  0.647228  0.742544  1
  C  C106  1  0.352772  0.114755  0.242544  1
  C  C107  1  0.114755  0.352772  0.257456  1
  C  C108  1  0.855778  0.647856  0.234955  1
  C  C109  1  0.647856  0.855778  0.265045  1
  C  C110  1  0.144222  0.352144  0.765045  1
  C  C111  1  0.352144  0.144222  0.734955  1
  C  C112  1  0.013102  0.708846  0.023114  1
  C  C113  1  0.708846  0.013102  0.476886  1
  C  C114  1  0.986898  0.291154  0.976886  1
  C  C115  1  0.291154  0.986898  0.523114  1
  C  C116  1  0.276056  0.507803  0.995817  1
  C  C117  1  0.507803  0.276056  0.504183  1
  C  C118  1  0.723944  0.492197  0.004183  1
  C  C119  1  0.492197  0.723944  0.495817  1
  N  N120  1  0.483062  0.593443  0.329827  1
  N  N121  1  0.593443  0.483062  0.170173  1
  N  N122  1  0.516938  0.406557  0.670173  1
  N  N123  1  0.406557  0.516938  0.829827  1
  N  N124  1  0.318423  0.523838  0.242411  1
  N  N125  1  0.523838  0.318423  0.257589  1
  N  N126  1  0.681577  0.476162  0.757589  1
  N  N127  1  0.476162  0.681577  0.742411  1
  N  N128  1  0.029242  0.921118  0.673672  1
  N  N129  1  0.921118  0.029242  0.826328  1
  N  N130  1  0.970758  0.078882  0.326328  1
  N  N131  1  0.078882  0.970758  0.173672  1
  N  N132  1  0.188808  0.763535  0.761125  1
  N  N133  1  0.763535  0.188808  0.738875  1
  N  N134  1  0.811192  0.236465  0.238875  1
  N  N135  1  0.236465  0.811192  0.261125  1
  N  N136  1  0.646198  0.893215  0.667878  1
  N  N137  1  0.893215  0.646198  0.832122  1
  N  N138  1  0.353802  0.106785  0.332122  1
  N  N139  1  0.106785  0.353802  0.167878  1
  N  N140  1  0.564210  0.963138  0.753142  1
  N  N141  1  0.963138  0.564210  0.746858  1
  N  N142  1  0.435791  0.036862  0.246858  1
  N  N143  1  0.036862  0.435791  0.253142  1
  N  N144  1  0.864351  0.562699  0.325716  1
  N  N145  1  0.562699  0.864351  0.174284  1
  N  N146  1  0.135649  0.437301  0.674284  1
  N  N147  1  0.437301  0.135649  0.825716  1
  N  N148  1  0.940245  0.721223  0.238051  1
  N  N149  1  0.721223  0.940245  0.261949  1
  N  N150  1  0.059755  0.278777  0.761949  1
  N  N151  1  0.278777  0.059755  0.738051  1
  O  O152  1  0.375314  0.701799  0.158396  1
  O  O153  1  0.701799  0.375314  0.341604  1
  O  O154  1  0.624686  0.298201  0.841604  1
  O  O155  1  0.298201  0.624686  0.658396  1
  O  O156  1  0.126727  0.850276  0.847849  1
  O  O157  1  0.850276  0.126727  0.652151  1
  O  O158  1  0.873273  0.149724  0.152151  1
  O  O159  1  0.149724  0.873273  0.347849  1
  O  O160  1  0.189973  0.905952  0.024441  1
  O  O161  1  0.905952  0.189973  0.475559  1
  O  O162  1  0.810027  0.094048  0.975559  1
  O  O163  1  0.094048  0.810027  0.524441  1
  O  O164  1  0.387408  0.852465  0.955175  1
  O  O165  1  0.852465  0.387408  0.544825  1
  O  O166  1  0.612592  0.147535  0.044825  1
  O  O167  1  0.147535  0.612592  0.455175  1
  O  O168  1  0.117507  0.658464  0.043945  1
  O  O169  1  0.658464  0.117507  0.456055  1
  O  O170  1  0.882493  0.341536  0.956055  1
  O  O171  1  0.341536  0.882493  0.543945  1
  O  O172  1  0.324936  0.599389  0.001950  1
  O  O173  1  0.599389  0.324936  0.498050  1
  O  O174  1  0.675064  0.400611  0.998050  1
  O  O175  1  0.400611  0.675064  0.501950  1
  O  O176  1  0.770650  0.656462  0.151273  1
  O  O177  1  0.656462  0.770650  0.348727  1
  O  O178  1  0.229350  0.343538  0.848727  1
  O  O179  1  0.343538  0.229350  0.651273  1
  O  O180  1  0.725484  0.807049  0.842451  1
  O  O181  1  0.807049  0.725484  0.657549  1
  O  O182  1  0.274516  0.192951  0.157549  1
  O  O183  1  0.192951  0.274516  0.342451  1
  O  O184  1  0.931132  0.651633  0.043403  1
  O  O185  1  0.651633  0.931132  0.456597  1
  O  O186  1  0.068868  0.348367  0.956597  1
  O  O187  1  0.348367  0.068868  0.543403  1
  O  O188  1  0.335150  0.403881  0.027181  1
  O  O189  1  0.403881  0.335150  0.472819  1
  O  O190  1  0.664850  0.596119  0.972819  1
  O  O191  1  0.596119  0.664850  0.527181  1
  O  O192  1  0.171612  0.101094  0.998283  1
  O  O193  1  0.101094  0.171612  0.501717  1
  O  O194  1  0.828388  0.898906  0.001717  1
  O  O195  1  0.898906  0.828388  0.498283  1
  O  O196  1  0.573813  0.841828  0.956255  1
  O  O197  1  0.841828  0.573813  0.543745  1
  O  O198  1  0.426187  0.158172  0.043745  1
  O  O199  1  0.158172  0.426187  0.456255  1
