# generated using pymatgen
data_LiMnPCO7
_symmetry_space_group_name_H-M   'P 1'
_cell_length_a   9.48560411
_cell_length_b   10.20354878
_cell_length_c   6.24434450
_cell_angle_alpha   90.00000000
_cell_angle_beta   90.00000000
_cell_angle_gamma   61.64543390
_symmetry_Int_Tables_number   1
_chemical_formula_structural   LiMnPCO7
_chemical_formula_sum   'Li4 Mn4 P4 C4 O28'
_cell_volume   531.86122396
_cell_formula_units_Z   4
loop_
 _symmetry_equiv_pos_site_id
 _symmetry_equiv_pos_as_xyz
  1  'x, y, z'
loop_
 _atom_site_type_symbol
 _atom_site_label
 _atom_site_symmetry_multiplicity
 _atom_site_fract_x
 _atom_site_fract_y
 _atom_site_fract_z
 _atom_site_occupancy
  Li  Li0  1  0.738678  0.254600  0.532002  1
  Li  Li1  1  0.738678  0.754600  0.967998  1
  Li  Li2  1  0.261322  0.245400  0.467998  1
  Li  Li3  1  0.261322  0.745400  0.032002  1
  Mn  Mn4  1  0.670847  0.061530  0.250652  1
  Mn  Mn5  1  0.670847  0.561530  0.249348  1
  Mn  Mn6  1  0.329153  0.438470  0.749348  1
  Mn  Mn7  1  0.329153  0.938470  0.750652  1
  P  P8  1  0.575193  0.073887  0.749611  1
  P  P9  1  0.575193  0.573887  0.750389  1
  P  P10  1  0.424807  0.426113  0.250389  1
  P  P11  1  0.424807  0.926113  0.249611  1
  C  C12  1  0.952060  0.378499  0.258395  1
  C  C13  1  0.952060  0.878499  0.241605  1
  C  C14  1  0.047940  0.121501  0.741605  1
  C  C15  1  0.047940  0.621501  0.758395  1
  O  O16  1  0.897683  0.023586  0.256208  1
  O  O17  1  0.897683  0.523586  0.243792  1
  O  O18  1  0.906271  0.216793  0.733399  1
  O  O19  1  0.829626  0.348645  0.264936  1
  O  O20  1  0.906271  0.716793  0.766601  1
  O  O21  1  0.829626  0.848645  0.235064  1
  O  O22  1  0.675511  0.068712  0.946252  1
  O  O23  1  0.687668  0.060684  0.559493  1
  O  O24  1  0.687668  0.560684  0.940507  1
  O  O25  1  0.675511  0.568712  0.553748  1
  O  O26  1  0.585213  0.280700  0.272249  1
  O  O27  1  0.536951  0.441031  0.740034  1
  O  O28  1  0.585213  0.780700  0.227751  1
  O  O29  1  0.536951  0.941031  0.759966  1
  O  O30  1  0.463049  0.058969  0.259966  1
  O  O31  1  0.414787  0.219300  0.727751  1
  O  O32  1  0.463049  0.558969  0.240034  1
  O  O33  1  0.414787  0.719300  0.772249  1
  O  O34  1  0.324489  0.431288  0.053748  1
  O  O35  1  0.312332  0.439316  0.440507  1
  O  O36  1  0.324489  0.931288  0.446252  1
  O  O37  1  0.312332  0.939316  0.059493  1
  O  O38  1  0.170374  0.151355  0.735064  1
  O  O39  1  0.093729  0.283207  0.266601  1
  O  O40  1  0.170374  0.651355  0.764936  1
  O  O41  1  0.093729  0.783207  0.233399  1
  O  O42  1  0.102317  0.476414  0.743792  1
  O  O43  1  0.102317  0.976414  0.756208  1
