# generated using pymatgen
data_LiFeF5
_symmetry_space_group_name_H-M   'P 1'
_cell_length_a   6.66935853
_cell_length_b   10.76771017
_cell_length_c   10.76771017
_cell_angle_alpha   95.50366676
_cell_angle_beta   108.04070109
_cell_angle_gamma   71.95929891
_symmetry_Int_Tables_number   1
_chemical_formula_structural   LiFeF5
_chemical_formula_sum   'Li8 Fe8 F40'
_cell_volume   699.10548104
_cell_formula_units_Z   8
loop_
 _symmetry_equiv_pos_site_id
 _symmetry_equiv_pos_as_xyz
  1  'x, y, z'
loop_
 _atom_site_type_symbol
 _atom_site_label
 _atom_site_symmetry_multiplicity
 _atom_site_fract_x
 _atom_site_fract_y
 _atom_site_fract_z
 _atom_site_occupancy
  Li  Li0  1  0.190738  0.207029  0.532013  1
  Li  Li1  1  0.634248  0.707029  0.032013  1
  Li  Li2  1  0.158723  0.532013  0.292971  1
  Li  Li3  1  0.102234  0.032013  0.792971  1
  Li  Li4  1  0.841277  0.467987  0.707029  1
  Li  Li5  1  0.897766  0.967987  0.207029  1
  Li  Li6  1  0.809262  0.792971  0.467987  1
  Li  Li7  1  0.365752  0.292971  0.967987  1
  Fe  Fe8  1  0.318839  0.043071  0.142661  1
  Fe  Fe9  1  0.861910  0.357339  0.043071  1
  Fe  Fe10  1  0.676178  0.142661  0.456929  1
  Fe  Fe11  1  0.719250  0.456929  0.357339  1
  Fe  Fe12  1  0.280750  0.543071  0.642661  1
  Fe  Fe13  1  0.323822  0.857339  0.543071  1
  Fe  Fe14  1  0.138090  0.642661  0.956929  1
  Fe  Fe15  1  0.681161  0.956929  0.857339  1
  F  F16  1  0.427700  0.156618  0.090999  1
  F  F17  1  0.049774  0.176077  0.127418  1
  F  F18  1  0.422356  0.127418  0.323923  1
  F  F19  1  0.836701  0.090999  0.343382  1
  F  F20  1  0.084318  0.409001  0.156618  1
  F  F21  1  0.725852  0.372582  0.176077  1
  F  F22  1  0.701864  0.527872  0.990021  1
  F  F23  1  0.260286  0.027872  0.490021  1
  F  F24  1  0.598433  0.323923  0.372582  1
  F  F25  1  0.440572  0.556808  0.284510  1
  F  F26  1  0.787129  0.056808  0.784510  1
  F  F27  1  0.991733  0.681969  0.084189  1
  F  F28  1  0.910486  0.181969  0.584189  1
  F  F29  1  0.993318  0.343382  0.409001  1
  F  F30  1  0.343938  0.715490  0.056808  1
  F  F31  1  0.497381  0.215490  0.556808  1
  F  F32  1  0.407545  0.084189  0.818031  1
  F  F33  1  0.826297  0.584189  0.318031  1
  F  F34  1  0.270265  0.490021  0.472128  1
  F  F35  1  0.211842  0.990021  0.972128  1
  F  F36  1  0.788158  0.009979  0.027872  1
  F  F37  1  0.729735  0.509979  0.527872  1
  F  F38  1  0.592455  0.915811  0.181969  1
  F  F39  1  0.173703  0.415811  0.681969  1
  F  F40  1  0.502619  0.784510  0.443192  1
  F  F41  1  0.656062  0.284510  0.943192  1
  F  F42  1  0.006682  0.656618  0.590999  1
  F  F43  1  0.089514  0.818031  0.415811  1
  F  F44  1  0.008267  0.318031  0.915811  1
  F  F45  1  0.212871  0.943192  0.215490  1
  F  F46  1  0.559428  0.443192  0.715490  1
  F  F47  1  0.401567  0.676077  0.627418  1
  F  F48  1  0.739714  0.972128  0.509979  1
  F  F49  1  0.298136  0.472128  0.009979  1
  F  F50  1  0.274148  0.627418  0.823923  1
  F  F51  1  0.915682  0.590999  0.843382  1
  F  F52  1  0.163299  0.909001  0.656618  1
  F  F53  1  0.577644  0.872582  0.676077  1
  F  F54  1  0.950226  0.823923  0.872582  1
  F  F55  1  0.572300  0.843382  0.909001  1
