# generated using pymatgen
data_VO2F
_symmetry_space_group_name_H-M   'P 1'
_cell_length_a   5.36572659
_cell_length_b   11.10322081
_cell_length_c   5.48011307
_cell_angle_alpha   77.71136817
_cell_angle_beta   89.99865733
_cell_angle_gamma   104.07623924
_symmetry_Int_Tables_number   1
_chemical_formula_structural   VO2F
_chemical_formula_sum   'V6 O12 F6'
_cell_volume   308.96616251
_cell_formula_units_Z   6
loop_
 _symmetry_equiv_pos_site_id
 _symmetry_equiv_pos_as_xyz
  1  'x, y, z'
loop_
 _atom_site_type_symbol
 _atom_site_label
 _atom_site_symmetry_multiplicity
 _atom_site_fract_x
 _atom_site_fract_y
 _atom_site_fract_z
 _atom_site_occupancy
  V  V0  1  0.874521  0.660076  0.195066  1
  V  V1  1  0.701733  0.336779  0.295154  1
  V  V2  1  0.529515  0.994741  0.539216  1
  V  V3  1  0.381362  0.671203  0.639866  1
  V  V4  1  0.024757  0.002993  0.046058  1
  V  V5  1  0.186438  0.328158  0.788246  1
  O  O6  1  0.004945  0.167040  0.916557  1
  O  O7  1  0.958068  0.360218  0.114298  1
  O  O8  1  0.635061  0.167155  0.415793  1
  O  O9  1  0.664740  0.500256  0.254216  1
  O  O10  1  0.764595  0.973876  0.718609  1
  O  O11  1  0.632938  0.694878  0.440089  1
  O  O12  1  0.211224  0.029315  0.274272  1
  O  O13  1  0.348549  0.304245  0.558909  1
  O  O14  1  0.300498  0.501550  0.748942  1
  O  O15  1  0.331656  0.833758  0.579152  1
  O  O16  1  0.104571  0.638804  0.392895  1
  O  O17  1  0.965881  0.832843  0.083934  1
  F  F18  1  0.886062  0.362205  0.603198  1
  F  F19  1  0.444045  0.307080  0.041929  1
  F  F20  1  0.303733  0.026989  0.790416  1
  F  F21  1  0.690740  0.971669  0.230198  1
  F  F22  1  0.542026  0.696198  0.928338  1
  F  F23  1  0.012341  0.637973  0.904649  1
