# generated using pymatgen
data_Li4Fe7(PO4)6
_symmetry_space_group_name_H-M   'P 1'
_cell_length_a   8.96418809
_cell_length_b   8.96418809
_cell_length_c   6.57041680
_cell_angle_alpha   80.42937117
_cell_angle_beta   99.57062883
_cell_angle_gamma   74.42957407
_symmetry_Int_Tables_number   1
_chemical_formula_structural   Li4Fe7(PO4)6
_chemical_formula_sum   'Li4 Fe7 P6 O24'
_cell_volume   489.00516649
_cell_formula_units_Z   1
loop_
 _symmetry_equiv_pos_site_id
 _symmetry_equiv_pos_as_xyz
  1  'x, y, z'
loop_
 _atom_site_type_symbol
 _atom_site_label
 _atom_site_symmetry_multiplicity
 _atom_site_fract_x
 _atom_site_fract_y
 _atom_site_fract_z
 _atom_site_occupancy
  Li  Li0  1  0.997074  0.002926  0.497384  1
  Li  Li1  1  0.370045  0.629955  0.581068  1
  Li  Li2  1  0.669209  0.561600  0.496854  1
  Li  Li3  1  0.438399  0.330791  0.496854  1
  Fe  Fe4  1  0.642915  0.997607  0.181091  1
  Fe  Fe5  1  0.002393  0.357085  0.181091  1
  Fe  Fe6  1  0.001674  0.998326  0.997851  1
  Fe  Fe7  1  0.335802  0.327072  0.002178  1
  Fe  Fe8  1  0.672928  0.664198  0.002178  1
  Fe  Fe9  1  0.362733  0.991978  0.822694  1
  Fe  Fe10  1  0.008022  0.637268  0.822694  1
  P  P11  1  0.723238  0.901768  0.698840  1
  P  P12  1  0.098232  0.276762  0.698840  1
  P  P13  1  0.329943  0.670057  0.094209  1
  P  P14  1  0.676852  0.323148  0.916193  1
  P  P15  1  0.284493  0.079898  0.304459  1
  P  P16  1  0.920102  0.715507  0.304459  1
  O  O17  1  0.348782  0.962079  0.519007  1
  O  O18  1  0.037921  0.651218  0.519007  1
  O  O19  1  0.050613  0.373096  0.869630  1
  O  O20  1  0.626904  0.949387  0.869630  1
  O  O21  1  0.197322  0.802678  0.129302  1
  O  O22  1  0.257052  0.568491  0.954831  1
  O  O23  1  0.431509  0.742948  0.954831  1
  O  O24  1  0.902525  0.893883  0.755797  1
  O  O25  1  0.106117  0.097475  0.755797  1
  O  O26  1  0.731241  0.721375  0.711259  1
  O  O27  1  0.278625  0.268759  0.711259  1
  O  O28  1  0.435650  0.564350  0.307692  1
  O  O29  1  0.563913  0.436087  0.710107  1
  O  O30  1  0.291185  0.255220  0.299445  1
  O  O31  1  0.744780  0.708815  0.299445  1
  O  O32  1  0.101778  0.102343  0.240378  1
  O  O33  1  0.897657  0.898222  0.240378  1
  O  O34  1  0.806375  0.193625  0.869840  1
  O  O35  1  0.381156  0.027595  0.137016  1
  O  O36  1  0.972405  0.618844  0.137016  1
  O  O37  1  0.755212  0.423433  0.049969  1
  O  O38  1  0.576567  0.244788  0.049969  1
  O  O39  1  0.983512  0.353925  0.485133  1
  O  O40  1  0.646076  0.016488  0.485133  1
