# generated using pymatgen
data_Li9Mn4(BO3)8
_symmetry_space_group_name_H-M   'P 1'
_cell_length_a   5.21370988
_cell_length_b   8.79872399
_cell_length_c   9.71670680
_cell_angle_alpha   90.92907020
_cell_angle_beta   86.32865038
_cell_angle_gamma   90.99608940
_symmetry_Int_Tables_number   1
_chemical_formula_structural   Li9Mn4(BO3)8
_chemical_formula_sum   'Li9 Mn4 B8 O24'
_cell_volume   444.71121532
_cell_formula_units_Z   1
loop_
 _symmetry_equiv_pos_site_id
 _symmetry_equiv_pos_as_xyz
  1  'x, y, z'
loop_
 _atom_site_type_symbol
 _atom_site_label
 _atom_site_symmetry_multiplicity
 _atom_site_fract_x
 _atom_site_fract_y
 _atom_site_fract_z
 _atom_site_occupancy
  Li  Li0  1  0.134192  0.016691  0.318838  1
  Li  Li1  1  0.295166  0.534484  0.615435  1
  Li  Li2  1  0.100676  0.055508  0.854630  1
  Li  Li3  1  0.179006  0.349454  0.381067  1
  Li  Li4  1  0.372988  0.571206  0.162499  1
  Li  Li5  1  0.669965  0.472932  0.392314  1
  Li  Li6  1  0.616635  0.433984  0.842638  1
  Li  Li7  1  0.778172  0.968026  0.111736  1
  Li  Li8  1  0.807477  0.686510  0.627887  1
  Mn  Mn9  1  0.881687  0.298365  0.123049  1
  Mn  Mn10  1  0.390765  0.205293  0.623823  1
  Mn  Mn11  1  0.614695  0.795695  0.376973  1
  Mn  Mn12  1  0.105259  0.709702  0.879028  1
  B  B13  1  0.151270  0.678363  0.389625  1
  B  B14  1  0.153262  0.367860  0.861355  1
  B  B15  1  0.322002  0.213317  0.114858  1
  B  B16  1  0.318081  0.863923  0.636224  1
  B  B17  1  0.669753  0.149642  0.361749  1
  B  B18  1  0.661578  0.789647  0.885784  1
  B  B19  1  0.841547  0.636521  0.133649  1
  B  B20  1  0.828887  0.294611  0.614405  1
  O  O21  1  0.081681  0.659706  0.069644  1
  O  O22  1  0.082718  0.333878  0.594039  1
  O  O23  1  0.109434  0.114936  0.105943  1
  O  O24  1  0.235085  0.360629  0.144523  1
  O  O25  1  0.145950  0.746784  0.682097  1
  O  O26  1  0.239082  0.010689  0.658334  1
  O  O27  1  0.318953  0.558984  0.394692  1
  O  O28  1  0.247427  0.820470  0.353864  1
  O  O29  1  0.249671  0.512030  0.833154  1
  O  O30  1  0.317847  0.249544  0.820172  1
  O  O31  1  0.421114  0.179190  0.422198  1
  O  O32  1  0.413007  0.829540  0.898516  1
  O  O33  1  0.571869  0.172658  0.104406  1
  O  O34  1  0.547283  0.817174  0.573783  1
  O  O35  1  0.732953  0.493382  0.156709  1
  O  O36  1  0.685817  0.754513  0.179301  1
  O  O37  1  0.735490  0.149649  0.639244  1
  O  O38  1  0.762288  0.010198  0.334992  1
  O  O39  1  0.627302  0.399133  0.609424  1
  O  O40  1  0.828116  0.277573  0.324226  1
  O  O41  1  0.752960  0.645000  0.845691  1
  O  O42  1  0.870170  0.884973  0.913490  1
  O  O43  1  0.890439  0.654663  0.420946  1
  O  O44  1  0.916067  0.333267  0.926157  1
