# generated using pymatgen
data_LiMnPO5
_symmetry_space_group_name_H-M   'P 1'
_cell_length_a   7.18274420
_cell_length_b   7.81571375
_cell_length_c   7.01305806
_cell_angle_alpha   90.00000000
_cell_angle_beta   60.61931893
_cell_angle_gamma   90.00000000
_symmetry_Int_Tables_number   1
_chemical_formula_structural   LiMnPO5
_chemical_formula_sum   'Li4 Mn4 P4 O20'
_cell_volume   343.06286502
_cell_formula_units_Z   4
loop_
 _symmetry_equiv_pos_site_id
 _symmetry_equiv_pos_as_xyz
  1  'x, y, z'
loop_
 _atom_site_type_symbol
 _atom_site_label
 _atom_site_symmetry_multiplicity
 _atom_site_fract_x
 _atom_site_fract_y
 _atom_site_fract_z
 _atom_site_occupancy
  Li  Li0  1  0.251631  0.939498  0.966157  1
  Li  Li1  1  0.251631  0.560502  0.466157  1
  Li  Li2  1  0.748369  0.439498  0.533843  1
  Li  Li3  1  0.748369  0.060502  0.033843  1
  Mn  Mn4  1  0.249863  0.252294  0.750204  1
  Mn  Mn5  1  0.249863  0.247706  0.250205  1
  Mn  Mn6  1  0.750137  0.752294  0.749796  1
  Mn  Mn7  1  0.750137  0.747706  0.249795  1
  P  P8  1  0.250340  0.894672  0.500890  1
  P  P9  1  0.749660  0.394672  0.999110  1
  P  P10  1  0.250340  0.605328  0.000890  1
  P  P11  1  0.749660  0.105328  0.499110  1
  O  O12  1  0.249147  0.176037  0.999638  1
  O  O13  1  0.261144  0.494467  0.813589  1
  O  O14  1  0.062677  0.764217  0.590096  1
  O  O15  1  0.436782  0.736950  0.911351  1
  O  O16  1  0.241971  0.004823  0.688542  1
  O  O17  1  0.249147  0.323963  0.499638  1
  O  O18  1  0.261144  0.005533  0.313589  1
  O  O19  1  0.062677  0.735783  0.090096  1
  O  O20  1  0.758029  0.504823  0.811458  1
  O  O21  1  0.563218  0.236950  0.588649  1
  O  O22  1  0.436782  0.763050  0.411351  1
  O  O23  1  0.241971  0.495177  0.188542  1
  O  O24  1  0.937322  0.264217  0.909904  1
  O  O25  1  0.738856  0.994467  0.686411  1
  O  O26  1  0.750853  0.676037  0.500362  1
  O  O27  1  0.758029  0.995177  0.311458  1
  O  O28  1  0.563218  0.263050  0.088649  1
  O  O29  1  0.937322  0.235783  0.409904  1
  O  O30  1  0.738856  0.505533  0.186411  1
  O  O31  1  0.750853  0.823963  0.000362  1
