# generated using pymatgen
data_KMg8Al17Si19O72
_symmetry_space_group_name_H-M   'P 1'
_cell_length_a   10.01859133
_cell_length_b   9.98009815
_cell_length_c   18.85709501
_cell_angle_alpha   90.05783434
_cell_angle_beta   89.93152604
_cell_angle_gamma   119.94907222
_symmetry_Int_Tables_number   1
_chemical_formula_structural   KMg8Al17Si19O72
_chemical_formula_sum   'K1 Mg8 Al17 Si19 O72'
_cell_volume   1633.68822672
_cell_formula_units_Z   1
loop_
 _symmetry_equiv_pos_site_id
 _symmetry_equiv_pos_as_xyz
  1  'x, y, z'
loop_
 _atom_site_type_symbol
 _atom_site_label
 _atom_site_symmetry_multiplicity
 _atom_site_fract_x
 _atom_site_fract_y
 _atom_site_fract_z
 _atom_site_occupancy
  K  K0  1  0.975959  0.983139  0.919715  1
  Mg  Mg1  1  0.333486  0.666801  0.126141  1
  Mg  Mg2  1  0.333794  0.667000  0.625618  1
  Mg  Mg3  1  0.338551  0.676631  0.376190  1
  Mg  Mg4  1  0.340386  0.669888  0.872664  1
  Mg  Mg5  1  0.678169  0.336002  0.127554  1
  Mg  Mg6  1  0.679445  0.337655  0.625780  1
  Mg  Mg7  1  0.674835  0.333838  0.373409  1
  Mg  Mg8  1  0.668146  0.333579  0.872384  1
  Al  Al9  1  0.499012  0.499823  0.874937  1
  Al  Al10  1  0.624843  0.731500  0.999055  1
  Al  Al11  1  0.627620  0.731291  0.499474  1
  Al  Al12  1  0.366118  0.095697  0.251783  1
  Al  Al13  1  0.366219  0.098611  0.750812  1
  Al  Al14  1  0.730868  0.629621  0.250190  1
  Al  Al15  1  0.730128  0.624580  0.748772  1
  Al  Al16  1  0.511288  0.011474  0.376016  1
  Al  Al17  1  0.509756  0.010246  0.874756  1
  Al  Al18  1  0.903100  0.634877  0.000997  1
  Al  Al19  1  0.905139  0.636880  0.500836  1
  Al  Al20  1  0.738813  0.111919  0.000020  1
  Al  Al21  1  0.738560  0.109309  0.500096  1
  Al  Al22  1  0.998910  0.495087  0.125494  1
  Al  Al23  1  0.999639  0.496085  0.625315  1
  Al  Al24  1  0.898704  0.261164  0.250276  1
  Al  Al25  1  0.897056  0.261228  0.749494  1
  Si  Si26  1  0.100707  0.723477  0.250258  1
  Si  Si27  1  0.101740  0.725321  0.749771  1
  Si  Si28  1  0.276391  0.906702  0.000464  1
  Si  Si29  1  0.276488  0.906844  0.500302  1
  Si  Si30  1  0.108469  0.377745  0.999475  1
  Si  Si31  1  0.105420  0.377424  0.500177  1
  Si  Si32  1  0.506714  0.009411  0.624502  1
  Si  Si33  1  0.268360  0.364380  0.250063  1
  Si  Si34  1  0.267436  0.367971  0.749550  1
  Si  Si35  1  0.622596  0.894986  0.250301  1
  Si  Si36  1  0.623358  0.893439  0.749925  1
  Si  Si37  1  0.367520  0.270883  0.000075  1
  Si  Si38  1  0.361502  0.269088  0.499002  1
  Si  Si39  1  0.495558  0.496954  0.126812  1
  Si  Si40  1  0.494242  0.496104  0.624170  1
  Si  Si41  1  0.495766  0.497469  0.375581  1
  Si  Si42  1  0.504987  0.008152  0.124954  1
  Si  Si43  1  0.001826  0.497215  0.374795  1
  Si  Si44  1  0.001251  0.496957  0.874756  1
  O  O45  1  0.095685  0.789061  0.003132  1
  O  O46  1  0.098729  0.785173  0.504892  1
  O  O47  1  0.222900  0.903206  0.254554  1
  O  O48  1  0.223468  0.905453  0.755798  1
  O  O49  1  0.140598  0.645689  0.180871  1
  O  O50  1  0.142011  0.646656  0.680999  1
  O  O51  1  0.130134  0.641829  0.324078  1
  O  O52  1  0.128262  0.642215  0.824204  1
  O  O53  1  0.145628  0.491030  0.069215  1
  O  O54  1  0.146843  0.494086  0.568765  1
  O  O55  1  0.133610  0.482819  0.424905  1
  O  O56  1  0.132522  0.481733  0.925250  1
  O  O57  1  0.359426  0.882294  0.073947  1
  O  O58  1  0.360586  0.884483  0.573754  1
  O  O59  1  0.355790  0.873318  0.430779  1
  O  O60  1  0.355947  0.875656  0.931313  1
  O  O61  1  0.093045  0.320198  0.249367  1
  O  O62  1  0.088234  0.311349  0.746290  1
  O  O63  1  0.224079  0.305094  0.995330  1
  O  O64  1  0.224979  0.310319  0.496103  1
  O  O65  1  0.517236  0.876111  0.175062  1
  O  O66  1  0.519693  0.876850  0.674428  1
  O  O67  1  0.506352  0.861684  0.818183  1
  O  O68  1  0.506052  0.861943  0.318870  1
  O  O69  1  0.352792  0.474054  0.322078  1
  O  O70  1  0.348168  0.484087  0.817795  1
  O  O71  1  0.353399  0.479997  0.179122  1
  O  O72  1  0.350490  0.475890  0.675791  1
  O  O73  1  0.301996  0.226091  0.246537  1
  O  O74  1  0.300087  0.227624  0.749263  1
  O  O75  1  0.510360  0.639514  0.078821  1
  O  O76  1  0.499277  0.634549  0.424027  1
  O  O77  1  0.504418  0.636456  0.575849  1
  O  O78  1  0.492137  0.639027  0.929274  1
  O  O79  1  0.698587  0.925843  0.997828  1
  O  O80  1  0.673066  0.917199  0.498643  1
  O  O81  1  0.304866  0.085300  0.002348  1
  O  O82  1  0.314045  0.088678  0.498968  1
  O  O83  1  0.459871  0.346083  0.075908  1
  O  O84  1  0.467315  0.349353  0.427091  1
  O  O85  1  0.461946  0.346999  0.572075  1
  O  O86  1  0.477399  0.345689  0.931919  1
  O  O87  1  0.672788  0.765863  0.245807  1
  O  O88  1  0.676474  0.766393  0.746941  1
  O  O89  1  0.636775  0.507039  0.174220  1
  O  O90  1  0.639809  0.513539  0.327973  1
  O  O91  1  0.647923  0.507101  0.823555  1
  O  O92  1  0.637158  0.508679  0.670614  1
  O  O93  1  0.476312  0.126511  0.172597  1
  O  O94  1  0.475714  0.127052  0.671853  1
  O  O95  1  0.493933  0.145062  0.322355  1
  O  O96  1  0.491214  0.142896  0.821960  1
  O  O97  1  0.776811  0.699599  0.991045  1
  O  O98  1  0.762590  0.679107  0.494416  1
  O  O99  1  0.922667  0.679425  0.249162  1
  O  O100  1  0.926088  0.687451  0.747332  1
  O  O101  1  0.648839  0.133688  0.077861  1
  O  O102  1  0.650563  0.135668  0.577990  1
  O  O103  1  0.655520  0.153470  0.428815  1
  O  O104  1  0.655358  0.151161  0.928061  1
  O  O105  1  0.864121  0.508178  0.072049  1
  O  O106  1  0.866258  0.507453  0.570840  1
  O  O107  1  0.884971  0.525786  0.422165  1
  O  O108  1  0.885772  0.525537  0.923330  1
  O  O109  1  0.862071  0.347359  0.178574  1
  O  O110  1  0.861198  0.349294  0.678659  1
  O  O111  1  0.879254  0.352189  0.327544  1
  O  O112  1  0.880065  0.350601  0.828136  1
  O  O113  1  0.762132  0.067712  0.253719  1
  O  O114  1  0.763459  0.066544  0.755248  1
  O  O115  1  0.938279  0.234803  0.000718  1
  O  O116  1  0.934977  0.239712  0.502827  1
