# generated using pymatgen
data_NiH44C12N8(ClO5)2
_symmetry_space_group_name_H-M   'P 1'
_cell_length_a   9.39967664
_cell_length_b   9.44952527
_cell_length_c   9.50482478
_cell_angle_alpha   119.55337474
_cell_angle_beta   93.94874181
_cell_angle_gamma   101.19505605
_symmetry_Int_Tables_number   1
_chemical_formula_structural   NiH44C12N8(ClO5)2
_chemical_formula_sum   'Ni1 H44 C12 N8 Cl2 O10'
_cell_volume   706.89574450
_cell_formula_units_Z   1
loop_
 _symmetry_equiv_pos_site_id
 _symmetry_equiv_pos_as_xyz
  1  'x, y, z'
loop_
 _atom_site_type_symbol
 _atom_site_label
 _atom_site_symmetry_multiplicity
 _atom_site_fract_x
 _atom_site_fract_y
 _atom_site_fract_z
 _atom_site_occupancy
  Ni  Ni0  1  0.000000  0.000000  0.000000  1
  H  H1  1  0.863511  0.895956  0.186965  1
  H  H2  1  0.136489  0.104044  0.813035  1
  H  H3  1  0.806578  0.054178  0.220190  1
  H  H4  1  0.193422  0.945822  0.779810  1
  H  H5  1  0.876343  0.737371  0.679259  1
  H  H6  1  0.123657  0.262629  0.320741  1
  H  H7  1  0.807421  0.686806  0.803304  1
  H  H8  1  0.192579  0.313194  0.196696  1
  H  H9  1  0.796915  0.088126  0.854730  1
  H  H10  1  0.203085  0.911874  0.145270  1
  H  H11  1  0.881106  0.249220  0.029198  1
  H  H12  1  0.118894  0.750780  0.970802  1
  H  H13  1  0.548166  0.988388  0.672483  1
  H  H14  1  0.451834  0.011612  0.327517  1
  H  H15  1  0.667543  0.094805  0.628952  1
  H  H16  1  0.332457  0.905195  0.371048  1
  H  H17  1  0.588435  0.499907  0.777319  1
  H  H18  1  0.411565  0.500093  0.222681  1
  H  H19  1  0.704408  0.410105  0.680568  1
  H  H20  1  0.295592  0.589895  0.319432  1
  H  H21  1  0.985298  0.447616  0.625447  1
  H  H22  1  0.014702  0.552384  0.374553  1
  H  H23  1  0.143735  0.592630  0.630092  1
  H  H24  1  0.856265  0.407370  0.369908  1
  H  H25  1  0.362050  0.506677  0.561696  1
  H  H26  1  0.637950  0.493323  0.438304  1
  H  H27  1  0.369835  0.295068  0.499255  1
  H  H28  1  0.630165  0.704932  0.500745  1
  H  H29  1  0.361458  0.640053  0.990807  1
  H  H30  1  0.638542  0.359947  0.009193  1
  H  H31  1  0.361436  0.702970  0.840428  1
  H  H32  1  0.638564  0.297030  0.159572  1
  H  H33  1  0.992063  0.169133  0.545521  1
  H  H34  1  0.007937  0.830867  0.454479  1
  H  H35  1  0.157125  0.101816  0.492138  1
  H  H36  1  0.842875  0.898184  0.507862  1
  H  H37  1  0.368855  0.358082  0.909917  1
  H  H38  1  0.631145  0.641918  0.090083  1
  H  H39  1  0.371825  0.209897  0.699482  1
  H  H40  1  0.628175  0.790103  0.300518  1
  H  H41  1  0.150973  0.448370  0.982113  1
  H  H42  1  0.849027  0.551630  0.017887  1
  H  H43  1  0.988979  0.366506  0.824918  1
  H  H44  1  0.011021  0.633494  0.175082  1
  C  C45  1  0.106508  0.488962  0.652054  1
  C  C46  1  0.893492  0.511038  0.347946  1
  C  C47  1  0.326200  0.400689  0.580845  1
  C  C48  1  0.673800  0.599311  0.419155  1
  C  C49  1  0.323189  0.598651  0.861408  1
  C  C50  1  0.676811  0.401349  0.138592  1
  C  C51  1  0.113537  0.207615  0.572911  1
  C  C52  1  0.886463  0.792385  0.427089  1
  C  C53  1  0.329378  0.316758  0.780823  1
  C  C54  1  0.670622  0.683242  0.219177  1
  C  C55  1  0.110227  0.407003  0.853375  1
  C  C56  1  0.889773  0.592997  0.146625  1
  N  N57  1  0.163008  0.345285  0.540554  1
  N  N58  1  0.836992  0.654715  0.459446  1
  N  N59  1  0.384221  0.457544  0.754067  1
  N  N60  1  0.615779  0.542456  0.245933  1
  N  N61  1  0.159761  0.548994  0.826878  1
  N  N62  1  0.840239  0.451006  0.173122  1
  N  N63  1  0.166217  0.261166  0.745954  1
  N  N64  1  0.833783  0.738834  0.254046  1
  Cl  Cl65  1  0.688905  0.175556  0.441411  1
  Cl  Cl66  1  0.311095  0.824444  0.558589  1
  O  O67  1  0.847303  0.965436  0.138550  1
  O  O68  1  0.152697  0.034564  0.861450  1
  O  O69  1  0.883650  0.772840  0.797822  1
  O  O70  1  0.116350  0.227160  0.202178  1
  O  O71  1  0.889061  0.138053  0.939401  1
  O  O72  1  0.110939  0.861947  0.060599  1
  O  O73  1  0.652681  0.053653  0.705792  1
  O  O74  1  0.347319  0.946347  0.294208  1
  O  O75  1  0.697336  0.510862  0.782777  1
  O  O76  1  0.302664  0.489138  0.217223  1
