# generated using pymatgen
data_LiZr2(PO4)3
_symmetry_space_group_name_H-M   'P 1'
_cell_length_a   8.83654717
_cell_length_b   8.89000770
_cell_length_c   9.16696567
_cell_angle_alpha   60.95877208
_cell_angle_beta   118.86093028
_cell_angle_gamma   118.84546596
_symmetry_Int_Tables_number   1
_chemical_formula_structural   LiZr2(PO4)3
_chemical_formula_sum   'Li2 Zr4 P6 O24'
_cell_volume   521.63216329
_cell_formula_units_Z   2
loop_
 _symmetry_equiv_pos_site_id
 _symmetry_equiv_pos_as_xyz
  1  'x, y, z'
loop_
 _atom_site_type_symbol
 _atom_site_label
 _atom_site_symmetry_multiplicity
 _atom_site_fract_x
 _atom_site_fract_y
 _atom_site_fract_z
 _atom_site_occupancy
  Li  Li0  1  0.224885  0.682509  0.573127  1
  Li  Li1  1  0.775115  0.317491  0.426873  1
  Zr  Zr2  1  0.135199  0.356933  0.931460  1
  Zr  Zr3  1  0.362641  0.142255  0.576627  1
  Zr  Zr4  1  0.637359  0.857745  0.423373  1
  Zr  Zr5  1  0.864801  0.643067  0.068540  1
  P  P6  1  0.041702  0.752806  0.753864  1
  P  P7  1  0.243826  0.954008  0.258913  1
  P  P8  1  0.464276  0.479178  0.743141  1
  P  P9  1  0.535724  0.520822  0.256859  1
  P  P10  1  0.756174  0.045992  0.741087  1
  P  P11  1  0.958298  0.247194  0.246136  1
  O  O12  1  0.027690  0.690199  0.937008  1
  O  O13  1  0.194624  0.937829  0.723431  1
  O  O14  1  0.093183  0.613546  0.743695  1
  O  O15  1  0.274035  0.957255  0.439318  1
  O  O16  1  0.094799  0.767938  0.249494  1
  O  O17  1  0.282054  0.418734  0.772628  1
  O  O18  1  0.143578  0.234588  0.387997  1
  O  O19  1  0.420877  0.961637  0.257776  1
  O  O20  1  0.471131  0.666078  0.592288  1
  O  O21  1  0.628265  0.501751  0.910283  1
  O  O22  1  0.817470  0.886685  0.896976  1
  O  O23  1  0.460931  0.338216  0.689201  1
  O  O24  1  0.539069  0.661784  0.310799  1
  O  O25  1  0.182530  0.113315  0.103024  1
  O  O26  1  0.371735  0.498249  0.089717  1
  O  O27  1  0.528869  0.333922  0.407712  1
  O  O28  1  0.579123  0.038363  0.742224  1
  O  O29  1  0.856422  0.765412  0.612003  1
  O  O30  1  0.717946  0.581266  0.227373  1
  O  O31  1  0.905201  0.232062  0.750506  1
  O  O32  1  0.725965  0.042745  0.560682  1
  O  O33  1  0.906817  0.386454  0.256305  1
  O  O34  1  0.805376  0.062171  0.276569  1
  O  O35  1  0.972310  0.309801  0.062992  1
