# generated using pymatgen
data_Li3Mn4(BO3)4
_symmetry_space_group_name_H-M   'P 1'
_cell_length_a   9.04933389
_cell_length_b   5.29615834
_cell_length_c   10.87957703
_cell_angle_alpha   100.91701761
_cell_angle_beta   100.18448462
_cell_angle_gamma   89.39505959
_symmetry_Int_Tables_number   1
_chemical_formula_structural   Li3Mn4(BO3)4
_chemical_formula_sum   'Li6 Mn8 B8 O24'
_cell_volume   503.77690358
_cell_formula_units_Z   2
loop_
 _symmetry_equiv_pos_site_id
 _symmetry_equiv_pos_as_xyz
  1  'x, y, z'
loop_
 _atom_site_type_symbol
 _atom_site_label
 _atom_site_symmetry_multiplicity
 _atom_site_fract_x
 _atom_site_fract_y
 _atom_site_fract_z
 _atom_site_occupancy
  Li  Li0  1  0.891956  0.495405  0.841377  1
  Li  Li1  1  0.367051  0.248740  0.672842  1
  Li  Li2  1  0.860382  0.761733  0.659016  1
  Li  Li3  1  0.640884  0.751193  0.345406  1
  Li  Li4  1  0.605217  0.010229  0.159414  1
  Li  Li5  1  0.118420  0.497035  0.170398  1
  Mn  Mn6  1  0.730778  0.025255  0.880559  1
  Mn  Mn7  1  0.244701  0.520027  0.878251  1
  Mn  Mn8  1  0.016014  0.234761  0.618734  1
  Mn  Mn9  1  0.505785  0.728998  0.625513  1
  Mn  Mn10  1  0.476651  0.276576  0.377530  1
  Mn  Mn11  1  0.994863  0.767398  0.379950  1
  Mn  Mn12  1  0.766993  0.483752  0.126392  1
  Mn  Mn13  1  0.250586  0.972864  0.122962  1
  B  B14  1  0.063616  0.016593  0.877611  1
  B  B15  1  0.576454  0.505624  0.863584  1
  B  B16  1  0.680040  0.243994  0.629281  1
  B  B17  1  0.183353  0.737256  0.629061  1
  B  B18  1  0.812680  0.260249  0.371200  1
  B  B19  1  0.323440  0.759705  0.366661  1
  B  B20  1  0.430993  0.492616  0.130290  1
  B  B21  1  0.931384  0.985363  0.128175  1
  O  O22  1  0.718051  0.430749  0.918127  1
  O  O23  1  0.450705  0.362037  0.855507  1
  O  O24  1  0.936846  0.858823  0.849151  1
  O  O25  1  0.686121  0.998055  0.657789  1
  O  O26  1  0.062324  0.252703  0.840106  1
  O  O27  1  0.572718  0.730976  0.811197  1
  O  O28  1  0.199504  0.923137  0.937522  1
  O  O29  1  0.805722  0.399481  0.649788  1
  O  O30  1  0.536532  0.336504  0.585999  1
  O  O31  1  0.198991  0.502526  0.669178  1
  O  O32  1  0.946793  0.160513  0.419677  1
  O  O33  1  0.307175  0.891863  0.631894  1
  O  O34  1  0.680764  0.112723  0.348378  1
  O  O35  1  0.040690  0.823876  0.588028  1
  O  O36  1  0.808210  0.506226  0.340148  1
  O  O37  1  0.466120  0.692491  0.431767  1
  O  O38  1  0.201174  0.606074  0.353201  1
  O  O39  1  0.786532  0.070544  0.087010  1
  O  O40  1  0.432426  0.248124  0.159361  1
  O  O41  1  0.949738  0.747532  0.164008  1
  O  O42  1  0.323071  0.974204  0.309036  1
  O  O43  1  0.053904  0.143358  0.131892  1
  O  O44  1  0.558086  0.645438  0.151406  1
  O  O45  1  0.290041  0.590209  0.087104  1
