# generated using pymatgen
data_Na2VSiCO7
_symmetry_space_group_name_H-M   'P 1'
_cell_length_a   9.05006092
_cell_length_b   6.47378688
_cell_length_c   5.29263282
_cell_angle_alpha   90.00000000
_cell_angle_beta   88.80626763
_cell_angle_gamma   90.00000000
_symmetry_Int_Tables_number   1
_chemical_formula_structural   Na2VSiCO7
_chemical_formula_sum   'Na4 V2 Si2 C2 O14'
_cell_volume   310.01834991
_cell_formula_units_Z   2
loop_
 _symmetry_equiv_pos_site_id
 _symmetry_equiv_pos_as_xyz
  1  'x, y, z'
loop_
 _atom_site_type_symbol
 _atom_site_label
 _atom_site_symmetry_multiplicity
 _atom_site_fract_x
 _atom_site_fract_y
 _atom_site_fract_z
 _atom_site_occupancy
  Na  Na0  1  0.233803  0.496008  0.240184  1
  Na  Na1  1  0.233803  0.003992  0.240184  1
  Na  Na2  1  0.766197  0.503992  0.759816  1
  Na  Na3  1  0.766197  0.996008  0.759816  1
  V  V4  1  0.348465  0.750000  0.793490  1
  V  V5  1  0.651535  0.250000  0.206510  1
  Si  Si6  1  0.429108  0.250000  0.701847  1
  Si  Si7  1  0.570892  0.750000  0.298153  1
  C  C8  1  0.074327  0.750000  0.727826  1
  C  C9  1  0.925673  0.250000  0.272174  1
  O  O10  1  0.062606  0.250000  0.296717  1
  O  O11  1  0.139009  0.750000  0.949836  1
  O  O12  1  0.170641  0.750000  0.536996  1
  O  O13  1  0.333927  0.041095  0.779409  1
  O  O14  1  0.333927  0.458905  0.779409  1
  O  O15  1  0.417212  0.750000  0.140173  1
  O  O16  1  0.459214  0.250000  0.393541  1
  O  O17  1  0.540786  0.750000  0.606459  1
  O  O18  1  0.582788  0.250000  0.859828  1
  O  O19  1  0.666073  0.541095  0.220591  1
  O  O20  1  0.666073  0.958905  0.220591  1
  O  O21  1  0.829359  0.250000  0.463004  1
  O  O22  1  0.860991  0.250000  0.050164  1
  O  O23  1  0.937394  0.750000  0.703283  1
