# generated using pymatgen
data_Mn6O7F5
_symmetry_space_group_name_H-M   'P 1'
_cell_length_a   4.72883323
_cell_length_b   7.72880668
_cell_length_c   5.59231225
_cell_angle_alpha   95.34228076
_cell_angle_beta   93.58884281
_cell_angle_gamma   87.09152330
_symmetry_Int_Tables_number   1
_chemical_formula_structural   Mn6O7F5
_chemical_formula_sum   'Mn6 O7 F5'
_cell_volume   202.89471323
_cell_formula_units_Z   1
loop_
 _symmetry_equiv_pos_site_id
 _symmetry_equiv_pos_as_xyz
  1  'x, y, z'
loop_
 _atom_site_type_symbol
 _atom_site_label
 _atom_site_symmetry_multiplicity
 _atom_site_fract_x
 _atom_site_fract_y
 _atom_site_fract_z
 _atom_site_occupancy
  Mn  Mn0  1  0.466927  0.992838  0.516404  1
  Mn  Mn1  1  0.507495  0.670159  0.173634  1
  Mn  Mn2  1  0.538800  0.330443  0.819799  1
  Mn  Mn3  1  0.987080  0.672790  0.651167  1
  Mn  Mn4  1  0.983870  0.332953  0.347881  1
  Mn  Mn5  1  0.014940  0.999303  0.989706  1
  O  O6  1  0.818820  0.448651  0.623800  1
  O  O7  1  0.696976  0.093754  0.795658  1
  O  O8  1  0.684328  0.774512  0.464443  1
  O  O9  1  0.696649  0.437432  0.129552  1
  O  O10  1  0.310659  0.230671  0.540827  1
  O  O11  1  0.300876  0.896682  0.206613  1
  O  O12  1  0.191275  0.890022  0.707414  1
  F  F13  1  0.803267  0.759911  0.961403  1
  F  F14  1  0.803085  0.089085  0.287245  1
  F  F15  1  0.304980  0.566110  0.865837  1
  F  F16  1  0.203438  0.570979  0.366836  1
  F  F17  1  0.186533  0.243704  0.051782  1
