# generated using pymatgen
data_AlH12(OF)5
_symmetry_space_group_name_H-M   'P 1'
_cell_length_a   8.77152882
_cell_length_b   3.65364523
_cell_length_c   15.72459078
_cell_angle_alpha   87.84608319
_cell_angle_beta   109.07416719
_cell_angle_gamma   92.22045833
_symmetry_Int_Tables_number   1
_chemical_formula_structural   AlH12(OF)5
_chemical_formula_sum   'Al2 H24 O10 F10'
_cell_volume   475.75088795
_cell_formula_units_Z   2
loop_
 _symmetry_equiv_pos_site_id
 _symmetry_equiv_pos_as_xyz
  1  'x, y, z'
loop_
 _atom_site_type_symbol
 _atom_site_label
 _atom_site_symmetry_multiplicity
 _atom_site_fract_x
 _atom_site_fract_y
 _atom_site_fract_z
 _atom_site_occupancy
  Al  Al0  1  0.996509  0.917486  0.476673  1
  Al  Al1  1  -0.001971  0.143297  0.979924  1
  H  H2  1  0.279692  0.763361  0.577606  1
  H  H3  1  0.305534  0.134697  0.067974  1
  H  H4  1  0.610061  0.825103  0.602544  1
  H  H5  1  0.607199  0.186184  0.103727  1
  H  H6  1  0.466170  0.728071  0.869611  1
  H  H7  1  0.487864  0.242062  0.368909  1
  H  H8  1  0.663674  0.096344  0.389666  1
  H  H9  1  0.646767  0.845280  0.885037  1
  H  H10  1  0.823436  0.654605  0.153981  1
  H  H11  1  0.826621  0.348671  0.650355  1
  H  H12  1  0.891106  0.710068  0.259985  1
  H  H13  1  0.907573  0.275283  0.760121  1
  H  H14  1  0.496243  0.482828  0.232887  1
  H  H15  1  0.490679  0.503901  0.735246  1
  H  H16  1  0.510177  0.704677  0.731238  1
  H  H17  1  0.506933  0.280123  0.232360  1
  H  H18  1  0.190325  0.048199  0.629083  1
  H  H19  1  0.189876  0.989968  0.128694  1
  H  H20  1  0.049348  0.716773  0.203907  1
  H  H21  1  0.041262  0.278084  0.698395  1
  H  H22  1  0.619556  0.271021  0.512272  1
  H  H23  1  0.600936  0.751613  0.009621  1
  H  H24  1  0.192431  0.406490  0.394756  1
  H  H25  1  0.154859  0.687807  0.866630  1
  O  O26  1  0.644622  0.344568  0.578442  1
  O  O27  1  0.626152  0.677620  0.076834  1
  O  O28  1  0.915477  0.599571  0.209506  1
  O  O29  1  0.926017  0.383480  0.705366  1
  O  O30  1  0.556750  0.877815  0.907172  1
  O  O31  1  0.575758  0.120291  0.414346  1
  O  O32  1  0.196193  0.942588  0.565952  1
  O  O33  1  0.196273  0.140739  0.071612  1
  O  O34  1  0.564387  0.052476  0.616558  1
  O  O35  1  0.544912  0.960311  0.109428  1
  F  F36  1  0.175122  0.189010  0.699749  1
  F  F37  1  0.172639  0.798679  0.203004  1
  F  F38  1  0.869784  0.905131  0.538123  1
  F  F39  1  0.859798  0.123602  0.034155  1
  F  F40  1  0.881394  0.927798  0.363461  1
  F  F41  1  0.921612  0.137901  0.862650  1
  F  F42  1  0.245829  0.219667  0.376985  1
  F  F43  1  0.244876  0.535422  0.886298  1
  F  F44  1  0.036412  0.428564  0.464531  1
  F  F45  1  0.016735  0.642767  0.972425  1
