# generated using pymatgen
data_Li3Zr4(PO4)6
_symmetry_space_group_name_H-M   'P 1'
_cell_length_a   9.01981221
_cell_length_b   8.94682914
_cell_length_c   9.01497705
_cell_angle_alpha   60.26141565
_cell_angle_beta   61.37812069
_cell_angle_gamma   60.40715371
_symmetry_Int_Tables_number   1
_chemical_formula_structural   Li3Zr4(PO4)6
_chemical_formula_sum   'Li3 Zr4 P6 O24'
_cell_volume   522.22445034
_cell_formula_units_Z   1
loop_
 _symmetry_equiv_pos_site_id
 _symmetry_equiv_pos_as_xyz
  1  'x, y, z'
loop_
 _atom_site_type_symbol
 _atom_site_label
 _atom_site_symmetry_multiplicity
 _atom_site_fract_x
 _atom_site_fract_y
 _atom_site_fract_z
 _atom_site_occupancy
  Li  Li0  1  0.316260  0.449301  0.680332  1
  Li  Li1  1  0.684006  0.546822  0.321556  1
  Li  Li2  1  0.856349  0.034566  0.150604  1
  Zr  Zr3  1  0.355780  0.355153  0.360569  1
  Zr  Zr4  1  0.146007  0.138284  0.138605  1
  Zr  Zr5  1  0.635917  0.644714  0.645300  1
  Zr  Zr6  1  0.862164  0.863807  0.856262  1
  P  P7  1  0.035234  0.747437  0.465557  1
  P  P8  1  0.547029  0.956674  0.249454  1
  P  P9  1  0.250825  0.541856  0.954547  1
  P  P10  1  0.745610  0.456425  0.047769  1
  P  P11  1  0.457627  0.041651  0.752931  1
  P  P12  1  0.955814  0.257817  0.531378  1
  O  O13  1  0.046045  0.909305  0.284737  1
  O  O14  1  0.999062  0.798827  0.623189  1
  O  O15  1  0.089945  0.720375  0.941352  1
  O  O16  1  0.388356  0.001418  0.196245  1
  O  O17  1  0.493392  0.893416  0.687284  1
  O  O18  1  0.216309  0.586433  0.455224  1
  O  O19  1  0.727759  0.942516  0.092597  1
  O  O20  1  0.571176  0.765603  0.398961  1
  O  O21  1  0.309001  0.493067  0.111718  1
  O  O22  1  0.112918  0.304755  0.502214  1
  O  O23  1  0.203686  0.387025  0.971003  1
  O  O24  1  0.404449  0.564318  0.771177  1
  O  O25  1  0.589112  0.442488  0.227932  1
  O  O26  1  0.804188  0.606092  0.023092  1
  O  O27  1  0.879030  0.693976  0.503197  1
  O  O28  1  0.690053  0.503788  0.888377  1
  O  O29  1  0.285388  0.054239  0.913730  1
  O  O30  1  0.431226  0.233314  0.602820  1
  O  O31  1  0.777825  0.424181  0.536650  1
  O  O32  1  0.522959  0.103208  0.310517  1
  O  O33  1  0.620266  0.995001  0.803612  1
  O  O34  1  0.897499  0.267192  0.069120  1
  O  O35  1  0.996061  0.208814  0.370900  1
  O  O36  1  0.927274  0.100743  0.711585  1
