# generated using pymatgen
data_Li5Mn2(PO4)3
_symmetry_space_group_name_H-M   'P 1'
_cell_length_a   8.59007706
_cell_length_b   9.58621457
_cell_length_c   8.53468449
_cell_angle_alpha   116.64642097
_cell_angle_beta   59.53785100
_cell_angle_gamma   118.11207904
_symmetry_Int_Tables_number   1
_chemical_formula_structural   Li5Mn2(PO4)3
_chemical_formula_sum   'Li10 Mn4 P6 O24'
_cell_volume   513.61521864
_cell_formula_units_Z   2
loop_
 _symmetry_equiv_pos_site_id
 _symmetry_equiv_pos_as_xyz
  1  'x, y, z'
loop_
 _atom_site_type_symbol
 _atom_site_label
 _atom_site_symmetry_multiplicity
 _atom_site_fract_x
 _atom_site_fract_y
 _atom_site_fract_z
 _atom_site_occupancy
  Li  Li0  1  0.922089  0.608005  0.197751  1
  Li  Li1  1  0.267364  0.892807  0.680380  1
  Li  Li2  1  0.491552  0.397907  0.124025  1
  Li  Li3  1  0.259777  0.594943  0.532110  1
  Li  Li4  1  0.917168  0.895750  0.283508  1
  Li  Li5  1  0.735606  0.408586  0.450205  1
  Li  Li6  1  0.612445  0.788638  0.929459  1
  Li  Li7  1  0.307570  0.090825  0.055243  1
  Li  Li8  1  0.715606  0.105839  0.320144  1
  Li  Li9  1  0.074531  0.149713  0.721821  1
  Mn  Mn10  1  0.156353  0.429925  0.128170  1
  Mn  Mn11  1  0.334231  0.026420  0.337054  1
  Mn  Mn12  1  0.656803  0.977699  0.667687  1
  Mn  Mn13  1  0.857627  0.554203  0.838790  1
  P  P14  1  0.058122  0.242244  0.431084  1
  P  P15  1  0.539004  0.754367  0.269901  1
  P  P16  1  0.245490  0.747842  0.944396  1
  P  P17  1  0.737241  0.254083  0.053973  1
  P  P18  1  0.448234  0.248011  0.753559  1
  P  P19  1  0.941884  0.758953  0.550641  1
  O  O20  1  0.175680  0.884082  0.130170  1
  O  O21  1  0.180342  0.592011  0.000941  1
  O  O22  1  0.966820  0.595082  0.394051  1
  O  O23  1  0.136580  0.895671  0.552558  1
  O  O24  1  0.179009  0.259751  0.224321  1
  O  O25  1  0.529378  0.881371  0.208597  1
  O  O26  1  0.149005  0.715088  0.811390  1
  O  O27  1  0.385705  0.582597  0.238454  1
  O  O28  1  0.165216  0.187463  0.482762  1
  O  O29  1  0.489417  0.813466  0.486273  1
  O  O30  1  0.741569  0.738560  0.154055  1
  O  O31  1  0.462598  0.812203  0.845995  1
  O  O32  1  0.517269  0.181497  0.148570  1
  O  O33  1  0.247943  0.266915  0.849995  1
  O  O34  1  0.525808  0.220369  0.535796  1
  O  O35  1  0.835418  0.818646  0.503281  1
  O  O36  1  0.582306  0.402459  0.844066  1
  O  O37  1  0.836475  0.274489  0.177950  1
  O  O38  1  0.430307  0.094765  0.792974  1
  O  O39  1  0.828256  0.720955  0.744894  1
  O  O40  1  0.862455  0.104423  0.432822  1
  O  O41  1  0.026150  0.408022  0.568442  1
  O  O42  1  0.771961  0.429519  0.053788  1
  O  O43  1  0.812238  0.142536  0.853253  1
