# generated using pymatgen
data_Li6MnCrP2(CO7)2
_symmetry_space_group_name_H-M   'P 1'
_cell_length_a   8.60704042
_cell_length_b   5.00722373
_cell_length_c   6.52463480
_cell_angle_alpha   90.00000000
_cell_angle_beta   90.00000000
_cell_angle_gamma   85.64563421
_symmetry_Int_Tables_number   1
_chemical_formula_structural   Li6MnCrP2(CO7)2
_chemical_formula_sum   'Li6 Mn1 Cr1 P2 C2 O14'
_cell_volume   280.38298882
_cell_formula_units_Z   1
loop_
 _symmetry_equiv_pos_site_id
 _symmetry_equiv_pos_as_xyz
  1  'x, y, z'
loop_
 _atom_site_type_symbol
 _atom_site_label
 _atom_site_symmetry_multiplicity
 _atom_site_fract_x
 _atom_site_fract_y
 _atom_site_fract_z
 _atom_site_occupancy
  Li  Li0  1  0.092447  0.758440  0.250000  1
  Li  Li1  1  0.273339  0.246177  0.028571  1
  Li  Li2  1  0.273339  0.246177  0.471429  1
  Li  Li3  1  0.726902  0.752927  0.525189  1
  Li  Li4  1  0.726902  0.752927  0.974811  1
  Li  Li5  1  0.909956  0.242152  0.750000  1
  Mn  Mn6  1  0.339906  0.778486  0.750000  1
  Cr  Cr7  1  0.664341  0.215690  0.250000  1
  P  P8  1  0.410049  0.718952  0.250000  1
  P  P9  1  0.588638  0.282290  0.750000  1
  C  C10  1  0.032697  0.704660  0.750000  1
  C  C11  1  0.967684  0.293688  0.250000  1
  O  O12  1  0.069188  0.950278  0.750000  1
  O  O13  1  0.111755  0.357864  0.250000  1
  O  O14  1  0.143466  0.511062  0.750000  1
  O  O15  1  0.310668  0.829372  0.064799  1
  O  O16  1  0.310668  0.829372  0.435201  1
  O  O17  1  0.421153  0.189303  0.750000  1
  O  O18  1  0.420599  0.407104  0.250000  1
  O  O19  1  0.576543  0.594895  0.750000  1
  O  O20  1  0.577674  0.812467  0.250000  1
  O  O21  1  0.687550  0.174571  0.936555  1
  O  O22  1  0.687550  0.174571  0.563445  1
  O  O23  1  0.854975  0.483970  0.250000  1
  O  O24  1  0.888016  0.645086  0.750000  1
  O  O25  1  0.933993  0.047520  0.250000  1
