# generated using pymatgen
data_Na3Mn2P2(CO7)2
_symmetry_space_group_name_H-M   'P 1'
_cell_length_a   8.97515106
_cell_length_b   8.35194885
_cell_length_c   8.46937191
_cell_angle_alpha   103.63135024
_cell_angle_beta   90.01530409
_cell_angle_gamma   88.09836477
_symmetry_Int_Tables_number   1
_chemical_formula_structural   Na3Mn2P2(CO7)2
_chemical_formula_sum   'Na6 Mn4 P4 C4 O28'
_cell_volume   616.62297297
_cell_formula_units_Z   2
loop_
 _symmetry_equiv_pos_site_id
 _symmetry_equiv_pos_as_xyz
  1  'x, y, z'
loop_
 _atom_site_type_symbol
 _atom_site_label
 _atom_site_symmetry_multiplicity
 _atom_site_fract_x
 _atom_site_fract_y
 _atom_site_fract_z
 _atom_site_occupancy
  Na  Na0  1  0.763352  0.381849  0.382931  1
  Na  Na1  1  0.759216  0.613761  0.125105  1
  Na  Na2  1  0.754182  0.892536  0.860080  1
  Na  Na3  1  0.245818  0.107464  0.139920  1
  Na  Na4  1  0.240784  0.386239  0.874895  1
  Na  Na5  1  0.236648  0.618151  0.617069  1
  Mn  Mn6  1  0.658111  0.471718  0.732804  1
  Mn  Mn7  1  0.647665  0.981828  0.238523  1
  Mn  Mn8  1  0.341889  0.528282  0.267196  1
  Mn  Mn9  1  0.352335  0.018172  0.761477  1
  P  P10  1  0.574227  0.266294  0.029005  1
  P  P11  1  0.573533  0.769486  0.511324  1
  P  P12  1  0.426467  0.230514  0.488676  1
  P  P13  1  0.425773  0.733706  0.970995  1
  C  C14  1  0.919397  0.005315  0.260094  1
  C  C15  1  0.925329  0.511922  0.758334  1
  C  C16  1  0.074671  0.488078  0.241666  1
  C  C17  1  0.080603  0.994685  0.739906  1
  O  O18  1  0.937514  0.469226  0.228620  1
  O  O19  1  0.945527  0.976965  0.730864  1
  O  O20  1  0.863073  0.396455  0.649321  1
  O  O21  1  0.851506  0.891106  0.151064  1
  O  O22  1  0.819364  0.100102  0.357246  1
  O  O23  1  0.824940  0.606829  0.854982  1
  O  O24  1  0.665169  0.128651  0.088834  1
  O  O25  1  0.681031  0.648329  0.566089  1
  O  O26  1  0.673443  0.331677  0.915350  1
  O  O27  1  0.659445  0.828545  0.375504  1
  O  O28  1  0.532035  0.409409  0.179699  1
  O  O29  1  0.575456  0.305952  0.553678  1
  O  O30  1  0.573581  0.805439  0.051361  1
  O  O31  1  0.535468  0.915487  0.662418  1
  O  O32  1  0.464532  0.084513  0.337582  1
  O  O33  1  0.426419  0.194561  0.948639  1
  O  O34  1  0.424544  0.694048  0.446322  1
  O  O35  1  0.467965  0.590592  0.820301  1
  O  O36  1  0.340555  0.171455  0.624496  1
  O  O37  1  0.318969  0.351671  0.433911  1
  O  O38  1  0.326558  0.668323  0.084650  1
  O  O39  1  0.334831  0.871349  0.911166  1
  O  O40  1  0.175060  0.393171  0.145018  1
  O  O41  1  0.180636  0.899898  0.642754  1
  O  O42  1  0.148494  0.108894  0.848936  1
  O  O43  1  0.136927  0.603545  0.350679  1
  O  O44  1  0.054473  0.023035  0.269136  1
  O  O45  1  0.062486  0.530774  0.771380  1
