# generated using pymatgen
data_Co(IO3)2
_symmetry_space_group_name_H-M   'P 1'
_cell_length_a   5.65941854
_cell_length_b   17.74627794
_cell_length_c   5.37153747
_cell_angle_alpha   90.00000000
_cell_angle_beta   90.00000000
_cell_angle_gamma   90.00000000
_symmetry_Int_Tables_number   1
_chemical_formula_structural   Co(IO3)2
_chemical_formula_sum   'Co4 I8 O24'
_cell_volume   539.48292294
_cell_formula_units_Z   4
loop_
 _symmetry_equiv_pos_site_id
 _symmetry_equiv_pos_as_xyz
  1  'x, y, z'
loop_
 _atom_site_type_symbol
 _atom_site_label
 _atom_site_symmetry_multiplicity
 _atom_site_fract_x
 _atom_site_fract_y
 _atom_site_fract_z
 _atom_site_occupancy
  Co  Co0  1  0.171895  0.100213  0.723448  1
  Co  Co1  1  0.328105  0.899787  0.223448  1
  Co  Co2  1  0.671895  0.399787  0.276552  1
  Co  Co3  1  0.828105  0.600213  0.776552  1
  I  I4  1  0.139675  0.424872  0.976567  1
  I  I5  1  0.219305  0.205869  0.257029  1
  I  I6  1  0.280695  0.794131  0.757029  1
  I  I7  1  0.360325  0.575128  0.476567  1
  I  I8  1  0.639675  0.075128  0.023433  1
  I  I9  1  0.719305  0.294131  0.742971  1
  I  I10  1  0.780695  0.705869  0.242971  1
  I  I11  1  0.860325  0.924872  0.523433  1
  O  O12  1  0.001534  0.336386  0.102412  1
  O  O13  1  0.021730  0.157929  0.028973  1
  O  O14  1  0.011693  0.204428  0.520541  1
  O  O15  1  0.117923  0.979739  0.419087  1
  O  O16  1  0.130769  0.877861  0.893090  1
  O  O17  1  0.165874  0.549139  0.746219  1
  O  O18  1  0.334126  0.450861  0.246219  1
  O  O19  1  0.369231  0.122139  0.393090  1
  O  O20  1  0.382077  0.020261  0.919087  1
  O  O21  1  0.488307  0.795572  0.020541  1
  O  O22  1  0.478270  0.842071  0.528973  1
  O  O23  1  0.498466  0.663614  0.602412  1
  O  O24  1  0.501534  0.163614  0.897588  1
  O  O25  1  0.521730  0.342071  0.971027  1
  O  O26  1  0.511693  0.295572  0.479459  1
  O  O27  1  0.617923  0.520261  0.580913  1
  O  O28  1  0.630769  0.622139  0.106910  1
  O  O29  1  0.665874  0.950861  0.253781  1
  O  O30  1  0.834126  0.049139  0.753781  1
  O  O31  1  0.869231  0.377861  0.606910  1
  O  O32  1  0.882077  0.479739  0.080913  1
  O  O33  1  0.988307  0.704428  0.979459  1
  O  O34  1  0.978270  0.657929  0.471027  1
  O  O35  1  0.998466  0.836386  0.397588  1
