# generated using pymatgen
data_Li2Cr(SiO3)2
_symmetry_space_group_name_H-M   'P 1'
_cell_length_a   5.10726239
_cell_length_b   10.78159363
_cell_length_c   5.11223905
_cell_angle_alpha   103.31275173
_cell_angle_beta   88.56606193
_cell_angle_gamma   76.75846532
_symmetry_Int_Tables_number   1
_chemical_formula_structural   Li2Cr(SiO3)2
_chemical_formula_sum   'Li4 Cr2 Si4 O12'
_cell_volume   265.75455678
_cell_formula_units_Z   2
loop_
 _symmetry_equiv_pos_site_id
 _symmetry_equiv_pos_as_xyz
  1  'x, y, z'
loop_
 _atom_site_type_symbol
 _atom_site_label
 _atom_site_symmetry_multiplicity
 _atom_site_fract_x
 _atom_site_fract_y
 _atom_site_fract_z
 _atom_site_occupancy
  Li  Li0  1  0.548821  0.837584  0.904116  1
  Li  Li1  1  0.138809  0.665588  0.815272  1
  Li  Li2  1  0.813887  0.337135  0.138481  1
  Li  Li3  1  0.906350  0.164860  0.548416  1
  Cr  Cr4  1  0.750791  0.501029  0.751636  1
  Cr  Cr5  1  0.996800  0.001592  0.996557  1
  Si  Si6  1  0.153420  0.835017  0.399706  1
  Si  Si7  1  0.735779  0.668045  0.317357  1
  Si  Si8  1  0.316323  0.334267  0.738643  1
  Si  Si9  1  0.398542  0.168600  0.156096  1
  O  O10  1  0.077472  0.983532  0.580984  1
  O  O11  1  0.175529  0.823579  0.074625  1
  O  O12  1  0.939815  0.752062  0.488151  1
  O  O13  1  0.440130  0.750996  0.488529  1
  O  O14  1  0.746100  0.679633  0.004025  1
  O  O15  1  0.806218  0.519211  0.350603  1
  O  O16  1  0.348996  0.483960  0.806550  1
  O  O17  1  0.003944  0.322594  0.748694  1
  O  O18  1  0.488934  0.250003  0.444517  1
  O  O19  1  0.487560  0.253092  0.946485  1
  O  O20  1  0.074821  0.179485  0.176828  1
  O  O21  1  0.581290  0.019195  0.074998  1
