# generated using pymatgen
data_ZnP2H15C5NO9
_symmetry_space_group_name_H-M   'P 1'
_cell_length_a   10.46189432
_cell_length_b   10.65912949
_cell_length_c   11.90991641
_cell_angle_alpha   90.00000000
_cell_angle_beta   90.00000000
_cell_angle_gamma   90.00000000
_symmetry_Int_Tables_number   1
_chemical_formula_structural   ZnP2H15C5NO9
_chemical_formula_sum   'Zn4 P8 H60 C20 N4 O36'
_cell_volume   1328.13059193
_cell_formula_units_Z   4
loop_
 _symmetry_equiv_pos_site_id
 _symmetry_equiv_pos_as_xyz
  1  'x, y, z'
loop_
 _atom_site_type_symbol
 _atom_site_label
 _atom_site_symmetry_multiplicity
 _atom_site_fract_x
 _atom_site_fract_y
 _atom_site_fract_z
 _atom_site_occupancy
  Zn  Zn0  1  0.447199  0.705627  0.377656  1
  Zn  Zn1  1  0.052801  0.294373  0.877656  1
  Zn  Zn2  1  0.947199  0.794373  0.622344  1
  Zn  Zn3  1  0.552801  0.205627  0.122344  1
  P  P4  1  0.690142  0.655837  0.542581  1
  P  P5  1  0.809858  0.344163  0.042581  1
  P  P6  1  0.190142  0.844163  0.457419  1
  P  P7  1  0.309858  0.155837  0.957419  1
  P  P8  1  0.486594  0.933580  0.201628  1
  P  P9  1  0.013406  0.066420  0.701628  1
  P  P10  1  0.986594  0.566420  0.798372  1
  P  P11  1  0.513406  0.433580  0.298372  1
  H  H12  1  0.717459  0.547792  0.382655  1
  H  H13  1  0.782541  0.452208  0.882655  1
  H  H14  1  0.217459  0.952208  0.617345  1
  H  H15  1  0.282541  0.047792  0.117345  1
  H  H16  1  0.464655  0.813928  0.045491  1
  H  H17  1  0.035345  0.186072  0.545491  1
  H  H18  1  0.964655  0.686072  0.954509  1
  H  H19  1  0.535345  0.313928  0.454509  1
  H  H20  1  0.753223  0.545661  0.693480  1
  H  H21  1  0.746777  0.454339  0.193480  1
  H  H22  1  0.253223  0.954339  0.306520  1
  H  H23  1  0.246777  0.045661  0.806520  1
  H  H24  1  0.731671  0.971438  0.688973  1
  H  H25  1  0.768329  0.028562  0.188973  1
  H  H26  1  0.231671  0.528562  0.311027  1
  H  H27  1  0.268329  0.471438  0.811027  1
  H  H28  1  0.469747  0.043763  0.485659  1
  H  H29  1  0.030253  0.956237  0.985659  1
  H  H30  1  0.969747  0.456237  0.514341  1
  H  H31  1  0.530253  0.543763  0.014341  1
  H  H32  1  0.638554  0.021071  0.493164  1
  H  H33  1  0.861446  0.978929  0.993164  1
  H  H34  1  0.138554  0.478929  0.506836  1
  H  H35  1  0.361446  0.521071  0.006836  1
  H  H36  1  0.530756  0.880444  0.626972  1
  H  H37  1  0.969244  0.119556  0.126972  1
  H  H38  1  0.030756  0.619556  0.373028  1
  H  H39  1  0.469244  0.380444  0.873028  1
  H  H40  1  0.449526  0.010656  0.691079  1
  H  H41  1  0.050474  0.989344  0.191079  1
  H  H42  1  0.949526  0.489344  0.308921  1
  H  H43  1  0.550474  0.510656  0.808921  1
  H  H44  1  0.574591  0.172140  0.790780  1
  H  H45  1  0.925409  0.827860  0.290780  1
  H  H46  1  0.074591  0.327860  0.209220  1
  H  H47  1  0.425409  0.672140  0.709220  1
  H  H48  1  0.745869  0.156920  0.796762  1
  H  H49  1  0.754131  0.843080  0.296762  1
  H  H50  1  0.245869  0.343080  0.203238  1
  H  H51  1  0.254131  0.656920  0.703238  1
  H  H52  1  0.764190  0.178921  0.591403  1
  H  H53  1  0.735810  0.821079  0.091403  1
  H  H54  1  0.264190  0.321079  0.408597  1
  H  H55  1  0.235810  0.678921  0.908597  1
  H  H56  1  0.681321  0.311153  0.647046  1
  H  H57  1  0.818679  0.688847  0.147046  1
  H  H58  1  0.181321  0.188847  0.352954  1
  H  H59  1  0.318679  0.811153  0.852954  1
  H  H60  1  0.625529  0.832476  0.812657  1
  H  H61  1  0.874471  0.167524  0.312657  1
  H  H62  1  0.125529  0.667524  0.187343  1
  H  H63  1  0.374471  0.332476  0.687343  1
  H  H64  1  0.713361  0.952417  0.883921  1
  H  H65  1  0.786639  0.047583  0.383921  1
  H  H66  1  0.213361  0.547583  0.116079  1
  H  H67  1  0.286639  0.452417  0.616079  1
  H  H68  1  0.542666  0.964873  0.872584  1
  H  H69  1  0.957334  0.035127  0.372584  1
  H  H70  1  0.042666  0.535127  0.127416  1
  H  H71  1  0.457334  0.464873  0.627416  1
  C  C72  1  0.553905  0.056076  0.538876  1
  C  C73  1  0.946095  0.943924  0.038876  1
  C  C74  1  0.053905  0.443924  0.461124  1
  C  C75  1  0.446095  0.556076  0.961124  1
  C  C76  1  0.535843  0.981004  0.645985  1
  C  C77  1  0.964157  0.018996  0.145985  1
  C  C78  1  0.035843  0.518996  0.354015  1
  C  C79  1  0.464157  0.481004  0.854015  1
  C  C80  1  0.660515  0.142442  0.744865  1
  C  C81  1  0.839485  0.857558  0.244865  1
  C  C82  1  0.160515  0.357558  0.255135  1
  C  C83  1  0.339485  0.642442  0.755135  1
  C  C84  1  0.675404  0.209702  0.633296  1
  C  C85  1  0.824596  0.790298  0.133296  1
  C  C86  1  0.175404  0.290298  0.366704  1
  C  C87  1  0.324596  0.709702  0.866704  1
  C  C88  1  0.630268  0.932806  0.831404  1
  C  C89  1  0.869732  0.067194  0.331404  1
  C  C90  1  0.130268  0.567194  0.168596  1
  C  C91  1  0.369732  0.432806  0.668596  1
  N  N92  1  0.646351  0.003399  0.724340  1
  N  N93  1  0.853649  0.996601  0.224340  1
  N  N94  1  0.146351  0.496601  0.275660  1
  N  N95  1  0.353649  0.503399  0.775660  1
  O  O96  1  0.575038  0.049060  0.208501  1
  O  O97  1  0.924962  0.950940  0.708501  1
  O  O98  1  0.075038  0.450940  0.791499  1
  O  O99  1  0.424962  0.549060  0.291499  1
  O  O100  1  0.525530  0.841579  0.293952  1
  O  O101  1  0.974470  0.158421  0.793952  1
  O  O102  1  0.025530  0.658421  0.706048  1
  O  O103  1  0.474470  0.341579  0.206048  1
  O  O104  1  0.765709  0.608928  0.435626  1
  O  O105  1  0.734291  0.391072  0.935626  1
  O  O106  1  0.265709  0.891072  0.564374  1
  O  O107  1  0.234291  0.108928  0.064374  1
  O  O108  1  0.550850  0.686172  0.514396  1
  O  O109  1  0.949150  0.313828  0.014396  1
  O  O110  1  0.050850  0.813828  0.485604  1
  O  O111  1  0.449150  0.186172  0.985604  1
  O  O112  1  0.763415  0.766261  0.592141  1
  O  O113  1  0.736585  0.233739  0.092141  1
  O  O114  1  0.263415  0.733739  0.407859  1
  O  O115  1  0.236585  0.266261  0.907859  1
  O  O116  1  0.342461  0.963575  0.203214  1
  O  O117  1  0.157539  0.036425  0.703214  1
  O  O118  1  0.842461  0.536425  0.796786  1
  O  O119  1  0.657539  0.463575  0.296786  1
  O  O120  1  0.521504  0.876899  0.079872  1
  O  O121  1  0.978496  0.123101  0.579872  1
  O  O122  1  0.021504  0.623101  0.920128  1
  O  O123  1  0.478496  0.376899  0.420128  1
  O  O124  1  0.684999  0.544125  0.630952  1
  O  O125  1  0.815001  0.455875  0.130952  1
  O  O126  1  0.184999  0.955875  0.369048  1
  O  O127  1  0.315001  0.044125  0.869048  1
  O  O128  1  0.566991  0.188196  0.560973  1
  O  O129  1  0.933009  0.811804  0.060973  1
  O  O130  1  0.066991  0.311804  0.439027  1
  O  O131  1  0.433009  0.688196  0.939027  1
