# generated using pymatgen
data_Li3Fe2(PO4)3
_symmetry_space_group_name_H-M   'P 1'
_cell_length_a   9.16388046
_cell_length_b   9.16446245
_cell_length_c   14.99183781
_cell_angle_alpha   81.00684919
_cell_angle_beta   82.55734858
_cell_angle_gamma   122.20020258
_symmetry_Int_Tables_number   1
_chemical_formula_structural   Li3Fe2(PO4)3
_chemical_formula_sum   'Li12 Fe8 P12 O48'
_cell_volume   1017.60611494
_cell_formula_units_Z   4
loop_
 _symmetry_equiv_pos_site_id
 _symmetry_equiv_pos_as_xyz
  1  'x, y, z'
loop_
 _atom_site_type_symbol
 _atom_site_label
 _atom_site_symmetry_multiplicity
 _atom_site_fract_x
 _atom_site_fract_y
 _atom_site_fract_z
 _atom_site_occupancy
  Li  Li0  1  0.181433  0.755282  0.349607  1
  Li  Li1  1  0.958103  0.253036  0.946511  1
  Li  Li2  1  0.092891  0.344258  0.249672  1
  Li  Li3  1  0.697334  0.896235  0.553934  1
  Li  Li4  1  0.607653  0.530194  0.152747  1
  Li  Li5  1  0.502218  0.499706  0.496445  1
  Li  Li6  1  0.396702  0.470216  0.848224  1
  Li  Li7  1  0.301408  0.099604  0.446393  1
  Li  Li8  1  0.903944  0.651531  0.750170  1
  Li  Li9  1  0.050780  0.746250  0.052222  1
  Li  Li10  1  0.816494  0.238561  0.652328  1
  Li  Li11  1  0.501820  0.001682  0.002218  1
  Fe  Fe12  1  0.257481  0.714041  0.529839  1
  Fe  Fe13  1  0.339994  0.816519  0.833452  1
  Fe  Fe14  1  0.148941  0.173199  0.667399  1
  Fe  Fe15  1  0.742552  0.785427  0.972378  1
  Fe  Fe16  1  0.257733  0.213576  0.028877  1
  Fe  Fe17  1  0.853192  0.828068  0.333720  1
  Fe  Fe18  1  0.662047  0.184761  0.167528  1
  Fe  Fe19  1  0.743328  0.286139  0.471817  1
  P  P20  1  0.606482  0.963991  0.374186  1
  P  P21  1  0.280706  0.567911  0.692663  1
  P  P22  1  0.309718  0.596885  0.029195  1
  P  P23  1  0.125644  0.339059  0.471191  1
  P  P24  1  0.759142  0.972635  0.809873  1
  P  P25  1  0.836582  0.977641  0.127684  1
  P  P26  1  0.162723  0.020791  0.873778  1
  P  P27  1  0.241965  0.025919  0.190846  1
  P  P28  1  0.872910  0.659372  0.529634  1
  P  P29  1  0.690110  0.402770  0.971799  1
  P  P30  1  0.720950  0.433487  0.308952  1
  P  P31  1  0.394769  0.037499  0.627338  1
  O  O32  1  0.110627  0.909719  0.289444  1
  O  O33  1  0.170931  0.948261  0.108754  1
  O  O34  1  0.315674  0.994928  0.874756  1
  O  O35  1  0.314065  0.950439  0.549612  1
  O  O36  1  0.054922  0.688717  0.484200  1
  O  O37  1  0.293081  0.884992  0.718069  1
  O  O38  1  0.402501  0.876254  0.395981  1
  O  O39  1  0.114564  0.547067  0.664211  1
  O  O40  1  0.224003  0.671863  0.967768  1
  O  O41  1  0.593899  0.977374  0.803289  1
  O  O42  1  0.200344  0.514656  0.129398  1
  O  O43  1  0.297869  0.600220  0.791231  1
  O  O44  1  0.276970  0.521040  0.485056  1
  O  O45  1  0.441033  0.721328  0.610689  1
  O  O46  1  0.505684  0.761634  0.014935  1
  O  O47  1  0.632845  0.810820  0.375316  1
  O  O48  1  0.140902  0.329630  0.371042  1
  O  O49  1  0.001165  0.135388  0.049890  1
  O  O50  1  0.277225  0.395334  0.699074  1
  O  O51  1  0.326496  0.461266  0.983036  1
  O  O52  1  0.898682  0.989800  0.218421  1
  O  O53  1  0.139717  0.192129  0.532496  1
  O  O54  1  0.770165  0.794932  0.106379  1
  O  O55  1  0.708252  0.777307  0.837510  1
  O  O56  1  0.291368  0.220664  0.162997  1
  O  O57  1  0.228565  0.203203  0.895605  1
  O  O58  1  0.862151  0.808912  0.468596  1
  O  O59  1  0.101250  0.010341  0.782989  1
  O  O60  1  0.671153  0.537199  0.017936  1
  O  O61  1  0.722128  0.605069  0.302825  1
  O  O62  1  0.998266  0.861676  0.951442  1
  O  O63  1  0.851826  0.663784  0.630754  1
  O  O64  1  0.369381  0.191148  0.626312  1
  O  O65  1  0.494803  0.237228  0.985815  1
  O  O66  1  0.560345  0.279496  0.390675  1
  O  O67  1  0.722902  0.479963  0.513329  1
  O  O68  1  0.704518  0.400771  0.210434  1
  O  O69  1  0.799160  0.485878  0.871310  1
  O  O70  1  0.408419  0.023179  0.197021  1
  O  O71  1  0.776780  0.329293  0.033256  1
  O  O72  1  0.887795  0.456482  0.337477  1
  O  O73  1  0.598772  0.124926  0.605661  1
  O  O74  1  0.708212  0.116644  0.283336  1
  O  O75  1  0.944713  0.310474  0.518275  1
  O  O76  1  0.687480  0.050949  0.451832  1
  O  O77  1  0.684125  0.004492  0.126540  1
  O  O78  1  0.830068  0.049145  0.892409  1
  O  O79  1  0.891167  0.089638  0.711680  1
