# generated using pymatgen
data_B2TeO5
_symmetry_space_group_name_H-M   'P 1'
_cell_length_a   7.22592018
_cell_length_b   7.22592018
_cell_length_c   11.21566877
_cell_angle_alpha   65.00977961
_cell_angle_beta   114.99022039
_cell_angle_gamma   90.65070783
_symmetry_Int_Tables_number   1
_chemical_formula_structural   B2TeO5
_chemical_formula_sum   'B8 Te4 O20'
_cell_volume   471.03684200
_cell_formula_units_Z   4
loop_
 _symmetry_equiv_pos_site_id
 _symmetry_equiv_pos_as_xyz
  1  'x, y, z'
loop_
 _atom_site_type_symbol
 _atom_site_label
 _atom_site_symmetry_multiplicity
 _atom_site_fract_x
 _atom_site_fract_y
 _atom_site_fract_z
 _atom_site_occupancy
  B  B0  1  0.240435  0.770683  0.869047  1
  B  B1  1  0.258776  0.393160  0.004366  1
  B  B2  1  0.229317  0.759565  0.369047  1
  B  B3  1  0.606840  0.741224  0.504366  1
  B  B4  1  0.393160  0.258776  0.495634  1
  B  B5  1  0.770683  0.240435  0.630953  1
  B  B6  1  0.741224  0.606840  0.995634  1
  B  B7  1  0.759565  0.229317  0.130953  1
  Te  Te8  1  0.054509  0.556150  0.673500  1
  Te  Te9  1  0.443850  0.945491  0.173500  1
  Te  Te10  1  0.556150  0.054509  0.826500  1
  Te  Te11  1  0.945491  0.443850  0.326500  1
  O  O12  1  0.333991  0.929312  0.889749  1
  O  O13  1  0.126784  0.787263  0.731468  1
  O  O14  1  0.070688  0.666009  0.389749  1
  O  O15  1  0.156142  0.352665  0.883639  1
  O  O16  1  0.641419  0.776586  0.856167  1
  O  O17  1  0.212737  0.873216  0.231468  1
  O  O18  1  0.413875  0.723024  0.497667  1
  O  O19  1  0.723024  0.413875  0.002333  1
  O  O20  1  0.647335  0.843858  0.383639  1
  O  O21  1  0.223414  0.358581  0.356167  1
  O  O22  1  0.776586  0.641419  0.643833  1
  O  O23  1  0.352665  0.156142  0.616361  1
  O  O24  1  0.276976  0.586125  0.997667  1
  O  O25  1  0.586125  0.276976  0.502333  1
  O  O26  1  0.787263  0.126784  0.768532  1
  O  O27  1  0.358581  0.223414  0.143833  1
  O  O28  1  0.843858  0.647335  0.116361  1
  O  O29  1  0.929312  0.333991  0.610251  1
  O  O30  1  0.873216  0.212737  0.268532  1
  O  O31  1  0.666009  0.070688  0.110251  1
