# generated using pymatgen
data_LiNbSn3(PO4)6
_symmetry_space_group_name_H-M   'P 1'
_cell_length_a   8.85968252
_cell_length_b   8.87353583
_cell_length_c   8.90345745
_cell_angle_alpha   59.59402611
_cell_angle_beta   59.76123648
_cell_angle_gamma   59.67251769
_symmetry_Int_Tables_number   1
_chemical_formula_structural   LiNbSn3(PO4)6
_chemical_formula_sum   'Li1 Nb1 Sn3 P6 O24'
_cell_volume   491.30073818
_cell_formula_units_Z   1
loop_
 _symmetry_equiv_pos_site_id
 _symmetry_equiv_pos_as_xyz
  1  'x, y, z'
loop_
 _atom_site_type_symbol
 _atom_site_label
 _atom_site_symmetry_multiplicity
 _atom_site_fract_x
 _atom_site_fract_y
 _atom_site_fract_z
 _atom_site_occupancy
  Li  Li0  1  0.823270  0.647563  0.266024  1
  Nb  Nb1  1  0.863024  0.864606  0.848680  1
  Sn  Sn2  1  0.137341  0.139600  0.139165  1
  Sn  Sn3  1  0.366290  0.358982  0.358511  1
  Sn  Sn4  1  0.632662  0.642924  0.649586  1
  P  P5  1  0.038079  0.746128  0.457483  1
  P  P6  1  0.456367  0.039665  0.748260  1
  P  P7  1  0.251054  0.537218  0.964303  1
  P  P8  1  0.750975  0.460878  0.039849  1
  P  P9  1  0.538671  0.967546  0.248081  1
  P  P10  1  0.963822  0.252336  0.526085  1
  O  O11  1  0.184264  0.386493  0.008195  1
  O  O12  1  0.142484  0.265153  0.496809  1
  O  O13  1  0.378448  0.007616  0.197799  1
  O  O14  1  0.278023  0.521483  0.129581  1
  O  O15  1  0.085313  0.896720  0.270908  1
  O  O16  1  0.272090  0.082166  0.902225  1
  O  O17  1  0.203517  0.565376  0.471113  1
  O  O18  1  0.529659  0.127590  0.276712  1
  O  O19  1  0.090901  0.727493  0.921011  1
  O  O20  1  0.466371  0.211479  0.573534  1
  O  O21  1  0.575894  0.467188  0.212259  1
  O  O22  1  0.423597  0.537053  0.788431  1
  O  O23  1  0.902646  0.270872  0.074765  1
  O  O24  1  0.561083  0.780809  0.411962  1
  O  O25  1  0.473103  0.875750  0.717174  1
  O  O26  1  0.727248  0.916782  0.089703  1
  O  O27  1  0.799627  0.439660  0.520082  1
  O  O28  1  0.980421  0.193560  0.382092  1
  O  O29  1  0.911636  0.101922  0.719017  1
  O  O30  1  0.719391  0.493197  0.869729  1
  O  O31  1  0.624473  0.983701  0.804228  1
  O  O32  1  0.864008  0.726082  0.479752  1
  O  O33  1  0.810889  0.619537  0.000922  1
  O  O34  1  0.991960  0.801454  0.622251  1
