# generated using pymatgen
data_LiTiMn3O8
_symmetry_space_group_name_H-M   'P 1'
_cell_length_a   6.04697477
_cell_length_b   15.47100781
_cell_length_c   6.08012237
_cell_angle_alpha   99.49275361
_cell_angle_beta   121.02096861
_cell_angle_gamma   100.95539000
_symmetry_Int_Tables_number   1
_chemical_formula_structural   LiTiMn3O8
_chemical_formula_sum   'Li3 Ti3 Mn9 O24'
_cell_volume   454.61994425
_cell_formula_units_Z   3
loop_
 _symmetry_equiv_pos_site_id
 _symmetry_equiv_pos_as_xyz
  1  'x, y, z'
loop_
 _atom_site_type_symbol
 _atom_site_label
 _atom_site_symmetry_multiplicity
 _atom_site_fract_x
 _atom_site_fract_y
 _atom_site_fract_z
 _atom_site_occupancy
  Li  Li0  1  0.005812  0.001281  0.501560  1
  Li  Li1  1  0.994189  0.332051  0.165106  1
  Li  Li2  1  0.500000  0.666667  0.333333  1
  Ti  Ti3  1  0.990105  0.334644  0.673859  1
  Ti  Ti4  1  0.000000  0.666666  0.333332  1
  Ti  Ti5  1  0.009895  0.998689  0.992805  1
  Mn  Mn6  1  0.000000  0.166667  0.833334  1
  Mn  Mn7  1  0.994936  0.502275  0.511497  1
  Mn  Mn8  1  0.500000  0.666667  0.833333  1
  Mn  Mn9  1  0.495561  0.835144  0.672691  1
  Mn  Mn10  1  0.005065  0.831058  0.155170  1
  Mn  Mn11  1  0.502378  0.001546  0.509132  1
  Mn  Mn12  1  0.499999  0.166667  0.333333  1
  Mn  Mn13  1  0.497622  0.331788  0.157535  1
  Mn  Mn14  1  0.504437  0.498190  0.993976  1
  O  O15  1  0.198272  0.080002  0.897739  1
  O  O16  1  0.306289  0.585555  0.930786  1
  O  O17  1  0.234219  0.254282  0.782463  1
  O  O18  1  0.266127  0.745340  0.723330  1
  O  O19  1  0.228506  0.424523  0.615310  1
  O  O20  1  0.285903  0.919994  0.578696  1
  O  O21  1  0.733872  0.587993  0.943336  1
  O  O22  1  0.238965  0.590952  0.458310  1
  O  O23  1  0.765782  0.079051  0.884205  1
  O  O24  1  0.263030  0.076455  0.384213  1
  O  O25  1  0.693712  0.747780  0.735882  1
  O  O26  1  0.246541  0.756435  0.294133  1
  O  O27  1  0.801728  0.253331  0.768926  1
  O  O28  1  0.260497  0.243529  0.209077  1
  O  O29  1  0.727877  0.921729  0.609050  1
  O  O30  1  0.248769  0.925212  0.127679  1
  O  O31  1  0.751233  0.408122  0.538989  1
  O  O32  1  0.272123  0.411605  0.057616  1
  O  O33  1  0.739503  0.089806  0.457592  1
  O  O34  1  0.753460  0.576898  0.372532  1
  O  O35  1  0.736969  0.256878  0.282453  1
  O  O36  1  0.761037  0.742382  0.208358  1
  O  O37  1  0.714098  0.413341  0.087973  1
  O  O38  1  0.771494  0.908810  0.051355  1
