# generated using pymatgen
data_Li4V2Si(PO6)2
_symmetry_space_group_name_H-M   'P 1'
_cell_length_a   8.99139087
_cell_length_b   9.02011422
_cell_length_c   14.43352533
_cell_angle_alpha   71.39165518
_cell_angle_beta   90.00810630
_cell_angle_gamma   119.95331281
_symmetry_Int_Tables_number   1
_chemical_formula_structural   Li4V2Si(PO6)2
_chemical_formula_sum   'Li16 V8 Si4 P8 O48'
_cell_volume   942.99492012
_cell_formula_units_Z   4
loop_
 _symmetry_equiv_pos_site_id
 _symmetry_equiv_pos_as_xyz
  1  'x, y, z'
loop_
 _atom_site_type_symbol
 _atom_site_label
 _atom_site_symmetry_multiplicity
 _atom_site_fract_x
 _atom_site_fract_y
 _atom_site_fract_z
 _atom_site_occupancy
  Li  Li0  1  0.378392  0.830727  0.886351  1
  Li  Li1  1  0.970220  0.258800  0.873783  1
  Li  Li2  1  0.020074  0.510018  0.999246  1
  Li  Li3  1  0.291560  0.662652  0.364502  1
  Li  Li4  1  0.532737  0.735872  0.634093  1
  Li  Li5  1  0.120672  0.165539  0.613009  1
  Li  Li6  1  0.211730  0.340647  0.123654  1
  Li  Li7  1  0.498449  0.503757  0.500051  1
  Li  Li8  1  0.786852  0.669461  0.861958  1
  Li  Li9  1  0.878936  0.836361  0.385816  1
  Li  Li10  1  0.462076  0.251581  0.373825  1
  Li  Li11  1  0.245742  0.998783  0.249877  1
  Li  Li12  1  0.714820  0.348542  0.626431  1
  Li  Li13  1  0.038591  0.748824  0.127640  1
  Li  Li14  1  0.617102  0.153284  0.124593  1
  Li  Li15  1  0.742051  0.983967  0.748734  1
  V  V16  1  0.177882  0.857631  0.462532  1
  V  V17  1  0.073140  0.647443  0.787459  1
  V  V18  1  0.675839  0.855119  0.962859  1
  V  V19  1  0.568745  0.642089  0.287460  1
  V  V20  1  0.428722  0.361561  0.713044  1
  V  V21  1  0.317490  0.142444  0.037639  1
  V  V22  1  0.930505  0.354790  0.212335  1
  V  V23  1  0.822960  0.143212  0.537066  1
  Si  Si24  1  0.326547  0.749202  0.125153  1
  Si  Si25  1  0.377388  0.548535  0.873704  1
  Si  Si26  1  0.174145  0.249462  0.374527  1
  Si  Si27  1  0.827575  0.750182  0.623343  1
  P  P28  1  0.078613  0.953317  0.877173  1
  P  P29  1  0.120044  0.450628  0.628179  1
  P  P30  1  0.579403  0.949470  0.378493  1
  P  P31  1  0.621452  0.448169  0.126832  1
  P  P32  1  0.675231  0.252738  0.875637  1
  P  P33  1  0.421810  0.050709  0.623474  1
  P  P34  1  0.880078  0.550438  0.370868  1
  P  P35  1  0.918469  0.045226  0.123968  1
  O  O36  1  0.139219  0.982163  0.972814  1
  O  O37  1  0.048331  0.762325  0.886950  1
  O  O38  1  0.046700  0.737774  0.361805  1
  O  O39  1  0.297819  0.888955  0.718858  1
  O  O40  1  0.394349  0.921953  0.368854  1
  O  O41  1  0.092384  0.480094  0.724184  1
  O  O42  1  0.296718  0.911731  0.134167  1
  O  O43  1  0.209210  0.575074  0.884484  1
  O  O44  1  0.152714  0.612464  0.534471  1
  O  O45  1  0.134113  0.591043  0.113128  1
  O  O46  1  0.552875  0.749676  0.861845  1
  O  O47  1  0.639794  0.982753  0.472615  1
  O  O48  1  0.396976  0.691406  0.226976  1
  O  O49  1  0.332651  0.374929  0.974500  1
  O  O50  1  0.277872  0.425335  0.615070  1
  O  O51  1  0.458962  0.808916  0.024660  1
  O  O52  1  0.413563  0.517911  0.772497  1
  O  O53  1  0.557479  0.761116  0.388792  1
  O  O54  1  0.897669  0.935950  0.866328  1
  O  O55  1  0.042237  0.190341  0.475619  1
  O  O56  1  0.788428  0.905189  0.635700  1
  O  O57  1  0.101436  0.307486  0.273690  1
  O  O58  1  0.206935  0.114134  0.783089  1
  O  O59  1  0.366280  0.409083  0.386631  1
  O  O60  1  0.637679  0.584537  0.612756  1
  O  O61  1  0.789105  0.887404  0.218339  1
  O  O62  1  0.902746  0.695406  0.723412  1
  O  O63  1  0.209465  0.091403  0.363145  1
  O  O64  1  0.957898  0.812317  0.521415  1
  O  O65  1  0.099335  0.064948  0.136948  1
  O  O66  1  0.443801  0.237768  0.616447  1
  O  O67  1  0.588250  0.478649  0.221437  1
  O  O68  1  0.548413  0.189393  0.970647  1
  O  O69  1  0.722335  0.577460  0.380681  1
  O  O70  1  0.658115  0.608187  0.031058  1
  O  O71  1  0.612036  0.313906  0.779987  1
  O  O72  1  0.359575  0.021673  0.528659  1
  O  O73  1  0.456927  0.257475  0.136454  1
  O  O74  1  0.856467  0.407438  0.885166  1
  O  O75  1  0.842939  0.388669  0.466281  1
  O  O76  1  0.779053  0.420402  0.119059  1
  O  O77  1  0.709781  0.103432  0.866515  1
  O  O78  1  0.909690  0.520094  0.275877  1
  O  O79  1  0.607263  0.079034  0.632045  1
  O  O80  1  0.703755  0.110045  0.282543  1
  O  O81  1  0.953144  0.262934  0.637385  1
  O  O82  1  0.943493  0.235660  0.111825  1
  O  O83  1  0.857981  0.012781  0.028885  1
