# generated using pymatgen
data_Li6MnV3(PO4)6
_symmetry_space_group_name_H-M   'P 1'
_cell_length_a   8.62964727
_cell_length_b   16.67458520
_cell_length_c   6.37111380
_cell_angle_alpha   84.42013145
_cell_angle_beta   105.99302130
_cell_angle_gamma   100.67614486
_symmetry_Int_Tables_number   1
_chemical_formula_structural   Li6MnV3(PO4)6
_chemical_formula_sum   'Li12 Mn2 V6 P12 O48'
_cell_volume   865.00174487
_cell_formula_units_Z   2
loop_
 _symmetry_equiv_pos_site_id
 _symmetry_equiv_pos_as_xyz
  1  'x, y, z'
loop_
 _atom_site_type_symbol
 _atom_site_label
 _atom_site_symmetry_multiplicity
 _atom_site_fract_x
 _atom_site_fract_y
 _atom_site_fract_z
 _atom_site_occupancy
  Li  Li0  1  0.995601  0.003405  0.244707  1
  Li  Li1  1  0.996059  0.502349  0.748871  1
  Li  Li2  1  0.711624  0.143737  0.604676  1
  Li  Li3  1  0.714158  0.644871  0.105893  1
  Li  Li4  1  0.499260  0.249101  0.250853  1
  Li  Li5  1  0.499353  0.249702  0.749846  1
  Li  Li6  1  0.499213  0.750290  0.249630  1
  Li  Li7  1  0.500270  0.750684  0.749969  1
  Li  Li8  1  0.287810  0.355705  0.894173  1
  Li  Li9  1  0.289188  0.856816  0.391926  1
  Li  Li10  1  0.007146  0.498555  0.250353  1
  Li  Li11  1  0.004347  0.997353  0.753290  1
  Mn  Mn12  1  0.374476  0.028832  0.103133  1
  Mn  Mn13  1  0.058075  0.687249  0.945853  1
  V  V14  1  0.941549  0.310537  0.048849  1
  V  V15  1  0.943208  0.811068  0.549261  1
  V  V16  1  0.621387  0.471205  0.388760  1
  V  V17  1  0.621938  0.971209  0.888024  1
  V  V18  1  0.381040  0.528392  0.612912  1
  V  V19  1  0.056257  0.190306  0.449134  1
  P  P20  1  0.712068  0.142061  0.106699  1
  P  P21  1  0.862759  0.330915  0.533307  1
  P  P22  1  0.860794  0.831868  0.031049  1
  P  P23  1  0.715182  0.643863  0.606801  1
  P  P24  1  0.661083  0.431278  0.932772  1
  P  P25  1  0.664583  0.930544  0.432409  1
  P  P26  1  0.339648  0.069012  0.566396  1
  P  P27  1  0.338821  0.566311  0.068843  1
  P  P28  1  0.286399  0.356822  0.393156  1
  P  P29  1  0.132605  0.169598  0.965133  1
  P  P30  1  0.138160  0.669786  0.466169  1
  P  P31  1  0.286039  0.856932  0.893186  1
  O  O32  1  0.950473  0.301133  0.373960  1
  O  O33  1  0.988171  0.330877  0.761996  1
  O  O34  1  0.828013  0.128902  0.337048  1
  O  O35  1  0.734947  0.230694  0.003577  1
  O  O36  1  0.986593  0.829633  0.259383  1
  O  O37  1  0.843101  0.422605  0.470618  1
  O  O38  1  0.740200  0.086433  0.944280  1
  O  O39  1  0.844390  0.421184  0.971381  1
  O  O40  1  0.704639  0.272276  0.524345  1
  O  O41  1  0.946254  0.806292  0.866300  1
  O  O42  1  0.661125  0.494022  0.098235  1
  O  O43  1  0.536008  0.129937  0.138724  1
  O  O44  1  0.743207  0.585841  0.449616  1
  O  O45  1  0.828899  0.631517  0.841965  1
  O  O46  1  0.849169  0.920508  0.481432  1
  O  O47  1  0.703262  0.772202  0.022498  1
  O  O48  1  0.736769  0.731202  0.499249  1
  O  O49  1  0.840466  0.924070  0.977055  1
  O  O50  1  0.601886  0.475279  0.699937  1
  O  O51  1  0.456949  0.148219  0.556503  1
  O  O52  1  0.462540  0.368274  0.364444  1
  O  O53  1  0.337485  0.006528  0.398013  1
  O  O54  1  0.543618  0.352146  0.943591  1
  O  O55  1  0.613050  0.973103  0.199197  1
  O  O56  1  0.400837  0.024166  0.800085  1
  O  O57  1  0.451944  0.646873  0.055979  1
  O  O58  1  0.660062  0.993458  0.595759  1
  O  O59  1  0.539304  0.631393  0.637283  1
  O  O60  1  0.545471  0.851853  0.443807  1
  O  O61  1  0.402368  0.523953  0.303044  1
  O  O62  1  0.143982  0.077511  0.027077  1
  O  O63  1  0.262970  0.268922  0.499314  1
  O  O64  1  0.293742  0.226537  0.977011  1
  O  O65  1  0.156989  0.079334  0.532172  1
  O  O66  1  0.171942  0.370061  0.162067  1
  O  O67  1  0.259580  0.414169  0.552948  1
  O  O68  1  0.461623  0.867715  0.864279  1
  O  O69  1  0.344229  0.504696  0.903196  1
  O  O70  1  0.047285  0.201255  0.124839  1
  O  O71  1  0.296517  0.728196  0.476352  1
  O  O72  1  0.154124  0.571606  0.032522  1
  O  O73  1  0.262530  0.914597  0.058440  1
  O  O74  1  0.158737  0.578384  0.533714  1
  O  O75  1  0.009820  0.172460  0.735087  1
  O  O76  1  0.260699  0.769065  0.001534  1
  O  O77  1  0.172626  0.871633  0.662923  1
  O  O78  1  0.012508  0.668304  0.236771  1
  O  O79  1  0.048801  0.700626  0.624414  1
