# generated using pymatgen
data_Mn2O3F
_symmetry_space_group_name_H-M   'P 1'
_cell_length_a   4.58671998
_cell_length_b   9.67614904
_cell_length_c   6.04681475
_cell_angle_alpha   71.79247236
_cell_angle_beta   90.00000000
_cell_angle_gamma   87.86285685
_symmetry_Int_Tables_number   1
_chemical_formula_structural   Mn2O3F
_chemical_formula_sum   'Mn8 O12 F4'
_cell_volume   254.73498615
_cell_formula_units_Z   4
loop_
 _symmetry_equiv_pos_site_id
 _symmetry_equiv_pos_as_xyz
  1  'x, y, z'
loop_
 _atom_site_type_symbol
 _atom_site_label
 _atom_site_symmetry_multiplicity
 _atom_site_fract_x
 _atom_site_fract_y
 _atom_site_fract_z
 _atom_site_occupancy
  Mn  Mn0  1  0.475297  0.237487  0.631256  1
  Mn  Mn1  1  0.524703  0.262513  0.118744  1
  Mn  Mn2  1  0.500000  0.750000  0.375000  1
  Mn  Mn3  1  0.500000  0.750000  0.875000  1
  Mn  Mn4  1  0.001265  0.001198  0.495175  1
  Mn  Mn5  1  0.998735  0.498802  0.746373  1
  Mn  Mn6  1  0.001265  0.001198  0.003627  1
  Mn  Mn7  1  0.998735  0.498802  0.254825  1
  O  O8  1  0.810506  0.407477  0.046261  1
  O  O9  1  0.811287  0.906169  0.296915  1
  O  O10  1  0.692763  0.154971  0.923037  1
  O  O11  1  0.692763  0.154971  0.421992  1
  O  O12  1  0.692013  0.654326  0.673813  1
  O  O13  1  0.692013  0.654326  0.171861  1
  O  O14  1  0.307237  0.345029  0.826963  1
  O  O15  1  0.307987  0.845674  0.578139  1
  O  O16  1  0.307987  0.845674  0.076187  1
  O  O17  1  0.307237  0.345029  0.328008  1
  O  O18  1  0.188713  0.593831  0.453085  1
  O  O19  1  0.189494  0.092523  0.703739  1
  F  F20  1  0.777584  0.388351  0.555824  1
  F  F21  1  0.786302  0.893132  0.803435  1
  F  F22  1  0.213698  0.606868  0.946565  1
  F  F23  1  0.222416  0.111649  0.194176  1
