# generated using pymatgen
data_LaHSe3O10
_symmetry_space_group_name_H-M   'P 1'
_cell_length_a   7.42524554
_cell_length_b   10.97962641
_cell_length_c   23.91111953
_cell_angle_alpha   90.00000000
_cell_angle_beta   90.00000000
_cell_angle_gamma   90.00000000
_symmetry_Int_Tables_number   1
_chemical_formula_structural   LaHSe3O10
_chemical_formula_sum   'La8 H8 Se24 O80'
_cell_volume   1949.38802205
_cell_formula_units_Z   8
loop_
 _symmetry_equiv_pos_site_id
 _symmetry_equiv_pos_as_xyz
  1  'x, y, z'
loop_
 _atom_site_type_symbol
 _atom_site_label
 _atom_site_symmetry_multiplicity
 _atom_site_fract_x
 _atom_site_fract_y
 _atom_site_fract_z
 _atom_site_occupancy
  La  La0  1  0.061126  0.461685  0.090706  1
  La  La1  1  0.061126  0.038315  0.590706  1
  La  La2  1  0.438874  0.961685  0.090706  1
  La  La3  1  0.438874  0.538315  0.590706  1
  La  La4  1  0.561126  0.038315  0.909294  1
  La  La5  1  0.561126  0.461685  0.409294  1
  La  La6  1  0.938874  0.538315  0.909294  1
  La  La7  1  0.938874  0.961685  0.409294  1
  H  H8  1  0.182115  0.343653  0.290962  1
  H  H9  1  0.182115  0.156347  0.790962  1
  H  H10  1  0.317885  0.843653  0.290962  1
  H  H11  1  0.317885  0.656347  0.790962  1
  H  H12  1  0.682115  0.343653  0.209038  1
  H  H13  1  0.682115  0.156347  0.709038  1
  H  H14  1  0.817885  0.656347  0.709038  1
  H  H15  1  0.817885  0.843653  0.209038  1
  Se  Se16  1  0.037014  0.792772  0.143443  1
  Se  Se17  1  0.037014  0.707228  0.643443  1
  Se  Se18  1  0.063393  0.618565  0.380542  1
  Se  Se19  1  0.063393  0.881435  0.880542  1
  Se  Se20  1  0.194817  0.175698  0.006350  1
  Se  Se21  1  0.194817  0.324302  0.506350  1
  Se  Se22  1  0.305183  0.675698  0.006350  1
  Se  Se23  1  0.305183  0.824302  0.506350  1
  Se  Se24  1  0.436607  0.118565  0.380542  1
  Se  Se25  1  0.436607  0.381435  0.880542  1
  Se  Se26  1  0.462986  0.292772  0.143443  1
  Se  Se27  1  0.462986  0.207228  0.643443  1
  Se  Se28  1  0.537014  0.792772  0.356557  1
  Se  Se29  1  0.537014  0.707228  0.856557  1
  Se  Se30  1  0.563393  0.618565  0.119458  1
  Se  Se31  1  0.563393  0.881435  0.619458  1
  Se  Se32  1  0.694817  0.175698  0.493650  1
  Se  Se33  1  0.694817  0.324302  0.993650  1
  Se  Se34  1  0.805183  0.675698  0.493650  1
  Se  Se35  1  0.805183  0.824302  0.993650  1
  Se  Se36  1  0.936607  0.118565  0.119458  1
  Se  Se37  1  0.936607  0.381435  0.619458  1
  Se  Se38  1  0.962986  0.207228  0.856557  1
  Se  Se39  1  0.962986  0.292772  0.356557  1
  O  O40  1  0.110643  0.974558  0.286726  1
  O  O41  1  0.110643  0.525442  0.786726  1
  O  O42  1  0.099673  0.644555  0.146247  1
  O  O43  1  0.099673  0.855445  0.646247  1
  O  O44  1  0.066528  0.301267  0.287063  1
  O  O45  1  0.066528  0.198733  0.787063  1
  O  O46  1  0.106085  0.597514  0.005792  1
  O  O47  1  0.106085  0.902486  0.505792  1
  O  O48  1  0.106622  0.074695  0.064496  1
  O  O49  1  0.106622  0.425305  0.564496  1
  O  O50  1  0.114087  0.764169  0.398287  1
  O  O51  1  0.114087  0.735831  0.898287  1
  O  O52  1  0.226488  0.875405  0.157041  1
  O  O53  1  0.226488  0.624595  0.657041  1
  O  O54  1  0.239793  0.534317  0.401955  1
  O  O55  1  0.239793  0.965683  0.901955  1
  O  O56  1  0.302219  0.560505  0.268007  1
  O  O57  1  0.302219  0.939495  0.768007  1
  O  O58  1  0.248196  0.305132  0.039946  1
  O  O59  1  0.248196  0.194868  0.539946  1
  O  O60  1  0.251804  0.805132  0.039946  1
  O  O61  1  0.251804  0.694868  0.539946  1
  O  O62  1  0.197781  0.060505  0.268007  1
  O  O63  1  0.197781  0.439495  0.768007  1
  O  O64  1  0.260207  0.034317  0.401955  1
  O  O65  1  0.260207  0.465683  0.901955  1
  O  O66  1  0.273512  0.375405  0.157041  1
  O  O67  1  0.273512  0.124595  0.657041  1
  O  O68  1  0.385913  0.264169  0.398287  1
  O  O69  1  0.385913  0.235831  0.898287  1
  O  O70  1  0.393378  0.574695  0.064496  1
  O  O71  1  0.393378  0.925305  0.564496  1
  O  O72  1  0.393915  0.097514  0.005792  1
  O  O73  1  0.393915  0.402486  0.505792  1
  O  O74  1  0.433472  0.801267  0.287063  1
  O  O75  1  0.433472  0.698733  0.787063  1
  O  O76  1  0.400327  0.144555  0.146247  1
  O  O77  1  0.400327  0.355445  0.646247  1
  O  O78  1  0.389357  0.474558  0.286726  1
  O  O79  1  0.389357  0.025442  0.786726  1
  O  O80  1  0.610643  0.525442  0.713274  1
  O  O81  1  0.610643  0.974558  0.213274  1
  O  O82  1  0.599673  0.644555  0.353753  1
  O  O83  1  0.599673  0.855445  0.853753  1
  O  O84  1  0.566528  0.301267  0.212937  1
  O  O85  1  0.566528  0.198733  0.712937  1
  O  O86  1  0.606085  0.597514  0.494208  1
  O  O87  1  0.606085  0.902486  0.994208  1
  O  O88  1  0.606622  0.425305  0.935504  1
  O  O89  1  0.606622  0.074695  0.435504  1
  O  O90  1  0.614087  0.764169  0.101713  1
  O  O91  1  0.614087  0.735831  0.601713  1
  O  O92  1  0.726488  0.624595  0.842959  1
  O  O93  1  0.726488  0.875405  0.342959  1
  O  O94  1  0.739793  0.534317  0.098045  1
  O  O95  1  0.739793  0.965683  0.598045  1
  O  O96  1  0.802219  0.560505  0.231993  1
  O  O97  1  0.802219  0.939495  0.731993  1
  O  O98  1  0.748196  0.305132  0.460054  1
  O  O99  1  0.748196  0.194868  0.960054  1
  O  O100  1  0.751804  0.805132  0.460054  1
  O  O101  1  0.751804  0.694868  0.960054  1
  O  O102  1  0.697781  0.060505  0.231993  1
  O  O103  1  0.697781  0.439495  0.731993  1
  O  O104  1  0.760207  0.034317  0.098045  1
  O  O105  1  0.760207  0.465683  0.598045  1
  O  O106  1  0.773512  0.124595  0.842959  1
  O  O107  1  0.773512  0.375405  0.342959  1
  O  O108  1  0.885913  0.264169  0.101713  1
  O  O109  1  0.885913  0.235831  0.601713  1
  O  O110  1  0.893378  0.574695  0.435504  1
  O  O111  1  0.893378  0.925305  0.935504  1
  O  O112  1  0.893915  0.097514  0.494208  1
  O  O113  1  0.893915  0.402486  0.994208  1
  O  O114  1  0.933472  0.801267  0.212937  1
  O  O115  1  0.933472  0.698733  0.712937  1
  O  O116  1  0.900327  0.144555  0.353753  1
  O  O117  1  0.900327  0.355445  0.853753  1
  O  O118  1  0.889357  0.474558  0.213274  1
  O  O119  1  0.889357  0.025442  0.713274  1
