# generated using pymatgen
data_Al2H12(SeO5)3
_symmetry_space_group_name_H-M   'P 1'
_cell_length_a   8.99765058
_cell_length_b   8.99765095
_cell_length_c   11.09387921
_cell_angle_alpha   89.99995199
_cell_angle_beta   89.99995196
_cell_angle_gamma   120.00039844
_symmetry_Int_Tables_number   1
_chemical_formula_structural   Al2H12(SeO5)3
_chemical_formula_sum   'Al4 H24 Se6 O30'
_cell_volume   777.80474109
_cell_formula_units_Z   2
loop_
 _symmetry_equiv_pos_site_id
 _symmetry_equiv_pos_as_xyz
  1  'x, y, z'
loop_
 _atom_site_type_symbol
 _atom_site_label
 _atom_site_symmetry_multiplicity
 _atom_site_fract_x
 _atom_site_fract_y
 _atom_site_fract_z
 _atom_site_occupancy
  Al  Al0  1  0.666671  0.333340  0.624468  1
  Al  Al1  1  0.333340  0.666671  0.124468  1
  Al  Al2  1  0.666669  0.333337  0.041823  1
  Al  Al3  1  0.333337  0.666669  0.541823  1
  H  H4  1  0.584076  0.410678  0.431454  1
  H  H5  1  0.589316  0.173398  0.431458  1
  H  H6  1  0.826604  0.415927  0.431456  1
  H  H7  1  0.410678  0.584076  0.931454  1
  H  H8  1  0.173398  0.589316  0.931458  1
  H  H9  1  0.415927  0.826604  0.931456  1
  H  H10  1  0.544497  0.962603  0.011726  1
  H  H11  1  0.037408  0.581905  0.011730  1
  H  H12  1  0.418108  0.455510  0.011728  1
  H  H13  1  0.962603  0.544497  0.511726  1
  H  H14  1  0.581905  0.037408  0.511730  1
  H  H15  1  0.455510  0.418108  0.511728  1
  H  H16  1  0.578343  0.800244  0.710370  1
  H  H17  1  0.199766  0.778101  0.710369  1
  H  H18  1  0.221903  0.421664  0.710369  1
  H  H19  1  0.800244  0.578343  0.210370  1
  H  H20  1  0.778101  0.199766  0.210369  1
  H  H21  1  0.421664  0.221903  0.210369  1
  H  H22  1  0.423561  0.487635  0.679055  1
  H  H23  1  0.512373  0.935931  0.679056  1
  H  H24  1  0.064076  0.576444  0.679055  1
  H  H25  1  0.487635  0.423561  0.179055  1
  H  H26  1  0.935931  0.512373  0.179056  1
  H  H27  1  0.576444  0.064076  0.179055  1
  Se  Se28  1  0.736362  0.618610  0.830669  1
  Se  Se29  1  0.381397  0.117755  0.830669  1
  Se  Se30  1  0.882248  0.263645  0.830669  1
  Se  Se31  1  0.618610  0.736362  0.330669  1
  Se  Se32  1  0.117755  0.381397  0.330669  1
  Se  Se33  1  0.263645  0.882248  0.330669  1
  O  O34  1  0.618323  0.482922  0.709171  1
  O  O35  1  0.517087  0.135406  0.709173  1
  O  O36  1  0.864602  0.381688  0.709172  1
  O  O37  1  0.482922  0.618323  0.209171  1
  O  O38  1  0.135406  0.517087  0.209173  1
  O  O39  1  0.381688  0.864602  0.209172  1
  O  O40  1  0.511094  0.347583  0.500225  1
  O  O41  1  0.652422  0.163516  0.500226  1
  O  O42  1  0.836491  0.488910  0.500223  1
  O  O43  1  0.347583  0.511094  0.000225  1
  O  O44  1  0.163516  0.652422  0.000226  1
  O  O45  1  0.488910  0.836491  0.000223  1
  O  O46  1  0.658370  0.753166  0.825055  1
  O  O47  1  0.246839  0.905206  0.825055  1
  O  O48  1  0.094796  0.341635  0.825055  1
  O  O49  1  0.753166  0.658370  0.325055  1
  O  O50  1  0.905206  0.246839  0.325055  1
  O  O51  1  0.341635  0.094796  0.325055  1
  O  O52  1  0.621144  0.483779  0.952096  1
  O  O53  1  0.516226  0.137367  0.952097  1
  O  O54  1  0.862638  0.378864  0.952096  1
  O  O55  1  0.483779  0.621144  0.452096  1
  O  O56  1  0.137367  0.516226  0.452097  1
  O  O57  1  0.378864  0.862638  0.452096  1
  O  O58  1  0.481652  0.316617  0.147743  1
  O  O59  1  0.683389  0.165040  0.147743  1
  O  O60  1  0.834969  0.518355  0.147744  1
  O  O61  1  0.316617  0.481652  0.647743  1
  O  O62  1  0.165040  0.683389  0.647743  1
  O  O63  1  0.518355  0.834969  0.647744  1
