# generated using pymatgen
data_Li2Fe2B2O7
_symmetry_space_group_name_H-M   'P 1'
_cell_length_a   7.88982828
_cell_length_b   12.12774383
_cell_length_c   5.28990337
_cell_angle_alpha   90.00000000
_cell_angle_beta   89.48215343
_cell_angle_gamma   90.00000000
_symmetry_Int_Tables_number   1
_chemical_formula_structural   Li2Fe2B2O7
_chemical_formula_sum   'Li8 Fe8 B8 O28'
_cell_volume   506.14804820
_cell_formula_units_Z   4
loop_
 _symmetry_equiv_pos_site_id
 _symmetry_equiv_pos_as_xyz
  1  'x, y, z'
loop_
 _atom_site_type_symbol
 _atom_site_label
 _atom_site_symmetry_multiplicity
 _atom_site_fract_x
 _atom_site_fract_y
 _atom_site_fract_z
 _atom_site_occupancy
  Li  Li0  1  0.126407  0.341257  0.144486  1
  Li  Li1  1  0.181720  0.745460  0.804254  1
  Li  Li2  1  0.318280  0.245460  0.695746  1
  Li  Li3  1  0.373593  0.841257  0.355514  1
  Li  Li4  1  0.626407  0.158743  0.644486  1
  Li  Li5  1  0.681720  0.754540  0.304254  1
  Li  Li6  1  0.818280  0.254540  0.195746  1
  Li  Li7  1  0.873593  0.658743  0.855514  1
  Fe  Fe8  1  0.105783  0.094807  0.342571  1
  Fe  Fe9  1  0.197046  0.488336  0.616993  1
  Fe  Fe10  1  0.302954  0.988336  0.883007  1
  Fe  Fe11  1  0.394217  0.594807  0.157429  1
  Fe  Fe12  1  0.605783  0.405193  0.842571  1
  Fe  Fe13  1  0.697046  0.011664  0.116993  1
  Fe  Fe14  1  0.802954  0.511664  0.383007  1
  Fe  Fe15  1  0.894217  0.905193  0.657429  1
  B  B16  1  0.029480  0.881400  0.190820  1
  B  B17  1  0.041900  0.678224  0.331879  1
  B  B18  1  0.458100  0.178224  0.168121  1
  B  B19  1  0.470520  0.381400  0.309180  1
  B  B20  1  0.529480  0.618600  0.690820  1
  B  B21  1  0.541900  0.821776  0.831879  1
  B  B22  1  0.958100  0.321776  0.668121  1
  B  B23  1  0.970520  0.118600  0.809180  1
  O  O24  1  0.030912  0.799325  0.402070  1
  O  O25  1  0.010448  0.164695  0.050063  1
  O  O26  1  0.097471  0.032843  0.705980  1
  O  O27  1  0.063004  0.618348  0.580936  1
  O  O28  1  0.123563  0.358214  0.777998  1
  O  O29  1  0.179677  0.663085  0.148525  1
  O  O30  1  0.195277  0.944782  0.197174  1
  O  O31  1  0.304723  0.444782  0.302826  1
  O  O32  1  0.320323  0.163085  0.351475  1
  O  O33  1  0.376437  0.858214  0.722002  1
  O  O34  1  0.436996  0.118348  0.919064  1
  O  O35  1  0.402529  0.532843  0.794020  1
  O  O36  1  0.489552  0.664695  0.449937  1
  O  O37  1  0.469088  0.299325  0.097930  1
  O  O38  1  0.530912  0.700675  0.902070  1
  O  O39  1  0.510448  0.335305  0.550063  1
  O  O40  1  0.597471  0.467157  0.205980  1
  O  O41  1  0.563004  0.881652  0.080936  1
  O  O42  1  0.623563  0.141786  0.277998  1
  O  O43  1  0.679677  0.836915  0.648525  1
  O  O44  1  0.695277  0.555218  0.697174  1
  O  O45  1  0.804723  0.055218  0.802826  1
  O  O46  1  0.820323  0.336915  0.851475  1
  O  O47  1  0.876437  0.641786  0.222002  1
  O  O48  1  0.936996  0.381652  0.419064  1
  O  O49  1  0.902529  0.967157  0.294020  1
  O  O50  1  0.989552  0.835305  0.949937  1
  O  O51  1  0.969088  0.200675  0.597930  1
