# generated using pymatgen
data_Fe10O11
_symmetry_space_group_name_H-M   'P 1'
_cell_length_a   6.87970350
_cell_length_b   6.80744177
_cell_length_c   5.35378178
_cell_angle_alpha   104.79498454
_cell_angle_beta   98.41747580
_cell_angle_gamma   107.40716480
_symmetry_Int_Tables_number   1
_chemical_formula_structural   Fe10O11
_chemical_formula_sum   'Fe10 O11'
_cell_volume   224.47396835
_cell_formula_units_Z   1
loop_
 _symmetry_equiv_pos_site_id
 _symmetry_equiv_pos_as_xyz
  1  'x, y, z'
loop_
 _atom_site_type_symbol
 _atom_site_label
 _atom_site_symmetry_multiplicity
 _atom_site_fract_x
 _atom_site_fract_y
 _atom_site_fract_z
 _atom_site_occupancy
  Fe  Fe0  1  0.182438  0.654509  0.913580  1
  Fe  Fe1  1  0.084517  0.816151  0.443131  1
  Fe  Fe2  1  0.361119  0.267039  0.829586  1
  Fe  Fe3  1  0.264511  0.444110  0.350754  1
  Fe  Fe4  1  0.560072  0.903725  0.726220  1
  Fe  Fe5  1  0.439928  0.096275  0.273780  1
  Fe  Fe6  1  0.735489  0.555890  0.649246  1
  Fe  Fe7  1  0.638880  0.732961  0.170414  1
  Fe  Fe8  1  0.915483  0.183849  0.556869  1
  Fe  Fe9  1  0.817562  0.345491  0.086420  1
  O  O10  1  0.285922  0.945188  0.831661  1
  O  O11  1  0.093734  0.336223  0.937834  1
  O  O12  1  0.000000  0.500000  0.500000  1
  O  O13  1  0.347468  0.775438  0.325704  1
  O  O14  1  0.448699  0.575782  0.759493  1
  O  O15  1  0.171752  0.125034  0.425132  1
  O  O16  1  0.652532  0.224562  0.674296  1
  O  O17  1  0.828248  0.874966  0.574868  1
  O  O18  1  0.551301  0.424218  0.240507  1
  O  O19  1  0.714078  0.054812  0.168340  1
  O  O20  1  0.906266  0.663777  0.062166  1
