# generated using pymatgen
data_LiP4WO12
_symmetry_space_group_name_H-M   'P 1'
_cell_length_a   7.60237832
_cell_length_b   7.60237832
_cell_length_c   18.25599944
_cell_angle_alpha   90.00000000
_cell_angle_beta   90.00000000
_cell_angle_gamma   100.42167618
_symmetry_Int_Tables_number   1
_chemical_formula_structural   LiP4WO12
_chemical_formula_sum   'Li4 P16 W4 O48'
_cell_volume   1037.72028234
_cell_formula_units_Z   4
loop_
 _symmetry_equiv_pos_site_id
 _symmetry_equiv_pos_as_xyz
  1  'x, y, z'
loop_
 _atom_site_type_symbol
 _atom_site_label
 _atom_site_symmetry_multiplicity
 _atom_site_fract_x
 _atom_site_fract_y
 _atom_site_fract_z
 _atom_site_occupancy
  Li  Li0  1  0.194937  0.101483  0.394842  1
  Li  Li1  1  0.898517  0.805063  0.605158  1
  Li  Li2  1  0.805063  0.898517  0.894842  1
  Li  Li3  1  0.101483  0.194937  0.105158  1
  P  P4  1  0.046391  0.758857  0.095021  1
  P  P5  1  0.241143  0.953609  0.904979  1
  P  P6  1  0.293495  0.777546  0.762779  1
  P  P7  1  0.222454  0.706505  0.237221  1
  P  P8  1  0.371134  0.628866  0.500000  1
  P  P9  1  0.671582  0.744339  0.057832  1
  P  P10  1  0.255661  0.328418  0.942168  1
  P  P11  1  0.358990  0.358990  0.250000  1
  P  P12  1  0.641010  0.641010  0.750000  1
  P  P13  1  0.744339  0.671582  0.442168  1
  P  P14  1  0.328418  0.255661  0.557832  1
  P  P15  1  0.628866  0.371134  0.000000  1
  P  P16  1  0.777546  0.293495  0.737221  1
  P  P17  1  0.706505  0.222454  0.262779  1
  P  P18  1  0.758857  0.046391  0.404979  1
  P  P19  1  0.953609  0.241143  0.595021  1
  W  W20  1  0.564895  0.960861  0.631372  1
  W  W21  1  0.039139  0.435105  0.368628  1
  W  W22  1  0.435105  0.039139  0.131372  1
  W  W23  1  0.960861  0.564895  0.868628  1
  O  O24  1  0.151948  0.949896  0.101942  1
  O  O25  1  0.050104  0.848052  0.898058  1
  O  O26  1  0.061660  0.645120  0.031542  1
  O  O27  1  0.354880  0.938340  0.968458  1
  O  O28  1  0.109543  0.668149  0.771280  1
  O  O29  1  0.331851  0.890457  0.228720  1
  O  O30  1  0.091642  0.651338  0.169846  1
  O  O31  1  0.348662  0.908358  0.830154  1
  O  O32  1  0.121978  0.679555  0.308426  1
  O  O33  1  0.320445  0.878022  0.691574  1
  O  O34  1  0.407555  0.795821  0.545527  1
  O  O35  1  0.204179  0.592445  0.454473  1
  O  O36  1  0.523208  0.802026  0.101106  1
  O  O37  1  0.197974  0.476792  0.898894  1
  O  O38  1  0.358986  0.563644  0.232153  1
  O  O39  1  0.436356  0.641014  0.767847  1
  O  O40  1  0.780788  0.842622  0.386709  1
  O  O41  1  0.157378  0.219212  0.613291  1
  O  O42  1  0.528919  0.618448  0.442056  1
  O  O43  1  0.381552  0.471081  0.557944  1
  O  O44  1  0.250368  0.304872  0.318742  1
  O  O45  1  0.695128  0.749632  0.681258  1
  O  O46  1  0.718231  0.817512  0.984028  1
  O  O47  1  0.182488  0.281769  0.015972  1
  O  O48  1  0.281769  0.182488  0.484028  1
  O  O49  1  0.817512  0.718231  0.515972  1
  O  O50  1  0.304872  0.250368  0.181258  1
  O  O51  1  0.749632  0.695128  0.818742  1
  O  O52  1  0.618448  0.528919  0.057944  1
  O  O53  1  0.471081  0.381552  0.942056  1
  O  O54  1  0.219212  0.157378  0.886709  1
  O  O55  1  0.842622  0.780788  0.113291  1
  O  O56  1  0.641014  0.436356  0.732153  1
  O  O57  1  0.563644  0.358986  0.267847  1
  O  O58  1  0.476792  0.197974  0.601106  1
  O  O59  1  0.802026  0.523208  0.398894  1
  O  O60  1  0.795821  0.407555  0.954473  1
  O  O61  1  0.592445  0.204179  0.045527  1
  O  O62  1  0.679555  0.121978  0.191574  1
  O  O63  1  0.878022  0.320445  0.808426  1
  O  O64  1  0.651338  0.091642  0.330154  1
  O  O65  1  0.908358  0.348662  0.669846  1
  O  O66  1  0.890457  0.331851  0.271280  1
  O  O67  1  0.668149  0.109543  0.728720  1
  O  O68  1  0.645120  0.061660  0.468458  1
  O  O69  1  0.938340  0.354880  0.531542  1
  O  O70  1  0.949896  0.151948  0.398058  1
  O  O71  1  0.848052  0.050104  0.601942  1
