# generated using pymatgen
data_Li4NbCu3O8
_symmetry_space_group_name_H-M   'P 1'
_cell_length_a   10.87810893
_cell_length_b   10.19722823
_cell_length_c   14.72149619
_cell_angle_alpha   19.61415169
_cell_angle_beta   19.79047044
_cell_angle_gamma   34.38947625
_symmetry_Int_Tables_number   1
_chemical_formula_structural   Li4NbCu3O8
_chemical_formula_sum   'Li4 Nb1 Cu3 O8'
_cell_volume   156.47854324
_cell_formula_units_Z   1
loop_
 _symmetry_equiv_pos_site_id
 _symmetry_equiv_pos_as_xyz
  1  'x, y, z'
loop_
 _atom_site_type_symbol
 _atom_site_label
 _atom_site_symmetry_multiplicity
 _atom_site_fract_x
 _atom_site_fract_y
 _atom_site_fract_z
 _atom_site_occupancy
  Li  Li0  1  0.999986  0.999992  0.500012  1
  Li  Li1  1  0.999985  0.499979  0.500022  1
  Li  Li2  1  0.499971  0.999975  0.500036  1
  Li  Li3  1  0.500002  0.499991  0.500007  1
  Nb  Nb4  1  0.000054  0.000051  0.999947  1
  Cu  Cu5  1  0.000005  0.499993  -0.000004  1
  Cu  Cu6  1  0.500033  0.000047  0.999945  1
  Cu  Cu7  1  0.499983  0.499986  0.000016  1
  O  O8  1  0.010184  0.000236  0.260860  1
  O  O9  1  0.956857  0.515439  0.263291  1
  O  O10  1  0.527277  0.000436  0.247068  1
  O  O11  1  0.989810  0.999739  0.739154  1
  O  O12  1  0.441077  0.483046  0.295069  1
  O  O13  1  0.043153  0.484594  0.736685  1
  O  O14  1  0.472706  0.999548  0.752949  1
  O  O15  1  0.558913  0.516945  0.704942  1
