# generated using pymatgen
data_Mg(FeO2)2
_symmetry_space_group_name_H-M   'P 1'
_cell_length_a   6.02463913
_cell_length_b   6.02677137
_cell_length_c   42.26990456
_cell_angle_alpha   59.91875097
_cell_angle_beta   59.88880609
_cell_angle_gamma   59.87957984
_symmetry_Int_Tables_number   1
_chemical_formula_structural   Mg(FeO2)2
_chemical_formula_sum   'Mg14 Fe28 O56'
_cell_volume   1082.68756896
_cell_formula_units_Z   14
loop_
 _symmetry_equiv_pos_site_id
 _symmetry_equiv_pos_as_xyz
  1  'x, y, z'
loop_
 _atom_site_type_symbol
 _atom_site_label
 _atom_site_symmetry_multiplicity
 _atom_site_fract_x
 _atom_site_fract_y
 _atom_site_fract_z
 _atom_site_occupancy
  Mg  Mg0  1  0.139628  0.125043  0.016166  1
  Mg  Mg1  1  0.135038  0.119434  0.160637  1
  Mg  Mg2  1  0.004329  0.497976  0.071509  1
  Mg  Mg3  1  0.002813  0.499345  0.214031  1
  Mg  Mg4  1  0.500556  0.001607  0.356771  1
  Mg  Mg5  1  0.999879  0.500944  0.357009  1
  Mg  Mg6  1  0.499262  0.999764  0.499840  1
  Mg  Mg7  1  0.999758  0.499111  0.499865  1
  Mg  Mg8  1  0.500633  -0.000003  0.642839  1
  Mg  Mg9  1  -0.000021  0.500666  0.642832  1
  Mg  Mg10  1  0.499969  0.999306  0.785975  1
  Mg  Mg11  1  0.999388  0.500160  0.785930  1
  Mg  Mg12  1  0.498088  0.998396  0.929301  1
  Mg  Mg13  1  0.999770  0.498809  0.929026  1
  Fe  Fe14  1  0.495895  0.496295  0.071100  1
  Fe  Fe15  1  0.496075  0.006233  0.071321  1
  Fe  Fe16  1  0.495889  0.500752  0.143289  1
  Fe  Fe17  1  0.129611  0.129194  0.303718  1
  Fe  Fe18  1  0.499606  0.501316  0.213309  1
  Fe  Fe19  1  0.498864  0.501899  0.285690  1
  Fe  Fe20  1  0.132590  0.132503  0.445253  1
  Fe  Fe21  1  0.499547  0.007339  0.213007  1
  Fe  Fe22  1  0.865965  0.880605  0.124593  1
  Fe  Fe23  1  0.500195  0.500286  0.357280  1
  Fe  Fe24  1  0.500379  0.501115  0.428364  1
  Fe  Fe25  1  0.132845  0.132883  0.588325  1
  Fe  Fe26  1  0.864194  0.877942  0.268309  1
  Fe  Fe27  1  0.498771  0.498647  0.500145  1
  Fe  Fe28  1  0.500420  0.500464  0.571246  1
  Fe  Fe29  1  0.132414  0.132744  0.731109  1
  Fe  Fe30  1  0.867239  0.867019  0.411675  1
  Fe  Fe31  1  0.499897  0.499934  0.642846  1
  Fe  Fe32  1  0.866927  0.866927  0.554226  1
  Fe  Fe33  1  0.499986  0.499962  0.714295  1
  Fe  Fe34  1  0.131945  0.132133  0.873998  1
  Fe  Fe35  1  0.499067  0.499333  0.786070  1
  Fe  Fe36  1  0.867542  0.867630  0.697248  1
  Fe  Fe37  1  0.498861  0.497942  0.857785  1
  Fe  Fe38  1  0.494738  0.494852  0.929495  1
  Fe  Fe39  1  0.865978  0.866176  0.840778  1
  Fe  Fe40  1  0.497364  0.496348  0.001363  1
  Fe  Fe41  1  0.867058  0.868573  0.983593  1
  O  O42  1  0.266693  0.250405  0.038052  1
  O  O43  1  0.267228  0.253726  0.103788  1
  O  O44  1  0.265464  0.718612  0.037825  1
  O  O45  1  0.727239  0.250854  0.038669  1
  O  O46  1  0.261475  0.742960  0.108062  1
  O  O47  1  0.267235  0.254376  0.180322  1
  O  O48  1  0.732591  0.743957  0.040553  1
  O  O49  1  0.733288  0.272073  0.108006  1
  O  O50  1  0.262448  0.252376  0.247716  1
  O  O51  1  0.268054  0.714458  0.180524  1
  O  O52  1  0.724533  0.256064  0.180633  1
  O  O53  1  0.733161  0.742707  0.107947  1
  O  O54  1  0.261683  0.265833  0.320532  1
  O  O55  1  0.267513  0.745081  0.249359  1
  O  O56  1  0.735382  0.272951  0.249907  1
  O  O57  1  0.262115  0.261713  0.389325  1
  O  O58  1  0.263777  0.733147  0.321353  1
  O  O59  1  0.737807  0.744211  0.181897  1
  O  O60  1  0.732308  0.268002  0.320809  1
  O  O61  1  0.735554  0.746180  0.249351  1
  O  O62  1  0.262202  0.262341  0.463681  1
  O  O63  1  0.269120  0.740525  0.391645  1
  O  O64  1  0.260676  0.260747  0.532377  1
  O  O65  1  0.740162  0.269021  0.391659  1
  O  O66  1  0.262849  0.733010  0.463962  1
  O  O67  1  0.740134  0.742685  0.323744  1
  O  O68  1  0.732801  0.263055  0.463929  1
  O  O69  1  0.740879  0.741833  0.391940  1
  O  O70  1  0.268739  0.739040  0.534396  1
  O  O71  1  0.262904  0.263065  0.606675  1
  O  O72  1  0.739025  0.268466  0.534419  1
  O  O73  1  0.740395  0.740099  0.466699  1
  O  O74  1  0.261698  0.261885  0.675153  1
  O  O75  1  0.263409  0.733786  0.606844  1
  O  O76  1  0.733516  0.263426  0.606862  1
  O  O77  1  0.739909  0.739787  0.534879  1
  O  O78  1  0.262106  0.262214  0.749618  1
  O  O79  1  0.269488  0.739693  0.677313  1
  O  O80  1  0.739695  0.269302  0.677320  1
  O  O81  1  0.741503  0.741403  0.609345  1
  O  O82  1  0.263039  0.263267  0.817785  1
  O  O83  1  0.262319  0.733671  0.749823  1
  O  O84  1  0.733264  0.262364  0.749852  1
  O  O85  1  0.740074  0.739951  0.678035  1
  O  O86  1  0.261400  0.261045  0.892278  1
  O  O87  1  0.267530  0.738025  0.820989  1
  O  O88  1  0.738245  0.267445  0.820939  1
  O  O89  1  0.261364  0.735189  0.892666  1
  O  O90  1  0.740371  0.740355  0.752480  1
  O  O91  1  0.267107  0.266092  0.959286  1
  O  O92  1  0.734897  0.260771  0.892722  1
  O  O93  1  0.738195  0.737918  0.821824  1
  O  O94  1  0.264396  0.734198  0.965673  1
  O  O95  1  0.737660  0.265088  0.965046  1
  O  O96  1  0.735814  0.736882  0.896593  1
  O  O97  1  0.738612  0.735064  0.965757  1
