# generated using pymatgen
data_LiSb(PO3)4
_symmetry_space_group_name_H-M   'P 1'
_cell_length_a   7.16813382
_cell_length_b   12.01209404
_cell_length_c   7.16813382
_cell_angle_alpha   72.94530702
_cell_angle_beta   66.38984591
_cell_angle_gamma   107.05469298
_symmetry_Int_Tables_number   1
_chemical_formula_structural   LiSb(PO3)4
_chemical_formula_sum   'Li2 Sb2 P8 O24'
_cell_volume   477.55182113
_cell_formula_units_Z   2
loop_
 _symmetry_equiv_pos_site_id
 _symmetry_equiv_pos_as_xyz
  1  'x, y, z'
loop_
 _atom_site_type_symbol
 _atom_site_label
 _atom_site_symmetry_multiplicity
 _atom_site_fract_x
 _atom_site_fract_y
 _atom_site_fract_z
 _atom_site_occupancy
  Li  Li0  1  0.929192  0.750000  0.929192  1
  Li  Li1  1  0.070808  0.250000  0.070808  1
  Sb  Sb2  1  0.642752  0.750000  0.642752  1
  Sb  Sb3  1  0.357248  0.250000  0.357248  1
  P  P4  1  0.291884  0.011067  0.835776  1
  P  P5  1  0.164224  0.511067  0.708116  1
  P  P6  1  0.230046  0.942160  0.317618  1
  P  P7  1  0.317618  0.557840  0.230046  1
  P  P8  1  0.682382  0.442160  0.769954  1
  P  P9  1  0.769954  0.057840  0.682382  1
  P  P10  1  0.835776  0.488933  0.291884  1
  P  P11  1  0.708116  0.988933  0.164224  1
  O  O12  1  0.208632  0.900919  0.785497  1
  O  O13  1  0.202054  0.618145  0.777595  1
  O  O14  1  0.004954  0.821838  0.520761  1
  O  O15  1  0.214503  0.400919  0.791368  1
  O  O16  1  0.732567  0.924843  0.695346  1
  O  O17  1  0.222405  0.118145  0.797946  1
  O  O18  1  0.089629  0.558210  0.250708  1
  O  O19  1  0.425504  0.908589  0.323639  1
  O  O20  1  0.323639  0.591411  0.425504  1
  O  O21  1  0.250708  0.941790  0.089629  1
  O  O22  1  0.479239  0.321838  0.995046  1
  O  O23  1  0.695346  0.575157  0.732567  1
  O  O24  1  0.304654  0.424843  0.267433  1
  O  O25  1  0.520761  0.678162  0.004954  1
  O  O26  1  0.749292  0.058210  0.910371  1
  O  O27  1  0.676361  0.408589  0.574496  1
  O  O28  1  0.574496  0.091411  0.676361  1
  O  O29  1  0.910371  0.441790  0.749292  1
  O  O30  1  0.777595  0.881855  0.202054  1
  O  O31  1  0.267433  0.075157  0.304654  1
  O  O32  1  0.785497  0.599081  0.208632  1
  O  O33  1  0.995046  0.178162  0.479239  1
  O  O34  1  0.797946  0.381855  0.222405  1
  O  O35  1  0.791368  0.099081  0.214503  1
