# generated using pymatgen
data_Li2FeSiO4
_symmetry_space_group_name_H-M   'P 1'
_cell_length_a   4.46885582
_cell_length_b   5.36292730
_cell_length_c   4.46885582
_cell_angle_alpha   65.37715226
_cell_angle_beta   90.00000000
_cell_angle_gamma   114.62284774
_symmetry_Int_Tables_number   1
_chemical_formula_structural   Li2FeSiO4
_chemical_formula_sum   'Li2 Fe1 Si1 O4'
_cell_volume   86.53468406
_cell_formula_units_Z   1
loop_
 _symmetry_equiv_pos_site_id
 _symmetry_equiv_pos_as_xyz
  1  'x, y, z'
loop_
 _atom_site_type_symbol
 _atom_site_label
 _atom_site_symmetry_multiplicity
 _atom_site_fract_x
 _atom_site_fract_y
 _atom_site_fract_z
 _atom_site_occupancy
  Li  Li0  1  0.250000  0.500000  0.250000  1
  Li  Li1  1  0.750000  0.500000  0.750000  1
  Fe  Fe2  1  0.000000  0.000000  0.000000  1
  Si  Si3  1  0.500000  0.000000  0.500000  1
  O  O4  1  0.397235  0.221724  0.175510  1
  O  O5  1  0.824490  0.221724  0.602765  1
  O  O6  1  0.602765  0.778276  0.397235  1
  O  O7  1  0.175510  0.778276  0.824490  1
