# generated using pymatgen
data_Li2MnVP2(HO5)2
_symmetry_space_group_name_H-M   'P 1'
_cell_length_a   5.46923263
_cell_length_b   10.22881915
_cell_length_c   7.41603958
_cell_angle_alpha   105.59391618
_cell_angle_beta   69.72025176
_cell_angle_gamma   83.32807070
_symmetry_Int_Tables_number   1
_chemical_formula_structural   Li2MnVP2(HO5)2
_chemical_formula_sum   'Li4 Mn2 V2 P4 H4 O20'
_cell_volume   364.63645934
_cell_formula_units_Z   2
loop_
 _symmetry_equiv_pos_site_id
 _symmetry_equiv_pos_as_xyz
  1  'x, y, z'
loop_
 _atom_site_type_symbol
 _atom_site_label
 _atom_site_symmetry_multiplicity
 _atom_site_fract_x
 _atom_site_fract_y
 _atom_site_fract_z
 _atom_site_occupancy
  Li  Li0  1  0.892265  0.541012  0.711602  1
  Li  Li1  1  0.607440  0.960683  0.783977  1
  Li  Li2  1  0.386223  0.037962  0.216761  1
  Li  Li3  1  0.112215  0.460895  0.286770  1
  Mn  Mn4  1  0.747001  0.751761  0.252804  1
  Mn  Mn5  1  0.499399  0.500589  0.501407  1
  V  V6  1  0.255305  0.249269  0.746255  1
  V  V7  1  0.999320  0.998259  0.998720  1
  P  P8  1  0.911466  0.222216  0.454672  1
  P  P9  1  0.410685  0.720499  0.954996  1
  P  P10  1  0.596313  0.277745  0.044743  1
  P  P11  1  0.083653  0.779091  0.544834  1
  H  H12  1  0.781771  0.488755  0.154816  1
  H  H13  1  0.710855  0.011222  0.351744  1
  H  H14  1  0.288831  0.987186  0.647802  1
  H  H15  1  0.216373  0.513588  0.847967  1
  O  O16  1  0.956496  0.851426  0.781032  1
  O  O17  1  0.849858  0.328601  0.948353  1
  O  O18  1  0.851228  0.826385  0.481843  1
  O  O19  1  0.664157  0.115988  0.995422  1
  O  O20  1  0.852431  0.381528  0.504091  1
  O  O21  1  0.732406  0.942923  0.219795  1
  O  O22  1  0.540127  0.648947  0.719235  1
  O  O23  1  0.759655  0.556544  0.287397  1
  O  O24  1  0.655983  0.171828  0.550983  1
  O  O25  1  0.369046  0.321850  0.977057  1
  O  O26  1  0.642817  0.680574  0.020975  1
  O  O27  1  0.330817  0.833812  0.452583  1
  O  O28  1  0.238927  0.445431  0.714353  1
  O  O29  1  0.468843  0.349250  0.279869  1
  O  O30  1  0.263797  0.056542  0.780926  1
  O  O31  1  0.148726  0.619345  0.495018  1
  O  O32  1  0.334983  0.882450  0.003510  1
  O  O33  1  0.139115  0.172703  0.519689  1
  O  O34  1  0.165640  0.664906  0.048241  1
  O  O35  1  0.035837  0.148234  0.219758  1
