# generated using pymatgen
data_Na2LiFePCO7
_symmetry_space_group_name_H-M   'P 1'
_cell_length_a   8.91014833
_cell_length_b   6.61533118
_cell_length_c   10.30112107
_cell_angle_alpha   90.00000000
_cell_angle_beta   88.38739505
_cell_angle_gamma   90.00000000
_symmetry_Int_Tables_number   1
_chemical_formula_structural   Na2LiFePCO7
_chemical_formula_sum   'Na8 Li4 Fe4 P4 C4 O28'
_cell_volume   606.94449855
_cell_formula_units_Z   4
loop_
 _symmetry_equiv_pos_site_id
 _symmetry_equiv_pos_as_xyz
  1  'x, y, z'
loop_
 _atom_site_type_symbol
 _atom_site_label
 _atom_site_symmetry_multiplicity
 _atom_site_fract_x
 _atom_site_fract_y
 _atom_site_fract_z
 _atom_site_occupancy
  Na  Na0  1  0.083354  0.251171  0.880160  1
  Na  Na1  1  0.083354  0.248829  0.380160  1
  Na  Na2  1  0.261725  0.999404  0.626528  1
  Na  Na3  1  0.261725  0.500596  0.126528  1
  Na  Na4  1  0.739014  0.502183  0.874127  1
  Na  Na5  1  0.737958  0.999355  0.874677  1
  Na  Na6  1  0.737958  0.500645  0.374677  1
  Na  Na7  1  0.739014  0.997817  0.374127  1
  Li  Li8  1  0.273339  0.490542  0.622593  1
  Li  Li9  1  0.273339  0.009458  0.122593  1
  Li  Li10  1  0.915755  0.742100  0.625540  1
  Li  Li11  1  0.915755  0.757900  0.125540  1
  Fe  Fe12  1  0.348947  0.752219  0.891801  1
  Fe  Fe13  1  0.348947  0.747781  0.391801  1
  Fe  Fe14  1  0.648373  0.248936  0.609503  1
  Fe  Fe15  1  0.648373  0.251064  0.109503  1
  P  P16  1  0.411263  0.255279  0.852951  1
  P  P17  1  0.411263  0.244721  0.352951  1
  P  P18  1  0.587096  0.744072  0.649994  1
  P  P19  1  0.587096  0.755928  0.149994  1
  C  C20  1  0.053257  0.748102  0.860892  1
  C  C21  1  0.053257  0.751898  0.360892  1
  C  C22  1  0.946788  0.258440  0.634380  1
  C  C23  1  0.946788  0.241560  0.134380  1
  O  O24  1  0.090989  0.276790  0.639760  1
  O  O25  1  0.090989  0.223210  0.139760  1
  O  O26  1  0.094477  0.749983  0.981150  1
  O  O27  1  0.094477  0.750017  0.481150  1
  O  O28  1  0.154410  0.744239  0.766252  1
  O  O29  1  0.154410  0.755761  0.266252  1
  O  O30  1  0.315764  0.065823  0.893162  1
  O  O31  1  0.316536  0.441792  0.897975  1
  O  O32  1  0.316536  0.058208  0.397975  1
  O  O33  1  0.315764  0.434177  0.393162  1
  O  O34  1  0.430750  0.264070  0.701500  1
  O  O35  1  0.433646  0.728833  0.584393  1
  O  O36  1  0.430750  0.235930  0.201500  1
  O  O37  1  0.433646  0.771167  0.084393  1
  O  O38  1  0.565339  0.251053  0.916543  1
  O  O39  1  0.561842  0.748615  0.800060  1
  O  O40  1  0.565339  0.248947  0.416543  1
  O  O41  1  0.561842  0.751385  0.300060  1
  O  O42  1  0.692528  0.562099  0.613019  1
  O  O43  1  0.679652  0.934975  0.607410  1
  O  O44  1  0.679652  0.565025  0.107410  1
  O  O45  1  0.692528  0.937901  0.113019  1
  O  O46  1  0.863350  0.247941  0.740644  1
  O  O47  1  0.863350  0.252059  0.240644  1
  O  O48  1  0.880982  0.249195  0.523231  1
  O  O49  1  0.880982  0.250805  0.023231  1
  O  O50  1  0.912864  0.750597  0.831755  1
  O  O51  1  0.912864  0.749403  0.331755  1
