# generated using pymatgen
data_K3CaPCO7
_symmetry_space_group_name_H-M   'P 1'
_cell_length_a   9.90971543
_cell_length_b   7.28391253
_cell_length_c   5.75699221
_cell_angle_alpha   90.00000000
_cell_angle_beta   91.36091237
_cell_angle_gamma   90.00000000
_symmetry_Int_Tables_number   1
_chemical_formula_structural   K3CaPCO7
_chemical_formula_sum   'K6 Ca2 P2 C2 O14'
_cell_volume   415.43111972
_cell_formula_units_Z   2
loop_
 _symmetry_equiv_pos_site_id
 _symmetry_equiv_pos_as_xyz
  1  'x, y, z'
loop_
 _atom_site_type_symbol
 _atom_site_label
 _atom_site_symmetry_multiplicity
 _atom_site_fract_x
 _atom_site_fract_y
 _atom_site_fract_z
 _atom_site_occupancy
  K  K0  1  0.083098  0.250000  0.761963  1
  K  K1  1  0.260839  0.006176  0.256186  1
  K  K2  1  0.260839  0.493824  0.256186  1
  K  K3  1  0.739161  0.506176  0.743814  1
  K  K4  1  0.739161  0.993824  0.743814  1
  K  K5  1  0.916902  0.750000  0.238037  1
  Ca  Ca6  1  0.366421  0.750000  0.778586  1
  Ca  Ca7  1  0.633579  0.250000  0.221414  1
  P  P8  1  0.417789  0.250000  0.706205  1
  P  P9  1  0.582211  0.750000  0.293795  1
  C  C10  1  0.074323  0.750000  0.739522  1
  C  C11  1  0.925677  0.250000  0.260478  1
  O  O12  1  0.056811  0.250000  0.272747  1
  O  O13  1  0.137527  0.750000  0.941424  1
  O  O14  1  0.145196  0.750000  0.550751  1
  O  O15  1  0.333987  0.075294  0.766657  1
  O  O16  1  0.333987  0.424706  0.766657  1
  O  O17  1  0.444485  0.250000  0.439599  1
  O  O18  1  0.444632  0.750000  0.157087  1
  O  O19  1  0.555368  0.250000  0.842913  1
  O  O20  1  0.555515  0.750000  0.560401  1
  O  O21  1  0.666013  0.575294  0.233343  1
  O  O22  1  0.666013  0.924706  0.233343  1
  O  O23  1  0.854804  0.250000  0.449249  1
  O  O24  1  0.862473  0.250000  0.058576  1
  O  O25  1  0.943189  0.750000  0.727253  1
