# generated using pymatgen
data_LiFePO4
_symmetry_space_group_name_H-M   'P 1'
_cell_length_a   5.70745547
_cell_length_b   5.85869233
_cell_length_c   5.75051433
_cell_angle_alpha   59.37573208
_cell_angle_beta   60.24738773
_cell_angle_gamma   90.00000000
_symmetry_Int_Tables_number   1
_chemical_formula_structural   LiFePO4
_chemical_formula_sum   'Li2 Fe2 P2 O8'
_cell_volume   135.18137966
_cell_formula_units_Z   2
loop_
 _symmetry_equiv_pos_site_id
 _symmetry_equiv_pos_as_xyz
  1  'x, y, z'
loop_
 _atom_site_type_symbol
 _atom_site_label
 _atom_site_symmetry_multiplicity
 _atom_site_fract_x
 _atom_site_fract_y
 _atom_site_fract_z
 _atom_site_occupancy
  Li  Li0  1  0.000000  0.000000  0.000000  1
  Li  Li1  1  0.500000  0.000000  0.000000  1
  Fe  Fe2  1  0.000000  0.000000  0.500000  1
  Fe  Fe3  1  0.000000  0.500000  0.500000  1
  P  P4  1  0.630646  0.380646  0.238710  1
  P  P5  1  0.369354  0.619354  0.761290  1
  O  O6  1  0.262200  0.291536  0.975600  1
  O  O7  1  0.737800  0.267137  0.024400  1
  O  O8  1  0.737164  0.264657  0.470686  1
  O  O9  1  0.292150  0.264657  0.470686  1
  O  O10  1  0.262200  0.732863  0.975600  1
  O  O11  1  0.737800  0.708464  0.024400  1
  O  O12  1  0.262836  0.735343  0.529314  1
  O  O13  1  0.707850  0.735343  0.529314  1
