# generated using pymatgen
data_Li2Si4Ni4O13
_symmetry_space_group_name_H-M   'P 1'
_cell_length_a   10.14908648
_cell_length_b   7.86777496
_cell_length_c   6.75040026
_cell_angle_alpha   77.73449082
_cell_angle_beta   90.20945766
_cell_angle_gamma   112.92442834
_symmetry_Int_Tables_number   1
_chemical_formula_structural   Li2Si4Ni4O13
_chemical_formula_sum   'Li4 Si8 Ni8 O26'
_cell_volume   483.24271728
_cell_formula_units_Z   2
loop_
 _symmetry_equiv_pos_site_id
 _symmetry_equiv_pos_as_xyz
  1  'x, y, z'
loop_
 _atom_site_type_symbol
 _atom_site_label
 _atom_site_symmetry_multiplicity
 _atom_site_fract_x
 _atom_site_fract_y
 _atom_site_fract_z
 _atom_site_occupancy
  Li  Li0  1  0.117704  0.616939  0.221212  1
  Li  Li1  1  0.424462  0.456217  0.751381  1
  Li  Li2  1  0.575538  0.543783  0.248619  1
  Li  Li3  1  0.882296  0.383061  0.778788  1
  Si  Si4  1  0.178644  0.595758  0.728991  1
  Si  Si5  1  0.286001  0.425149  0.272441  1
  Si  Si6  1  0.283916  0.124345  0.620190  1
  Si  Si7  1  0.284936  0.114448  0.078354  1
  Si  Si8  1  0.715064  0.885552  0.921646  1
  Si  Si9  1  0.716084  0.875655  0.379810  1
  Si  Si10  1  0.713999  0.574851  0.727559  1
  Si  Si11  1  0.821356  0.404242  0.271009  1
  Ni  Ni12  1  0.007542  0.816726  0.912911  1
  Ni  Ni13  1  0.011868  0.817551  0.428572  1
  Ni  Ni14  1  0.384686  0.829110  0.421751  1
  Ni  Ni15  1  0.386885  0.827900  0.920123  1
  Ni  Ni16  1  0.613115  0.172100  0.079877  1
  Ni  Ni17  1  0.615314  0.170890  0.578249  1
  Ni  Ni18  1  0.988132  0.182449  0.571428  1
  Ni  Ni19  1  0.992458  0.183274  0.087089  1
  O  O20  1  0.113275  0.996426  0.141563  1
  O  O21  1  0.073657  0.368557  0.790870  1
  O  O22  1  0.158566  0.693294  0.492531  1
  O  O23  1  0.162858  0.707799  0.907768  1
  O  O24  1  0.111944  0.351203  0.283501  1
  O  O25  1  0.112476  0.011024  0.609728  1
  O  O26  1  0.391991  0.004886  0.138663  1
  O  O27  1  0.392786  0.023848  0.594351  1
  O  O28  1  0.354349  0.648089  0.719827  1
  O  O29  1  0.376490  0.651952  0.208949  1
  O  O30  1  0.306430  0.183290  0.835449  1
  O  O31  1  0.343134  0.347750  0.487733  1
  O  O32  1  0.348580  0.327469  0.124271  1
  O  O33  1  0.651420  0.672531  0.875729  1
  O  O34  1  0.656866  0.652250  0.512267  1
  O  O35  1  0.693570  0.816710  0.164551  1
  O  O36  1  0.623510  0.348048  0.791051  1
  O  O37  1  0.645651  0.351911  0.280173  1
  O  O38  1  0.607214  0.976152  0.405649  1
  O  O39  1  0.608009  0.995114  0.861337  1
  O  O40  1  0.887524  0.988976  0.390272  1
  O  O41  1  0.888056  0.648797  0.716499  1
  O  O42  1  0.837142  0.292201  0.092232  1
  O  O43  1  0.841434  0.306706  0.507469  1
  O  O44  1  0.926343  0.631443  0.209131  1
  O  O45  1  0.886725  0.003574  0.858437  1
