# generated using pymatgen
data_LiFe2(BO3)2
_symmetry_space_group_name_H-M   'P 1'
_cell_length_a   5.27757817
_cell_length_b   9.05639136
_cell_length_c   11.30593397
_cell_angle_alpha   113.23797183
_cell_angle_beta   78.03865673
_cell_angle_gamma   89.90970356
_symmetry_Int_Tables_number   1
_chemical_formula_structural   LiFe2(BO3)2
_chemical_formula_sum   'Li4 Fe8 B8 O24'
_cell_volume   483.66428192
_cell_formula_units_Z   4
loop_
 _symmetry_equiv_pos_site_id
 _symmetry_equiv_pos_as_xyz
  1  'x, y, z'
loop_
 _atom_site_type_symbol
 _atom_site_label
 _atom_site_symmetry_multiplicity
 _atom_site_fract_x
 _atom_site_fract_y
 _atom_site_fract_z
 _atom_site_occupancy
  Li  Li0  1  0.350219  0.283222  0.588076  1
  Li  Li1  1  0.603736  0.043505  0.083402  1
  Li  Li2  1  0.925113  0.432577  0.839693  1
  Li  Li3  1  0.682475  0.658356  0.339912  1
  Fe  Fe4  1  0.404825  0.262736  0.870900  1
  Fe  Fe5  1  0.097251  0.236664  0.129362  1
  Fe  Fe6  1  0.841508  0.139414  0.616372  1
  Fe  Fe7  1  0.657455  0.337263  0.373003  1
  Fe  Fe8  1  0.352924  0.650093  0.625754  1
  Fe  Fe9  1  0.157886  0.856215  0.364752  1
  Fe  Fe10  1  0.903833  0.781136  0.864671  1
  Fe  Fe11  1  0.597418  0.716217  0.114878  1
  B  B12  1  0.637540  0.010504  0.375688  1
  B  B13  1  0.884895  0.118931  0.881093  1
  B  B14  1  0.159656  0.526859  0.370375  1
  B  B15  1  0.409723  0.591319  0.863102  1
  B  B16  1  0.858822  0.480842  0.623929  1
  B  B17  1  0.606003  0.384335  0.125324  1
  B  B18  1  0.345122  0.976854  0.621318  1
  B  B19  1  0.091439  0.904927  0.124794  1
  O  O20  1  0.114739  0.156024  0.925661  1
  O  O21  1  0.439679  0.131234  0.673208  1
  O  O22  1  0.223152  0.036822  0.121614  1
  O  O23  1  0.500908  0.147905  0.392935  1
  O  O24  1  0.875604  0.019193  0.410082  1
  O  O25  1  0.787037  0.226690  0.835690  1
  O  O26  1  0.282752  0.456576  0.862675  1
  O  O27  1  0.051830  0.379012  0.323271  1
  O  O28  1  0.713448  0.266872  0.158808  1
  O  O29  1  0.617127  0.468082  0.587491  1
  O  O30  1  0.973985  0.353465  0.636733  1
  O  O31  1  0.388741  0.343055  0.069823  1
  O  O32  1  0.646001  0.615641  0.901173  1
  O  O33  1  0.389918  0.537603  0.416400  1
  O  O34  1  0.295799  0.696837  0.822987  1
  O  O35  1  0.977641  0.623625  0.649325  1
  O  O36  1  0.705705  0.526141  0.145755  1
  O  O37  1  0.204169  0.802015  0.168090  1
  O  O38  1  0.138332  0.966548  0.563061  1
  O  O39  1  0.463645  0.847431  0.627391  1
  O  O40  1  0.038420  0.657501  0.365745  1
  O  O41  1  0.757820  0.993732  0.889111  1
  O  O42  1  0.539627  0.858624  0.333123  1
  O  O43  1  0.858177  0.878162  0.084964  1
