# generated using pymatgen
data_Li4Mn2(PO4)3
_symmetry_space_group_name_H-M   'P 1'
_cell_length_a   8.90392758
_cell_length_b   8.75585704
_cell_length_c   12.54854497
_cell_angle_alpha   89.99952628
_cell_angle_beta   89.07225269
_cell_angle_gamma   89.99759827
_symmetry_Int_Tables_number   1
_chemical_formula_structural   Li4Mn2(PO4)3
_chemical_formula_sum   'Li16 Mn8 P12 O48'
_cell_volume   978.17535363
_cell_formula_units_Z   4
loop_
 _symmetry_equiv_pos_site_id
 _symmetry_equiv_pos_as_xyz
  1  'x, y, z'
loop_
 _atom_site_type_symbol
 _atom_site_label
 _atom_site_symmetry_multiplicity
 _atom_site_fract_x
 _atom_site_fract_y
 _atom_site_fract_z
 _atom_site_occupancy
  Li  Li0  1  0.944673  0.057940  0.709841  1
  Li  Li1  1  0.949786  0.424247  0.287397  1
  Li  Li2  1  0.800497  0.763282  0.182139  1
  Li  Li3  1  0.782367  0.737436  0.822312  1
  Li  Li4  1  0.717640  0.237447  0.677665  1
  Li  Li5  1  0.699493  0.263259  0.317851  1
  Li  Li6  1  0.550181  0.924260  0.212597  1
  Li  Li7  1  0.555324  0.557905  0.790125  1
  Li  Li8  1  0.444670  0.442089  0.209885  1
  Li  Li9  1  0.449779  0.075773  0.787393  1
  Li  Li10  1  0.300461  0.736734  0.682153  1
  Li  Li11  1  0.282315  0.762551  0.322340  1
  Li  Li12  1  0.217677  0.262542  0.177657  1
  Li  Li13  1  0.199542  0.236774  0.817866  1
  Li  Li14  1  0.050272  0.575729  0.712609  1
  Li  Li15  1  0.055333  0.942104  0.290117  1
  Mn  Mn16  1  0.750328  0.050895  0.895224  1
  Mn  Mn17  1  0.749703  0.550882  0.604806  1
  Mn  Mn18  1  0.250230  0.449109  0.395177  1
  Mn  Mn19  1  0.249679  0.949114  0.104807  1
  Mn  Mn20  1  0.748201  0.952572  0.395484  1
  Mn  Mn21  1  0.751846  0.452722  0.104499  1
  Mn  Mn22  1  0.248167  0.547429  0.895584  1
  Mn  Mn23  1  0.251842  0.047185  0.604530  1
  P  P24  1  0.948054  0.249380  0.499971  1
  P  P25  1  0.896954  0.392140  0.850912  1
  P  P26  1  0.900049  0.105744  0.151175  1
  P  P27  1  0.603042  0.892141  0.649085  1
  P  P28  1  0.599934  0.605732  0.348823  1
  P  P29  1  0.551976  0.749428  0.000010  1
  P  P30  1  0.448132  0.250572  -0.000009  1
  P  P31  1  0.400051  0.394282  0.651173  1
  P  P32  1  0.396974  0.107843  0.350886  1
  P  P33  1  0.099904  0.894312  0.848820  1
  P  P34  1  0.103013  0.607849  0.149148  1
  P  P35  1  0.051902  0.750602  0.500010  1
  O  O36  1  0.965462  0.861425  0.427879  1
  O  O37  1  0.950460  0.662380  0.582391  1
  O  O38  1  0.923697  0.901374  0.835970  1
  O  O39  1  0.933828  0.590109  0.179255  1
  O  O40  1  0.864763  0.356736  0.582045  1
  O  O41  1  0.848653  0.228140  0.808926  1
  O  O42  1  0.865407  0.402875  0.968863  1
  O  O43  1  0.848486  0.264231  0.194792  1
  O  O44  1  0.828674  0.171673  0.430812  1
  O  O45  1  0.849652  0.078976  0.037915  1
  O  O46  1  0.838860  0.976024  0.225596  1
  O  O47  1  0.813009  0.519791  0.787535  1
  O  O48  1  0.686945  0.019831  0.712463  1
  O  O49  1  0.661165  0.476035  0.274387  1
  O  O50  1  0.650334  0.578955  0.462086  1
  O  O51  1  0.671357  0.671729  0.069177  1
  O  O52  1  0.634614  0.902856  0.531142  1
  O  O53  1  0.651533  0.764212  0.305203  1
  O  O54  1  0.651305  0.728171  0.691103  1
  O  O55  1  0.635283  0.856801  0.917954  1
  O  O56  1  0.576239  0.401303  0.664065  1
  O  O57  1  0.566163  0.090074  0.320768  1
  O  O58  1  0.549621  0.162319  0.917623  1
  O  O59  1  0.534574  0.361369  0.072131  1
  O  O60  1  0.465555  0.638644  0.927852  1
  O  O61  1  0.450529  0.837628  0.082381  1
  O  O62  1  0.433852  0.909864  0.679241  1
  O  O63  1  0.423768  0.598760  0.335933  1
  O  O64  1  0.364850  0.143219  0.082045  1
  O  O65  1  0.348746  0.271818  0.308863  1
  O  O66  1  0.348527  0.235787  0.694811  1
  O  O67  1  0.365317  0.097122  0.468841  1
  O  O68  1  0.328816  0.328244  0.930774  1
  O  O69  1  0.349675  0.421023  0.537914  1
  O  O70  1  0.338826  0.524004  0.725604  1
  O  O71  1  0.313070  0.980152  0.287494  1
  O  O72  1  0.186935  0.480169  0.212500  1
  O  O73  1  0.161103  0.024028  0.774388  1
  O  O74  1  0.150341  0.921037  0.962067  1
  O  O75  1  0.171252  0.828278  0.569193  1
  O  O76  1  0.151381  0.735832  0.805167  1
  O  O77  1  0.134593  0.597128  0.031186  1
  O  O78  1  0.151256  0.771835  0.191131  1
  O  O79  1  0.135184  0.643267  0.417949  1
  O  O80  1  0.066129  0.409847  0.820760  1
  O  O81  1  0.076234  0.098745  0.164045  1
  O  O82  1  0.049458  0.337606  0.417597  1
  O  O83  1  0.034531  0.138579  0.572114  1
