# generated using pymatgen
data_Li2Fe(SiO3)2
_symmetry_space_group_name_H-M   'P 1'
_cell_length_a   10.23340476
_cell_length_b   9.98869196
_cell_length_c   7.16775445
_cell_angle_alpha   90.00000000
_cell_angle_beta   90.00000000
_cell_angle_gamma   90.00000000
_symmetry_Int_Tables_number   1
_chemical_formula_structural   Li2Fe(SiO3)2
_chemical_formula_sum   'Li12 Fe6 Si12 O36'
_cell_volume   732.67587432
_cell_formula_units_Z   6
loop_
 _symmetry_equiv_pos_site_id
 _symmetry_equiv_pos_as_xyz
  1  'x, y, z'
loop_
 _atom_site_type_symbol
 _atom_site_label
 _atom_site_symmetry_multiplicity
 _atom_site_fract_x
 _atom_site_fract_y
 _atom_site_fract_z
 _atom_site_occupancy
  Li  Li0  1  0.000000  0.488910  0.496469  1
  Li  Li1  1  0.000000  0.746538  0.743656  1
  Li  Li2  1  0.214050  0.453337  0.299465  1
  Li  Li3  1  0.231374  0.507448  0.755486  1
  Li  Li4  1  0.268626  0.007448  0.244514  1
  Li  Li5  1  0.285950  0.953337  0.700535  1
  Li  Li6  1  0.500000  0.246538  0.256344  1
  Li  Li7  1  0.500000  0.988910  0.503531  1
  Li  Li8  1  0.714050  0.953337  0.700535  1
  Li  Li9  1  0.731374  0.007448  0.244514  1
  Li  Li10  1  0.768626  0.507448  0.755486  1
  Li  Li11  1  0.785950  0.453337  0.299465  1
  Fe  Fe12  1  0.000000  0.017576  0.983225  1
  Fe  Fe13  1  0.000000  0.242361  0.249727  1
  Fe  Fe14  1  0.000000  0.253022  0.728632  1
  Fe  Fe15  1  0.500000  0.517576  0.016775  1
  Fe  Fe16  1  0.500000  0.753022  0.271368  1
  Fe  Fe17  1  0.500000  0.742361  0.750273  1
  Si  Si18  1  0.000000  0.532459  0.988465  1
  Si  Si19  1  0.000000  0.959020  0.510563  1
  Si  Si20  1  0.224511  0.757493  0.019589  1
  Si  Si21  1  0.222791  0.741017  0.466182  1
  Si  Si22  1  0.277209  0.241017  0.533818  1
  Si  Si23  1  0.275489  0.257493  0.980411  1
  Si  Si24  1  0.500000  0.459020  0.489437  1
  Si  Si25  1  0.500000  0.032459  0.011535  1
  Si  Si26  1  0.724511  0.257493  0.980411  1
  Si  Si27  1  0.722791  0.241017  0.533818  1
  Si  Si28  1  0.777209  0.741017  0.466182  1
  Si  Si29  1  0.775489  0.757493  0.019589  1
  O  O30  1  0.000000  0.023572  0.303496  1
  O  O31  1  0.000000  0.463689  0.191940  1
  O  O32  1  0.000000  0.061665  0.687146  1
  O  O33  1  0.000000  0.441451  0.800022  1
  O  O34  1  0.121958  0.853817  0.559927  1
  O  O35  1  0.125071  0.635812  0.945927  1
  O  O36  1  0.130012  0.203023  0.025949  1
  O  O37  1  0.133057  0.290693  0.468183  1
  O  O38  1  0.177283  0.590982  0.516379  1
  O  O39  1  0.176725  0.899530  0.933547  1
  O  O40  1  0.208588  0.777721  0.244503  1
  O  O41  1  0.291412  0.277721  0.755497  1
  O  O42  1  0.323275  0.399530  0.066453  1
  O  O43  1  0.322717  0.090982  0.483621  1
  O  O44  1  0.366943  0.790693  0.531817  1
  O  O45  1  0.369988  0.703023  0.974051  1
  O  O46  1  0.374929  0.135812  0.054073  1
  O  O47  1  0.378042  0.353817  0.440073  1
  O  O48  1  0.500000  0.523572  0.696504  1
  O  O49  1  0.500000  0.561665  0.312854  1
  O  O50  1  0.500000  0.963689  0.808060  1
  O  O51  1  0.500000  0.941451  0.199978  1
  O  O52  1  0.621958  0.353817  0.440073  1
  O  O53  1  0.625071  0.135812  0.054073  1
  O  O54  1  0.630012  0.703023  0.974051  1
  O  O55  1  0.633057  0.790693  0.531817  1
  O  O56  1  0.677283  0.090982  0.483621  1
  O  O57  1  0.676725  0.399530  0.066453  1
  O  O58  1  0.708588  0.277721  0.755497  1
  O  O59  1  0.791412  0.777721  0.244503  1
  O  O60  1  0.823275  0.899530  0.933547  1
  O  O61  1  0.822717  0.590982  0.516379  1
  O  O62  1  0.866943  0.290693  0.468183  1
  O  O63  1  0.869988  0.203023  0.025949  1
  O  O64  1  0.874929  0.635812  0.945927  1
  O  O65  1  0.878042  0.853817  0.559927  1
