# generated using pymatgen
data_H15RhBr3N5
_symmetry_space_group_name_H-M   'P 1'
_cell_length_a   14.10139643
_cell_length_b   11.09600036
_cell_length_c   7.11763240
_cell_angle_alpha   90.00000000
_cell_angle_beta   90.00000000
_cell_angle_gamma   90.00000000
_symmetry_Int_Tables_number   1
_chemical_formula_structural   H15RhBr3N5
_chemical_formula_sum   'H60 Rh4 Br12 N20'
_cell_volume   1113.68953479
_cell_formula_units_Z   4
loop_
 _symmetry_equiv_pos_site_id
 _symmetry_equiv_pos_as_xyz
  1  'x, y, z'
loop_
 _atom_site_type_symbol
 _atom_site_label
 _atom_site_symmetry_multiplicity
 _atom_site_fract_x
 _atom_site_fract_y
 _atom_site_fract_z
 _atom_site_occupancy
  H  H0  1  0.153543  0.025878  0.091139  1
  H  H1  1  0.653543  0.474122  0.408861  1
  H  H2  1  0.846457  0.525878  0.908861  1
  H  H3  1  0.346457  0.974122  0.591139  1
  H  H4  1  0.846457  0.974122  0.908861  1
  H  H5  1  0.346457  0.525878  0.591139  1
  H  H6  1  0.153543  0.474122  0.091139  1
  H  H7  1  0.653543  0.025878  0.408861  1
  H  H8  1  0.037215  0.030075  0.132612  1
  H  H9  1  0.537215  0.469925  0.367388  1
  H  H10  1  0.962785  0.530075  0.867388  1
  H  H11  1  0.462785  0.969925  0.632612  1
  H  H12  1  0.962785  0.969925  0.867388  1
  H  H13  1  0.462785  0.530075  0.632612  1
  H  H14  1  0.037215  0.469925  0.132612  1
  H  H15  1  0.537215  0.030075  0.367388  1
  H  H16  1  0.113845  0.028168  0.309859  1
  H  H17  1  0.613845  0.471832  0.190141  1
  H  H18  1  0.886155  0.528168  0.690141  1
  H  H19  1  0.386155  0.971832  0.809859  1
  H  H20  1  0.886155  0.971832  0.690141  1
  H  H21  1  0.386155  0.528168  0.809859  1
  H  H22  1  0.113845  0.471832  0.309859  1
  H  H23  1  0.613845  0.028168  0.190141  1
  H  H24  1  0.267456  0.250000  0.993272  1
  H  H25  1  0.767456  0.250000  0.506728  1
  H  H26  1  0.732544  0.750000  0.006728  1
  H  H27  1  0.232544  0.750000  0.493272  1
  H  H28  1  0.188713  0.174574  0.865735  1
  H  H29  1  0.688713  0.325426  0.634265  1
  H  H30  1  0.811287  0.674574  0.134265  1
  H  H31  1  0.311287  0.825426  0.365735  1
  H  H32  1  0.811287  0.825426  0.134265  1
  H  H33  1  0.311287  0.674574  0.365735  1
  H  H34  1  0.188713  0.325426  0.865735  1
  H  H35  1  0.688713  0.174574  0.634265  1
  H  H36  1  0.044476  0.250000  0.528255  1
  H  H37  1  0.544476  0.250000  0.971745  1
  H  H38  1  0.955524  0.750000  0.471745  1
  H  H39  1  0.455524  0.750000  0.028255  1
  H  H40  1  0.967288  0.325551  0.397517  1
  H  H41  1  0.467288  0.174449  0.102483  1
  H  H42  1  0.032712  0.825551  0.602483  1
  H  H43  1  0.532712  0.674449  0.897517  1
  H  H44  1  0.032712  0.674449  0.602483  1
  H  H45  1  0.532712  0.825551  0.897517  1
  H  H46  1  0.967288  0.174449  0.397517  1
  H  H47  1  0.467288  0.325551  0.102483  1
  H  H48  1  0.281317  0.250000  0.297962  1
  H  H49  1  0.781317  0.250000  0.202038  1
  H  H50  1  0.718683  0.750000  0.702038  1
  H  H51  1  0.218683  0.750000  0.797962  1
  H  H52  1  0.214752  0.325710  0.447302  1
  H  H53  1  0.714752  0.174290  0.052698  1
  H  H54  1  0.785248  0.825710  0.552698  1
  H  H55  1  0.285248  0.674290  0.947302  1
  H  H56  1  0.785248  0.674290  0.552698  1
  H  H57  1  0.285248  0.825710  0.947302  1
  H  H58  1  0.214752  0.174290  0.447302  1
  H  H59  1  0.714752  0.325710  0.052698  1
  Rh  Rh60  1  0.103134  0.250000  0.173511  1
  Rh  Rh61  1  0.603134  0.250000  0.326489  1
  Rh  Rh62  1  0.896866  0.750000  0.826489  1
  Rh  Rh63  1  0.396866  0.750000  0.673511  1
  Br  Br64  1  0.965995  0.250000  0.943401  1
  Br  Br65  1  0.465995  0.250000  0.556599  1
  Br  Br66  1  0.034005  0.750000  0.056599  1
  Br  Br67  1  0.534005  0.750000  0.443401  1
  Br  Br68  1  0.648174  0.501298  0.847595  1
  Br  Br69  1  0.148174  0.998702  0.652405  1
  Br  Br70  1  0.351826  0.001298  0.152405  1
  Br  Br71  1  0.851826  0.498702  0.347595  1
  Br  Br72  1  0.351826  0.498702  0.152405  1
  Br  Br73  1  0.851826  0.001298  0.347595  1
  Br  Br74  1  0.648174  0.998702  0.847595  1
  Br  Br75  1  0.148174  0.501298  0.652405  1
  N  N76  1  0.216551  0.250000  0.362915  1
  N  N77  1  0.716551  0.250000  0.137085  1
  N  N78  1  0.783449  0.750000  0.637085  1
  N  N79  1  0.283449  0.750000  0.862915  1
  N  N80  1  0.198502  0.250000  0.948807  1
  N  N81  1  0.698502  0.250000  0.551193  1
  N  N82  1  0.801498  0.750000  0.051193  1
  N  N83  1  0.301498  0.750000  0.448807  1
  N  N84  1  0.010004  0.250000  0.401355  1
  N  N85  1  0.510004  0.250000  0.098645  1
  N  N86  1  0.989996  0.750000  0.598645  1
  N  N87  1  0.489996  0.750000  0.901355  1
  N  N88  1  0.102167  0.061622  0.176644  1
  N  N89  1  0.602167  0.438378  0.323356  1
  N  N90  1  0.897833  0.561622  0.823356  1
  N  N91  1  0.397833  0.938378  0.676644  1
  N  N92  1  0.897833  0.938378  0.823356  1
  N  N93  1  0.397833  0.561622  0.676644  1
  N  N94  1  0.102167  0.438378  0.176644  1
  N  N95  1  0.602167  0.061622  0.323356  1
