# generated using pymatgen
data_Sb2(SO4)3
_symmetry_space_group_name_H-M   'P 1'
_cell_length_a   8.36873695
_cell_length_b   8.36873695
_cell_length_c   9.29531925
_cell_angle_alpha   68.60466186
_cell_angle_beta   111.39533814
_cell_angle_gamma   113.94095426
_symmetry_Int_Tables_number   1
_chemical_formula_structural   Sb2(SO4)3
_chemical_formula_sum   'Sb4 S6 O24'
_cell_volume   535.71680245
_cell_formula_units_Z   2
loop_
 _symmetry_equiv_pos_site_id
 _symmetry_equiv_pos_as_xyz
  1  'x, y, z'
loop_
 _atom_site_type_symbol
 _atom_site_label
 _atom_site_symmetry_multiplicity
 _atom_site_fract_x
 _atom_site_fract_y
 _atom_site_fract_z
 _atom_site_occupancy
  Sb  Sb0  1  0.628728  0.856099  0.973038  1
  Sb  Sb1  1  0.143901  0.371272  0.473038  1
  Sb  Sb2  1  0.856099  0.628728  0.526962  1
  Sb  Sb3  1  0.371272  0.143901  0.026962  1
  S  S4  1  0.245349  0.544010  0.826550  1
  S  S5  1  0.455990  0.754651  0.326550  1
  S  S6  1  0.939444  0.939444  0.750000  1
  S  S7  1  0.060556  0.060556  0.250000  1
  S  S8  1  0.544010  0.245349  0.673450  1
  S  S9  1  0.754651  0.455990  0.173450  1
  O  O10  1  0.109325  0.948571  0.876010  1
  O  O11  1  0.051429  0.890675  0.376010  1
  O  O12  1  0.137957  0.511207  0.930406  1
  O  O13  1  0.389327  0.729080  0.811166  1
  O  O14  1  0.134086  0.540801  0.656016  1
  O  O15  1  0.488793  0.862043  0.430406  1
  O  O16  1  0.784725  0.893874  0.819898  1
  O  O17  1  0.344600  0.407338  0.878141  1
  O  O18  1  0.270920  0.610673  0.311166  1
  O  O19  1  0.459199  0.865914  0.156016  1
  O  O20  1  0.106126  0.215275  0.319898  1
  O  O21  1  0.407338  0.344600  0.621859  1
  O  O22  1  0.592662  0.655400  0.378141  1
  O  O23  1  0.893874  0.784725  0.680102  1
  O  O24  1  0.540801  0.134086  0.843984  1
  O  O25  1  0.729080  0.389327  0.688834  1
  O  O26  1  0.655400  0.592662  0.121859  1
  O  O27  1  0.215275  0.106126  0.180102  1
  O  O28  1  0.511207  0.137957  0.569594  1
  O  O29  1  0.865914  0.459199  0.343984  1
  O  O30  1  0.610673  0.270920  0.188834  1
  O  O31  1  0.862043  0.488793  0.069594  1
  O  O32  1  0.948571  0.109325  0.623990  1
  O  O33  1  0.890675  0.051429  0.123990  1
