# generated using pymatgen
data_BaRe2H12C3N6O11
_symmetry_space_group_name_H-M   'P 1'
_cell_length_a   13.94545154
_cell_length_b   7.99226429
_cell_length_c   15.10966992
_cell_angle_alpha   90.00000000
_cell_angle_beta   94.89759955
_cell_angle_gamma   90.00000000
_symmetry_Int_Tables_number   1
_chemical_formula_structural   BaRe2H12C3N6O11
_chemical_formula_sum   'Ba4 Re8 H48 C12 N24 O44'
_cell_volume   1677.91064303
_cell_formula_units_Z   4
loop_
 _symmetry_equiv_pos_site_id
 _symmetry_equiv_pos_as_xyz
  1  'x, y, z'
loop_
 _atom_site_type_symbol
 _atom_site_label
 _atom_site_symmetry_multiplicity
 _atom_site_fract_x
 _atom_site_fract_y
 _atom_site_fract_z
 _atom_site_occupancy
  Ba  Ba0  1  0.375692  0.385159  0.583615  1
  Ba  Ba1  1  0.624308  0.885159  0.916385  1
  Ba  Ba2  1  0.624308  0.614841  0.416385  1
  Ba  Ba3  1  0.375692  0.114841  0.083615  1
  Re  Re4  1  0.485480  0.128607  0.368276  1
  Re  Re5  1  0.514520  0.628607  0.131724  1
  Re  Re6  1  0.514520  0.871393  0.631724  1
  Re  Re7  1  0.485480  0.371393  0.868276  1
  Re  Re8  1  0.129961  0.066086  0.589144  1
  Re  Re9  1  0.870039  0.566086  0.910856  1
  Re  Re10  1  0.870039  0.933914  0.410856  1
  Re  Re11  1  0.129961  0.433914  0.089144  1
  H  H12  1  0.725278  0.352993  0.746222  1
  H  H13  1  0.274722  0.852993  0.753778  1
  H  H14  1  0.274722  0.647007  0.253778  1
  H  H15  1  0.725278  0.147007  0.246222  1
  H  H16  1  0.642345  0.516385  0.738854  1
  H  H17  1  0.357655  0.016385  0.761146  1
  H  H18  1  0.357655  0.483615  0.261146  1
  H  H19  1  0.642345  0.983615  0.238854  1
  H  H20  1  0.744574  0.183506  0.620976  1
  H  H21  1  0.255426  0.683506  0.879024  1
  H  H22  1  0.255426  0.816494  0.379024  1
  H  H23  1  0.744574  0.316494  0.120976  1
  H  H24  1  0.666528  0.211363  0.525632  1
  H  H25  1  0.333472  0.711363  0.974368  1
  H  H26  1  0.333472  0.788637  0.474368  1
  H  H27  1  0.666528  0.288637  0.025632  1
  H  H28  1  0.176203  0.343406  0.863524  1
  H  H29  1  0.823797  0.843406  0.636476  1
  H  H30  1  0.823797  0.656594  0.136476  1
  H  H31  1  0.176203  0.156594  0.363524  1
  H  H32  1  0.257938  0.279361  0.791328  1
  H  H33  1  0.742062  0.779361  0.708672  1
  H  H34  1  0.742062  0.720639  0.208672  1
  H  H35  1  0.257938  0.220639  0.291328  1
  H  H36  1  0.083416  0.580632  0.832149  1
  H  H37  1  0.916584  0.080632  0.667851  1
  H  H38  1  0.916584  0.419368  0.167851  1
  H  H39  1  0.083416  0.919368  0.332149  1
  H  H40  1  0.104036  0.703149  0.738521  1
  H  H41  1  0.895964  0.203149  0.761479  1
  H  H42  1  0.895964  0.296851  0.261479  1
  H  H43  1  0.104036  0.796851  0.238521  1
  H  H44  1  0.030739  0.559747  0.360306  1
  H  H45  1  0.969261  0.059747  0.139694  1
  H  H46  1  0.969261  0.440253  0.639694  1
  H  H47  1  0.030739  0.940253  0.860306  1
  H  H48  1  0.107483  0.403126  0.324823  1
  H  H49  1  0.892517  0.903126  0.175177  1
  H  H50  1  0.892517  0.596874  0.675177  1
  H  H51  1  0.107483  0.096874  0.824823  1
  H  H52  1  0.058454  0.675949  0.497974  1
  H  H53  1  0.941546  0.175949  0.002026  1
  H  H54  1  0.941546  0.324051  0.502026  1
  H  H55  1  0.058454  0.824051  0.997974  1
  H  H56  1  0.150209  0.598629  0.574178  1
  H  H57  1  0.849791  0.098629  0.925822  1
  H  H58  1  0.849791  0.401371  0.425822  1
  H  H59  1  0.150209  0.901371  0.074178  1
  C  C60  1  0.643547  0.375057  0.625526  1
  C  C61  1  0.356453  0.875057  0.874474  1
  C  C62  1  0.356453  0.624943  0.374474  1
  C  C63  1  0.643547  0.124943  0.125526  1
  C  C64  1  0.185850  0.490840  0.751720  1
  C  C65  1  0.814150  0.990840  0.748280  1
  C  C66  1  0.814150  0.509160  0.248280  1
  C  C67  1  0.185850  0.009160  0.251720  1
  C  C68  1  0.141158  0.485543  0.451870  1
  C  C69  1  0.858842  0.985543  0.048130  1
  C  C70  1  0.858842  0.514457  0.548130  1
  C  C71  1  0.141158  0.014457  0.951870  1
  N  N72  1  0.673243  0.417652  0.710034  1
  N  N73  1  0.326757  0.917652  0.789966  1
  N  N74  1  0.326757  0.582348  0.289966  1
  N  N75  1  0.673243  0.082348  0.210034  1
  N  N76  1  0.687507  0.244045  0.589221  1
  N  N77  1  0.312493  0.744045  0.910779  1
  N  N78  1  0.312493  0.755955  0.410779  1
  N  N79  1  0.687507  0.255955  0.089221  1
  N  N80  1  0.198527  0.347744  0.800852  1
  N  N81  1  0.801473  0.847744  0.699148  1
  N  N82  1  0.801473  0.652256  0.199148  1
  N  N83  1  0.198527  0.152256  0.300852  1
  N  N84  1  0.121232  0.603046  0.778701  1
  N  N85  1  0.878768  0.103046  0.721299  1
  N  N86  1  0.878768  0.396954  0.221299  1
  N  N87  1  0.121232  0.896954  0.278701  1
  N  N88  1  0.088414  0.483356  0.372173  1
  N  N89  1  0.911586  0.983356  0.127827  1
  N  N90  1  0.911586  0.516644  0.627827  1
  N  N91  1  0.088414  0.016644  0.872173  1
  N  N92  1  0.115233  0.598102  0.512254  1
  N  N93  1  0.884767  0.098102  0.987746  1
  N  N94  1  0.884767  0.401898  0.487746  1
  N  N95  1  0.115233  0.901898  0.012254  1
  O  O96  1  0.409112  0.139892  0.454205  1
  O  O97  1  0.590888  0.639892  0.045795  1
  O  O98  1  0.590888  0.860108  0.545795  1
  O  O99  1  0.409112  0.360108  0.954205  1
  O  O100  1  0.586765  0.257465  0.392585  1
  O  O101  1  0.413235  0.757465  0.107415  1
  O  O102  1  0.413235  0.742535  0.607415  1
  O  O103  1  0.586765  0.242535  0.892585  1
  O  O104  1  0.523224  0.921496  0.358652  1
  O  O105  1  0.476776  0.421496  0.141348  1
  O  O106  1  0.476776  0.078504  0.641348  1
  O  O107  1  0.523224  0.578504  0.858652  1
  O  O108  1  0.420793  0.187747  0.268056  1
  O  O109  1  0.579207  0.687747  0.231944  1
  O  O110  1  0.579207  0.812253  0.731944  1
  O  O111  1  0.420793  0.312253  0.768056  1
  O  O112  1  0.250534  0.118377  0.621483  1
  O  O113  1  0.749466  0.618377  0.878517  1
  O  O114  1  0.749466  0.881623  0.378517  1
  O  O115  1  0.250534  0.381623  0.121483  1
  O  O116  1  0.116876  0.012716  0.476252  1
  O  O117  1  0.883124  0.512716  0.023748  1
  O  O118  1  0.883124  0.987284  0.523748  1
  O  O119  1  0.116876  0.487284  0.976252  1
  O  O120  1  0.097524  0.894771  0.653214  1
  O  O121  1  0.902476  0.394771  0.846786  1
  O  O122  1  0.902476  0.105229  0.346786  1
  O  O123  1  0.097524  0.605229  0.153214  1
  O  O124  1  0.053940  0.234204  0.609360  1
  O  O125  1  0.946060  0.734204  0.890640  1
  O  O126  1  0.946060  0.765796  0.390640  1
  O  O127  1  0.053940  0.265796  0.109360  1
  O  O128  1  0.576172  0.455382  0.582071  1
  O  O129  1  0.423828  0.955382  0.917929  1
  O  O130  1  0.423828  0.544618  0.417929  1
  O  O131  1  0.576172  0.044618  0.082071  1
  O  O132  1  0.231308  0.520521  0.684760  1
  O  O133  1  0.768692  0.020521  0.815240  1
  O  O134  1  0.768692  0.479480  0.315240  1
  O  O135  1  0.231308  0.979479  0.184760  1
  O  O136  1  0.211666  0.386996  0.467810  1
  O  O137  1  0.788334  0.886996  0.032190  1
  O  O138  1  0.788334  0.613004  0.532190  1
  O  O139  1  0.211666  0.113004  0.967810  1
