# generated using pymatgen
data_Cr4Si4O13
_symmetry_space_group_name_H-M   'P 1'
_cell_length_a   10.01593094
_cell_length_b   7.77871873
_cell_length_c   6.97875707
_cell_angle_alpha   79.43470056
_cell_angle_beta   90.84111672
_cell_angle_gamma   113.35393790
_symmetry_Int_Tables_number   1
_chemical_formula_structural   Cr4Si4O13
_chemical_formula_sum   'Cr8 Si8 O26'
_cell_volume   489.70016642
_cell_formula_units_Z   2
loop_
 _symmetry_equiv_pos_site_id
 _symmetry_equiv_pos_as_xyz
  1  'x, y, z'
loop_
 _atom_site_type_symbol
 _atom_site_label
 _atom_site_symmetry_multiplicity
 _atom_site_fract_x
 _atom_site_fract_y
 _atom_site_fract_z
 _atom_site_occupancy
  Cr  Cr0  1  0.007418  0.809471  0.428150  1
  Cr  Cr1  1  0.991317  0.184452  0.074562  1
  Cr  Cr2  1  0.379909  0.820784  0.937738  1
  Cr  Cr3  1  0.371877  0.823145  0.437745  1
  Cr  Cr4  1  0.628123  0.176855  0.562255  1
  Cr  Cr5  1  0.620091  0.179216  0.062262  1
  Cr  Cr6  1  0.008682  0.815548  0.925438  1
  Cr  Cr7  1  0.992582  0.190529  0.571850  1
  Si  Si8  1  0.166917  0.587265  0.737586  1
  Si  Si9  1  0.281500  0.426012  0.283278  1
  Si  Si10  1  0.288967  0.141683  0.630657  1
  Si  Si11  1  0.298504  0.132961  0.072262  1
  Si  Si12  1  0.701496  0.867039  0.927738  1
  Si  Si13  1  0.711033  0.858317  0.369343  1
  Si  Si14  1  0.718500  0.573988  0.716722  1
  Si  Si15  1  0.833083  0.412735  0.262414  1
  O  O16  1  0.153134  0.703367  0.909284  1
  O  O17  1  0.077557  0.355443  0.802945  1
  O  O18  1  0.149619  0.685476  0.509848  1
  O  O19  1  0.106585  0.338601  0.257173  1
  O  O20  1  0.110869  0.007598  0.645203  1
  O  O21  1  0.120071  0.018064  0.102241  1
  O  O22  1  0.397485  0.054720  0.551647  1
  O  O23  1  0.392738  0.004725  0.156709  1
  O  O24  1  0.348881  0.669369  0.714167  1
  O  O25  1  0.359736  0.654129  0.249244  1
  O  O26  1  0.341528  0.177435  0.842844  1
  O  O27  1  0.309826  0.348434  0.507302  1
  O  O28  1  0.355265  0.334440  0.143742  1
  O  O29  1  0.644735  0.665560  0.856258  1
  O  O30  1  0.690174  0.651566  0.492698  1
  O  O31  1  0.658472  0.822565  0.157156  1
  O  O32  1  0.640264  0.345871  0.750756  1
  O  O33  1  0.651119  0.330631  0.285833  1
  O  O34  1  0.607262  0.995275  0.843291  1
  O  O35  1  0.602515  0.945280  0.448353  1
  O  O36  1  0.879929  0.981936  0.897759  1
  O  O37  1  0.889131  0.992402  0.354797  1
  O  O38  1  0.893415  0.661399  0.742827  1
  O  O39  1  0.850381  0.314524  0.490152  1
  O  O40  1  0.922443  0.644557  0.197055  1
  O  O41  1  0.846866  0.296633  0.090716  1
