# generated using pymatgen
data_Li3Cr4(PO4)6
_symmetry_space_group_name_H-M   'P 1'
_cell_length_a   8.56549387
_cell_length_b   8.56549449
_cell_length_c   6.31967404
_cell_angle_alpha   74.99547357
_cell_angle_beta   105.00452020
_cell_angle_gamma   87.56465855
_symmetry_Int_Tables_number   1
_chemical_formula_structural   Li3Cr4(PO4)6
_chemical_formula_sum   'Li3 Cr4 P6 O24'
_cell_volume   429.59150624
_cell_formula_units_Z   1
loop_
 _symmetry_equiv_pos_site_id
 _symmetry_equiv_pos_as_xyz
  1  'x, y, z'
loop_
 _atom_site_type_symbol
 _atom_site_label
 _atom_site_symmetry_multiplicity
 _atom_site_fract_x
 _atom_site_fract_y
 _atom_site_fract_z
 _atom_site_occupancy
  Li  Li0  1  0.501569  0.501021  0.499633  1
  Li  Li1  1  0.501021  0.501569  0.000367  1
  Li  Li2  1  0.981758  0.981758  0.750000  1
  Cr  Cr3  1  0.058731  0.617003  0.144139  1
  Cr  Cr4  1  0.380395  0.941029  0.639804  1
  Cr  Cr5  1  0.617003  0.058731  0.355861  1
  Cr  Cr6  1  0.941029  0.380395  0.860196  1
  P  P7  1  0.157245  0.650748  0.648908  1
  P  P8  1  0.272429  0.272429  0.250000  1
  P  P9  1  0.348417  0.842623  0.142575  1
  P  P10  1  0.650748  0.157245  0.851092  1
  P  P11  1  0.727335  0.727335  0.750000  1
  P  P12  1  0.842623  0.348417  0.357425  1
  O  O13  1  0.066776  0.582240  0.838532  1
  O  O14  1  0.032471  0.643093  0.423482  1
  O  O15  1  0.173211  0.832985  0.634913  1
  O  O16  1  0.149779  0.249489  0.035984  1
  O  O17  1  0.249489  0.149779  0.464016  1
  O  O18  1  0.164956  0.822473  0.111291  1
  O  O19  1  0.318582  0.552456  0.698828  1
  O  O20  1  0.356704  0.971149  0.921488  1
  O  O21  1  0.251013  0.447081  0.278131  1
  O  O22  1  0.413432  0.932033  0.335059  1
  O  O23  1  0.552456  0.318582  0.801172  1
  O  O24  1  0.447081  0.251013  0.221869  1
  O  O25  1  0.553938  0.748792  0.779120  1
  O  O26  1  0.450051  0.681412  0.199672  1
  O  O27  1  0.582240  0.066776  0.661468  1
  O  O28  1  0.748792  0.553938  0.720880  1
  O  O29  1  0.643093  0.032471  0.076518  1
  O  O30  1  0.681412  0.450051  0.300328  1
  O  O31  1  0.832985  0.173211  0.865087  1
  O  O32  1  0.753936  0.855046  0.540985  1
  O  O33  1  0.855046  0.753936  0.959015  1
  O  O34  1  0.822473  0.164956  0.388709  1
  O  O35  1  0.971149  0.356704  0.578512  1
  O  O36  1  0.932033  0.413432  0.164941  1
