# generated using pymatgen
data_Li2CoP2O7
_symmetry_space_group_name_H-M   'P 1'
_cell_length_a   5.01727879
_cell_length_b   7.11100903
_cell_length_c   8.34862563
_cell_angle_alpha   90.00000000
_cell_angle_beta   90.00000000
_cell_angle_gamma   70.68915075
_symmetry_Int_Tables_number   1
_chemical_formula_structural   Li2CoP2O7
_chemical_formula_sum   'Li4 Co2 P4 O14'
_cell_volume   281.10337128
_cell_formula_units_Z   2
loop_
 _symmetry_equiv_pos_site_id
 _symmetry_equiv_pos_as_xyz
  1  'x, y, z'
loop_
 _atom_site_type_symbol
 _atom_site_label
 _atom_site_symmetry_multiplicity
 _atom_site_fract_x
 _atom_site_fract_y
 _atom_site_fract_z
 _atom_site_occupancy
  Li  Li0  1  0.169016  0.349571  0.146008  1
  Li  Li1  1  0.651425  0.079048  0.322806  1
  Li  Li2  1  0.348577  0.920955  0.822807  1
  Li  Li3  1  0.830984  0.650429  0.646008  1
  Co  Co4  1  0.202028  0.279452  0.504185  1
  Co  Co5  1  0.797972  0.720548  0.004185  1
  P  P6  1  0.389502  0.482583  0.813866  1
  P  P7  1  0.210826  0.914908  0.207750  1
  P  P8  1  0.789174  0.085092  0.707750  1
  P  P9  1  0.610498  0.517417  0.313866  1
  O  O10  1  0.075213  0.115751  0.683686  1
  O  O11  1  0.175793  0.109546  0.297812  1
  O  O12  1  0.201049  0.512432  0.961744  1
  O  O13  1  0.227761  0.498086  0.657074  1
  O  O14  1  0.430249  0.378499  0.311339  1
  O  O15  1  0.622740  0.092028  0.552695  1
  O  O16  1  0.601292  0.254437  0.830208  1
  O  O17  1  0.398708  0.745563  0.330208  1
  O  O18  1  0.377260  0.907972  0.052695  1
  O  O19  1  0.569751  0.621501  0.811339  1
  O  O20  1  0.772239  0.501914  0.157074  1
  O  O21  1  0.798951  0.487568  0.461744  1
  O  O22  1  0.824207  0.890454  0.797812  1
  O  O23  1  0.924787  0.884249  0.183686  1
