# generated using pymatgen
data_Ti17(NO4)6
_symmetry_space_group_name_H-M   'P 1'
_cell_length_a   7.64740219
_cell_length_b   14.64258671
_cell_length_c   10.04166938
_cell_angle_alpha   90.00000000
_cell_angle_beta   90.00000000
_cell_angle_gamma   97.50692332
_symmetry_Int_Tables_number   1
_chemical_formula_structural   Ti17(NO4)6
_chemical_formula_sum   'Ti34 N12 O48'
_cell_volume   1114.80602606
_cell_formula_units_Z   2
loop_
 _symmetry_equiv_pos_site_id
 _symmetry_equiv_pos_as_xyz
  1  'x, y, z'
loop_
 _atom_site_type_symbol
 _atom_site_label
 _atom_site_symmetry_multiplicity
 _atom_site_fract_x
 _atom_site_fract_y
 _atom_site_fract_z
 _atom_site_occupancy
  Ti  Ti0  1  0.060439  0.243582  0.429690  1
  Ti  Ti1  1  0.060439  0.243582  0.070310  1
  Ti  Ti2  1  0.048069  0.201963  0.750000  1
  Ti  Ti3  1  0.106359  0.425665  0.940246  1
  Ti  Ti4  1  0.106359  0.425665  0.559754  1
  Ti  Ti5  1  0.226312  0.904945  0.428146  1
  Ti  Ti6  1  0.226312  0.904945  0.071854  1
  Ti  Ti7  1  0.216711  0.866423  0.750000  1
  Ti  Ti8  1  0.447155  0.760091  0.923650  1
  Ti  Ti9  1  0.386178  0.573242  0.423650  1
  Ti  Ti10  1  0.272427  0.092606  0.927762  1
  Ti  Ti11  1  0.272427  0.092606  0.572238  1
  Ti  Ti12  1  0.378322  0.536176  0.750000  1
  Ti  Ti13  1  0.386178  0.573242  0.076350  1
  Ti  Ti14  1  0.447155  0.760091  0.576350  1
  Ti  Ti15  1  0.279854  0.130222  0.250000  1
  Ti  Ti16  1  0.455011  0.797158  0.250000  1
  Ti  Ti17  1  0.553479  0.203111  0.750000  1
  Ti  Ti18  1  0.560906  0.240727  0.072238  1
  Ti  Ti19  1  0.560906  0.240727  0.427762  1
  Ti  Ti20  1  0.616622  0.466910  0.250000  1
  Ti  Ti21  1  0.607021  0.428389  0.928146  1
  Ti  Ti22  1  0.726974  0.907668  0.059754  1
  Ti  Ti23  1  0.726974  0.907668  0.440246  1
  Ti  Ti24  1  0.607021  0.428389  0.571854  1
  Ti  Ti25  1  0.772895  0.089751  0.929690  1
  Ti  Ti26  1  0.889743  0.536185  0.750000  1
  Ti  Ti27  1  0.933012  0.760097  0.923629  1
  Ti  Ti28  1  0.900321  0.573237  0.076371  1
  Ti  Ti29  1  0.900321  0.573237  0.423629  1
  Ti  Ti30  1  0.772895  0.089751  0.570310  1
  Ti  Ti31  1  0.785264  0.131370  0.250000  1
  Ti  Ti32  1  0.943590  0.797148  0.250000  1
  Ti  Ti33  1  0.933012  0.760097  0.576371  1
  N  N34  1  0.122142  0.488770  0.750000  1
  N  N35  1  0.045858  0.177459  0.250000  1
  N  N36  1  0.211871  0.847294  0.250000  1
  N  N37  1  0.289815  0.153378  0.750000  1
  N  N38  1  0.434336  0.811587  0.750000  1
  N  N39  1  0.398998  0.521746  0.250000  1
  N  N40  1  0.621462  0.486039  0.750000  1
  N  N41  1  0.711191  0.844563  0.250000  1
  N  N42  1  0.543518  0.179955  0.250000  1
  N  N43  1  0.787475  0.155875  0.750000  1
  N  N44  1  0.971548  0.811617  0.750000  1
  N  N45  1  0.861785  0.521716  0.250000  1
  O  O46  1  0.031214  0.124096  0.567166  1
  O  O47  1  0.091122  0.362743  0.108891  1
  O  O48  1  0.075232  0.300323  0.878314  1
  O  O49  1  0.031214  0.124096  0.932834  1
  O  O50  1  0.075232  0.300323  0.621686  1
  O  O51  1  0.137012  0.548320  0.049420  1
  O  O52  1  0.198745  0.794792  0.559754  1
  O  O53  1  0.091122  0.362743  0.391109  1
  O  O54  1  0.137012  0.548320  0.450580  1
  O  O55  1  0.198745  0.794792  0.940246  1
  O  O56  1  0.242618  0.968903  0.881948  1
  O  O57  1  0.242618  0.968903  0.618052  1
  O  O58  1  0.469579  0.874838  0.435316  1
  O  O59  1  0.421004  0.698734  0.380249  1
  O  O60  1  0.257915  0.031676  0.381347  1
  O  O61  1  0.363755  0.458495  0.935316  1
  O  O62  1  0.257915  0.031676  0.118653  1
  O  O63  1  0.301889  0.206901  0.435340  1
  O  O64  1  0.301889  0.206901  0.064660  1
  O  O65  1  0.363755  0.458495  0.564684  1
  O  O66  1  0.421004  0.698734  0.119751  1
  O  O67  1  0.412329  0.634599  0.880249  1
  O  O68  1  0.412329  0.634599  0.619751  1
  O  O69  1  0.469579  0.874838  0.064684  1
  O  O70  1  0.696321  0.785013  0.950580  1
  O  O71  1  0.742211  0.970591  0.891109  1
  O  O72  1  0.575418  0.301657  0.881347  1
  O  O73  1  0.634588  0.538542  0.059754  1
  O  O74  1  0.590716  0.364431  0.118052  1
  O  O75  1  0.590716  0.364431  0.381948  1
  O  O76  1  0.696321  0.785013  0.549420  1
  O  O77  1  0.742211  0.970591  0.608891  1
  O  O78  1  0.531444  0.126432  0.935340  1
  O  O79  1  0.575418  0.301657  0.618653  1
  O  O80  1  0.531444  0.126432  0.564660  1
  O  O81  1  0.634588  0.538542  0.440246  1
  O  O82  1  0.905096  0.634592  0.880250  1
  O  O83  1  0.928237  0.698741  0.119750  1
  O  O84  1  0.758101  0.033010  0.121686  1
  O  O85  1  0.865330  0.458417  0.935355  1
  O  O86  1  0.968003  0.874916  0.064645  1
  O  O87  1  0.802119  0.209238  0.067166  1
  O  O88  1  0.865330  0.458417  0.564645  1
  O  O89  1  0.905096  0.634592  0.619750  1
  O  O90  1  0.968003  0.874916  0.435355  1
  O  O91  1  0.758101  0.033010  0.378314  1
  O  O92  1  0.928237  0.698741  0.380250  1
  O  O93  1  0.802119  0.209238  0.432834  1
