# generated using pymatgen
data_Li3Cr2(PO4)3
_symmetry_space_group_name_H-M   'P 1'
_cell_length_a   9.68750961
_cell_length_b   9.68065139
_cell_length_c   9.68065128
_cell_angle_alpha   86.26946276
_cell_angle_beta   86.46552298
_cell_angle_gamma   86.46552245
_symmetry_Int_Tables_number   1
_chemical_formula_structural   Li3Cr2(PO4)3
_chemical_formula_sum   'Li12 Cr8 P12 O48'
_cell_volume   902.70278564
_cell_formula_units_Z   4
loop_
 _symmetry_equiv_pos_site_id
 _symmetry_equiv_pos_as_xyz
  1  'x, y, z'
loop_
 _atom_site_type_symbol
 _atom_site_label
 _atom_site_symmetry_multiplicity
 _atom_site_fract_x
 _atom_site_fract_y
 _atom_site_fract_z
 _atom_site_occupancy
  Li  Li0  1  0.154690  0.017789  0.732190  1
  Li  Li1  1  0.276430  0.823657  0.002964  1
  Li  Li2  1  0.345310  0.767810  0.482211  1
  Li  Li3  1  0.223570  0.497036  0.676343  1
  Li  Li4  1  0.497185  0.514369  0.474735  1
  Li  Li5  1  0.002815  0.025265  0.985631  1
  Li  Li6  1  0.499777  0.337409  0.766358  1
  Li  Li7  1  0.757593  0.508516  0.334729  1
  Li  Li8  1  0.000222  0.733642  0.162591  1
  Li  Li9  1  0.661297  0.240478  0.493056  1
  Li  Li10  1  0.742407  0.165271  0.991484  1
  Li  Li11  1  0.838703  0.006944  0.259522  1
  Cr  Cr12  1  0.533340  0.967825  0.750870  1
  Cr  Cr13  1  0.031818  0.252269  0.471382  1
  Cr  Cr14  1  0.250000  0.466411  0.033589  1
  Cr  Cr15  1  0.250000  0.248804  0.251196  1
  Cr  Cr16  1  0.750000  0.749454  0.750546  1
  Cr  Cr17  1  0.966660  0.749130  0.532175  1
  Cr  Cr18  1  0.750000  0.532303  0.967697  1
  Cr  Cr19  1  0.468182  0.028618  0.247731  1
  P  P20  1  0.151241  0.947936  0.328577  1
  P  P21  1  0.053414  0.674075  0.848196  1
  P  P22  1  0.170452  0.551587  0.348788  1
  P  P23  1  0.446586  0.651804  0.825925  1
  P  P24  1  0.652650  0.822868  0.448712  1
  P  P25  1  0.675566  0.848230  0.052024  1
  P  P26  1  0.329548  0.151212  0.948413  1
  P  P27  1  0.348759  0.171423  0.552064  1
  P  P28  1  0.552171  0.343166  0.177124  1
  P  P29  1  0.824434  0.447976  0.651770  1
  P  P30  1  0.947829  0.322876  0.156834  1
  P  P31  1  0.847350  0.051288  0.677132  1
  O  O32  1  0.070539  0.904434  0.210036  1
  O  O33  1  0.105872  0.883328  0.473132  1
  O  O34  1  0.095441  0.791975  0.931134  1
  O  O35  1  0.090751  0.688852  0.689406  1
  O  O36  1  0.309568  0.909408  0.314774  1
  O  O37  1  0.024723  0.617331  0.389596  1
  O  O38  1  0.120811  0.530485  0.892333  1
  O  O39  1  0.409249  0.810594  0.811148  1
  O  O40  1  0.185659  0.589218  0.189978  1
  O  O41  1  0.604749  0.966375  0.382268  1
  O  O42  1  0.530177  0.896021  0.110668  1
  O  O43  1  0.283881  0.593232  0.437027  1
  O  O44  1  0.379189  0.607667  0.969515  1
  O  O45  1  0.111153  0.328098  0.122136  1
  O  O46  1  0.168078  0.387355  0.379090  1
  O  O47  1  0.670399  0.879130  0.886789  1
  O  O48  1  0.622138  0.832888  0.612807  1
  O  O49  1  0.404559  0.568866  0.708025  1
  O  O50  1  0.574958  0.700553  0.411597  1
  O  O51  1  0.792036  0.934450  0.092362  1
  O  O52  1  0.609695  0.622755  0.833532  1
  O  O53  1  0.877862  0.887193  0.667112  1
  O  O54  1  0.314341  0.310022  0.910782  1
  O  O55  1  0.190432  0.185226  0.590592  1
  O  O56  1  0.811465  0.813819  0.408743  1
  O  O57  1  0.702410  0.691944  0.089237  1
  O  O58  1  0.119884  0.111680  0.332842  1
  O  O59  1  0.388847  0.377864  0.171902  1
  O  O60  1  0.216119  0.062973  0.906768  1
  O  O61  1  0.429461  0.289964  0.595566  1
  O  O62  1  0.598499  0.406818  0.304987  1
  O  O63  1  0.331922  0.120910  0.112645  1
  O  O64  1  0.380116  0.167158  0.388320  1
  O  O65  1  0.829601  0.613211  0.620870  1
  O  O66  1  0.890305  0.666468  0.877245  1
  O  O67  1  0.616415  0.395925  0.034980  1
  O  O68  1  0.707964  0.407638  0.565550  1
  O  O69  1  0.394128  0.026868  0.616672  1
  O  O70  1  0.475277  0.110404  0.882669  1
  O  O71  1  0.797590  0.410763  0.808056  1
  O  O72  1  0.589156  0.183787  0.181104  1
  O  O73  1  0.883585  0.465020  0.104075  1
  O  O74  1  0.969823  0.389332  0.603979  1
  O  O75  1  0.688535  0.091257  0.686181  1
  O  O76  1  0.910844  0.318896  0.316213  1
  O  O77  1  0.901501  0.195013  0.093182  1
  O  O78  1  0.895251  0.117732  0.533625  1
  O  O79  1  0.925042  0.088403  0.799447  1
