# generated using pymatgen
data_Li24Ti5Cr7O36
_symmetry_space_group_name_H-M   'P 1'
_cell_length_a   5.05810241
_cell_length_b   13.39389767
_cell_length_c   9.80127182
_cell_angle_alpha   97.51536256
_cell_angle_beta   94.77712982
_cell_angle_gamma   101.13156885
_symmetry_Int_Tables_number   1
_chemical_formula_structural   Li24Ti5Cr7O36
_chemical_formula_sum   'Li24 Ti5 Cr7 O36'
_cell_volume   641.89172259
_cell_formula_units_Z   1
loop_
 _symmetry_equiv_pos_site_id
 _symmetry_equiv_pos_as_xyz
  1  'x, y, z'
loop_
 _atom_site_type_symbol
 _atom_site_label
 _atom_site_symmetry_multiplicity
 _atom_site_fract_x
 _atom_site_fract_y
 _atom_site_fract_z
 _atom_site_occupancy
  Li  Li0  1  0.828937  0.168262  0.000171  1
  Li  Li1  1  0.952565  0.386709  0.000355  1
  Li  Li2  1  0.001199  0.750445  0.249238  1
  Li  Li3  1  0.666639  0.082592  0.250098  1
  Li  Li4  1  0.948549  0.886401  0.499963  1
  Li  Li5  1  0.623173  0.219722  0.499751  1
  Li  Li6  1  0.828639  0.666589  0.501269  1
  Li  Li7  1  0.497918  0.000716  0.499059  1
  Li  Li8  1  0.715962  0.446257  0.499596  1
  Li  Li9  1  0.669625  0.584059  0.750040  1
  Li  Li10  1  0.493169  0.500885  0.001193  1
  Li  Li11  1  0.716219  0.945299  0.001711  1
  Li  Li12  1  0.384177  0.279334  0.000973  1
  Li  Li13  1  0.621862  0.720945  0.000506  1
  Li  Li14  1  0.283629  0.053925  0.999325  1
  Li  Li15  1  0.336809  0.417512  0.249844  1
  Li  Li16  1  0.289423  0.554096  0.500044  1
  Li  Li17  1  0.160105  0.334604  0.498941  1
  Li  Li18  1  0.384975  0.779395  0.500055  1
  Li  Li19  1  0.049682  0.113601  0.499427  1
  Li  Li20  1  0.334185  0.915601  0.749409  1
  Li  Li21  1  0.163772  0.833850  0.999542  1
  Li  Li22  1  0.000514  0.249586  0.750782  1
  Li  Li23  1  0.047974  0.611970  0.999698  1
  Ti  Ti24  1  0.883948  0.029591  0.746824  1
  Ti  Ti25  1  0.886006  0.527171  0.248762  1
  Ti  Ti26  1  0.557766  0.360518  0.753725  1
  Ti  Ti27  1  0.224278  0.192846  0.253627  1
  Ti  Ti28  1  0.220208  0.693313  0.750341  1
  Cr  Cr29  1  0.781748  0.305997  0.249523  1
  Cr  Cr30  1  0.780986  0.806983  0.750528  1
  Cr  Cr31  1  0.439796  0.137721  0.749514  1
  Cr  Cr32  1  0.550434  0.863786  0.248051  1
  Cr  Cr33  1  0.447825  0.641443  0.251993  1
  Cr  Cr34  1  0.115604  0.472314  0.748937  1
  Cr  Cr35  1  0.104702  0.969234  0.248664  1
  O  O36  1  0.999391  0.068750  0.136744  1
  O  O37  1  0.931236  0.213341  0.366588  1
  O  O38  1  0.998001  0.571757  0.635473  1
  O  O39  1  0.860811  0.358093  0.637855  1
  O  O40  1  0.740782  0.118521  0.632552  1
  O  O41  1  0.663311  0.405306  0.135435  1
  O  O42  1  0.932749  0.713996  0.866980  1
  O  O43  1  0.813901  0.477441  0.862389  1
  O  O44  1  0.590379  0.050288  0.864476  1
  O  O45  1  0.862952  0.858239  0.138094  1
  O  O46  1  0.731319  0.619718  0.135389  1
  O  O47  1  0.527353  0.190615  0.138220  1
  O  O48  1  0.666927  0.260323  0.862211  1
  O  O49  1  0.803281  0.972569  0.362533  1
  O  O50  1  0.599869  0.547938  0.367282  1
  O  O51  1  0.481336  0.310663  0.362349  1
  O  O52  1  0.665339  0.760536  0.360214  1
  O  O53  1  0.332357  0.093521  0.362470  1
  O  O54  1  0.662607  0.905071  0.635622  1
  O  O55  1  0.333441  0.235272  0.637620  1
  O  O56  1  0.527429  0.691121  0.638366  1
  O  O57  1  0.397682  0.451942  0.635485  1
  O  O58  1  0.197082  0.024546  0.637636  1
  O  O59  1  0.336716  0.740748  0.137643  1
  O  O60  1  0.482745  0.811304  0.862203  1
  O  O61  1  0.263855  0.380915  0.865607  1
  O  O62  1  0.140089  0.143300  0.864283  1
  O  O63  1  0.406874  0.950305  0.134591  1
  O  O64  1  0.194037  0.525173  0.138583  1
  O  O65  1  0.062537  0.285634  0.135852  1
  O  O66  1  0.332135  0.592688  0.862495  1
  O  O67  1  0.258258  0.884174  0.363214  1
  O  O68  1  0.148928  0.644852  0.362666  1
  O  O69  1  0.999329  0.425525  0.362026  1
  O  O70  1  0.063216  0.786250  0.635250  1
  O  O71  1  0.998749  0.926296  0.862129  1
