# generated using pymatgen
data_SnH6Cl4O3
_symmetry_space_group_name_H-M   'P 1'
_cell_length_a   6.52666988
_cell_length_b   11.42661974
_cell_length_c   12.10623459
_cell_angle_alpha   90.00000000
_cell_angle_beta   90.62425277
_cell_angle_gamma   90.00000000
_symmetry_Int_Tables_number   1
_chemical_formula_structural   SnH6Cl4O3
_chemical_formula_sum   'Sn4 H24 Cl16 O12'
_cell_volume   902.80245103
_cell_formula_units_Z   4
loop_
 _symmetry_equiv_pos_site_id
 _symmetry_equiv_pos_as_xyz
  1  'x, y, z'
loop_
 _atom_site_type_symbol
 _atom_site_label
 _atom_site_symmetry_multiplicity
 _atom_site_fract_x
 _atom_site_fract_y
 _atom_site_fract_z
 _atom_site_occupancy
  Sn  Sn0  1  0.364163  0.265593  0.164276  1
  Sn  Sn1  1  0.635837  0.765593  0.335724  1
  Sn  Sn2  1  0.635837  0.734407  0.835724  1
  Sn  Sn3  1  0.364163  0.234407  0.664276  1
  H  H4  1  0.614863  0.151762  0.328189  1
  H  H5  1  0.385137  0.651762  0.171811  1
  H  H6  1  0.385137  0.848238  0.671811  1
  H  H7  1  0.614863  0.348238  0.828189  1
  H  H8  1  0.428359  0.062753  0.292401  1
  H  H9  1  0.571641  0.562753  0.207599  1
  H  H10  1  0.571641  0.937247  0.707599  1
  H  H11  1  0.428359  0.437247  0.792401  1
  H  H12  1  0.425959  0.143633  0.971863  1
  H  H13  1  0.574041  0.643633  0.528137  1
  H  H14  1  0.574041  0.856367  0.028137  1
  H  H15  1  0.425959  0.356367  0.471863  1
  H  H16  1  0.637676  0.211071  0.991191  1
  H  H17  1  0.362324  0.711071  0.508809  1
  H  H18  1  0.362324  0.788929  0.008809  1
  H  H19  1  0.637676  0.288929  0.491191  1
  H  H20  1  0.891804  0.248658  0.864354  1
  H  H21  1  0.108196  0.748658  0.635646  1
  H  H22  1  0.108196  0.751342  0.135646  1
  H  H23  1  0.891804  0.251342  0.364354  1
  H  H24  1  0.883222  0.344449  0.956612  1
  H  H25  1  0.116778  0.844449  0.543388  1
  H  H26  1  0.116778  0.655551  0.043388  1
  H  H27  1  0.883222  0.155551  0.456612  1
  Cl  Cl28  1  0.232880  0.405028  0.029957  1
  Cl  Cl29  1  0.767120  0.905028  0.470043  1
  Cl  Cl30  1  0.767120  0.594972  0.970043  1
  Cl  Cl31  1  0.232880  0.094972  0.529957  1
  Cl  Cl32  1  0.686856  0.369346  0.186200  1
  Cl  Cl33  1  0.313144  0.869346  0.313800  1
  Cl  Cl34  1  0.313144  0.630654  0.813800  1
  Cl  Cl35  1  0.686856  0.130654  0.686200  1
  Cl  Cl36  1  0.213090  0.362591  0.324356  1
  Cl  Cl37  1  0.786910  0.862591  0.175644  1
  Cl  Cl38  1  0.786910  0.637409  0.675644  1
  Cl  Cl39  1  0.213090  0.137409  0.824356  1
  Cl  Cl40  1  0.098301  0.124609  0.141191  1
  Cl  Cl41  1  0.901699  0.624609  0.358809  1
  Cl  Cl42  1  0.901699  0.875391  0.858809  1
  Cl  Cl43  1  0.098301  0.375391  0.641191  1
  O  O44  1  0.507972  0.132306  0.270635  1
  O  O45  1  0.492028  0.632306  0.229365  1
  O  O46  1  0.492028  0.867694  0.729365  1
  O  O47  1  0.507972  0.367694  0.770635  1
  O  O48  1  0.523680  0.168865  0.030197  1
  O  O49  1  0.476320  0.668865  0.469803  1
  O  O50  1  0.476320  0.831135  0.969803  1
  O  O51  1  0.523680  0.331135  0.530197  1
  O  O52  1  0.796506  0.292837  0.911123  1
  O  O53  1  0.203494  0.792837  0.588877  1
  O  O54  1  0.203494  0.707163  0.088877  1
  O  O55  1  0.796506  0.207163  0.411123  1
