# generated using pymatgen
data_Na7Co3O8
_symmetry_space_group_name_H-M   'P 1'
_cell_length_a   10.46683014
_cell_length_b   5.51780772
_cell_length_c   8.24105411
_cell_angle_alpha   88.88947769
_cell_angle_beta   89.62461263
_cell_angle_gamma   89.42248460
_symmetry_Int_Tables_number   1
_chemical_formula_structural   Na7Co3O8
_chemical_formula_sum   'Na14 Co6 O16'
_cell_volume   475.83028927
_cell_formula_units_Z   2
loop_
 _symmetry_equiv_pos_site_id
 _symmetry_equiv_pos_as_xyz
  1  'x, y, z'
loop_
 _atom_site_type_symbol
 _atom_site_label
 _atom_site_symmetry_multiplicity
 _atom_site_fract_x
 _atom_site_fract_y
 _atom_site_fract_z
 _atom_site_occupancy
  Na  Na0  1  0.020286  0.277754  0.349999  1
  Na  Na1  1  0.126256  0.476094  0.877265  1
  Na  Na2  1  0.174444  0.141419  0.621535  1
  Na  Na3  1  0.240696  0.713652  0.385048  1
  Na  Na4  1  0.276446  0.283855  0.114077  1
  Na  Na5  1  0.379270  0.479988  0.632631  1
  Na  Na6  1  0.473004  0.743175  0.117491  1
  Na  Na7  1  0.526996  0.256825  0.882509  1
  Na  Na8  1  0.620730  0.520012  0.367369  1
  Na  Na9  1  0.723554  0.716145  0.885923  1
  Na  Na10  1  0.759304  0.286348  0.614952  1
  Na  Na11  1  0.825556  0.858581  0.378465  1
  Na  Na12  1  0.873744  0.523906  0.122735  1
  Na  Na13  1  0.979714  0.722246  0.650001  1
  Co  Co14  1  0.078718  0.863753  0.108606  1
  Co  Co15  1  0.303561  0.881838  0.839051  1
  Co  Co16  1  0.437479  0.136349  0.378354  1
  Co  Co17  1  0.562521  0.863651  0.621646  1
  Co  Co18  1  0.696439  0.118162  0.160949  1
  Co  Co19  1  0.921282  0.136247  0.891394  1
  O  O20  1  0.026128  0.760175  0.308830  1
  O  O21  1  0.039183  0.205712  0.069231  1
  O  O22  1  0.208990  0.738505  0.684263  1
  O  O23  1  0.277302  0.260503  0.396697  1
  O  O24  1  0.244704  0.756825  0.059132  1
  O  O25  1  0.307741  0.205488  0.844182  1
  O  O26  1  0.459791  0.795505  0.428218  1
  O  O27  1  0.486046  0.766076  0.819331  1
  O  O28  1  0.513954  0.233924  0.180669  1
  O  O29  1  0.540209  0.204495  0.571782  1
  O  O30  1  0.692259  0.794512  0.155817  1
  O  O31  1  0.755296  0.243175  0.940868  1
  O  O32  1  0.722698  0.739497  0.603303  1
  O  O33  1  0.791010  0.261495  0.315737  1
  O  O34  1  0.960817  0.794288  0.930769  1
  O  O35  1  0.973872  0.239825  0.691170  1
