# generated using pymatgen
data_Li3Ti2CrO6
_symmetry_space_group_name_H-M   'P 1'
_cell_length_a   15.68188920
_cell_length_b   10.01404424
_cell_length_c   10.01404421
_cell_angle_alpha   16.90271159
_cell_angle_beta   16.37806103
_cell_angle_gamma   16.37805993
_symmetry_Int_Tables_number   1
_chemical_formula_structural   Li3Ti2CrO6
_chemical_formula_sum   'Li3 Ti2 Cr1 O6'
_cell_volume   111.23701259
_cell_formula_units_Z   1
loop_
 _symmetry_equiv_pos_site_id
 _symmetry_equiv_pos_as_xyz
  1  'x, y, z'
loop_
 _atom_site_type_symbol
 _atom_site_label
 _atom_site_symmetry_multiplicity
 _atom_site_fract_x
 _atom_site_fract_y
 _atom_site_fract_z
 _atom_site_occupancy
  Li  Li0  1  0.166667  0.500000  0.500000  1
  Li  Li1  1  0.501952  0.501472  0.501472  1
  Li  Li2  1  0.831382  0.498528  0.498528  1
  Ti  Ti3  1  0.978039  0.016818  0.016818  1
  Ti  Ti4  1  0.355294  0.983182  0.983182  1
  Cr  Cr5  1  0.666667  0.000000  0.000000  1
  O  O6  1  0.245928  0.259323  0.259323  1
  O  O7  1  0.578025  0.254213  0.254213  1
  O  O8  1  0.087406  0.740677  0.740677  1
  O  O9  1  0.917497  0.256121  0.256121  1
  O  O10  1  0.415836  0.743879  0.743879  1
  O  O11  1  0.755308  0.745787  0.745787  1
