# generated using pymatgen
data_Li3Sn3(PO4)4
_symmetry_space_group_name_H-M   'P 1'
_cell_length_a   7.72843350
_cell_length_b   8.60596265
_cell_length_c   10.64701081
_cell_angle_alpha   90.00000000
_cell_angle_beta   92.65181913
_cell_angle_gamma   90.00000000
_symmetry_Int_Tables_number   1
_chemical_formula_structural   Li3Sn3(PO4)4
_chemical_formula_sum   'Li6 Sn6 P8 O32'
_cell_volume   707.38086255
_cell_formula_units_Z   2
loop_
 _symmetry_equiv_pos_site_id
 _symmetry_equiv_pos_as_xyz
  1  'x, y, z'
loop_
 _atom_site_type_symbol
 _atom_site_label
 _atom_site_symmetry_multiplicity
 _atom_site_fract_x
 _atom_site_fract_y
 _atom_site_fract_z
 _atom_site_occupancy
  Li  Li0  1  0.103197  0.373687  0.288321  1
  Li  Li1  1  0.396803  0.873687  0.961679  1
  Li  Li2  1  0.622271  0.143458  0.549421  1
  Li  Li3  1  0.601976  0.121470  0.042361  1
  Li  Li4  1  0.877729  0.643458  0.700579  1
  Li  Li5  1  0.898024  0.621470  0.207639  1
  Sn  Sn6  1  0.995856  0.988298  0.760744  1
  Sn  Sn7  1  0.995627  0.994177  0.240549  1
  Sn  Sn8  1  0.133443  0.373771  0.784324  1
  Sn  Sn9  1  0.366557  0.873771  0.465676  1
  Sn  Sn10  1  0.504144  0.488298  0.489256  1
  Sn  Sn11  1  0.504373  0.494177  0.009451  1
  P  P12  1  0.194030  0.200279  0.505759  1
  P  P13  1  0.213154  0.187566  0.033151  1
  P  P14  1  0.305970  0.700279  0.744241  1
  P  P15  1  0.286846  0.687566  0.216849  1
  P  P16  1  0.697058  0.313027  0.767438  1
  P  P17  1  0.715174  0.300850  0.262401  1
  P  P18  1  0.784826  0.800850  0.987599  1
  P  P19  1  0.802942  0.813027  0.482562  1
  O  O20  1  0.067093  0.156801  0.928091  1
  O  O21  1  0.080960  0.115642  0.401989  1
  O  O22  1  0.085938  0.193445  0.626433  1
  O  O23  1  0.130009  0.620250  0.718694  1
  O  O24  1  0.123732  0.181527  0.162710  1
  O  O25  1  0.140219  0.573624  0.221273  1
  O  O26  1  0.274036  0.871772  0.783374  1
  O  O27  1  0.272507  0.361396  0.016133  1
  O  O28  1  0.227493  0.861396  0.233867  1
  O  O29  1  0.225964  0.371772  0.466626  1
  O  O30  1  0.369991  0.120250  0.531306  1
  O  O31  1  0.414062  0.693445  0.623567  1
  O  O32  1  0.359781  0.073624  0.028727  1
  O  O33  1  0.419040  0.615642  0.848011  1
  O  O34  1  0.376268  0.681527  0.087290  1
  O  O35  1  0.432907  0.656801  0.321909  1
  O  O36  1  0.558620  0.354890  0.661964  1
  O  O37  1  0.616113  0.320435  0.900895  1
  O  O38  1  0.571548  0.347249  0.159522  1
  O  O39  1  0.638132  0.915178  0.981941  1
  O  O40  1  0.628186  0.288973  0.392146  1
  O  O41  1  0.649133  0.928479  0.486840  1
  O  O42  1  0.748520  0.642812  0.509476  1
  O  O43  1  0.751480  0.142812  0.740524  1
  O  O44  1  0.731087  0.630946  0.029247  1
  O  O45  1  0.768913  0.130946  0.220753  1
  O  O46  1  0.850867  0.428479  0.763160  1
  O  O47  1  0.871814  0.788973  0.857854  1
  O  O48  1  0.861868  0.415178  0.268059  1
  O  O49  1  0.883887  0.820435  0.349105  1
  O  O50  1  0.941380  0.854890  0.588036  1
  O  O51  1  0.928452  0.847249  0.090478  1
