# generated using pymatgen
data_Li8Fe(O2F)2
_symmetry_space_group_name_H-M   'P 1'
_cell_length_a   5.73706944
_cell_length_b   5.44928602
_cell_length_c   11.29542494
_cell_angle_alpha   98.03090192
_cell_angle_beta   80.87212914
_cell_angle_gamma   59.91485947
_symmetry_Int_Tables_number   1
_chemical_formula_structural   Li8Fe(O2F)2
_chemical_formula_sum   'Li16 Fe2 O8 F4'
_cell_volume   291.58372477
_cell_formula_units_Z   2
loop_
 _symmetry_equiv_pos_site_id
 _symmetry_equiv_pos_as_xyz
  1  'x, y, z'
loop_
 _atom_site_type_symbol
 _atom_site_label
 _atom_site_symmetry_multiplicity
 _atom_site_fract_x
 _atom_site_fract_y
 _atom_site_fract_z
 _atom_site_occupancy
  Li  Li0  1  0.251202  0.033898  0.184555  1
  Li  Li1  1  0.301629  0.261549  0.033556  1
  Li  Li2  1  0.489507  0.141789  0.314375  1
  Li  Li3  1  0.075912  0.838820  0.335204  1
  Li  Li4  1  0.141101  0.284812  0.824606  1
  Li  Li5  1  0.179059  0.557828  0.689396  1
  Li  Li6  1  0.557455  0.400341  0.168472  1
  Li  Li7  1  0.619096  0.098863  0.546572  1
  Li  Li8  1  0.380904  0.901137  0.453428  1
  Li  Li9  1  0.442545  0.599659  0.831528  1
  Li  Li10  1  0.820941  0.442172  0.310604  1
  Li  Li11  1  0.510493  0.858211  0.685624  1
  Li  Li12  1  0.858899  0.715188  0.175394  1
  Li  Li13  1  0.924088  0.161180  0.664796  1
  Li  Li14  1  0.698371  0.738451  0.966444  1
  Li  Li15  1  0.748798  0.966101  0.815445  1
  Fe  Fe16  1  0.000000  0.000000  0.000000  1
  Fe  Fe17  1  0.000000  0.500000  0.500000  1
  O  O18  1  0.129879  0.161565  0.364846  1
  O  O19  1  0.242778  0.178739  0.619374  1
  O  O20  1  0.590541  0.031153  0.122273  1
  O  O21  1  0.064480  0.672856  0.871704  1
  O  O22  1  0.935520  0.327144  0.128296  1
  O  O23  1  0.409459  0.968847  0.877727  1
  O  O24  1  0.757222  0.821261  0.380626  1
  O  O25  1  0.870121  0.838435  0.635154  1
  F  F26  1  0.218808  0.688217  0.140978  1
  F  F27  1  0.436880  0.525688  0.351628  1
  F  F28  1  0.563120  0.474312  0.648372  1
  F  F29  1  0.781192  0.311783  0.859022  1
