# generated using pymatgen
data_Li2MnVP2(O4F)2
_symmetry_space_group_name_H-M   'P 1'
_cell_length_a   7.96393488
_cell_length_b   6.95135526
_cell_length_c   7.54609007
_cell_angle_alpha   61.62959304
_cell_angle_beta   88.97546745
_cell_angle_gamma   91.64842252
_symmetry_Int_Tables_number   1
_chemical_formula_structural   Li2MnVP2(O4F)2
_chemical_formula_sum   'Li4 Mn2 V2 P4 O16 F4'
_cell_volume   367.18947996
_cell_formula_units_Z   2
loop_
 _symmetry_equiv_pos_site_id
 _symmetry_equiv_pos_as_xyz
  1  'x, y, z'
loop_
 _atom_site_type_symbol
 _atom_site_label
 _atom_site_symmetry_multiplicity
 _atom_site_fract_x
 _atom_site_fract_y
 _atom_site_fract_z
 _atom_site_occupancy
  Li  Li0  1  0.171348  0.557440  0.186378  1
  Li  Li1  1  0.675171  0.057127  0.189841  1
  Li  Li2  1  0.324829  0.942873  0.810159  1
  Li  Li3  1  0.828652  0.442560  0.813622  1
  Mn  Mn4  1  0.000000  0.000000  0.000000  1
  Mn  Mn5  1  0.500000  0.500000  0.500000  1
  V  V6  1  0.000000  0.000000  0.500000  1
  V  V7  1  0.500000  0.500000  0.000000  1
  P  P8  1  0.161563  0.516402  0.761124  1
  P  P9  1  0.661311  0.021646  0.764661  1
  P  P10  1  0.338689  0.978354  0.235339  1
  P  P11  1  0.838437  0.483598  0.238876  1
  O  O12  1  0.231349  0.016813  0.384816  1
  O  O13  1  0.440512  0.189254  0.087703  1
  O  O14  1  0.062356  0.301991  0.916120  1
  O  O15  1  0.017071  0.670762  0.656392  1
  O  O16  1  0.270649  0.477763  0.611457  1
  O  O17  1  0.517929  0.181598  0.660063  1
  O  O18  1  0.229531  0.894789  0.111894  1
  O  O19  1  0.732507  0.394740  0.119701  1
  O  O20  1  0.267493  0.605260  0.880299  1
  O  O21  1  0.770469  0.105211  0.888106  1
  O  O22  1  0.482071  0.818402  0.339937  1
  O  O23  1  0.729351  0.522237  0.388543  1
  O  O24  1  0.982929  0.329238  0.343608  1
  O  O25  1  0.937644  0.698009  0.083880  1
  O  O26  1  0.559488  0.810746  0.912297  1
  O  O27  1  0.768651  0.983187  0.615184  1
  F  F28  1  0.106035  0.029553  0.727751  1
  F  F29  1  0.396088  0.470381  0.250562  1
  F  F30  1  0.603912  0.529619  0.749438  1
  F  F31  1  0.893965  0.970447  0.272249  1
