# generated using pymatgen
data_LiFeF4
_symmetry_space_group_name_H-M   'P 1'
_cell_length_a   6.00400932
_cell_length_b   7.82270611
_cell_length_c   7.82270611
_cell_angle_alpha   98.46863935
_cell_angle_beta   112.56648343
_cell_angle_gamma   67.43351657
_symmetry_Int_Tables_number   1
_chemical_formula_structural   LiFeF4
_chemical_formula_sum   'Li4 Fe4 F16'
_cell_volume   313.30542864
_cell_formula_units_Z   4
loop_
 _symmetry_equiv_pos_site_id
 _symmetry_equiv_pos_as_xyz
  1  'x, y, z'
loop_
 _atom_site_type_symbol
 _atom_site_label
 _atom_site_symmetry_multiplicity
 _atom_site_fract_x
 _atom_site_fract_y
 _atom_site_fract_z
 _atom_site_occupancy
  Li  Li0  1  0.437590  0.687410  0.812590  1
  Li  Li1  1  0.875000  0.812590  0.312590  1
  Li  Li2  1  0.375000  0.187410  0.687410  1
  Li  Li3  1  0.312410  0.312590  0.187410  1
  Fe  Fe4  1  0.910697  0.214303  0.285697  1
  Fe  Fe5  1  0.875000  0.285697  0.785697  1
  Fe  Fe6  1  0.375000  0.714303  0.214303  1
  Fe  Fe7  1  0.839303  0.785697  0.714303  1
  F  F8  1  0.125077  0.948453  0.266757  1
  F  F9  1  0.657464  0.105538  0.241667  1
  F  F10  1  0.228665  0.258333  0.394462  1
  F  F11  1  0.943228  0.233243  0.551547  1
  F  F12  1  0.608320  0.448453  0.233243  1
  F  F13  1  0.141680  0.733243  0.948453  1
  F  F14  1  0.236998  0.241667  0.894462  1
  F  F15  1  0.513002  0.394462  0.741667  1
  F  F16  1  0.584204  0.758333  0.105538  1
  F  F17  1  0.165796  0.605538  0.258333  1
  F  F18  1  0.823529  0.551547  0.766757  1
  F  F19  1  0.926471  0.266757  0.051547  1
  F  F20  1  0.624923  0.766757  0.448453  1
  F  F21  1  0.092536  0.741667  0.605538  1
  F  F22  1  0.521335  0.894462  0.758333  1
  F  F23  1  0.806772  0.051547  0.733243  1
