# generated using pymatgen
data_H18RuC6S3N3ClO3
_symmetry_space_group_name_H-M   'P 1'
_cell_length_a   8.28275497
_cell_length_b   12.04808358
_cell_length_c   15.18569052
_cell_angle_alpha   90.00000000
_cell_angle_beta   90.26007214
_cell_angle_gamma   90.00000000
_symmetry_Int_Tables_number   1
_chemical_formula_structural   H18RuC6S3N3ClO3
_chemical_formula_sum   'H72 Ru4 C24 S12 N12 Cl4 O12'
_cell_volume   1515.38455399
_cell_formula_units_Z   4
loop_
 _symmetry_equiv_pos_site_id
 _symmetry_equiv_pos_as_xyz
  1  'x, y, z'
loop_
 _atom_site_type_symbol
 _atom_site_label
 _atom_site_symmetry_multiplicity
 _atom_site_fract_x
 _atom_site_fract_y
 _atom_site_fract_z
 _atom_site_occupancy
  H  H0  1  0.000744  0.031110  0.707198  1
  H  H1  1  0.500744  0.468890  0.207198  1
  H  H2  1  0.999256  0.968890  0.292802  1
  H  H3  1  0.499256  0.531110  0.792802  1
  H  H4  1  0.182262  0.969351  0.749807  1
  H  H5  1  0.682262  0.530649  0.249807  1
  H  H6  1  0.817738  0.030649  0.250193  1
  H  H7  1  0.317738  0.469351  0.750193  1
  H  H8  1  0.187068  0.037436  0.645013  1
  H  H9  1  0.687068  0.462564  0.145013  1
  H  H10  1  0.812932  0.962564  0.354987  1
  H  H11  1  0.312932  0.537436  0.854987  1
  H  H12  1  0.436329  0.128472  0.696753  1
  H  H13  1  0.936329  0.371528  0.196753  1
  H  H14  1  0.563671  0.871528  0.303247  1
  H  H15  1  0.063671  0.628472  0.803247  1
  H  H16  1  0.431351  0.084190  0.809504  1
  H  H17  1  0.931351  0.415810  0.309504  1
  H  H18  1  0.568649  0.915810  0.190496  1
  H  H19  1  0.068649  0.584190  0.690496  1
  H  H20  1  0.452239  0.229736  0.785127  1
  H  H21  1  0.952239  0.270265  0.285127  1
  H  H22  1  0.547761  0.770265  0.214873  1
  H  H23  1  0.047761  0.729735  0.714873  1
  H  H24  1  0.479988  0.099733  0.968591  1
  H  H25  1  0.979988  0.400267  0.468591  1
  H  H26  1  0.520012  0.900267  0.031409  1
  H  H27  1  0.020012  0.599733  0.531409  1
  H  H28  1  0.345630  0.093192  0.060974  1
  H  H29  1  0.845630  0.406808  0.560974  1
  H  H30  1  0.654370  0.906808  0.939026  1
  H  H31  1  0.154370  0.593192  0.439026  1
  H  H32  1  0.511230  0.191478  0.061076  1
  H  H33  1  0.011230  0.308522  0.561076  1
  H  H34  1  0.488770  0.808522  0.938924  1
  H  H35  1  0.988770  0.691478  0.438924  1
  H  H36  1  0.345054  0.356386  0.098515  1
  H  H37  1  0.845054  0.143614  0.598515  1
  H  H38  1  0.654946  0.643614  0.901485  1
  H  H39  1  0.154946  0.856386  0.401485  1
  H  H40  1  0.170524  0.267786  0.110332  1
  H  H41  1  0.670524  0.232214  0.610332  1
  H  H42  1  0.829476  0.732214  0.889668  1
  H  H43  1  0.329476  0.767786  0.389668  1
  H  H44  1  0.155517  0.393827  0.047048  1
  H  H45  1  0.655517  0.106173  0.547048  1
  H  H46  1  0.844483  0.606173  0.952952  1
  H  H47  1  0.344483  0.893827  0.452952  1
  H  H48  1  0.841135  0.352235  0.032020  1
  H  H49  1  0.341135  0.147765  0.532020  1
  H  H50  1  0.158865  0.647765  0.967980  1
  H  H51  1  0.658865  0.852235  0.467980  1
  H  H52  1  0.709593  0.276637  0.958673  1
  H  H53  1  0.209593  0.223363  0.458673  1
  H  H54  1  0.290407  0.723363  0.041327  1
  H  H55  1  0.790407  0.776637  0.541327  1
  H  H56  1  0.719044  0.425593  0.952635  1
  H  H57  1  0.219044  0.074407  0.452635  1
  H  H58  1  0.280956  0.574407  0.047365  1
  H  H59  1  0.780956  0.925593  0.547365  1
  H  H60  1  0.765464  0.432829  0.791136  1
  H  H61  1  0.265464  0.067171  0.291136  1
  H  H62  1  0.234536  0.567171  0.208864  1
  H  H63  1  0.734536  0.932829  0.708864  1
  H  H64  1  0.747501  0.283011  0.783988  1
  H  H65  1  0.247501  0.216989  0.283988  1
  H  H66  1  0.252499  0.716989  0.216012  1
  H  H67  1  0.752499  0.783011  0.716012  1
  H  H68  1  0.914718  0.352815  0.732581  1
  H  H69  1  0.414718  0.147185  0.232581  1
  H  H70  1  0.085282  0.647185  0.267419  1
  H  H71  1  0.585282  0.852815  0.767419  1
  Ru  Ru72  1  0.072708  0.170951  0.902346  1
  Ru  Ru73  1  0.572708  0.329049  0.402346  1
  Ru  Ru74  1  0.927292  0.829049  0.097654  1
  Ru  Ru75  1  0.427292  0.670951  0.597654  1
  C  C76  1  0.132384  0.037536  0.710432  1
  C  C77  1  0.632384  0.462464  0.210432  1
  C  C78  1  0.867616  0.962464  0.289568  1
  C  C79  1  0.367616  0.537536  0.789568  1
  C  C80  1  0.399412  0.150952  0.763577  1
  C  C81  1  0.899412  0.349048  0.263577  1
  C  C82  1  0.600588  0.849048  0.236423  1
  C  C83  1  0.100588  0.650952  0.736423  1
  C  C84  1  0.421375  0.147827  0.020675  1
  C  C85  1  0.921375  0.352173  0.520675  1
  C  C86  1  0.578625  0.852173  0.979325  1
  C  C87  1  0.078625  0.647827  0.479325  1
  C  C88  1  0.234706  0.325327  0.066998  1
  C  C89  1  0.734706  0.174673  0.566998  1
  C  C90  1  0.765294  0.674673  0.933002  1
  C  C91  1  0.265294  0.825327  0.433002  1
  C  C92  1  0.787051  0.349587  0.966196  1
  C  C93  1  0.287051  0.150413  0.466196  1
  C  C94  1  0.212949  0.650413  0.033804  1
  C  C95  1  0.712949  0.849587  0.533804  1
  C  C96  1  0.830376  0.353739  0.787900  1
  C  C97  1  0.330376  0.146261  0.287900  1
  C  C98  1  0.169624  0.646261  0.212100  1
  C  C99  1  0.669624  0.853739  0.712100  1
  S  S100  1  0.182830  0.167368  0.762727  1
  S  S101  1  0.682830  0.332632  0.262727  1
  S  S102  1  0.817170  0.832632  0.237273  1
  S  S103  1  0.317170  0.667368  0.737273  1
  S  S104  1  0.948177  0.340616  0.887347  1
  S  S105  1  0.448177  0.159384  0.387347  1
  S  S106  1  0.051823  0.659384  0.112653  1
  S  S107  1  0.551823  0.840616  0.612653  1
  S  S108  1  0.294170  0.250958  0.968918  1
  S  S109  1  0.794170  0.249042  0.468918  1
  S  S110  1  0.705830  0.749042  0.031082  1
  S  S111  1  0.205830  0.750958  0.531082  1
  N  N112  1  0.973225  0.150067  0.033159  1
  N  N113  1  0.473225  0.349933  0.533159  1
  N  N114  1  0.026775  0.849933  0.966841  1
  N  N115  1  0.526775  0.650067  0.466841  1
  N  N116  1  0.899718  0.070053  0.054781  1
  N  N117  1  0.399718  0.429947  0.554781  1
  N  N118  1  0.100282  0.929947  0.945219  1
  N  N119  1  0.600282  0.570053  0.445219  1
  N  N120  1  0.822877  0.992969  0.078783  1
  N  N121  1  0.322877  0.507031  0.578783  1
  N  N122  1  0.177123  0.007031  0.921217  1
  N  N123  1  0.677123  0.492969  0.421217  1
  Cl  Cl124  1  0.824400  0.081800  0.848379  1
  Cl  Cl125  1  0.324400  0.418200  0.348379  1
  Cl  Cl126  1  0.175600  0.918200  0.151621  1
  Cl  Cl127  1  0.675600  0.581800  0.651621  1
  O  O128  1  0.144220  0.258028  0.699130  1
  O  O129  1  0.644220  0.241972  0.199130  1
  O  O130  1  0.855780  0.741972  0.300870  1
  O  O131  1  0.355780  0.758028  0.800870  1
  O  O132  1  0.400924  0.325923  0.917505  1
  O  O133  1  0.900924  0.174077  0.417505  1
  O  O134  1  0.599076  0.674077  0.082495  1
  O  O135  1  0.099076  0.825923  0.582495  1
  O  O136  1  0.046338  0.443694  0.895847  1
  O  O137  1  0.546338  0.056306  0.395847  1
  O  O138  1  0.953662  0.556306  0.104153  1
  O  O139  1  0.453662  0.943694  0.604153  1
