# generated using pymatgen
data_LiVP2H5O9
_symmetry_space_group_name_H-M   'P 1'
_cell_length_a   15.13981136
_cell_length_b   7.86913797
_cell_length_c   6.45918285
_cell_angle_alpha   90.00000000
_cell_angle_beta   90.00000000
_cell_angle_gamma   90.00000000
_symmetry_Int_Tables_number   1
_chemical_formula_structural   LiVP2H5O9
_chemical_formula_sum   'Li4 V4 P8 H20 O36'
_cell_volume   769.52937521
_cell_formula_units_Z   4
loop_
 _symmetry_equiv_pos_site_id
 _symmetry_equiv_pos_as_xyz
  1  'x, y, z'
loop_
 _atom_site_type_symbol
 _atom_site_label
 _atom_site_symmetry_multiplicity
 _atom_site_fract_x
 _atom_site_fract_y
 _atom_site_fract_z
 _atom_site_occupancy
  Li  Li0  1  0.030195  0.738539  0.227861  1
  Li  Li1  1  0.469805  0.238539  0.727861  1
  Li  Li2  1  0.530195  0.738539  0.272139  1
  Li  Li3  1  0.969805  0.238539  0.772139  1
  V  V4  1  0.190946  0.250607  0.938404  1
  V  V5  1  0.309054  0.750607  0.438404  1
  V  V6  1  0.690946  0.250607  0.561596  1
  V  V7  1  0.809054  0.750607  0.061596  1
  P  P8  1  0.131786  0.562595  0.633080  1
  P  P9  1  0.132738  0.934462  0.642434  1
  P  P10  1  0.368214  0.062595  0.133080  1
  P  P11  1  0.367262  0.434462  0.142434  1
  P  P12  1  0.631786  0.562595  0.866920  1
  P  P13  1  0.632738  0.934462  0.857566  1
  P  P14  1  0.868214  0.062595  0.366920  1
  P  P15  1  0.867262  0.434462  0.357566  1
  H  H16  1  0.007052  0.995116  0.493485  1
  H  H17  1  0.096539  0.151069  0.284829  1
  H  H18  1  0.094931  0.354595  0.283931  1
  H  H19  1  0.225084  0.647847  0.104332  1
  H  H20  1  0.225530  0.855314  0.105836  1
  H  H21  1  0.274916  0.147847  0.604332  1
  H  H22  1  0.274470  0.355314  0.605836  1
  H  H23  1  0.403461  0.651069  0.784829  1
  H  H24  1  0.405069  0.854595  0.783931  1
  H  H25  1  0.492948  0.495116  0.993485  1
  H  H26  1  0.507052  0.995116  0.006515  1
  H  H27  1  0.596539  0.151069  0.215171  1
  H  H28  1  0.594931  0.354595  0.216069  1
  H  H29  1  0.725084  0.647847  0.395668  1
  H  H30  1  0.725530  0.855314  0.394164  1
  H  H31  1  0.774916  0.147847  0.895668  1
  H  H32  1  0.774470  0.355314  0.894164  1
  H  H33  1  0.903461  0.651069  0.715171  1
  H  H34  1  0.905069  0.854595  0.716069  1
  H  H35  1  0.992948  0.495116  0.506515  1
  O  O36  1  0.071320  0.555355  0.437512  1
  O  O37  1  0.071566  0.946912  0.441603  1
  O  O38  1  0.098997  0.252530  0.195968  1
  O  O39  1  0.112439  0.748692  0.739505  1
  O  O40  1  0.101392  0.063727  0.799893  1
  O  O41  1  0.101931  0.432688  0.792285  1
  O  O42  1  0.208935  0.751313  0.184127  1
  O  O43  1  0.229494  0.555811  0.578074  1
  O  O44  1  0.228828  0.944227  0.579767  1
  O  O45  1  0.270506  0.055811  0.078074  1
  O  O46  1  0.271172  0.444227  0.079767  1
  O  O47  1  0.291065  0.251313  0.684127  1
  O  O48  1  0.398608  0.563727  0.299893  1
  O  O49  1  0.398069  0.932689  0.292285  1
  O  O50  1  0.387561  0.248692  0.239505  1
  O  O51  1  0.401003  0.752530  0.695968  1
  O  O52  1  0.428680  0.055355  0.937512  1
  O  O53  1  0.428434  0.446912  0.941603  1
  O  O54  1  0.571320  0.555355  0.062488  1
  O  O55  1  0.571566  0.946912  0.058397  1
  O  O56  1  0.598997  0.252530  0.304032  1
  O  O57  1  0.612439  0.748692  0.760495  1
  O  O58  1  0.601392  0.063727  0.700107  1
  O  O59  1  0.601931  0.432688  0.707715  1
  O  O60  1  0.708935  0.751313  0.315873  1
  O  O61  1  0.729494  0.555811  0.921926  1
  O  O62  1  0.728828  0.944227  0.920233  1
  O  O63  1  0.770506  0.055811  0.421926  1
  O  O64  1  0.771172  0.444227  0.420233  1
  O  O65  1  0.791065  0.251313  0.815873  1
  O  O66  1  0.898608  0.563727  0.200107  1
  O  O67  1  0.898069  0.932689  0.207715  1
  O  O68  1  0.887561  0.248692  0.260495  1
  O  O69  1  0.901003  0.752530  0.804032  1
  O  O70  1  0.928680  0.055355  0.562488  1
  O  O71  1  0.928434  0.446912  0.558397  1
