# generated using pymatgen
data_MnH6SO6
_symmetry_space_group_name_H-M   'P 1'
_cell_length_a   9.95610753
_cell_length_b   5.84438899
_cell_length_c   9.82196615
_cell_angle_alpha   90.00000000
_cell_angle_beta   90.00000000
_cell_angle_gamma   90.00000000
_symmetry_Int_Tables_number   1
_chemical_formula_structural   MnH6SO6
_chemical_formula_sum   'Mn4 H24 S4 O24'
_cell_volume   571.51433166
_cell_formula_units_Z   4
loop_
 _symmetry_equiv_pos_site_id
 _symmetry_equiv_pos_as_xyz
  1  'x, y, z'
loop_
 _atom_site_type_symbol
 _atom_site_label
 _atom_site_symmetry_multiplicity
 _atom_site_fract_x
 _atom_site_fract_y
 _atom_site_fract_z
 _atom_site_occupancy
  Mn  Mn0  1  0.793995  0.767975  0.175945  1
  Mn  Mn1  1  0.706005  0.232025  0.675945  1
  Mn  Mn2  1  0.293995  0.732025  0.824055  1
  Mn  Mn3  1  0.206005  0.267975  0.324055  1
  H  H4  1  0.635646  0.479476  0.394198  1
  H  H5  1  0.864354  0.520524  0.894198  1
  H  H6  1  0.135646  0.020524  0.605802  1
  H  H7  1  0.364354  0.979476  0.105802  1
  H  H8  1  0.607720  0.692310  0.308488  1
  H  H9  1  0.892280  0.307690  0.808488  1
  H  H10  1  0.107720  0.807690  0.691512  1
  H  H11  1  0.392280  0.192310  0.191512  1
  H  H12  1  0.630456  0.984288  0.396306  1
  H  H13  1  0.869544  0.015712  0.896306  1
  H  H14  1  0.130456  0.515712  0.603694  1
  H  H15  1  0.369544  0.484288  0.103694  1
  H  H16  1  0.539049  0.999776  0.260280  1
  H  H17  1  0.960951  0.000224  0.760280  1
  H  H18  1  0.039049  0.500224  0.739720  1
  H  H19  1  0.460951  0.499776  0.239720  1
  H  H20  1  0.599621  0.888781  0.971249  1
  H  H21  1  0.900379  0.111219  0.471249  1
  H  H22  1  0.099621  0.611219  0.028751  1
  H  H23  1  0.400379  0.388781  0.528751  1
  H  H24  1  0.601187  0.618999  0.973557  1
  H  H25  1  0.898813  0.381001  0.473557  1
  H  H26  1  0.101187  0.881001  0.026443  1
  H  H27  1  0.398813  0.118999  0.526443  1
  S  S28  1  0.934257  0.263500  0.160168  1
  S  S29  1  0.565743  0.736500  0.660168  1
  S  S30  1  0.434257  0.236500  0.839832  1
  S  S31  1  0.065743  0.763500  0.339832  1
  O  O32  1  0.911227  0.764306  0.358707  1
  O  O33  1  0.588773  0.235694  0.858707  1
  O  O34  1  0.411227  0.735694  0.641293  1
  O  O35  1  0.088773  0.264306  0.141293  1
  O  O36  1  0.886981  0.054096  0.073298  1
  O  O37  1  0.613019  0.945904  0.573298  1
  O  O38  1  0.386981  0.445904  0.926702  1
  O  O39  1  0.113019  0.554096  0.426702  1
  O  O40  1  0.888416  0.480197  0.081093  1
  O  O41  1  0.611584  0.519803  0.581094  1
  O  O42  1  0.388416  0.019803  0.918906  1
  O  O43  1  0.111584  0.980197  0.418907  1
  O  O44  1  0.622910  0.524078  0.297779  1
  O  O45  1  0.877090  0.475922  0.797779  1
  O  O46  1  0.122910  0.975922  0.702221  1
  O  O47  1  0.377090  0.024078  0.202221  1
  O  O48  1  0.632393  0.971334  0.295072  1
  O  O49  1  0.867607  0.028666  0.795072  1
  O  O50  1  0.132393  0.528666  0.704928  1
  O  O51  1  0.367607  0.471334  0.204928  1
  O  O52  1  0.637664  0.755890  0.018227  1
  O  O53  1  0.862336  0.244110  0.518227  1
  O  O54  1  0.137664  0.744110  0.981773  1
  O  O55  1  0.362336  0.255890  0.481773  1
