# generated using pymatgen
data_Li2Bi2P2O9
_symmetry_space_group_name_H-M   'P 1'
_cell_length_a   7.89641392
_cell_length_b   9.31070075
_cell_length_c   5.69485371
_cell_angle_alpha   90.00000000
_cell_angle_beta   93.02579299
_cell_angle_gamma   90.00000000
_symmetry_Int_Tables_number   1
_chemical_formula_structural   Li2Bi2P2O9
_chemical_formula_sum   'Li4 Bi4 P4 O18'
_cell_volume   418.10846678
_cell_formula_units_Z   2
loop_
 _symmetry_equiv_pos_site_id
 _symmetry_equiv_pos_as_xyz
  1  'x, y, z'
loop_
 _atom_site_type_symbol
 _atom_site_label
 _atom_site_symmetry_multiplicity
 _atom_site_fract_x
 _atom_site_fract_y
 _atom_site_fract_z
 _atom_site_occupancy
  Li  Li0  1  0.069294  0.580008  0.396631  1
  Li  Li1  1  0.430706  0.080008  0.603369  1
  Li  Li2  1  0.644595  0.619835  0.471574  1
  Li  Li3  1  0.855405  0.119835  0.528426  1
  Bi  Bi4  1  0.128595  0.209532  0.028356  1
  Bi  Bi5  1  0.371405  0.709532  0.971644  1
  Bi  Bi6  1  0.674359  0.280767  0.108613  1
  Bi  Bi7  1  0.825641  0.780767  0.891387  1
  P  P8  1  0.909472  0.449269  0.816657  1
  P  P9  1  0.108409  0.870245  0.523192  1
  P  P10  1  0.391591  0.370245  0.476808  1
  P  P11  1  0.590528  0.949269  0.183343  1
  O  O12  1  0.926386  0.921973  0.595454  1
  O  O13  1  0.093037  0.779737  0.294906  1
  O  O14  1  0.160442  0.764810  0.735134  1
  O  O15  1  0.275717  0.498910  0.483652  1
  O  O16  1  0.094515  0.442776  0.931818  1
  O  O17  1  0.405485  0.942776  0.068182  1
  O  O18  1  0.224283  0.998910  0.516348  1
  O  O19  1  0.339558  0.264810  0.264866  1
  O  O20  1  0.406963  0.279737  0.705094  1
  O  O21  1  0.573614  0.421973  0.404546  1
  O  O22  1  0.640024  0.791177  0.244518  1
  O  O23  1  0.574243  0.730576  0.739770  1
  O  O24  1  0.610925  0.059631  0.385019  1
  O  O25  1  0.711365  0.000750  0.986988  1
  O  O26  1  0.788635  0.500750  0.013012  1
  O  O27  1  0.889075  0.559631  0.614981  1
  O  O28  1  0.925757  0.230576  0.260230  1
  O  O29  1  0.859976  0.291177  0.755482  1
