# generated using pymatgen
data_Li5(CoO2)4
_symmetry_space_group_name_H-M   'P 1'
_cell_length_a   8.22436604
_cell_length_b   8.23667151
_cell_length_c   8.31919397
_cell_angle_alpha   89.73385714
_cell_angle_beta   89.89903953
_cell_angle_gamma   89.80502532
_symmetry_Int_Tables_number   1
_chemical_formula_structural   Li5(CoO2)4
_chemical_formula_sum   'Li20 Co16 O32'
_cell_volume   563.54365705
_cell_formula_units_Z   4
loop_
 _symmetry_equiv_pos_site_id
 _symmetry_equiv_pos_as_xyz
  1  'x, y, z'
loop_
 _atom_site_type_symbol
 _atom_site_label
 _atom_site_symmetry_multiplicity
 _atom_site_fract_x
 _atom_site_fract_y
 _atom_site_fract_z
 _atom_site_occupancy
  Li  Li0  1  0.897202  0.903368  0.098788  1
  Li  Li1  1  0.901593  0.619318  0.400677  1
  Li  Li2  1  0.897671  0.108411  0.887229  1
  Li  Li3  1  0.754129  0.757587  0.243823  1
  Li  Li4  1  0.748912  0.262450  0.751902  1
  Li  Li5  1  0.612189  0.603767  0.116957  1
  Li  Li6  1  0.616630  0.884711  0.409711  1
  Li  Li7  1  0.615099  0.116149  0.600150  1
  Li  Li8  1  0.602418  0.406430  0.904348  1
  Li  Li9  1  0.401977  0.093195  0.402082  1
  Li  Li10  1  0.405983  0.896578  0.616880  1
  Li  Li11  1  0.400250  0.630530  0.910257  1
  Li  Li12  1  0.383105  0.395822  0.101353  1
  Li  Li13  1  0.257897  0.241316  0.253309  1
  Li  Li14  1  0.247690  0.749806  0.742799  1
  Li  Li15  1  0.105008  0.117711  0.096890  1
  Li  Li16  1  0.106712  0.394809  0.379039  1
  Li  Li17  1  0.116999  0.599619  0.603078  1
  Li  Li18  1  0.117694  0.900711  0.894451  1
  Li  Li19  1  0.901044  0.397241  0.596683  1
  Co  Co20  1  0.879254  0.628583  0.875590  1
  Co  Co21  1  0.878382  0.881142  0.629663  1
  Co  Co22  1  0.627243  0.626130  0.625909  1
  Co  Co23  1  0.378488  0.879220  0.129741  1
  Co  Co24  1  0.376316  0.375816  0.621705  1
  Co  Co25  1  0.129970  0.878344  0.374752  1
  Co  Co26  1  0.127951  0.633498  0.126151  1
  Co  Co27  1  0.625903  0.376048  0.371073  1
  Co  Co28  1  0.380688  0.130213  0.871422  1
  Co  Co29  1  0.877113  0.376838  0.123849  1
  Co  Co30  1  0.875383  0.129418  0.376319  1
  Co  Co31  1  0.632126  0.881320  0.874888  1
  Co  Co32  1  0.630381  0.130728  0.122365  1
  Co  Co33  1  0.379706  0.623697  0.376472  1
  Co  Co34  1  0.128542  0.377271  0.873100  1
  Co  Co35  1  0.126422  0.130874  0.626993  1
  O  O36  1  0.887860  0.387026  0.886065  1
  O  O37  1  0.874460  0.613049  0.111361  1
  O  O38  1  0.885479  0.124773  0.617354  1
  O  O39  1  0.870171  0.891265  0.393943  1
  O  O40  1  0.880720  0.641359  0.639537  1
  O  O41  1  0.864422  0.367926  0.360340  1
  O  O42  1  0.869964  0.867948  0.864289  1
  O  O43  1  0.866702  0.140376  0.138070  1
  O  O44  1  0.642811  0.882347  0.642372  1
  O  O45  1  0.639572  0.366279  0.135179  1
  O  O46  1  0.637520  0.137781  0.359022  1
  O  O47  1  0.641105  0.643084  0.877302  1
  O  O48  1  0.635185  0.896418  0.108007  1
  O  O49  1  0.614949  0.369654  0.606652  1
  O  O50  1  0.620742  0.613071  0.372396  1
  O  O51  1  0.621523  0.123643  0.884897  1
  O  O52  1  0.394847  0.136231  0.106207  1
  O  O53  1  0.392593  0.890312  0.867852  1
  O  O54  1  0.388234  0.382026  0.385706  1
  O  O55  1  0.375262  0.611095  0.612538  1
  O  O56  1  0.384074  0.861698  0.382810  1
  O  O57  1  0.380354  0.626397  0.140800  1
  O  O58  1  0.366955  0.368740  0.858935  1
  O  O59  1  0.365447  0.138436  0.635417  1
  O  O60  1  0.140336  0.624819  0.374982  1
  O  O61  1  0.126918  0.887600  0.124287  1
  O  O62  1  0.141181  0.140836  0.861250  1
  O  O63  1  0.137984  0.366083  0.637426  1
  O  O64  1  0.118098  0.613076  0.873141  1
  O  O65  1  0.113641  0.896708  0.630743  1
  O  O66  1  0.116406  0.368418  0.110642  1
  O  O67  1  0.112864  0.136130  0.393774  1
