# generated using pymatgen
data_RbSb
_symmetry_space_group_name_H-M   'P 1'
_cell_length_a   7.36311963
_cell_length_b   7.50967656
_cell_length_c   13.03722916
_cell_angle_alpha   90.00000000
_cell_angle_beta   90.00000000
_cell_angle_gamma   90.00000000
_symmetry_Int_Tables_number   1
_chemical_formula_structural   RbSb
_chemical_formula_sum   'Rb8 Sb8'
_cell_volume   720.88898288
_cell_formula_units_Z   8
loop_
 _symmetry_equiv_pos_site_id
 _symmetry_equiv_pos_as_xyz
  1  'x, y, z'
loop_
 _atom_site_type_symbol
 _atom_site_label
 _atom_site_symmetry_multiplicity
 _atom_site_fract_x
 _atom_site_fract_y
 _atom_site_fract_z
 _atom_site_occupancy
  Rb  Rb0  1  0.081523  0.601441  0.958847  1
  Rb  Rb1  1  0.581523  0.398559  0.541153  1
  Rb  Rb2  1  0.418477  0.101441  0.041153  1
  Rb  Rb3  1  0.918477  0.898559  0.458847  1
  Rb  Rb4  1  0.346433  0.850377  0.669110  1
  Rb  Rb5  1  0.846433  0.149623  0.830890  1
  Rb  Rb6  1  0.153567  0.350377  0.330890  1
  Rb  Rb7  1  0.653567  0.649623  0.169110  1
  Sb  Sb8  1  0.841446  0.694496  0.714795  1
  Sb  Sb9  1  0.341446  0.305504  0.785205  1
  Sb  Sb10  1  0.658554  0.194496  0.285205  1
  Sb  Sb11  1  0.158554  0.805504  0.214795  1
  Sb  Sb12  1  0.580064  0.576384  0.868111  1
  Sb  Sb13  1  0.080064  0.423616  0.631889  1
  Sb  Sb14  1  0.919936  0.076384  0.131889  1
  Sb  Sb15  1  0.419936  0.923616  0.368111  1
