# generated using pymatgen
data_Li2Ti2Mn3O10
_symmetry_space_group_name_H-M   'P 1'
_cell_length_a   5.16560043
_cell_length_b   5.04717524
_cell_length_c   8.11906654
_cell_angle_alpha   112.87094107
_cell_angle_beta   98.27331534
_cell_angle_gamma   98.75397006
_symmetry_Int_Tables_number   1
_chemical_formula_structural   Li2Ti2Mn3O10
_chemical_formula_sum   'Li2 Ti2 Mn3 O10'
_cell_volume   187.91156343
_cell_formula_units_Z   1
loop_
 _symmetry_equiv_pos_site_id
 _symmetry_equiv_pos_as_xyz
  1  'x, y, z'
loop_
 _atom_site_type_symbol
 _atom_site_label
 _atom_site_symmetry_multiplicity
 _atom_site_fract_x
 _atom_site_fract_y
 _atom_site_fract_z
 _atom_site_occupancy
  Li  Li0  1  0.239820  0.919007  0.407136  1
  Li  Li1  1  0.760180  0.080993  0.592864  1
  Ti  Ti2  1  0.129736  0.695353  0.681442  1
  Ti  Ti3  1  0.870264  0.304648  0.318558  1
  Mn  Mn4  1  0.000000  0.500000  0.000000  1
  Mn  Mn5  1  0.690162  0.879755  0.892683  1
  Mn  Mn6  1  0.309838  0.120245  0.107317  1
  O  O7  1  0.022854  0.080720  0.860597  1
  O  O8  1  0.346550  0.731611  0.937479  1
  O  O9  1  0.085911  0.291953  0.521897  1
  O  O10  1  0.186685  0.476491  0.215349  1
  O  O11  1  0.456937  0.872176  0.669175  1
  O  O12  1  0.543063  0.127824  0.330825  1
  O  O13  1  0.813315  0.523509  0.784651  1
  O  O14  1  0.914089  0.708047  0.478103  1
  O  O15  1  0.653450  0.268389  0.062521  1
  O  O16  1  0.977146  0.919280  0.139403  1
