# generated using pymatgen
data_K2NaCa2TiSi7HO20
_symmetry_space_group_name_H-M   'P 1'
_cell_length_a   10.49955042
_cell_length_b   12.35026199
_cell_length_c   7.14236609
_cell_angle_alpha   90.78929372
_cell_angle_beta   99.18462641
_cell_angle_gamma   92.71345375
_symmetry_Int_Tables_number   1
_chemical_formula_structural   K2NaCa2TiSi7HO20
_chemical_formula_sum   'K4 Na2 Ca4 Ti2 Si14 H2 O40'
_cell_volume   913.05321330
_cell_formula_units_Z   2
loop_
 _symmetry_equiv_pos_site_id
 _symmetry_equiv_pos_as_xyz
  1  'x, y, z'
loop_
 _atom_site_type_symbol
 _atom_site_label
 _atom_site_symmetry_multiplicity
 _atom_site_fract_x
 _atom_site_fract_y
 _atom_site_fract_z
 _atom_site_occupancy
  K  K0  1  0.343107  0.099807  0.222744  1
  K  K1  1  0.656893  0.900193  0.777256  1
  K  K2  1  0.448526  0.350704  0.728859  1
  K  K3  1  0.551474  0.649296  0.271141  1
  Na  Na4  1  0.977854  0.110038  0.611281  1
  Na  Na5  1  0.022146  0.889962  0.388719  1
  Ca  Ca6  1  0.878937  0.406794  0.088629  1
  Ca  Ca7  1  0.121063  0.593206  0.911371  1
  Ca  Ca8  1  0.875469  0.420135  0.590689  1
  Ca  Ca9  1  0.124531  0.579865  0.409311  1
  Ti  Ti10  1  0.987855  0.100307  0.102350  1
  Ti  Ti11  1  0.012145  0.899693  0.897650  1
  Si  Si12  1  0.869756  0.691547  0.126102  1
  Si  Si13  1  0.130244  0.308453  0.873898  1
  Si  Si14  1  0.871394  0.699860  0.574996  1
  Si  Si15  1  0.128606  0.300140  0.425004  1
  Si  Si16  1  0.684343  0.583837  0.802302  1
  Si  Si17  1  0.315657  0.416163  0.197698  1
  Si  Si18  1  0.316719  0.817194  0.003020  1
  Si  Si19  1  0.683281  0.182806  0.996980  1
  Si  Si20  1  0.310578  0.811585  0.430607  1
  Si  Si21  1  0.689422  0.188415  0.569393  1
  Si  Si22  1  0.397227  0.648818  0.732158  1
  Si  Si23  1  0.602773  0.351182  0.267842  1
  Si  Si24  1  0.277588  0.988051  0.719819  1
  Si  Si25  1  0.722412  0.011949  0.280181  1
  H  H26  1  0.730116  0.830955  0.296503  1
  H  H27  1  0.269884  0.169045  0.703497  1
  O  O28  1  0.724860  0.655232  0.002902  1
  O  O29  1  0.275140  0.344768  0.997098  1
  O  O30  1  0.920337  0.806239  0.051463  1
  O  O31  1  0.079663  0.193761  0.948537  1
  O  O32  1  0.966207  0.593394  0.126047  1
  O  O33  1  0.033793  0.406606  0.873953  1
  O  O34  1  0.834221  0.717785  0.341117  1
  O  O35  1  0.165779  0.282215  0.658883  1
  O  O36  1  0.918937  0.818030  0.666517  1
  O  O37  1  0.081063  0.181970  0.333483  1
  O  O38  1  0.969607  0.602964  0.620724  1
  O  O39  1  0.030393  0.397036  0.379276  1
  O  O40  1  0.727605  0.660819  0.631580  1
  O  O41  1  0.272395  0.339181  0.368420  1
  O  O42  1  0.742355  0.466219  0.811185  1
  O  O43  1  0.257645  0.533781  0.188815  1
  O  O44  1  0.524820  0.573723  0.760083  1
  O  O45  1  0.475180  0.426277  0.239917  1
  O  O46  1  0.407105  0.723104  0.929839  1
  O  O47  1  0.592895  0.276896  0.070161  1
  O  O48  1  0.357490  0.933359  0.911320  1
  O  O49  1  0.642510  0.066641  0.088680  1
  O  O50  1  0.165193  0.785175  0.940092  1
  O  O51  1  0.834807  0.214825  0.059908  1
  O  O52  1  0.368717  0.829065  0.231513  1
  O  O53  1  0.631283  0.170935  0.768487  1
  O  O54  1  0.167903  0.759297  0.407245  1
  O  O55  1  0.832097  0.240703  0.592755  1
  O  O56  1  0.326628  0.934162  0.531628  1
  O  O57  1  0.673372  0.065838  0.468372  1
  O  O58  1  0.417617  0.734402  0.560006  1
  O  O59  1  0.582383  0.265598  0.439995  1
  O  O60  1  0.268103  0.572281  0.693909  1
  O  O61  1  0.731897  0.427719  0.306091  1
  O  O62  1  0.335871  0.114893  0.729754  1
  O  O63  1  0.664129  0.885107  0.270246  1
  O  O64  1  0.122627  0.973628  0.711053  1
  O  O65  1  0.877373  0.026372  0.288947  1
  O  O66  1  0.098745  0.987415  0.118032  1
  O  O67  1  0.901255  0.012585  0.881968  1
