# generated using pymatgen
data_Li6Nb3Fe3O16
_symmetry_space_group_name_H-M   'P 1'
_cell_length_a   6.09030459
_cell_length_b   6.14538585
_cell_length_c   10.09495704
_cell_angle_alpha   89.97956476
_cell_angle_beta   90.82215728
_cell_angle_gamma   120.30127512
_symmetry_Int_Tables_number   1
_chemical_formula_structural   Li6Nb3Fe3O16
_chemical_formula_sum   'Li6 Nb3 Fe3 O16'
_cell_volume   326.16569794
_cell_formula_units_Z   1
loop_
 _symmetry_equiv_pos_site_id
 _symmetry_equiv_pos_as_xyz
  1  'x, y, z'
loop_
 _atom_site_type_symbol
 _atom_site_label
 _atom_site_symmetry_multiplicity
 _atom_site_fract_x
 _atom_site_fract_y
 _atom_site_fract_z
 _atom_site_occupancy
  Li  Li0  1  0.317619  0.658825  0.498995  1
  Li  Li1  1  0.342429  0.671168  0.889547  1
  Li  Li2  1  0.010292  0.005224  0.004966  1
  Li  Li3  1  0.017800  0.009039  0.500752  1
  Li  Li4  1  0.673001  0.336523  0.006350  1
  Li  Li5  1  0.665050  0.332502  0.376015  1
  Nb  Nb6  1  0.643238  0.821631  0.219055  1
  Nb  Nb7  1  0.827350  0.660912  0.713830  1
  Nb  Nb8  1  0.827370  0.166492  0.713833  1
  Fe  Fe9  1  0.157549  0.831847  0.217143  1
  Fe  Fe10  1  0.157586  0.325760  0.217082  1
  Fe  Fe11  1  0.329895  0.164950  0.720048  1
  O  O12  1  0.148475  0.845186  0.612429  1
  O  O13  1  0.037992  0.518929  0.310501  1
  O  O14  1  0.366927  0.683453  0.090857  1
  O  O15  1  0.982524  0.991215  0.322114  1
  O  O16  1  0.988009  0.993965  0.822946  1
  O  O17  1  0.148527  0.303475  0.612422  1
  O  O18  1  0.474715  0.968057  0.321219  1
  O  O19  1  0.474676  0.506575  0.321228  1
  O  O20  1  0.299575  0.149830  0.123619  1
  O  O21  1  0.689062  0.844608  0.604553  1
  O  O22  1  0.521705  0.489422  0.822711  1
  O  O23  1  0.521662  0.032140  0.822666  1
  O  O24  1  0.679459  0.339804  0.599545  1
  O  O25  1  0.859998  0.697894  0.111042  1
  O  O26  1  0.977499  0.488695  0.821394  1
  O  O27  1  0.860015  0.162181  0.110979  1
