# generated using pymatgen
data_Li2SiSnCO7
_symmetry_space_group_name_H-M   'P 1'
_cell_length_a   8.66751657
_cell_length_b   6.56807887
_cell_length_c   5.11357946
_cell_angle_alpha   90.00000000
_cell_angle_beta   87.83705792
_cell_angle_gamma   90.00000000
_symmetry_Int_Tables_number   1
_chemical_formula_structural   Li2SiSnCO7
_chemical_formula_sum   'Li4 Si2 Sn2 C2 O14'
_cell_volume   290.90321334
_cell_formula_units_Z   2
loop_
 _symmetry_equiv_pos_site_id
 _symmetry_equiv_pos_as_xyz
  1  'x, y, z'
loop_
 _atom_site_type_symbol
 _atom_site_label
 _atom_site_symmetry_multiplicity
 _atom_site_fract_x
 _atom_site_fract_y
 _atom_site_fract_z
 _atom_site_occupancy
  Li  Li0  1  0.217021  0.497348  0.220257  1
  Li  Li1  1  0.217021  0.002652  0.220257  1
  Li  Li2  1  0.782979  0.502652  0.779743  1
  Li  Li3  1  0.782979  0.997348  0.779743  1
  Si  Si4  1  0.419837  0.250000  0.712862  1
  Si  Si5  1  0.580162  0.750000  0.287138  1
  Sn  Sn6  1  0.353665  0.750000  0.794489  1
  Sn  Sn7  1  0.646335  0.250000  0.205511  1
  C  C8  1  0.054206  0.750000  0.734279  1
  C  C9  1  0.945794  0.250000  0.265721  1
  O  O10  1  0.088770  0.250000  0.302729  1
  O  O11  1  0.113226  0.750000  0.967237  1
  O  O12  1  0.159177  0.750000  0.535984  1
  O  O13  1  0.323494  0.053790  0.826365  1
  O  O14  1  0.323494  0.446210  0.826365  1
  O  O15  1  0.400612  0.750000  0.187944  1
  O  O16  1  0.433868  0.250000  0.388591  1
  O  O17  1  0.566132  0.750000  0.611409  1
  O  O18  1  0.599388  0.250000  0.812056  1
  O  O19  1  0.676506  0.553790  0.173635  1
  O  O20  1  0.676506  0.946210  0.173635  1
  O  O21  1  0.840823  0.250000  0.464016  1
  O  O22  1  0.886774  0.250000  0.032763  1
  O  O23  1  0.911230  0.750000  0.697271  1
