# generated using pymatgen
data_Mg(CoO2)2
_symmetry_space_group_name_H-M   'P 1'
_cell_length_a   5.77295227
_cell_length_b   5.77325253
_cell_length_c   5.77267488
_cell_angle_alpha   60.00118179
_cell_angle_beta   59.99952185
_cell_angle_gamma   60.00300624
_symmetry_Int_Tables_number   1
_chemical_formula_structural   Mg(CoO2)2
_chemical_formula_sum   'Mg2 Co4 O8'
_cell_volume   136.04819922
_cell_formula_units_Z   2
loop_
 _symmetry_equiv_pos_site_id
 _symmetry_equiv_pos_as_xyz
  1  'x, y, z'
loop_
 _atom_site_type_symbol
 _atom_site_label
 _atom_site_symmetry_multiplicity
 _atom_site_fract_x
 _atom_site_fract_y
 _atom_site_fract_z
 _atom_site_occupancy
  Mg  Mg0  1  0.125000  0.125002  0.124995  1
  Mg  Mg1  1  0.875001  0.874997  0.875005  1
  Co  Co2  1  0.500000  0.500000  0.000000  1
  Co  Co3  1  0.500000  0.000000  0.500000  1
  Co  Co4  1  1.000000  0.500000  0.500000  1
  Co  Co5  1  0.500000  0.500000  0.500000  1
  O  O6  1  0.264313  0.264333  0.264298  1
  O  O7  1  0.707056  0.264333  0.264295  1
  O  O8  1  0.735694  0.735672  0.292947  1
  O  O9  1  0.735682  0.292940  0.735698  1
  O  O10  1  0.264318  0.707060  0.264302  1
  O  O11  1  0.264306  0.264329  0.707053  1
  O  O12  1  0.292945  0.735667  0.735705  1
  O  O13  1  0.735687  0.735667  0.735703  1
