# generated using pymatgen
data_Sr3CaI8
_symmetry_space_group_name_H-M   'P 1'
_cell_length_a   7.99737059
_cell_length_b   7.99716315
_cell_length_c   9.79104829
_cell_angle_alpha   66.02729795
_cell_angle_beta   65.73808989
_cell_angle_gamma   89.81366841
_symmetry_Int_Tables_number   1
_chemical_formula_structural   Sr3CaI8
_chemical_formula_sum   'Sr3 Ca1 I8'
_cell_volume   511.47420646
_cell_formula_units_Z   1
loop_
 _symmetry_equiv_pos_site_id
 _symmetry_equiv_pos_as_xyz
  1  'x, y, z'
loop_
 _atom_site_type_symbol
 _atom_site_label
 _atom_site_symmetry_multiplicity
 _atom_site_fract_x
 _atom_site_fract_y
 _atom_site_fract_z
 _atom_site_occupancy
  Sr  Sr0  1  0.748879  0.250468  0.501964  1
  Sr  Sr1  1  0.502753  0.501722  0.999657  1
  Sr  Sr2  1  0.248848  0.752411  0.498009  1
  Ca  Ca3  1  0.004179  0.000528  0.999521  1
  I  I4  1  0.628311  0.121724  0.250186  1
  I  I5  1  0.123927  0.127274  0.244852  1
  I  I6  1  0.878662  0.369243  0.753938  1
  I  I7  1  0.370630  0.375145  0.752574  1
  I  I8  1  0.125784  0.629706  0.249397  1
  I  I9  1  0.635401  0.631565  0.245864  1
  I  I10  1  0.366249  0.878906  0.757356  1
  I  I11  1  0.875718  0.877945  0.751184  1
