# generated using pymatgen
data_LiSn(PO3)4
_symmetry_space_group_name_H-M   'P 1'
_cell_length_a   9.65812367
_cell_length_b   13.09495725
_cell_length_c   7.18278647
_cell_angle_alpha   90.00000000
_cell_angle_beta   91.01189110
_cell_angle_gamma   90.00000000
_symmetry_Int_Tables_number   1
_chemical_formula_structural   LiSn(PO3)4
_chemical_formula_sum   'Li4 Sn4 P16 O48'
_cell_volume   908.28484958
_cell_formula_units_Z   4
loop_
 _symmetry_equiv_pos_site_id
 _symmetry_equiv_pos_as_xyz
  1  'x, y, z'
loop_
 _atom_site_type_symbol
 _atom_site_label
 _atom_site_symmetry_multiplicity
 _atom_site_fract_x
 _atom_site_fract_y
 _atom_site_fract_z
 _atom_site_occupancy
  Li  Li0  1  0.057605  0.781547  0.487649  1
  Li  Li1  1  0.442395  0.281547  0.012351  1
  Li  Li2  1  0.557605  0.718453  0.987649  1
  Li  Li3  1  0.942395  0.218453  0.512351  1
  Sn  Sn4  1  0.020936  0.217586  0.989577  1
  Sn  Sn5  1  0.479064  0.717586  0.510423  1
  Sn  Sn6  1  0.520936  0.282414  0.489577  1
  Sn  Sn7  1  0.979064  0.782414  0.010423  1
  P  P8  1  0.192393  0.370667  0.356047  1
  P  P9  1  0.199890  0.592294  0.276679  1
  P  P10  1  0.233070  0.116152  0.618160  1
  P  P11  1  0.239187  0.896968  0.743369  1
  P  P12  1  0.260813  0.396968  0.756631  1
  P  P13  1  0.266930  0.616152  0.881840  1
  P  P14  1  0.300110  0.092294  0.223321  1
  P  P15  1  0.307607  0.870667  0.143953  1
  P  P16  1  0.692393  0.129333  0.856047  1
  P  P17  1  0.699890  0.907706  0.776679  1
  P  P18  1  0.733070  0.383848  0.118160  1
  P  P19  1  0.739187  0.603032  0.243369  1
  P  P20  1  0.760813  0.103032  0.256631  1
  P  P21  1  0.766930  0.883848  0.381840  1
  P  P22  1  0.800110  0.407706  0.723321  1
  P  P23  1  0.807607  0.629333  0.643953  1
  O  O24  1  0.082260  0.666471  0.254690  1
  O  O25  1  0.085560  0.890382  0.778966  1
  O  O26  1  0.092719  0.149165  0.686401  1
  O  O27  1  0.097754  0.286681  0.289805  1
  O  O28  1  0.131244  0.479082  0.286332  1
  O  O29  1  0.151011  0.691388  0.865469  1
  O  O30  1  0.154275  0.866415  0.181630  1
  O  O31  1  0.166884  0.373724  0.576436  1
  O  O32  1  0.212060  0.332217  0.917174  1
  O  O33  1  0.211940  0.513163  0.787561  1
  O  O34  1  0.207116  0.082175  0.405560  1
  O  O35  1  0.202757  0.109309  0.059397  1
  O  O36  1  0.297243  0.609309  0.440603  1
  O  O37  1  0.288060  0.013163  0.712439  1
  O  O38  1  0.292884  0.582175  0.094440  1
  O  O39  1  0.287940  0.832217  0.582826  1
  O  O40  1  0.333116  0.873724  0.923564  1
  O  O41  1  0.345725  0.366415  0.318370  1
  O  O42  1  0.348989  0.191388  0.634531  1
  O  O43  1  0.368756  0.979082  0.213668  1
  O  O44  1  0.407281  0.649165  0.813599  1
  O  O45  1  0.402246  0.786681  0.210195  1
  O  O46  1  0.414440  0.390382  0.721034  1
  O  O47  1  0.417740  0.166471  0.245310  1
  O  O48  1  0.582260  0.833529  0.754690  1
  O  O49  1  0.585560  0.609618  0.278966  1
  O  O50  1  0.597754  0.213319  0.789805  1
  O  O51  1  0.592719  0.350835  0.186401  1
  O  O52  1  0.631244  0.020918  0.786332  1
  O  O53  1  0.651011  0.808612  0.365469  1
  O  O54  1  0.654275  0.633585  0.681630  1
  O  O55  1  0.666884  0.126276  0.076436  1
  O  O56  1  0.712060  0.167783  0.417174  1
  O  O57  1  0.707116  0.417825  0.905560  1
  O  O58  1  0.711940  0.986837  0.287561  1
  O  O59  1  0.702757  0.390691  0.559397  1
  O  O60  1  0.797243  0.890691  0.940603  1
  O  O61  1  0.792884  0.917825  0.594440  1
  O  O62  1  0.788060  0.486837  0.212439  1
  O  O63  1  0.787940  0.667783  0.082826  1
  O  O64  1  0.833116  0.626276  0.423564  1
  O  O65  1  0.845725  0.133585  0.818370  1
  O  O66  1  0.848989  0.308612  0.134531  1
  O  O67  1  0.868756  0.520918  0.713668  1
  O  O68  1  0.902246  0.713319  0.710195  1
  O  O69  1  0.907281  0.850835  0.313599  1
  O  O70  1  0.914440  0.109618  0.221034  1
  O  O71  1  0.917740  0.333529  0.745310  1
