# generated using pymatgen
data_LiSb3(PO5)2
_symmetry_space_group_name_H-M   'P 1'
_cell_length_a   6.70651031
_cell_length_b   6.99527992
_cell_length_c   5.29698005
_cell_angle_alpha   70.17087328
_cell_angle_beta   94.58006171
_cell_angle_gamma   112.07276694
_symmetry_Int_Tables_number   1
_chemical_formula_structural   LiSb3(PO5)2
_chemical_formula_sum   'Li1 Sb3 P2 O10'
_cell_volume   216.31108297
_cell_formula_units_Z   1
loop_
 _symmetry_equiv_pos_site_id
 _symmetry_equiv_pos_as_xyz
  1  'x, y, z'
loop_
 _atom_site_type_symbol
 _atom_site_label
 _atom_site_symmetry_multiplicity
 _atom_site_fract_x
 _atom_site_fract_y
 _atom_site_fract_z
 _atom_site_occupancy
  Li  Li0  1  0.513472  0.001619  0.889397  1
  Sb  Sb1  1  0.585001  0.662615  0.559731  1
  Sb  Sb2  1  0.986803  0.965216  0.015137  1
  Sb  Sb3  1  0.834893  0.234444  0.384496  1
  P  P4  1  0.069671  0.619178  0.649978  1
  P  P5  1  0.380473  0.291493  0.288961  1
  O  O6  1  0.001409  0.365081  0.722220  1
  O  O7  1  0.131977  0.156716  0.360489  1
  O  O8  1  0.316399  0.743085  0.586844  1
  O  O9  1  0.425310  0.538759  0.244232  1
  O  O10  1  0.447145  0.258064  0.044399  1
  O  O11  1  0.714514  0.947663  0.220534  1
  O  O12  1  0.750281  0.958703  0.719414  1
  O  O13  1  0.510753  0.213053  0.535966  1
  O  O14  1  0.996417  0.672721  0.875588  1
  O  O15  1  0.945901  0.683690  0.386912  1
