# generated using pymatgen
data_Na5Ni2As(CO4)4
_symmetry_space_group_name_H-M   'P 1'
_cell_length_a   9.96996066
_cell_length_b   9.90115847
_cell_length_c   9.96996066
_cell_angle_alpha   60.33869804
_cell_angle_beta   89.46239726
_cell_angle_gamma   119.66130196
_symmetry_Int_Tables_number   1
_chemical_formula_structural   Na5Ni2As(CO4)4
_chemical_formula_sum   'Na10 Ni4 As2 C8 O32'
_cell_volume   699.74862455
_cell_formula_units_Z   2
loop_
 _symmetry_equiv_pos_site_id
 _symmetry_equiv_pos_as_xyz
  1  'x, y, z'
loop_
 _atom_site_type_symbol
 _atom_site_label
 _atom_site_symmetry_multiplicity
 _atom_site_fract_x
 _atom_site_fract_y
 _atom_site_fract_z
 _atom_site_occupancy
  Na  Na0  1  0.903743  0.237033  0.351626  1
  Na  Na1  1  0.649793  0.317121  0.095259  1
  Na  Na2  1  0.648374  0.737033  0.096257  1
  Na  Na3  1  0.904741  0.817121  0.350207  1
  Na  Na4  1  0.910443  0.250000  0.910443  1
  Na  Na5  1  0.089557  0.750000  0.089557  1
  Na  Na6  1  0.095259  0.182879  0.649793  1
  Na  Na7  1  0.351626  0.262967  0.903743  1
  Na  Na8  1  0.350207  0.682879  0.904741  1
  Na  Na9  1  0.096257  0.762967  0.648374  1
  Ni  Ni10  1  0.500000  0.000000  0.000000  1
  Ni  Ni11  1  0.500000  0.000000  0.500000  1
  Ni  Ni12  1  0.500000  0.500000  0.500000  1
  Ni  Ni13  1  0.000000  0.500000  0.500000  1
  As  As14  1  0.127148  0.250000  0.127148  1
  As  As15  1  0.872852  0.750000  0.872852  1
  C  C16  1  0.713904  0.074209  0.713749  1
  C  C17  1  0.717518  0.431608  0.356809  1
  C  C18  1  0.356809  0.068392  0.717518  1
  C  C19  1  0.713749  0.425791  0.713904  1
  C  C20  1  0.286251  0.574209  0.286096  1
  C  C21  1  0.643191  0.931608  0.282482  1
  C  C22  1  0.286096  0.925791  0.286251  1
  C  C23  1  0.282482  0.568392  0.643191  1
  O  O24  1  0.647115  0.047570  0.139710  1
  O  O25  1  0.691841  0.292291  0.353079  1
  O  O26  1  0.857244  0.209815  0.601555  1
  O  O27  1  0.404227  0.034582  0.312901  1
  O  O28  1  0.860290  0.547570  0.352885  1
  O  O29  1  0.337302  0.393935  0.046313  1
  O  O30  1  0.055996  0.107347  0.056941  1
  O  O31  1  0.605404  0.461292  0.354321  1
  O  O32  1  0.689920  0.041038  0.858333  1
  O  O33  1  0.354321  0.038708  0.605404  1
  O  O34  1  0.858333  0.458962  0.689920  1
  O  O35  1  0.056941  0.392653  0.055996  1
  O  O36  1  0.046313  0.106065  0.337302  1
  O  O37  1  0.398445  0.709815  0.142756  1
  O  O38  1  0.646921  0.792291  0.308159  1
  O  O39  1  0.687099  0.534582  0.595773  1
  O  O40  1  0.312901  0.465418  0.404227  1
  O  O41  1  0.353079  0.207709  0.691841  1
  O  O42  1  0.601555  0.290185  0.857244  1
  O  O43  1  0.943059  0.607347  0.944004  1
  O  O44  1  0.953687  0.893935  0.662698  1
  O  O45  1  0.141668  0.541038  0.310080  1
  O  O46  1  0.645679  0.961292  0.394596  1
  O  O47  1  0.310080  0.958962  0.141668  1
  O  O48  1  0.394596  0.538708  0.645679  1
  O  O49  1  0.944004  0.892653  0.943059  1
  O  O50  1  0.662698  0.606065  0.953687  1
  O  O51  1  0.139710  0.452430  0.647115  1
  O  O52  1  0.595773  0.965418  0.687099  1
  O  O53  1  0.308159  0.707709  0.646921  1
  O  O54  1  0.142756  0.790185  0.398445  1
  O  O55  1  0.352885  0.952430  0.860290  1
