# generated using pymatgen
data_Li3Mn2Fe(BO3)3
_symmetry_space_group_name_H-M   'P 1'
_cell_length_a   8.27575010
_cell_length_b   8.26642555
_cell_length_c   6.34106377
_cell_angle_alpha   90.00000000
_cell_angle_beta   90.00000000
_cell_angle_gamma   120.14158953
_symmetry_Int_Tables_number   1
_chemical_formula_structural   Li3Mn2Fe(BO3)3
_chemical_formula_sum   'Li6 Mn4 Fe2 B6 O18'
_cell_volume   375.14268250
_cell_formula_units_Z   2
loop_
 _symmetry_equiv_pos_site_id
 _symmetry_equiv_pos_as_xyz
  1  'x, y, z'
loop_
 _atom_site_type_symbol
 _atom_site_label
 _atom_site_symmetry_multiplicity
 _atom_site_fract_x
 _atom_site_fract_y
 _atom_site_fract_z
 _atom_site_occupancy
  Li  Li0  1  0.283821  0.982022  0.249447  1
  Li  Li1  1  0.283821  0.982022  0.750553  1
  Li  Li2  1  0.016750  0.301179  0.249986  1
  Li  Li3  1  0.016750  0.301179  0.750014  1
  Li  Li4  1  0.698319  0.715295  0.749669  1
  Li  Li5  1  0.698319  0.715295  0.250331  1
  Mn  Mn6  1  0.372527  0.360348  0.000000  1
  Mn  Mn7  1  0.372703  0.360426  0.500000  1
  Mn  Mn8  1  0.640486  0.012416  0.500000  1
  Mn  Mn9  1  0.987693  0.627569  0.000000  1
  Fe  Fe10  1  0.640593  0.007615  0.000000  1
  Fe  Fe11  1  0.993029  0.632874  0.500000  1
  B  B12  1  0.999633  0.002675  0.000000  1
  B  B13  1  0.997749  0.997149  0.500000  1
  B  B14  1  0.333382  0.667608  0.249879  1
  B  B15  1  0.333382  0.667608  0.750121  1
  B  B16  1  0.667904  0.333116  0.249999  1
  B  B17  1  0.667904  0.333116  0.750001  1
  O  O18  1  0.111204  0.916091  0.500000  1
  O  O19  1  0.111814  0.921478  0.000000  1
  O  O20  1  0.139551  0.581599  0.253870  1
  O  O21  1  0.139551  0.581599  0.746130  1
  O  O22  1  0.079608  0.196350  0.000000  1
  O  O23  1  0.079192  0.191010  0.500000  1
  O  O24  1  0.441486  0.861410  0.245649  1
  O  O25  1  0.441486  0.861410  0.754351  1
  O  O26  1  0.418863  0.559802  0.250280  1
  O  O27  1  0.418863  0.559802  0.749720  1
  O  O28  1  0.473770  0.251439  0.249627  1
  O  O29  1  0.473770  0.251439  0.750373  1
  O  O30  1  0.804833  0.888985  0.000000  1
  O  O31  1  0.804288  0.883244  0.500000  1
  O  O32  1  0.780315  0.527210  0.252468  1
  O  O33  1  0.780315  0.527210  0.747532  1
  O  O34  1  0.748164  0.220206  0.752081  1
  O  O35  1  0.748164  0.220206  0.247919  1
