# generated using pymatgen
data_Li4Co3Ni2Sb3O16
_symmetry_space_group_name_H-M   'P 1'
_cell_length_a   5.92562354
_cell_length_b   6.00772834
_cell_length_c   9.70936233
_cell_angle_alpha   89.99999031
_cell_angle_beta   90.23619870
_cell_angle_gamma   120.45856764
_symmetry_Int_Tables_number   1
_chemical_formula_structural   Li4Co3Ni2Sb3O16
_chemical_formula_sum   'Li4 Co3 Ni2 Sb3 O16'
_cell_volume   297.94445807
_cell_formula_units_Z   1
loop_
 _symmetry_equiv_pos_site_id
 _symmetry_equiv_pos_as_xyz
  1  'x, y, z'
loop_
 _atom_site_type_symbol
 _atom_site_label
 _atom_site_symmetry_multiplicity
 _atom_site_fract_x
 _atom_site_fract_y
 _atom_site_fract_z
 _atom_site_occupancy
  Li  Li0  1  0.338780  0.669396  0.864669  1
  Li  Li1  1  0.951996  0.976005  0.988834  1
  Li  Li2  1  0.967814  0.983903  0.507297  1
  Li  Li3  1  0.665854  0.332940  0.404222  1
  Co  Co4  1  0.665634  0.832826  0.216724  1
  Co  Co5  1  0.832422  0.662564  0.715120  1
  Co  Co6  1  0.832420  0.169886  0.715121  1
  Ni  Ni7  1  0.340953  0.670499  0.511022  1
  Ni  Ni8  1  0.688847  0.344443  0.974504  1
  Sb  Sb9  1  0.172202  0.833832  0.215562  1
  Sb  Sb10  1  0.172206  0.338384  0.215561  1
  Sb  Sb11  1  0.340145  0.170088  0.714985  1
  O  O12  1  0.155045  0.841471  0.601647  1
  O  O13  1  0.027445  0.513721  0.335021  1
  O  O14  1  0.347051  0.673541  0.103270  1
  O  O15  1  0.991878  0.995940  0.319567  1
  O  O16  1  0.990684  0.995356  0.809724  1
  O  O17  1  0.155048  0.313605  0.601649  1
  O  O18  1  0.491318  0.968723  0.330803  1
  O  O19  1  0.491297  0.522583  0.330809  1
  O  O20  1  0.315897  0.157959  0.099587  1
  O  O21  1  0.676843  0.838437  0.612570  1
  O  O22  1  0.527047  0.488795  0.834963  1
  O  O23  1  0.527042  0.038275  0.834963  1
  O  O24  1  0.679204  0.339614  0.608967  1
  O  O25  1  0.842427  0.685643  0.107460  1
  O  O26  1  0.970034  0.485037  0.825773  1
  O  O27  1  0.842467  0.156833  0.107445  1
