# generated using pymatgen
data_Li4Ni8O9F7
_symmetry_space_group_name_H-M   'P 1'
_cell_length_a   5.94522402
_cell_length_b   5.91144801
_cell_length_c   10.44735770
_cell_angle_alpha   107.34483338
_cell_angle_beta   72.60910923
_cell_angle_gamma   123.29262285
_symmetry_Int_Tables_number   1
_chemical_formula_structural   Li4Ni8O9F7
_chemical_formula_sum   'Li4 Ni8 O9 F7'
_cell_volume   288.71501115
_cell_formula_units_Z   1
loop_
 _symmetry_equiv_pos_site_id
 _symmetry_equiv_pos_as_xyz
  1  'x, y, z'
loop_
 _atom_site_type_symbol
 _atom_site_label
 _atom_site_symmetry_multiplicity
 _atom_site_fract_x
 _atom_site_fract_y
 _atom_site_fract_z
 _atom_site_occupancy
  Li  Li0  1  0.818574  0.718019  0.054997  1
  Li  Li1  1  0.697105  0.791185  0.449947  1
  Li  Li2  1  0.292772  0.206813  0.550299  1
  Li  Li3  1  0.201944  0.292247  0.949723  1
  Ni  Ni4  1  0.244811  0.750877  0.244128  1
  Ni  Ni5  1  0.250300  0.241730  0.247424  1
  Ni  Ni6  1  0.997440  0.498775  0.499104  1
  Ni  Ni7  1  0.492911  0.001029  0.002776  1
  Ni  Ni8  1  0.248110  0.749035  0.749966  1
  Ni  Ni9  1  0.750814  0.248965  0.248753  1
  Ni  Ni10  1  0.746976  0.749151  0.750472  1
  Ni  Ni11  1  0.748452  0.249277  0.750105  1
  O  O12  1  0.147680  0.907578  0.131410  1
  O  O13  1  0.116746  0.374297  0.156042  1
  O  O14  1  0.594976  0.903021  0.137025  1
  O  O15  1  0.610949  0.883486  0.654502  1
  O  O16  1  0.907361  0.594424  0.361489  1
  O  O17  1  0.091273  0.404874  0.635411  1
  O  O18  1  0.385318  0.122144  0.342996  1
  O  O19  1  0.404413  0.095057  0.863370  1
  O  O20  1  0.885541  0.615699  0.845240  1
  F  F21  1  0.112733  0.875704  0.618277  1
  F  F22  1  0.632788  0.386123  0.123944  1
  F  F23  1  0.369790  0.598563  0.374111  1
  F  F24  1  0.621877  0.383204  0.619138  1
  F  F25  1  0.380667  0.621177  0.879042  1
  F  F26  1  0.877719  0.121678  0.379855  1
  F  F27  1  0.869957  0.115865  0.880455  1
