# generated using pymatgen
data_Li3Mn4(BO3)4
_symmetry_space_group_name_H-M   'P 1'
_cell_length_a   5.27113087
_cell_length_b   9.14699239
_cell_length_c   11.45714724
_cell_angle_alpha   68.62640384
_cell_angle_beta   77.56771037
_cell_angle_gamma   89.95776906
_symmetry_Int_Tables_number   1
_chemical_formula_structural   Li3Mn4(BO3)4
_chemical_formula_sum   'Li6 Mn8 B8 O24'
_cell_volume   500.51334357
_cell_formula_units_Z   2
loop_
 _symmetry_equiv_pos_site_id
 _symmetry_equiv_pos_as_xyz
  1  'x, y, z'
loop_
 _atom_site_type_symbol
 _atom_site_label
 _atom_site_symmetry_multiplicity
 _atom_site_fract_x
 _atom_site_fract_y
 _atom_site_fract_z
 _atom_site_occupancy
  Li  Li0  1  0.989999  0.009002  0.838843  1
  Li  Li1  1  0.790032  0.782670  0.587886  1
  Li  Li2  1  0.764254  0.741112  0.341477  1
  Li  Li3  1  0.484617  0.509842  0.832781  1
  Li  Li4  1  0.537939  0.532485  0.104631  1
  Li  Li5  1  0.271576  0.251544  0.332034  1
  Mn  Mn6  1  0.978908  0.656918  0.871593  1
  Mn  Mn7  1  0.768471  0.426034  0.616308  1
  Mn  Mn8  1  0.738353  0.065426  0.365669  1
  Mn  Mn9  1  0.480148  0.152885  0.868747  1
  Mn  Mn10  1  0.534099  0.868105  0.120736  1
  Mn  Mn11  1  0.262888  0.950844  0.618685  1
  Mn  Mn12  1  0.242747  0.573702  0.369202  1
  Mn  Mn13  1  0.030204  0.341750  0.111068  1
  B  B14  1  0.986590  0.317990  0.865174  1
  B  B15  1  0.746579  0.092601  0.638974  1
  B  B16  1  0.744608  0.398781  0.363718  1
  B  B17  1  0.470384  0.813232  0.880354  1
  B  B18  1  0.539447  0.194776  0.113855  1
  B  B19  1  0.270023  0.617495  0.615869  1
  B  B20  1  0.222399  0.896029  0.378787  1
  B  B21  1  0.019600  0.670284  0.138304  1
  O  O22  1  0.958247  0.869819  0.396534  1
  O  O23  1  0.747761  0.346348  0.826600  1
  O  O24  1  0.903659  0.292084  0.330738  1
  O  O25  1  0.596777  0.924945  0.912060  1
  O  O26  1  0.849580  0.504471  0.408766  1
  O  O27  1  0.575767  0.671363  0.894747  1
  O  O28  1  0.875216  0.783955  0.159576  1
  O  O29  1  0.658272  0.997679  0.581981  1
  O  O30  1  0.936028  0.572904  0.082552  1
  O  O31  1  0.575814  0.193293  0.681295  1
  O  O32  1  0.759578  0.151968  0.160183  1
  O  O33  1  0.519141  0.603461  0.635381  1
  O  O34  1  0.489325  0.405164  0.354737  1
  O  O35  1  0.241857  0.848471  0.838646  1
  O  O36  1  0.394225  0.799427  0.334621  1
  O  O37  1  0.099174  0.428930  0.900270  1
  O  O38  1  0.326630  0.016817  0.406022  1
  O  O39  1  0.104246  0.184433  0.869600  1
  O  O40  1  0.408023  0.317962  0.130582  1
  O  O41  1  0.165291  0.529341  0.556208  1
  O  O42  1  0.445998  0.102694  0.054088  1
  O  O43  1  0.106252  0.718214  0.657161  1
  O  O44  1  0.264440  0.648268  0.176887  1
  O  O45  1  0.992180  0.091829  0.655417  1
