# generated using pymatgen
data_Li2Fe3CuO8
_symmetry_space_group_name_H-M   'P 1'
_cell_length_a   8.40059706
_cell_length_b   8.40930854
_cell_length_c   8.42585283
_cell_angle_alpha   90.18974577
_cell_angle_beta   90.08294156
_cell_angle_gamma   89.80188246
_symmetry_Int_Tables_number   1
_chemical_formula_structural   Li2Fe3CuO8
_chemical_formula_sum   'Li8 Fe12 Cu4 O32'
_cell_volume   595.22187654
_cell_formula_units_Z   4
loop_
 _symmetry_equiv_pos_site_id
 _symmetry_equiv_pos_as_xyz
  1  'x, y, z'
loop_
 _atom_site_type_symbol
 _atom_site_label
 _atom_site_symmetry_multiplicity
 _atom_site_fract_x
 _atom_site_fract_y
 _atom_site_fract_z
 _atom_site_occupancy
  Li  Li0  1  0.004405  0.003846  0.003299  1
  Li  Li1  1  0.244503  0.246179  0.246186  1
  Li  Li2  1  0.253439  0.754223  0.746753  1
  Li  Li3  1  0.496517  0.995606  0.503331  1
  Li  Li4  1  0.506052  0.494983  0.994970  1
  Li  Li5  1  0.744235  0.255092  0.754538  1
  Li  Li6  1  0.754064  0.746162  0.254408  1
  Li  Li7  1  0.996179  0.504495  0.495019  1
  Fe  Fe8  1  0.124361  0.126414  0.624774  1
  Fe  Fe9  1  0.125814  0.376844  0.874137  1
  Fe  Fe10  1  0.126375  0.624957  0.124000  1
  Fe  Fe11  1  0.372991  0.375632  0.623846  1
  Fe  Fe12  1  0.374981  0.623494  0.374078  1
  Fe  Fe13  1  0.376655  0.872805  0.124876  1
  Fe  Fe14  1  0.623628  0.373162  0.375564  1
  Fe  Fe15  1  0.625365  0.123328  0.125984  1
  Fe  Fe16  1  0.626018  0.874996  0.875797  1
  Fe  Fe17  1  0.874468  0.125349  0.376014  1
  Fe  Fe18  1  0.874929  0.876437  0.626097  1
  Fe  Fe19  1  0.875996  0.625876  0.874561  1
  Cu  Cu20  1  0.124251  0.874701  0.374896  1
  Cu  Cu21  1  0.374732  0.124745  0.875590  1
  Cu  Cu22  1  0.624664  0.625244  0.624855  1
  Cu  Cu23  1  0.875366  0.375310  0.125422  1
  O  O24  1  0.117207  0.104531  0.386353  1
  O  O25  1  0.114264  0.882924  0.603813  1
  O  O26  1  0.115175  0.615807  0.884899  1
  O  O27  1  0.144417  0.134142  0.863767  1
  O  O28  1  0.105285  0.387057  0.117235  1
  O  O29  1  0.134975  0.365892  0.634903  1
  O  O30  1  0.136489  0.644902  0.366469  1
  O  O31  1  0.132385  0.862815  0.145565  1
  O  O32  1  0.366141  0.136095  0.645811  1
  O  O33  1  0.364588  0.354389  0.866624  1
  O  O34  1  0.365722  0.634438  0.135440  1
  O  O35  1  0.395313  0.614928  0.616079  1
  O  O36  1  0.353692  0.866362  0.362801  1
  O  O37  1  0.384565  0.385138  0.384576  1
  O  O38  1  0.386407  0.115777  0.105394  1
  O  O39  1  0.383172  0.894865  0.886769  1
  O  O40  1  0.616747  0.396766  0.614300  1
  O  O41  1  0.613122  0.617130  0.395683  1
  O  O42  1  0.615644  0.884846  0.114976  1
  O  O43  1  0.645799  0.365690  0.136253  1
  O  O44  1  0.605082  0.113689  0.883345  1
  O  O45  1  0.635240  0.134431  0.364974  1
  O  O46  1  0.635497  0.853711  0.633035  1
  O  O47  1  0.633282  0.636024  0.854367  1
  O  O48  1  0.866399  0.363806  0.355800  1
  O  O49  1  0.864297  0.144894  0.133155  1
  O  O50  1  0.865389  0.865256  0.864965  1
  O  O51  1  0.894670  0.886320  0.384009  1
  O  O52  1  0.854117  0.632700  0.636245  1
  O  O53  1  0.885336  0.115917  0.615418  1
  O  O54  1  0.887021  0.383609  0.895295  1
  O  O55  1  0.882573  0.605407  0.112827  1
