# generated using pymatgen
data_Li6V3P8O29
_symmetry_space_group_name_H-M   'P 1'
_cell_length_a   9.83588333
_cell_length_b   9.79732474
_cell_length_c   13.90405206
_cell_angle_alpha   89.96985353
_cell_angle_beta   90.12629484
_cell_angle_gamma   59.97996892
_symmetry_Int_Tables_number   1
_chemical_formula_structural   Li6V3P8O29
_chemical_formula_sum   'Li12 V6 P16 O58'
_cell_volume   1160.12121585
_cell_formula_units_Z   2
loop_
 _symmetry_equiv_pos_site_id
 _symmetry_equiv_pos_as_xyz
  1  'x, y, z'
loop_
 _atom_site_type_symbol
 _atom_site_label
 _atom_site_symmetry_multiplicity
 _atom_site_fract_x
 _atom_site_fract_y
 _atom_site_fract_z
 _atom_site_occupancy
  Li  Li0  1  0.910565  0.775697  0.060584  1
  Li  Li1  1  0.668194  0.668313  0.882633  1
  Li  Li2  1  0.777646  0.313485  0.060981  1
  Li  Li3  1  0.314446  0.910657  0.061721  1
  Li  Li4  1  0.664978  0.235814  0.442546  1
  Li  Li5  1  0.332547  0.765160  0.562068  1
  Li  Li6  1  0.676942  0.095444  0.937074  1
  Li  Li7  1  0.226467  0.678619  0.939844  1
  Li  Li8  1  0.094286  0.667895  0.441619  1
  Li  Li9  1  0.231212  0.103549  0.443173  1
  Li  Li10  1  0.095843  0.227882  0.937592  1
  Li  Li11  1  0.965572  0.022705  0.507922  1
  V  V12  1  0.569378  0.430646  0.250630  1
  V  V13  1  0.436223  0.561944  0.749831  1
  V  V14  1  0.567160  0.996633  0.745786  1
  V  V15  1  0.432725  0.002588  0.251901  1
  V  V16  1  0.999944  0.566961  0.251619  1
  V  V17  1  0.997744  0.435162  0.744043  1
  P  P18  1  0.911446  0.770233  0.841701  1
  P  P19  1  0.773888  0.915821  0.341905  1
  P  P20  1  0.915570  0.309804  0.342146  1
  P  P21  1  0.666610  0.666709  0.127053  1
  P  P22  1  0.663398  0.666510  0.627872  1
  P  P23  1  0.772749  0.318493  0.841554  1
  P  P24  1  0.687181  0.225371  0.656269  1
  P  P25  1  0.319983  0.909063  0.843702  1
  P  P26  1  0.679841  0.086628  0.155691  1
  P  P27  1  0.317024  0.770858  0.342676  1
  P  P28  1  0.232564  0.679205  0.158672  1
  P  P29  1  0.333463  0.334548  0.373352  1
  P  P30  1  0.332945  0.331293  0.871167  1
  P  P31  1  0.087957  0.686619  0.656265  1
  P  P32  1  0.227007  0.087653  0.658258  1
  P  P33  1  0.087220  0.232901  0.156630  1
  O  O34  1  0.008199  0.772693  0.565539  1
  O  O35  1  0.916704  0.744656  0.340524  1
  O  O36  1  0.753762  0.000678  0.063759  1
  O  O37  1  0.747802  0.918834  0.844481  1
  O  O38  1  0.890759  0.624852  0.827069  1
  O  O39  1  0.813280  0.674086  0.165760  1
  O  O40  1  0.912654  0.466784  0.331135  1
  O  O41  1  0.002094  0.244468  0.064144  1
  O  O42  1  0.921532  0.332208  0.844252  1
  O  O43  1  0.666215  0.811761  0.675435  1
  O  O44  1  0.620996  0.911845  0.330363  1
  O  O45  1  0.810549  0.518049  0.673114  1
  O  O46  1  0.666388  0.666646  0.018430  1
  O  O47  1  0.656525  0.672301  0.521339  1
  O  O48  1  0.675325  0.511072  0.165143  1
  O  O49  1  0.485630  0.887070  0.829125  1
  O  O50  1  0.513230  0.813567  0.166163  1
  O  O51  1  0.744805  0.337946  0.340090  1
  O  O52  1  0.793134  0.210961  0.750011  1
  O  O53  1  0.774787  0.217629  0.566143  1
  O  O54  1  0.752368  0.244337  0.931325  1
  O  O55  1  0.629077  0.486643  0.825354  1
  O  O56  1  0.510473  0.673067  0.670100  1
  O  O57  1  0.664597  0.251573  0.157374  1
  O  O58  1  0.474091  0.619899  0.328320  1
  O  O59  1  0.337897  0.917843  0.341036  1
  O  O60  1  0.796112  0.991287  0.242750  1
  O  O61  1  0.785630  0.007929  0.424216  1
  O  O62  1  0.228520  0.997208  0.569354  1
  O  O63  1  0.659334  0.086404  0.663739  1
  O  O64  1  0.531890  0.383538  0.667967  1
  O  O65  1  0.334483  0.744802  0.846052  1
  O  O66  1  0.489338  0.320694  0.332428  1
  O  O67  1  0.382133  0.519659  0.177258  1
  O  O68  1  0.244148  0.756462  0.067769  1
  O  O69  1  0.229311  0.771742  0.432032  1
  O  O70  1  0.209023  0.792472  0.249183  1
  O  O71  1  0.253650  0.666948  0.661841  1
  O  O72  1  0.482009  0.180855  0.830591  1
  O  O73  1  0.520013  0.098174  0.175188  1
  O  O74  1  0.334756  0.481785  0.829472  1
  O  O75  1  0.333442  0.334993  0.978474  1
  O  O76  1  0.332916  0.334841  0.480819  1
  O  O77  1  0.190160  0.490433  0.331922  1
  O  O78  1  0.379923  0.092667  0.669891  1
  O  O79  1  0.320601  0.190397  0.332410  1
  O  O80  1  0.083925  0.663612  0.158449  1
  O  O81  1  0.997570  0.792585  0.749913  1
  O  O82  1  0.005239  0.753064  0.931531  1
  O  O83  1  0.095746  0.526839  0.670456  1
  O  O84  1  0.181915  0.334982  0.829581  1
  O  O85  1  0.097678  0.382182  0.176727  1
  O  O86  1  0.251742  0.083716  0.159009  1
  O  O87  1  0.242083  0.003048  0.932889  1
  O  O88  1  0.211455  0.996680  0.751899  1
  O  O89  1  0.084066  0.252205  0.660176  1
  O  O90  1  0.006187  0.205657  0.424928  1
  O  O91  1  0.991611  0.211837  0.243128  1
