# generated using pymatgen
data_Li4Fe3CuO8
_symmetry_space_group_name_H-M   'P 1'
_cell_length_a   5.93153715
_cell_length_b   5.93370775
_cell_length_c   5.97136400
_cell_angle_alpha   119.79699775
_cell_angle_beta   89.95825012
_cell_angle_gamma   120.00804518
_symmetry_Int_Tables_number   1
_chemical_formula_structural   Li4Fe3CuO8
_chemical_formula_sum   'Li4 Fe3 Cu1 O8'
_cell_volume   149.10126613
_cell_formula_units_Z   1
loop_
 _symmetry_equiv_pos_site_id
 _symmetry_equiv_pos_as_xyz
  1  'x, y, z'
loop_
 _atom_site_type_symbol
 _atom_site_label
 _atom_site_symmetry_multiplicity
 _atom_site_fract_x
 _atom_site_fract_y
 _atom_site_fract_z
 _atom_site_occupancy
  Li  Li0  1  0.501599  0.503040  0.500737  1
  Li  Li1  1  0.001258  0.999997  0.500003  1
  Li  Li2  1  0.499190  0.999993  0.499995  1
  Li  Li3  1  0.998561  0.496956  0.499255  1
  Fe  Fe4  1  0.499638  0.000006  0.000012  1
  Fe  Fe5  1  0.999838  0.499839  0.000009  1
  Fe  Fe6  1  0.500008  0.500167  -0.000005  1
  Cu  Cu7  1  0.000078  0.000012  0.000008  1
  O  O8  1  0.256176  0.512448  0.769765  1
  O  O9  1  0.243288  0.985647  0.230533  1
  O  O10  1  0.257909  0.014444  0.769591  1
  O  O11  1  0.756601  0.513044  0.770460  1
  O  O12  1  0.243318  0.486950  0.229530  1
  O  O13  1  0.741840  0.985640  0.230353  1
  O  O14  1  0.756372  0.014263  0.769516  1
  O  O15  1  0.743598  0.487553  0.230230  1
