# generated using pymatgen
data_Li2Ti2MnCr2(PO4)6
_symmetry_space_group_name_H-M   'P 1'
_cell_length_a   8.63886713
_cell_length_b   8.64446019
_cell_length_c   8.64746117
_cell_angle_alpha   119.96890134
_cell_angle_beta   59.94630374
_cell_angle_gamma   120.31074116
_symmetry_Int_Tables_number   1
_chemical_formula_structural   Li2Ti2MnCr2(PO4)6
_chemical_formula_sum   'Li2 Ti2 Mn1 Cr2 P6 O24'
_cell_volume   455.47408694
_cell_formula_units_Z   1
loop_
 _symmetry_equiv_pos_site_id
 _symmetry_equiv_pos_as_xyz
  1  'x, y, z'
loop_
 _atom_site_type_symbol
 _atom_site_label
 _atom_site_symmetry_multiplicity
 _atom_site_fract_x
 _atom_site_fract_y
 _atom_site_fract_z
 _atom_site_occupancy
  Li  Li0  1  0.008496  0.995251  0.988684  1
  Li  Li1  1  0.748728  0.237457  0.352240  1
  Ti  Ti2  1  0.148617  0.432069  0.138718  1
  Ti  Ti3  1  0.859851  0.575857  0.858117  1
  Mn  Mn4  1  0.491824  0.503576  0.502317  1
  Cr  Cr5  1  0.354561  0.069867  0.356761  1
  Cr  Cr6  1  0.642117  0.926911  0.645124  1
  P  P7  1  0.039683  0.248904  0.460680  1
  P  P8  1  0.546630  0.756981  0.251884  1
  P  P9  1  0.250673  0.753416  0.959617  1
  P  P10  1  0.749727  0.249208  0.039767  1
  P  P11  1  0.459232  0.248053  0.751357  1
  P  P12  1  0.955532  0.747114  0.540632  1
  O  O13  1  0.307186  0.932863  0.117129  1
  O  O14  1  0.118218  0.924883  0.503674  1
  O  O15  1  0.048312  0.246600  0.275032  1
  O  O16  1  0.999365  0.428134  0.625439  1
  O  O17  1  0.085129  0.755482  0.937491  1
  O  O18  1  0.523526  0.944111  0.305884  1
  O  O19  1  0.375639  0.582193  0.197091  1
  O  O20  1  0.236103  0.264731  0.440344  1
  O  O21  1  0.554141  0.735558  0.415476  1
  O  O22  1  0.734404  0.755355  0.085010  1
  O  O23  1  0.191138  0.573359  0.004192  1
  O  O24  1  0.412979  0.733138  0.765639  1
  O  O25  1  0.590852  0.265708  0.240212  1
  O  O26  1  0.806268  0.428312  0.000141  1
  O  O27  1  0.266294  0.246599  0.913535  1
  O  O28  1  0.458897  0.265089  0.578829  1
  O  O29  1  0.761526  0.732708  0.556501  1
  O  O30  1  0.490997  0.067803  0.697263  1
  O  O31  1  0.623661  0.427759  0.808723  1
  O  O32  1  0.910045  0.245167  0.072093  1
  O  O33  1  0.988576  0.561766  0.379444  1
  O  O34  1  0.936184  0.752307  0.731499  1
  O  O35  1  0.879610  0.068120  0.493060  1
  O  O36  1  0.695280  0.067588  0.883400  1
