# generated using pymatgen
data_LiMnPH2O5
_symmetry_space_group_name_H-M   'P 1'
_cell_length_a   11.19159534
_cell_length_b   8.29690371
_cell_length_c   5.15638897
_cell_angle_alpha   90.00000000
_cell_angle_beta   90.00000000
_cell_angle_gamma   90.00000000
_symmetry_Int_Tables_number   1
_chemical_formula_structural   LiMnPH2O5
_chemical_formula_sum   'Li4 Mn4 P4 H8 O20'
_cell_volume   478.79953439
_cell_formula_units_Z   4
loop_
 _symmetry_equiv_pos_site_id
 _symmetry_equiv_pos_as_xyz
  1  'x, y, z'
loop_
 _atom_site_type_symbol
 _atom_site_label
 _atom_site_symmetry_multiplicity
 _atom_site_fract_x
 _atom_site_fract_y
 _atom_site_fract_z
 _atom_site_occupancy
  Li  Li0  1  0.189559  0.316655  0.700270  1
  Li  Li1  1  0.310441  0.816655  0.200270  1
  Li  Li2  1  0.689559  0.183345  0.700270  1
  Li  Li3  1  0.810441  0.683345  0.200270  1
  Mn  Mn4  1  0.123061  0.126055  0.194546  1
  Mn  Mn5  1  0.376939  0.626055  0.694546  1
  Mn  Mn6  1  0.623061  0.373945  0.194546  1
  Mn  Mn7  1  0.876939  0.873945  0.694546  1
  P  P8  1  0.171777  0.917286  0.694094  1
  P  P9  1  0.328223  0.417286  0.194094  1
  P  P10  1  0.671777  0.582714  0.694094  1
  P  P11  1  0.828223  0.082714  0.194094  1
  H  H12  1  0.001456  0.558490  0.362922  1
  H  H13  1  0.039826  0.681952  0.151779  1
  H  H14  1  0.460174  0.181952  0.651779  1
  H  H15  1  0.498544  0.058490  0.862922  1
  H  H16  1  0.501456  0.941510  0.362922  1
  H  H17  1  0.539826  0.818048  0.151779  1
  H  H18  1  0.960174  0.318048  0.651779  1
  H  H19  1  0.998544  0.441510  0.862922  1
  O  O20  1  0.018583  0.402540  0.687459  1
  O  O21  1  0.053195  0.832037  0.627292  1
  O  O22  1  0.170743  0.092539  0.581588  1
  O  O23  1  0.189734  0.927094  0.994200  1
  O  O24  1  0.222448  0.322542  0.072120  1
  O  O25  1  0.277552  0.822542  0.572120  1
  O  O26  1  0.310266  0.427094  0.494200  1
  O  O27  1  0.329257  0.592539  0.081588  1
  O  O28  1  0.446805  0.332037  0.127292  1
  O  O29  1  0.481417  0.902540  0.187459  1
  O  O30  1  0.518583  0.097460  0.687459  1
  O  O31  1  0.553195  0.667963  0.627292  1
  O  O32  1  0.670743  0.407461  0.581588  1
  O  O33  1  0.689734  0.572906  0.994200  1
  O  O34  1  0.722448  0.177458  0.072120  1
  O  O35  1  0.777552  0.677458  0.572120  1
  O  O36  1  0.810266  0.072906  0.494200  1
  O  O37  1  0.829257  0.907461  0.081588  1
  O  O38  1  0.946805  0.167963  0.127292  1
  O  O39  1  0.981417  0.597460  0.187459  1
