# generated using pymatgen
data_ZrFeP3PbO12
_symmetry_space_group_name_H-M   'P 1'
_cell_length_a   9.35135702
_cell_length_b   9.35135695
_cell_length_c   9.35135664
_cell_angle_alpha   56.01506596
_cell_angle_beta   56.01506630
_cell_angle_gamma   56.01506865
_symmetry_Int_Tables_number   1
_chemical_formula_structural   ZrFeP3PbO12
_chemical_formula_sum   'Zr2 Fe2 P6 Pb2 O24'
_cell_volume   524.86190422
_cell_formula_units_Z   2
loop_
 _symmetry_equiv_pos_site_id
 _symmetry_equiv_pos_as_xyz
  1  'x, y, z'
loop_
 _atom_site_type_symbol
 _atom_site_label
 _atom_site_symmetry_multiplicity
 _atom_site_fract_x
 _atom_site_fract_y
 _atom_site_fract_z
 _atom_site_occupancy
  Zr  Zr0  1  0.146074  0.146074  0.146074  1
  Zr  Zr1  1  0.646074  0.646074  0.646074  1
  Fe  Fe2  1  0.346543  0.346543  0.346543  1
  Fe  Fe3  1  0.846543  0.846543  0.846543  1
  P  P4  1  0.043928  0.736586  0.474121  1
  P  P5  1  0.474121  0.043928  0.736586  1
  P  P6  1  0.736586  0.474121  0.043928  1
  P  P7  1  0.236586  0.543928  0.974121  1
  P  P8  1  0.543928  0.974121  0.236586  1
  P  P9  1  0.974121  0.236586  0.543928  1
  Pb  Pb10  1  0.987475  0.987475  0.987475  1
  Pb  Pb11  1  0.487475  0.487475  0.487475  1
  O  O12  1  0.140946  0.256115  0.516211  1
  O  O13  1  0.256115  0.516211  0.140946  1
  O  O14  1  0.516211  0.140946  0.256115  1
  O  O15  1  0.078296  0.906778  0.295641  1
  O  O16  1  0.218248  0.559671  0.450805  1
  O  O17  1  0.016211  0.756115  0.640946  1
  O  O18  1  0.295641  0.078296  0.906778  1
  O  O19  1  0.450805  0.218248  0.559671  1
  O  O20  1  0.559671  0.450805  0.218248  1
  O  O21  1  0.217860  0.378646  0.996055  1
  O  O22  1  0.059671  0.718248  0.950805  1
  O  O23  1  0.378646  0.996055  0.217860  1
  O  O24  1  0.640946  0.016211  0.756115  1
  O  O25  1  0.906778  0.295641  0.078296  1
  O  O26  1  0.756115  0.640946  0.016211  1
  O  O27  1  0.406778  0.578296  0.795641  1
  O  O28  1  0.578296  0.795641  0.406778  1
  O  O29  1  0.718248  0.950805  0.059671  1
  O  O30  1  0.996055  0.217860  0.378646  1
  O  O31  1  0.795641  0.406778  0.578296  1
  O  O32  1  0.950805  0.059671  0.718248  1
  O  O33  1  0.496055  0.878646  0.717860  1
  O  O34  1  0.717860  0.496055  0.878646  1
  O  O35  1  0.878646  0.717860  0.496055  1
