# generated using pymatgen
data_CaH16C4(NO)10
_symmetry_space_group_name_H-M   'P 1'
_cell_length_a   9.32090799
_cell_length_b   12.79816793
_cell_length_c   7.74757038
_cell_angle_alpha   90.00000000
_cell_angle_beta   113.51537600
_cell_angle_gamma   90.00000000
_symmetry_Int_Tables_number   1
_chemical_formula_structural   CaH16C4(NO)10
_chemical_formula_sum   'Ca2 H32 C8 N20 O20'
_cell_volume   847.45890287
_cell_formula_units_Z   2
loop_
 _symmetry_equiv_pos_site_id
 _symmetry_equiv_pos_as_xyz
  1  'x, y, z'
loop_
 _atom_site_type_symbol
 _atom_site_label
 _atom_site_symmetry_multiplicity
 _atom_site_fract_x
 _atom_site_fract_y
 _atom_site_fract_z
 _atom_site_occupancy
  Ca  Ca0  1  0.000000  0.000000  0.000000  1
  Ca  Ca1  1  0.000000  0.500000  0.500000  1
  H  H2  1  0.174051  0.193733  0.682584  1
  H  H3  1  0.825949  0.693733  0.817416  1
  H  H4  1  0.825949  0.806267  0.317416  1
  H  H5  1  0.174051  0.306267  0.182584  1
  H  H6  1  0.046893  0.251755  0.468820  1
  H  H7  1  0.953107  0.751755  0.031180  1
  H  H8  1  0.953107  0.748245  0.531180  1
  H  H9  1  0.046893  0.248245  0.968820  1
  H  H10  1  0.278259  0.029541  0.678374  1
  H  H11  1  0.721741  0.529541  0.821626  1
  H  H12  1  0.721741  0.970459  0.321626  1
  H  H13  1  0.278259  0.470459  0.178374  1
  H  H14  1  0.231241  0.964399  0.463386  1
  H  H15  1  0.768759  0.464399  0.036614  1
  H  H16  1  0.768759  0.035601  0.536614  1
  H  H17  1  0.231241  0.535601  0.963386  1
  H  H18  1  0.355634  0.671209  0.401947  1
  H  H19  1  0.644366  0.171209  0.098053  1
  H  H20  1  0.644366  0.328791  0.598053  1
  H  H21  1  0.355634  0.828791  0.901947  1
  H  H22  1  0.148273  0.672827  0.289700  1
  H  H23  1  0.851727  0.172827  0.210300  1
  H  H24  1  0.851727  0.327173  0.710300  1
  H  H25  1  0.148273  0.827173  0.789700  1
  H  H26  1  0.497082  0.818948  0.400107  1
  H  H27  1  0.502918  0.318948  0.099893  1
  H  H28  1  0.502918  0.181052  0.599893  1
  H  H29  1  0.497082  0.681052  0.900107  1
  H  H30  1  0.399641  0.933127  0.283803  1
  H  H31  1  0.600359  0.433127  0.216197  1
  H  H32  1  0.600359  0.066873  0.716197  1
  H  H33  1  0.399641  0.566873  0.783803  1
  C  C34  1  0.129419  0.107756  0.441207  1
  C  C35  1  0.870581  0.607756  0.058793  1
  C  C36  1  0.870581  0.892244  0.558793  1
  C  C37  1  0.129419  0.392244  0.941207  1
  C  C38  1  0.256356  0.809072  0.272498  1
  C  C39  1  0.743644  0.309072  0.227502  1
  C  C40  1  0.743644  0.190928  0.727502  1
  C  C41  1  0.256356  0.690928  0.772498  1
  N  N42  1  0.116887  0.191299  0.540133  1
  N  N43  1  0.883113  0.691299  0.959867  1
  N  N44  1  0.883113  0.808701  0.459867  1
  N  N45  1  0.116887  0.308701  0.040133  1
  N  N46  1  0.221740  0.027853  0.536106  1
  N  N47  1  0.778260  0.527853  0.963894  1
  N  N48  1  0.778260  0.972147  0.463894  1
  N  N49  1  0.221740  0.472147  0.036106  1
  N  N50  1  0.253852  0.709043  0.324861  1
  N  N51  1  0.746148  0.209043  0.175139  1
  N  N52  1  0.746148  0.290957  0.675139  1
  N  N53  1  0.253852  0.790957  0.824861  1
  N  N54  1  0.396139  0.857647  0.324406  1
  N  N55  1  0.603861  0.357647  0.175594  1
  N  N56  1  0.603861  0.142353  0.675594  1
  N  N57  1  0.396139  0.642353  0.824406  1
  N  N58  1  0.350915  0.097290  0.034260  1
  N  N59  1  0.649085  0.597290  0.465740  1
  N  N60  1  0.649085  0.902710  0.965740  1
  N  N61  1  0.350915  0.402710  0.534260  1
  O  O62  1  0.222725  0.048002  0.942270  1
  O  O63  1  0.777275  0.548002  0.557730  1
  O  O64  1  0.777275  0.951998  0.057730  1
  O  O65  1  0.222725  0.451998  0.442270  1
  O  O66  1  0.399158  0.161070  0.943568  1
  O  O67  1  0.600842  0.661070  0.556432  1
  O  O68  1  0.600842  0.838930  0.056432  1
  O  O69  1  0.399158  0.338930  0.443568  1
  O  O70  1  0.426191  0.080652  0.206321  1
  O  O71  1  0.573809  0.580652  0.293679  1
  O  O72  1  0.573809  0.919348  0.793679  1
  O  O73  1  0.426191  0.419348  0.706321  1
  O  O74  1  0.056255  0.105493  0.262915  1
  O  O75  1  0.943745  0.605493  0.237085  1
  O  O76  1  0.943745  0.894507  0.737085  1
  O  O77  1  0.056255  0.394507  0.762915  1
  O  O78  1  0.129289  0.857683  0.179098  1
  O  O79  1  0.870711  0.357683  0.320902  1
  O  O80  1  0.870711  0.142317  0.820902  1
  O  O81  1  0.129289  0.642317  0.679098  1
