# generated using pymatgen
data_Li3Fe4(BO3)4
_symmetry_space_group_name_H-M   'P 1'
_cell_length_a   5.21698238
_cell_length_b   9.12637395
_cell_length_c   11.43367725
_cell_angle_alpha   67.91252183
_cell_angle_beta   77.23465324
_cell_angle_gamma   89.79590786
_symmetry_Int_Tables_number   1
_chemical_formula_structural   Li3Fe4(BO3)4
_chemical_formula_sum   'Li6 Fe8 B8 O24'
_cell_volume   490.05368651
_cell_formula_units_Z   2
loop_
 _symmetry_equiv_pos_site_id
 _symmetry_equiv_pos_as_xyz
  1  'x, y, z'
loop_
 _atom_site_type_symbol
 _atom_site_label
 _atom_site_symmetry_multiplicity
 _atom_site_fract_x
 _atom_site_fract_y
 _atom_site_fract_z
 _atom_site_occupancy
  Li  Li0  1  0.970961  0.953653  0.424430  1
  Li  Li1  1  0.707394  0.716488  0.909404  1
  Li  Li2  1  0.514004  0.499893  0.659253  1
  Li  Li3  1  0.732983  0.750000  0.168476  1
  Li  Li4  1  0.210757  0.218731  0.908894  1
  Li  Li5  1  0.232146  0.253833  0.162183  1
  Fe  Fe6  1  0.984258  0.635854  0.384587  1
  Fe  Fe7  1  0.732175  0.065293  0.874385  1
  Fe  Fe8  1  0.515278  0.849786  0.633808  1
  Fe  Fe9  1  0.751108  0.435248  0.130034  1
  Fe  Fe10  1  0.234019  0.563395  0.879608  1
  Fe  Fe11  1  0.479025  0.149697  0.387847  1
  Fe  Fe12  1  0.032751  0.342064  0.621814  1
  Fe  Fe13  1  0.261978  0.926701  0.137558  1
  B  B14  1  0.979516  0.307578  0.374636  1
  B  B15  1  0.725582  0.392440  0.879061  1
  B  B16  1  0.525321  0.187680  0.634130  1
  B  B17  1  0.767290  0.108223  0.121669  1
  B  B18  1  0.481312  0.827730  0.371153  1
  B  B19  1  0.228804  0.898288  0.880939  1
  B  B20  1  0.016596  0.679529  0.628335  1
  B  B21  1  0.268318  0.605130  0.123973  1
  O  O22  1  0.963143  0.898139  0.883724  1
  O  O23  1  0.879635  0.273886  0.857293  1
  O  O24  1  0.831165  0.502220  0.916716  1
  O  O25  1  0.897541  0.817608  0.615092  1
  O  O26  1  0.901635  0.562835  0.598781  1
  O  O27  1  0.746949  0.152184  0.686460  1
  O  O28  1  0.742783  0.321981  0.335779  1
  O  O29  1  0.471166  0.395140  0.863634  1
  O  O30  1  0.381312  0.788933  0.847717  1
  O  O31  1  0.577982  0.937158  0.415895  1
  O  O32  1  0.636786  0.717238  0.350948  1
  O  O33  1  0.347168  0.010644  0.913724  1
  O  O34  1  0.658504  0.998555  0.081351  1
  O  O35  1  0.395534  0.315126  0.639377  1
  O  O36  1  0.447341  0.090429  0.576585  1
  O  O37  1  0.596672  0.202235  0.169902  1
  O  O38  1  0.539359  0.623529  0.108906  1
  O  O39  1  0.255521  0.657172  0.667279  1
  O  O40  1  0.231040  0.844039  0.344772  1
  O  O41  1  0.066863  0.410721  0.420347  1
  O  O42  1  0.126759  0.183384  0.362307  1
  O  O43  1  0.161780  0.485233  0.095927  1
  O  O44  1  0.105664  0.708076  0.162613  1
  O  O45  1  0.033516  0.121264  0.111739  1
