# generated using pymatgen
data_SrSc2O4
_symmetry_space_group_name_H-M   'P 1'
_cell_length_a   6.60688676
_cell_length_b   6.60688676
_cell_length_c   6.60688676
_cell_angle_alpha   120.27145161
_cell_angle_beta   120.27145161
_cell_angle_gamma   89.53047155
_symmetry_Int_Tables_number   1
_chemical_formula_structural   SrSc2O4
_chemical_formula_sum   'Sr2 Sc4 O8'
_cell_volume   203.08330188
_cell_formula_units_Z   2
loop_
 _symmetry_equiv_pos_site_id
 _symmetry_equiv_pos_as_xyz
  1  'x, y, z'
loop_
 _atom_site_type_symbol
 _atom_site_label
 _atom_site_symmetry_multiplicity
 _atom_site_fract_x
 _atom_site_fract_y
 _atom_site_fract_z
 _atom_site_occupancy
  Sr  Sr0  1  0.375000  0.125000  0.250000  1
  Sr  Sr1  1  0.625000  0.875000  0.750000  1
  Sc  Sc2  1  0.500000  0.500000  0.000000  1
  Sc  Sc3  1  0.000000  0.000000  0.500000  1
  Sc  Sc4  1  0.000000  0.500000  0.000000  1
  Sc  Sc5  1  0.000000  0.500000  0.500000  1
  O  O6  1  0.771201  0.309702  0.039085  1
  O  O7  1  0.809702  0.270618  0.538501  1
  O  O8  1  0.232117  0.271201  0.961499  1
  O  O9  1  0.229382  0.267883  0.539085  1
  O  O10  1  0.770618  0.732117  0.460915  1
  O  O11  1  0.767883  0.728799  0.038501  1
  O  O12  1  0.190298  0.729382  0.461499  1
  O  O13  1  0.228799  0.690298  0.960915  1
