# generated using pymatgen
data_Sn(PO3)2
_symmetry_space_group_name_H-M   'P 1'
_cell_length_a   8.04830141
_cell_length_b   15.04507063
_cell_length_c   5.29785846
_cell_angle_alpha   90.00000000
_cell_angle_beta   108.59726601
_cell_angle_gamma   90.00000000
_symmetry_Int_Tables_number   1
_chemical_formula_structural   Sn(PO3)2
_chemical_formula_sum   'Sn4 P8 O24'
_cell_volume   608.00621277
_cell_formula_units_Z   4
loop_
 _symmetry_equiv_pos_site_id
 _symmetry_equiv_pos_as_xyz
  1  'x, y, z'
loop_
 _atom_site_type_symbol
 _atom_site_label
 _atom_site_symmetry_multiplicity
 _atom_site_fract_x
 _atom_site_fract_y
 _atom_site_fract_z
 _atom_site_occupancy
  Sn  Sn0  1  0.231436  0.937532  0.843663  1
  Sn  Sn1  1  0.268564  0.437532  0.656337  1
  Sn  Sn2  1  0.731436  0.562468  0.343663  1
  Sn  Sn3  1  0.768564  0.062468  0.156337  1
  P  P4  1  0.061463  0.336266  0.078847  1
  P  P5  1  0.201255  0.156354  0.167292  1
  P  P6  1  0.298745  0.656354  0.332708  1
  P  P7  1  0.438536  0.836266  0.421153  1
  P  P8  1  0.561464  0.163734  0.578847  1
  P  P9  1  0.701255  0.343646  0.667292  1
  P  P10  1  0.798745  0.843646  0.832708  1
  P  P11  1  0.938536  0.663734  0.921153  1
  O  O12  1  0.952334  0.867303  0.742045  1
  O  O13  1  0.161212  0.251046  0.008074  1
  O  O14  1  0.124674  0.417006  0.965979  1
  O  O15  1  0.265190  0.092739  0.001299  1
  O  O16  1  0.088696  0.339066  0.375879  1
  O  O17  1  0.140091  0.685211  0.067842  1
  O  O18  1  0.234810  0.592739  0.498701  1
  O  O19  1  0.375326  0.917006  0.534021  1
  O  O20  1  0.338788  0.751046  0.491926  1
  O  O21  1  0.359909  0.185211  0.432158  1
  O  O22  1  0.547666  0.367303  0.757955  1
  O  O23  1  0.411304  0.839066  0.124121  1
  O  O24  1  0.588696  0.160934  0.875879  1
  O  O25  1  0.452334  0.632697  0.242045  1
  O  O26  1  0.640091  0.814789  0.567842  1
  O  O27  1  0.661212  0.248954  0.508074  1
  O  O28  1  0.624674  0.082994  0.465979  1
  O  O29  1  0.765190  0.407261  0.501299  1
  O  O30  1  0.859909  0.314789  0.932158  1
  O  O31  1  0.911304  0.660934  0.624121  1
  O  O32  1  0.734810  0.907261  0.998701  1
  O  O33  1  0.875326  0.582994  0.034021  1
  O  O34  1  0.838788  0.748954  0.991926  1
  O  O35  1  0.047666  0.132697  0.257955  1
