# generated using pymatgen
data_Li12Mn3FeP4(CO7)4
_symmetry_space_group_name_H-M   'P 1'
_cell_length_a   8.53562086
_cell_length_b   10.01150978
_cell_length_c   6.59421735
_cell_angle_alpha   90.00000000
_cell_angle_beta   90.00000000
_cell_angle_gamma   85.46800808
_symmetry_Int_Tables_number   1
_chemical_formula_structural   Li12Mn3FeP4(CO7)4
_chemical_formula_sum   'Li12 Mn3 Fe1 P4 C4 O28'
_cell_volume   561.74335557
_cell_formula_units_Z   1
loop_
 _symmetry_equiv_pos_site_id
 _symmetry_equiv_pos_as_xyz
  1  'x, y, z'
loop_
 _atom_site_type_symbol
 _atom_site_label
 _atom_site_symmetry_multiplicity
 _atom_site_fract_x
 _atom_site_fract_y
 _atom_site_fract_z
 _atom_site_occupancy
  Li  Li0  1  0.090692  0.378766  0.250000  1
  Li  Li1  1  0.091244  0.878906  0.250000  1
  Li  Li2  1  0.273183  0.122941  0.026944  1
  Li  Li3  1  0.273183  0.122941  0.473056  1
  Li  Li4  1  0.273467  0.623042  0.027235  1
  Li  Li5  1  0.273467  0.623042  0.472765  1
  Li  Li6  1  0.726878  0.376782  0.525720  1
  Li  Li7  1  0.726878  0.376782  0.974280  1
  Li  Li8  1  0.726717  0.876894  0.525935  1
  Li  Li9  1  0.726717  0.876894  0.974065  1
  Li  Li10  1  0.909099  0.121245  0.750000  1
  Li  Li11  1  0.909873  0.621458  0.750000  1
  Mn  Mn12  1  0.340580  0.389542  0.750000  1
  Mn  Mn13  1  0.340440  0.890015  0.750000  1
  Mn  Mn14  1  0.659201  0.110123  0.250000  1
  Fe  Fe15  1  0.663477  0.606713  0.250000  1
  P  P16  1  0.409692  0.360349  0.250000  1
  P  P17  1  0.411325  0.859269  0.250000  1
  P  P18  1  0.589959  0.140117  0.750000  1
  P  P19  1  0.589352  0.640606  0.750000  1
  C  C20  1  0.032959  0.352223  0.750000  1
  C  C21  1  0.033021  0.852231  0.750000  1
  C  C22  1  0.967164  0.147697  0.250000  1
  C  C23  1  0.966009  0.648152  0.250000  1
  O  O24  1  0.070019  0.475285  0.750000  1
  O  O25  1  0.112854  0.177018  0.250000  1
  O  O26  1  0.070030  0.975167  0.750000  1
  O  O27  1  0.144237  0.255267  0.750000  1
  O  O28  1  0.111623  0.677032  0.250000  1
  O  O29  1  0.144329  0.755160  0.750000  1
  O  O30  1  0.309973  0.413528  0.065716  1
  O  O31  1  0.309973  0.413528  0.434284  1
  O  O32  1  0.310643  0.912688  0.066067  1
  O  O33  1  0.310643  0.912688  0.433933  1
  O  O34  1  0.420619  0.094198  0.750000  1
  O  O35  1  0.424138  0.203496  0.250000  1
  O  O36  1  0.420829  0.593956  0.750000  1
  O  O37  1  0.427017  0.702141  0.250000  1
  O  O38  1  0.576021  0.297088  0.750000  1
  O  O39  1  0.578728  0.407079  0.250000  1
  O  O40  1  0.576240  0.797073  0.750000  1
  O  O41  1  0.579173  0.907688  0.250000  1
  O  O42  1  0.689625  0.086646  0.934115  1
  O  O43  1  0.689625  0.086646  0.565885  1
  O  O44  1  0.688676  0.587275  0.563873  1
  O  O45  1  0.688676  0.587275  0.936127  1
  O  O46  1  0.855634  0.244810  0.250000  1
  O  O47  1  0.887003  0.323157  0.750000  1
  O  O48  1  0.853842  0.744675  0.250000  1
  O  O49  1  0.930023  0.024730  0.250000  1
  O  O50  1  0.887090  0.822889  0.750000  1
  O  O51  1  0.928138  0.525086  0.250000  1
