# generated using pymatgen
data_Ni2PO5
_symmetry_space_group_name_H-M   'P 1'
_cell_length_a   7.18161437
_cell_length_b   6.35960242
_cell_length_c   7.48946779
_cell_angle_alpha   89.99950597
_cell_angle_beta   90.00638821
_cell_angle_gamma   90.00097294
_symmetry_Int_Tables_number   1
_chemical_formula_structural   Ni2PO5
_chemical_formula_sum   'Ni8 P4 O20'
_cell_volume   342.06055960
_cell_formula_units_Z   4
loop_
 _symmetry_equiv_pos_site_id
 _symmetry_equiv_pos_as_xyz
  1  'x, y, z'
loop_
 _atom_site_type_symbol
 _atom_site_label
 _atom_site_symmetry_multiplicity
 _atom_site_fract_x
 _atom_site_fract_y
 _atom_site_fract_z
 _atom_site_occupancy
  Ni  Ni0  1  0.000005  -0.000006  0.000002  1
  Ni  Ni1  1  0.000005  0.500006  0.000002  1
  Ni  Ni2  1  0.144557  0.250006  0.723638  1
  Ni  Ni3  1  0.355544  0.749995  0.223514  1
  Ni  Ni4  1  0.499987  0.000005  0.500006  1
  Ni  Ni5  1  0.499986  0.499995  0.500003  1
  Ni  Ni6  1  0.644511  0.250006  0.776473  1
  Ni  Ni7  1  0.855446  0.749992  0.276370  1
  P  P8  1  0.119100  0.750002  0.638056  1
  P  P9  1  0.380892  0.249999  0.138049  1
  P  P10  1  0.619113  0.750000  0.861940  1
  P  P11  1  0.880895  0.249996  0.361948  1
  O  O12  1  0.055083  0.250004  0.474530  1
  O  O13  1  0.098816  0.749982  0.138775  1
  O  O14  1  0.131666  0.942811  0.766721  1
  O  O15  1  0.131668  0.557197  0.766729  1
  O  O16  1  0.199003  0.250003  0.020984  1
  O  O17  1  0.301057  0.749996  0.521003  1
  O  O18  1  0.368353  0.057138  0.266701  1
  O  O19  1  0.368362  0.442857  0.266704  1
  O  O20  1  0.401136  0.250007  0.638713  1
  O  O21  1  0.444871  0.749997  0.974504  1
  O  O22  1  0.555134  0.250003  0.025486  1
  O  O23  1  0.598832  0.749996  0.361284  1
  O  O24  1  0.631634  0.557144  0.733289  1
  O  O25  1  0.631643  0.942862  0.733292  1
  O  O26  1  0.698928  0.250004  0.478994  1
  O  O27  1  0.800997  0.749998  0.979015  1
  O  O28  1  0.868332  0.057187  0.233285  1
  O  O29  1  0.868330  0.442803  0.233278  1
  O  O30  1  0.901217  0.250019  0.861216  1
  O  O31  1  0.944898  0.749995  0.525494  1
