# generated using pymatgen
data_Li3V3P8O29
_symmetry_space_group_name_H-M   'P 1'
_cell_length_a   9.77576162
_cell_length_b   9.79948349
_cell_length_c   14.42803041
_cell_angle_alpha   89.12888453
_cell_angle_beta   89.00104128
_cell_angle_gamma   59.99000234
_symmetry_Int_Tables_number   1
_chemical_formula_structural   Li3V3P8O29
_chemical_formula_sum   'Li6 V6 P16 O58'
_cell_volume   1196.65654000
_cell_formula_units_Z   2
loop_
 _symmetry_equiv_pos_site_id
 _symmetry_equiv_pos_as_xyz
  1  'x, y, z'
loop_
 _atom_site_type_symbol
 _atom_site_label
 _atom_site_symmetry_multiplicity
 _atom_site_fract_x
 _atom_site_fract_y
 _atom_site_fract_z
 _atom_site_occupancy
  Li  Li0  1  0.075678  0.216309  0.949112  1
  Li  Li1  1  0.229213  0.078481  0.433447  1
  Li  Li2  1  0.226696  0.692613  0.943586  1
  Li  Li3  1  0.912285  0.308385  0.546251  1
  Li  Li4  1  0.782949  0.916457  0.555209  1
  Li  Li5  1  0.905523  0.777519  0.062417  1
  V  V6  1  0.006270  0.565874  0.255944  1
  V  V7  1  0.437813  0.992468  0.244048  1
  V  V8  1  0.438612  0.566366  0.745446  1
  V  V9  1  0.565387  0.433355  0.250435  1
  V  V10  1  0.563471  0.006346  0.754399  1
  V  V11  1  0.998857  0.433908  0.750184  1
  P  P12  1  0.090138  0.233892  0.160463  1
  P  P13  1  0.233232  0.089728  0.655168  1
  P  P14  1  0.089921  0.684068  0.662796  1
  P  P15  1  0.335660  0.324742  0.369258  1
  P  P16  1  0.326589  0.337703  0.867614  1
  P  P17  1  0.231002  0.683968  0.158912  1
  P  P18  1  0.311381  0.770531  0.339282  1
  P  P19  1  0.686524  0.089902  0.163808  1
  P  P20  1  0.312631  0.913019  0.833891  1
  P  P21  1  0.688459  0.228652  0.662888  1
  P  P22  1  0.767519  0.313990  0.844335  1
  P  P23  1  0.675016  0.662129  0.131387  1
  P  P24  1  0.672211  0.670013  0.632715  1
  P  P25  1  0.907870  0.319252  0.336647  1
  P  P26  1  0.765691  0.913556  0.341987  1
  P  P27  1  0.911478  0.768200  0.841129  1
  O  O28  1  0.997387  0.239779  0.423057  1
  O  O29  1  0.082624  0.256084  0.666575  1
  O  O30  1  0.218632  0.985206  0.738004  1
  O  O31  1  0.223808  0.008975  0.914919  1
  O  O32  1  0.097974  0.384328  0.180759  1
  O  O33  1  0.258400  0.088463  0.171072  1
  O  O34  1  0.179921  0.333963  0.824082  1
  O  O35  1  0.096137  0.523066  0.679823  1
  O  O36  1  0.991040  0.757444  0.930622  1
  O  O37  1  0.083176  0.662413  0.167279  1
  O  O38  1  0.334057  0.177252  0.330589  1
  O  O39  1  0.183070  0.476261  0.325083  1
  O  O40  1  0.383705  0.097495  0.679866  1
  O  O41  1  0.323894  0.332370  0.471888  1
  O  O42  1  0.318090  0.330764  0.970046  1
  O  O43  1  0.524650  0.094769  0.177869  1
  O  O44  1  0.329176  0.486097  0.828695  1
  O  O45  1  0.476768  0.187192  0.823418  1
  O  O46  1  0.260680  0.654657  0.667917  1
  O  O47  1  0.212895  0.794694  0.244053  1
  O  O48  1  0.233478  0.753239  0.067097  1
  O  O49  1  0.226801  0.769915  0.424120  1
  O  O50  1  0.382253  0.523415  0.178379  1
  O  O51  1  0.478740  0.332935  0.324473  1
  O  O52  1  0.660813  0.085611  0.664110  1
  O  O53  1  0.339115  0.743259  0.836022  1
  O  O54  1  0.524997  0.382769  0.677944  1
  O  O55  1  0.239442  0.022981  0.563045  1
  O  O56  1  0.761784  0.982681  0.432752  1
  O  O57  1  0.472422  0.615934  0.320969  1
  O  O58  1  0.654988  0.260431  0.167185  1
  O  O59  1  0.783465  0.013848  0.258702  1
  O  O60  1  0.341181  0.913612  0.333200  1
  O  O61  1  0.523098  0.666840  0.677020  1
  O  O62  1  0.614851  0.474005  0.820334  1
  O  O63  1  0.764079  0.239059  0.932466  1
  O  O64  1  0.773053  0.236445  0.578789  1
  O  O65  1  0.787510  0.206026  0.755049  1
  O  O66  1  0.740358  0.342928  0.334062  1
  O  O67  1  0.524206  0.814416  0.175686  1
  O  O68  1  0.476427  0.904626  0.820144  1
  O  O69  1  0.666516  0.519911  0.176669  1
  O  O70  1  0.681628  0.656577  0.530322  1
  O  O71  1  0.667790  0.671850  0.028689  1
  O  O72  1  0.615996  0.903654  0.320677  1
  O  O73  1  0.818423  0.517798  0.676657  1
  O  O74  1  0.669114  0.819979  0.670755  1
  O  O75  1  0.913306  0.340321  0.834295  1
  O  O76  1  0.996154  0.212955  0.247951  1
  O  O77  1  0.014597  0.237895  0.072115  1
  O  O78  1  0.899411  0.480897  0.321681  1
  O  O79  1  0.823265  0.664237  0.168983  1
  O  O80  1  0.743663  0.913469  0.830648  1
  O  O81  1  0.901384  0.617925  0.821476  1
  O  O82  1  0.775867  0.995305  0.082423  1
  O  O83  1  0.910671  0.744664  0.328434  1
  O  O84  1  0.996379  0.770317  0.581170  1
  O  O85  1  0.011616  0.784718  0.757115  1
