# generated using pymatgen
data_Fe3(PO4)2
_symmetry_space_group_name_H-M   'P 1'
_cell_length_a   8.91577965
_cell_length_b   10.08226982
_cell_length_c   21.05642310
_cell_angle_alpha   90.00000000
_cell_angle_beta   99.04182164
_cell_angle_gamma   90.00000000
_symmetry_Int_Tables_number   1
_chemical_formula_structural   Fe3(PO4)2
_chemical_formula_sum   'Fe36 P24 O96'
_cell_volume   1869.26916229
_cell_formula_units_Z   12
loop_
 _symmetry_equiv_pos_site_id
 _symmetry_equiv_pos_as_xyz
  1  'x, y, z'
loop_
 _atom_site_type_symbol
 _atom_site_label
 _atom_site_symmetry_multiplicity
 _atom_site_fract_x
 _atom_site_fract_y
 _atom_site_fract_z
 _atom_site_occupancy
  Fe  Fe0  1  0.064890  0.906817  0.940276  1
  Fe  Fe1  1  0.096994  0.395579  0.892198  1
  Fe  Fe2  1  0.039890  0.214549  0.542367  1
  Fe  Fe3  1  0.108919  0.614766  0.583347  1
  Fe  Fe4  1  0.206157  0.582213  0.782688  1
  Fe  Fe5  1  0.042337  0.113561  0.243932  1
  Fe  Fe6  1  0.103117  0.704007  0.296121  1
  Fe  Fe7  1  0.293843  0.082213  0.717312  1
  Fe  Fe8  1  0.391081  0.114766  0.916653  1
  Fe  Fe9  1  0.460110  0.714549  0.957633  1
  Fe  Fe10  1  0.235832  0.279497  0.359386  1
  Fe  Fe11  1  0.276595  0.878093  0.425106  1
  Fe  Fe12  1  0.403006  0.895579  0.607802  1
  Fe  Fe13  1  0.223405  0.378093  0.074894  1
  Fe  Fe14  1  0.264168  0.779497  0.140614  1
  Fe  Fe15  1  0.435110  0.406817  0.559724  1
  Fe  Fe16  1  0.542337  0.386439  0.743932  1
  Fe  Fe17  1  0.603117  0.795993  0.796121  1
  Fe  Fe18  1  0.396883  0.204007  0.203879  1
  Fe  Fe19  1  0.457663  0.613561  0.256068  1
  Fe  Fe20  1  0.564890  0.593183  0.440276  1
  Fe  Fe21  1  0.735832  0.220503  0.859386  1
  Fe  Fe22  1  0.776595  0.621907  0.925106  1
  Fe  Fe23  1  0.596994  0.104421  0.392198  1
  Fe  Fe24  1  0.723405  0.121907  0.574894  1
  Fe  Fe25  1  0.764168  0.720503  0.640614  1
  Fe  Fe26  1  0.539890  0.285451  0.042367  1
  Fe  Fe27  1  0.608919  0.885234  0.083347  1
  Fe  Fe28  1  0.706157  0.917787  0.282688  1
  Fe  Fe29  1  0.896883  0.295993  0.703879  1
  Fe  Fe30  1  0.957663  0.886439  0.756068  1
  Fe  Fe31  1  0.793843  0.417787  0.217312  1
  Fe  Fe32  1  0.891081  0.385234  0.416653  1
  Fe  Fe33  1  0.960110  0.785451  0.457633  1
  Fe  Fe34  1  0.903006  0.604421  0.107802  1
  Fe  Fe35  1  0.935110  0.093183  0.059724  1
  P  P36  1  0.050018  0.130073  0.828189  1
  P  P37  1  0.129433  0.644987  0.999033  1
  P  P38  1  0.033104  0.924498  0.605921  1
  P  P39  1  0.192217  0.357210  0.669474  1
  P  P40  1  0.307783  0.857210  0.830526  1
  P  P41  1  0.198764  0.555341  0.439274  1
  P  P42  1  0.151007  0.431519  0.217808  1
  P  P43  1  0.466896  0.424498  0.894079  1
  P  P44  1  0.370567  0.144987  0.500967  1
  P  P45  1  0.449982  0.630073  0.671811  1
  P  P46  1  0.348993  0.931519  0.282192  1
  P  P47  1  0.301236  0.055341  0.060726  1
  P  P48  1  0.698764  0.944659  0.939274  1
  P  P49  1  0.651007  0.068481  0.717808  1
  P  P50  1  0.550018  0.369927  0.328189  1
  P  P51  1  0.629433  0.855013  0.499033  1
  P  P52  1  0.533104  0.575502  0.105921  1
  P  P53  1  0.848993  0.568481  0.782192  1
  P  P54  1  0.801236  0.444659  0.560726  1
  P  P55  1  0.692217  0.142790  0.169474  1
  P  P56  1  0.807783  0.642790  0.330526  1
  P  P57  1  0.966896  0.075502  0.394079  1
  P  P58  1  0.870567  0.355013  0.000967  1
  P  P59  1  0.949982  0.869927  0.171811  1
  O  O60  1  0.001959  0.533525  0.825101  1
  O  O61  1  0.156278  0.497529  0.982983  1
  O  O62  1  0.099661  0.074180  0.765999  1
  O  O63  1  0.079319  0.243386  0.646732  1
  O  O64  1  0.112169  0.443101  0.715262  1
  O  O65  1  0.180403  0.200071  0.874779  1
  O  O66  1  0.054360  0.815248  0.556501  1
  O  O67  1  0.159941  0.788702  0.794613  1
  O  O68  1  0.254773  0.739423  0.983891  1
  O  O69  1  0.058871  0.957381  0.429411  1
  O  O70  1  0.087878  0.608966  0.483443  1
  O  O71  1  0.058958  0.135096  0.344037  1
  O  O72  1  0.272723  0.937047  0.889149  1
  O  O73  1  0.193393  0.969148  0.638156  1
  O  O74  1  0.122013  0.429735  0.403093  1
  O  O75  1  0.025502  0.985054  0.139781  1
  O  O76  1  0.306607  0.469148  0.861844  1
  O  O77  1  0.227277  0.437047  0.610851  1
  O  O78  1  0.015776  0.294178  0.042803  1
  O  O79  1  0.071169  0.759444  0.191745  1
  O  O80  1  0.119997  0.319792  0.264421  1
  O  O81  1  0.245227  0.239423  0.516109  1
  O  O82  1  0.220444  0.668433  0.391731  1
  O  O83  1  0.340059  0.288702  0.705387  1
  O  O84  1  0.445640  0.315248  0.943499  1
  O  O85  1  0.319597  0.700071  0.625221  1
  O  O86  1  0.387831  0.943101  0.784738  1
  O  O87  1  0.116598  0.653106  0.072502  1
  O  O88  1  0.420681  0.743386  0.853268  1
  O  O89  1  0.233822  0.882310  0.325138  1
  O  O90  1  0.400339  0.574180  0.734001  1
  O  O91  1  0.225712  0.553793  0.256279  1
  O  O92  1  0.145447  0.020680  0.021287  1
  O  O93  1  0.343722  0.997529  0.517017  1
  O  O94  1  0.354553  0.520680  0.478713  1
  O  O95  1  0.274288  0.053793  0.243721  1
  O  O96  1  0.266178  0.382310  0.174862  1
  O  O97  1  0.558871  0.542619  0.929411  1
  O  O98  1  0.587878  0.891034  0.983443  1
  O  O99  1  0.383402  0.153106  0.427498  1
  O  O100  1  0.558958  0.364904  0.844037  1
  O  O101  1  0.279556  0.168433  0.108269  1
  O  O102  1  0.498041  0.033525  0.674899  1
  O  O103  1  0.622013  0.070265  0.903093  1
  O  O104  1  0.525502  0.514946  0.639781  1
  O  O105  1  0.380003  0.819792  0.235579  1
  O  O106  1  0.515776  0.205822  0.542803  1
  O  O107  1  0.571169  0.740556  0.691745  1
  O  O108  1  0.428831  0.259444  0.308255  1
  O  O109  1  0.484224  0.794178  0.457197  1
  O  O110  1  0.619997  0.180208  0.764421  1
  O  O111  1  0.474498  0.485054  0.360219  1
  O  O112  1  0.377987  0.929735  0.096907  1
  O  O113  1  0.501959  0.966475  0.325101  1
  O  O114  1  0.720444  0.831567  0.891731  1
  O  O115  1  0.441042  0.635096  0.155963  1
  O  O116  1  0.616598  0.846894  0.572502  1
  O  O117  1  0.412122  0.108966  0.016557  1
  O  O118  1  0.441129  0.457381  0.070589  1
  O  O119  1  0.733822  0.617690  0.825138  1
  O  O120  1  0.725712  0.946207  0.756279  1
  O  O121  1  0.645447  0.479320  0.521286  1
  O  O122  1  0.656278  0.002471  0.482983  1
  O  O123  1  0.854553  0.979320  0.978714  1
  O  O124  1  0.774288  0.446207  0.743721  1
  O  O125  1  0.599661  0.425820  0.265999  1
  O  O126  1  0.766178  0.117690  0.674862  1
  O  O127  1  0.579319  0.256614  0.146732  1
  O  O128  1  0.883402  0.346894  0.927498  1
  O  O129  1  0.612169  0.056899  0.215262  1
  O  O130  1  0.680403  0.299929  0.374779  1
  O  O131  1  0.554360  0.684752  0.056501  1
  O  O132  1  0.659941  0.711298  0.294613  1
  O  O133  1  0.779556  0.331567  0.608269  1
  O  O134  1  0.754773  0.760577  0.483891  1
  O  O135  1  0.880003  0.680208  0.735579  1
  O  O136  1  0.928831  0.240556  0.808255  1
  O  O137  1  0.984224  0.705822  0.957197  1
  O  O138  1  0.772723  0.562953  0.389149  1
  O  O139  1  0.693393  0.530852  0.138156  1
  O  O140  1  0.974498  0.014946  0.860219  1
  O  O141  1  0.877987  0.570265  0.596907  1
  O  O142  1  0.806607  0.030852  0.361844  1
  O  O143  1  0.727277  0.062953  0.110851  1
  O  O144  1  0.941042  0.864904  0.655963  1
  O  O145  1  0.912122  0.391034  0.516557  1
  O  O146  1  0.941129  0.042619  0.570589  1
  O  O147  1  0.745227  0.260577  0.016109  1
  O  O148  1  0.840059  0.211298  0.205387  1
  O  O149  1  0.945640  0.184752  0.443499  1
  O  O150  1  0.819597  0.799929  0.125221  1
  O  O151  1  0.887831  0.556899  0.284738  1
  O  O152  1  0.920681  0.756614  0.353268  1
  O  O153  1  0.900339  0.925820  0.234001  1
  O  O154  1  0.843722  0.502471  0.017017  1
  O  O155  1  0.998041  0.466475  0.174899  1
