# generated using pymatgen
data_Mg5Al4Fe(SiO4)6
_symmetry_space_group_name_H-M   'P 1'
_cell_length_a   7.28909461
_cell_length_b   14.64873050
_cell_length_c   8.91684171
_cell_angle_alpha   113.38956459
_cell_angle_beta   113.23142142
_cell_angle_gamma   84.46490117
_symmetry_Int_Tables_number   1
_chemical_formula_structural   Mg5Al4Fe(SiO4)6
_chemical_formula_sum   'Mg10 Al8 Fe2 Si12 O48'
_cell_volume   800.96978617
_cell_formula_units_Z   2
loop_
 _symmetry_equiv_pos_site_id
 _symmetry_equiv_pos_as_xyz
  1  'x, y, z'
loop_
 _atom_site_type_symbol
 _atom_site_label
 _atom_site_symmetry_multiplicity
 _atom_site_fract_x
 _atom_site_fract_y
 _atom_site_fract_z
 _atom_site_occupancy
  Mg  Mg0  1  0.978433  -0.001689  0.973269  1
  Mg  Mg1  1  0.048827  0.275764  0.047448  1
  Mg  Mg2  1  0.039736  0.772903  0.025310  1
  Mg  Mg3  1  0.276185  0.145749  0.496879  1
  Mg  Mg4  1  0.307895  0.648378  0.539845  1
  Mg  Mg5  1  0.510034  0.506856  0.974400  1
  Mg  Mg6  1  0.763919  0.384444  0.482281  1
  Mg  Mg7  1  0.755226  0.875642  0.463632  1
  Mg  Mg8  1  0.731785  0.110922  0.475841  1
  Mg  Mg9  1  0.731364  0.616383  0.469043  1
  Al  Al10  1  0.109652  0.067616  0.720773  1
  Al  Al11  1  0.113327  0.563805  0.725162  1
  Al  Al12  1  0.427503  0.440338  0.243440  1
  Al  Al13  1  0.418647  0.934756  0.228069  1
  Al  Al14  1  0.627550  0.335024  0.741550  1
  Al  Al15  1  0.635638  0.842047  0.741669  1
  Al  Al16  1  0.801346  0.176276  0.226988  1
  Al  Al17  1  0.888610  0.678769  0.226815  1
  Fe  Fe18  1  0.981316  0.484934  0.966349  1
  Fe  Fe19  1  0.482724  0.990017  0.944697  1
  Si  Si20  1  0.018700  0.281243  0.667711  1
  Si  Si21  1  0.026296  0.784059  0.676136  1
  Si  Si22  1  0.309329  0.384969  0.485928  1
  Si  Si23  1  0.307407  0.888328  0.484757  1
  Si  Si24  1  0.331328  0.135125  0.165926  1
  Si  Si25  1  0.313796  0.636070  0.173549  1
  Si  Si26  1  0.669338  0.080256  0.768655  1
  Si  Si27  1  0.676398  0.574296  0.768244  1
  Si  Si28  1  0.519342  0.284224  0.987495  1
  Si  Si29  1  0.526155  0.771966  0.987842  1
  Si  Si30  1  0.904278  0.462748  0.272158  1
  Si  Si31  1  0.898691  0.960824  0.262495  1
  O  O32  1  0.141995  0.182010  0.679750  1
  O  O33  1  0.141656  0.683049  0.689930  1
  O  O34  1  0.092443  0.397950  0.785429  1
  O  O35  1  0.107943  0.898493  0.809723  1
  O  O36  1  0.104125  0.391098  0.322118  1
  O  O37  1  0.101936  0.892470  0.318483  1
  O  O38  1  0.312043  0.987969  0.662227  1
  O  O39  1  0.314239  0.485466  0.662839  1
  O  O40  1  0.151390  0.200305  0.200375  1
  O  O41  1  0.119566  0.699408  0.193236  1
  O  O42  1  0.293914  0.100269  0.955216  1
  O  O43  1  0.289971  0.598219  0.964464  1
  O  O44  1  0.384634  0.796050  0.555046  1
  O  O45  1  0.384499  0.290326  0.550967  1
  O  O46  1  0.508929  0.361719  0.890829  1
  O  O47  1  0.520635  0.845271  0.884949  1
  O  O48  1  0.466666  0.380502  0.389450  1
  O  O49  1  0.462621  0.885909  0.388819  1
  O  O50  1  0.542630  0.074904  0.552120  1
  O  O51  1  0.552877  0.569446  0.549130  1
  O  O52  1  0.274540  0.033806  0.191218  1
  O  O53  1  0.268038  0.531258  0.191254  1
  O  O54  1  0.326989  0.319341  0.049701  1
  O  O55  1  0.334663  0.810192  0.049812  1
  O  O56  1  0.540628  0.184134  0.827816  1
  O  O57  1  0.524062  0.667667  0.822311  1
  O  O58  1  0.698013  0.445075  0.717919  1
  O  O59  1  0.707512  0.949127  0.717031  1
  O  O60  1  0.574509  0.163303  0.279875  1
  O  O61  1  0.544840  0.674819  0.299684  1
  O  O62  1  0.644682  0.478501  0.223159  1
  O  O63  1  0.641694  0.968120  0.215267  1
  O  O64  1  0.809397  0.256033  0.684111  1
  O  O65  1  0.812346  0.758952  0.687113  1
  O  O66  1  0.911653  0.995516  0.499061  1
  O  O67  1  0.915352  0.497163  0.500594  1
  O  O68  1  0.884927  0.396534  0.051182  1
  O  O69  1  0.891635  0.900968  0.044328  1
  O  O70  1  0.913269  0.113608  0.822848  1
  O  O71  1  0.911344  0.614298  0.817839  1
  O  O72  1  0.711832  0.286263  0.169288  1
  O  O73  1  0.728939  0.778123  0.164107  1
  O  O74  1  0.724869  0.080954  0.994241  1
  O  O75  1  0.747645  0.579897  0.001741  1
  O  O76  1  0.960519  0.080651  0.311267  1
  O  O77  1  0.978341  0.581105  0.321358  1
  O  O78  1  0.938941  0.269156  0.459100  1
  O  O79  1  0.953330  0.771562  0.467318  1
