# generated using pymatgen
data_In2Sn2O7
_symmetry_space_group_name_H-M   'P 1'
_cell_length_a   7.34396717
_cell_length_b   7.34375785
_cell_length_c   7.34418499
_cell_angle_alpha   59.99675994
_cell_angle_beta   59.99931629
_cell_angle_gamma   59.99672342
_symmetry_Int_Tables_number   1
_chemical_formula_structural   In2Sn2O7
_chemical_formula_sum   'In4 Sn4 O14'
_cell_volume   280.06191215
_cell_formula_units_Z   2
loop_
 _symmetry_equiv_pos_site_id
 _symmetry_equiv_pos_as_xyz
  1  'x, y, z'
loop_
 _atom_site_type_symbol
 _atom_site_label
 _atom_site_symmetry_multiplicity
 _atom_site_fract_x
 _atom_site_fract_y
 _atom_site_fract_z
 _atom_site_occupancy
  In  In0  1  0.499988  0.500010  -0.000002  1
  In  In1  1  0.500005  -0.000004  0.500005  1
  In  In2  1  -0.000006  0.499997  0.500011  1
  In  In3  1  0.500001  0.499992  0.500005  1
  Sn  Sn4  1  0.000005  0.000009  0.000004  1
  Sn  Sn5  1  0.499990  -0.000001  0.000005  1
  Sn  Sn6  1  0.000000  0.499990  0.000004  1
  Sn  Sn7  1  0.000003  0.000002  0.499993  1
  O  O8  1  0.658159  0.091832  0.091840  1
  O  O9  1  0.908157  0.341841  0.341836  1
  O  O10  1  0.658159  0.658172  0.091852  1
  O  O11  1  0.091848  0.658151  0.091844  1
  O  O12  1  0.658153  0.091846  0.658166  1
  O  O13  1  0.375012  0.375018  0.374980  1
  O  O14  1  0.091811  0.091841  0.658173  1
  O  O15  1  0.341846  0.908154  0.341825  1
  O  O16  1  0.341839  0.341837  0.908150  1
  O  O17  1  0.625004  0.625007  0.624973  1
  O  O18  1  0.908152  0.908162  0.341839  1
  O  O19  1  0.908187  0.341835  0.908148  1
  O  O20  1  0.091832  0.658158  0.658182  1
  O  O21  1  0.341854  0.908148  0.908167  1
