# generated using pymatgen
data_LiFe4(BO3)4
_symmetry_space_group_name_H-M   'P 1'
_cell_length_a   5.31995206
_cell_length_b   9.04984677
_cell_length_c   10.09316463
_cell_angle_alpha   90.00000107
_cell_angle_beta   90.52663432
_cell_angle_gamma   89.99999869
_symmetry_Int_Tables_number   1
_chemical_formula_structural   LiFe4(BO3)4
_chemical_formula_sum   'Li2 Fe8 B8 O24'
_cell_volume   485.91237150
_cell_formula_units_Z   2
loop_
 _symmetry_equiv_pos_site_id
 _symmetry_equiv_pos_as_xyz
  1  'x, y, z'
loop_
 _atom_site_type_symbol
 _atom_site_label
 _atom_site_symmetry_multiplicity
 _atom_site_fract_x
 _atom_site_fract_y
 _atom_site_fract_z
 _atom_site_occupancy
  Li  Li0  1  0.351360  0.004131  0.846145  1
  Li  Li1  1  0.851360  0.495869  0.346145  1
  Fe  Fe2  1  0.160755  0.164553  0.121624  1
  Fe  Fe3  1  0.836664  0.156676  0.370616  1
  Fe  Fe4  1  0.336664  0.343324  0.870616  1
  Fe  Fe5  1  0.660755  0.335447  0.621624  1
  Fe  Fe6  1  0.342243  0.667730  0.374981  1
  Fe  Fe7  1  0.154349  0.829452  0.622573  1
  Fe  Fe8  1  0.654349  0.670548  0.122573  1
  Fe  Fe9  1  0.842243  0.832270  0.874981  1
  B  B10  1  0.160775  0.170740  0.627421  1
  B  B11  1  0.324193  0.327036  0.369825  1
  B  B12  1  0.824193  0.172964  0.869825  1
  B  B13  1  0.660775  0.329260  0.127421  1
  B  B14  1  0.336757  0.669862  0.873350  1
  B  B15  1  0.666126  0.667842  0.620328  1
  B  B16  1  0.166126  0.832158  0.120328  1
  B  B17  1  0.836757  0.830138  0.373350  1
  O  O18  1  0.244325  0.032481  0.652765  1
  O  O19  1  0.078739  0.188866  0.914511  1
  O  O20  1  0.705928  0.042670  0.871246  1
  O  O21  1  0.200881  0.197857  0.323056  1
  O  O22  1  0.303933  0.293152  0.668224  1
  O  O23  1  0.803933  0.206848  0.168224  1
  O  O24  1  0.927154  0.196823  0.566080  1
  O  O25  1  0.427154  0.303177  0.066080  1
  O  O26  1  0.205928  0.457330  0.371246  1
  O  O27  1  0.578739  0.311134  0.414511  1
  O  O28  1  0.700881  0.302143  0.823056  1
  O  O29  1  0.220213  0.535924  0.864396  1
  O  O30  1  0.744325  0.467519  0.152765  1
  O  O31  1  0.308297  0.715942  0.168946  1
  O  O32  1  0.421008  0.692391  0.579879  1
  O  O33  1  0.767020  0.529225  0.606317  1
  O  O34  1  0.573075  0.681433  0.930008  1
  O  O35  1  0.073075  0.818567  0.430008  1
  O  O36  1  0.224372  0.799842  0.825549  1
  O  O37  1  0.724372  0.700158  0.325549  1
  O  O38  1  0.808297  0.784058  0.668946  1
  O  O39  1  0.267020  0.970775  0.106317  1
  O  O40  1  0.921008  0.807609  0.079879  1
  O  O41  1  0.720213  0.964076  0.364396  1
