# generated using pymatgen
data_Gd2P4O13
_symmetry_space_group_name_H-M   'P 1'
_cell_length_a   7.14325636
_cell_length_b   9.58099317
_cell_length_c   8.70883209
_cell_angle_alpha   90.00000000
_cell_angle_beta   90.00000000
_cell_angle_gamma   68.11266900
_symmetry_Int_Tables_number   1
_chemical_formula_structural   Gd2P4O13
_chemical_formula_sum   'Gd4 P8 O26'
_cell_volume   553.06555761
_cell_formula_units_Z   2
loop_
 _symmetry_equiv_pos_site_id
 _symmetry_equiv_pos_as_xyz
  1  'x, y, z'
loop_
 _atom_site_type_symbol
 _atom_site_label
 _atom_site_symmetry_multiplicity
 _atom_site_fract_x
 _atom_site_fract_y
 _atom_site_fract_z
 _atom_site_occupancy
  Gd  Gd0  1  0.399739  0.706278  0.395914  1
  Gd  Gd1  1  0.893983  0.706278  0.604086  1
  Gd  Gd2  1  0.106017  0.293722  0.104086  1
  Gd  Gd3  1  0.600261  0.293722  0.895914  1
  P  P4  1  0.278138  0.883156  0.022039  1
  P  P5  1  0.838707  0.883156  0.977961  1
  P  P6  1  0.903659  0.681496  0.246331  1
  P  P7  1  0.414846  0.681496  0.753669  1
  P  P8  1  0.585154  0.318504  0.253669  1
  P  P9  1  0.096341  0.318504  0.746331  1
  P  P10  1  0.721862  0.116844  0.522039  1
  P  P11  1  0.161293  0.116844  0.477961  1
  O  O12  1  0.743928  0.956230  0.543501  1
  O  O13  1  0.299843  0.956230  0.456499  1
  O  O14  1  0.062030  0.875940  0.000000  1
  O  O15  1  0.789693  0.830113  0.142128  1
  O  O16  1  0.380194  0.830113  0.857872  1
  O  O17  1  0.842310  0.772416  0.855179  1
  O  O18  1  0.385274  0.772416  0.144821  1
  O  O19  1  0.065610  0.709532  0.346342  1
  O  O20  1  0.224858  0.709532  0.653658  1
  O  O21  1  0.580515  0.679266  0.639533  1
  O  O22  1  0.740219  0.679266  0.360467  1
  O  O23  1  0.470578  0.547205  0.859132  1
  O  O24  1  0.982217  0.547205  0.140868  1
  O  O25  1  0.529422  0.452795  0.359132  1
  O  O26  1  0.017783  0.452795  0.640868  1
  O  O27  1  0.419485  0.320734  0.139533  1
  O  O28  1  0.259781  0.320734  0.860467  1
  O  O29  1  0.934390  0.290468  0.846342  1
  O  O30  1  0.775142  0.290468  0.153658  1
  O  O31  1  0.157690  0.227584  0.355179  1
  O  O32  1  0.614726  0.227584  0.644821  1
  O  O33  1  0.619806  0.169887  0.357872  1
  O  O34  1  0.210307  0.169887  0.642128  1
  O  O35  1  0.937970  0.124060  0.500000  1
  O  O36  1  0.700157  0.043770  0.956499  1
  O  O37  1  0.256072  0.043770  0.043501  1
