# generated using pymatgen
data_FeOF
_symmetry_space_group_name_H-M   'P 1'
_cell_length_a   14.15402243
_cell_length_b   9.51305440
_cell_length_c   3.10834584
_cell_angle_alpha   90.00000000
_cell_angle_beta   90.00000000
_cell_angle_gamma   90.09346931
_symmetry_Int_Tables_number   1
_chemical_formula_structural   FeOF
_chemical_formula_sum   'Fe12 O12 F12'
_cell_volume   418.53194800
_cell_formula_units_Z   12
loop_
 _symmetry_equiv_pos_site_id
 _symmetry_equiv_pos_as_xyz
  1  'x, y, z'
loop_
 _atom_site_type_symbol
 _atom_site_label
 _atom_site_symmetry_multiplicity
 _atom_site_fract_x
 _atom_site_fract_y
 _atom_site_fract_z
 _atom_site_occupancy
  Fe  Fe0  1  0.012851  0.996161  0.000000  1
  Fe  Fe1  1  0.009667  0.491440  0.000000  1
  Fe  Fe2  1  0.152568  0.247402  0.500000  1
  Fe  Fe3  1  0.150770  0.743412  0.500000  1
  Fe  Fe4  1  0.344020  0.994580  0.000000  1
  Fe  Fe5  1  0.343907  0.495508  0.000000  1
  Fe  Fe6  1  0.485113  0.744610  0.500000  1
  Fe  Fe7  1  0.485001  0.246821  0.500000  1
  Fe  Fe8  1  0.676968  0.992183  0.000000  1
  Fe  Fe9  1  0.680002  0.494820  0.000000  1
  Fe  Fe10  1  0.841520  0.276667  0.500000  1
  Fe  Fe11  1  0.821800  0.745303  0.500000  1
  O  O12  1  0.068205  0.405637  0.500000  1
  O  O13  1  0.063436  0.902389  0.500000  1
  O  O14  1  0.101028  0.152958  0.000000  1
  O  O15  1  0.100239  0.651524  0.000000  1
  O  O16  1  0.397119  0.402667  0.500000  1
  O  O17  1  0.397586  0.901711  0.500000  1
  O  O18  1  0.435451  0.150223  0.000000  1
  O  O19  1  0.434424  0.652005  0.000000  1
  O  O20  1  0.729752  0.399017  0.500000  1
  O  O21  1  0.733550  0.908262  0.500000  1
  O  O22  1  0.766451  0.655091  0.000000  1
  O  O23  1  0.901284  0.354191  0.000000  1
  F  F24  1  0.232739  0.348297  0.000000  1
  F  F25  1  0.231793  0.847575  0.000000  1
  F  F26  1  0.267116  0.097735  0.500000  1
  F  F27  1  0.267577  0.597316  0.500000  1
  F  F28  1  0.564415  0.347934  0.000000  1
  F  F29  1  0.566574  0.850551  0.000000  1
  F  F30  1  0.605340  0.100701  0.500000  1
  F  F31  1  0.600552  0.598907  0.500000  1
  F  F32  1  0.769596  0.154973  0.000000  1
  F  F33  1  0.897014  0.849788  0.000000  1
  F  F34  1  0.930659  0.095613  0.500000  1
  F  F35  1  0.933909  0.606028  0.500000  1
