# generated using pymatgen
data_Nb(SO4)2
_symmetry_space_group_name_H-M   'P 1'
_cell_length_a   9.43981645
_cell_length_b   9.30655704
_cell_length_c   13.65508136
_cell_angle_alpha   90.00000000
_cell_angle_beta   90.00000000
_cell_angle_gamma   90.00000000
_symmetry_Int_Tables_number   1
_chemical_formula_structural   Nb(SO4)2
_chemical_formula_sum   'Nb8 S16 O64'
_cell_volume   1199.62880537
_cell_formula_units_Z   8
loop_
 _symmetry_equiv_pos_site_id
 _symmetry_equiv_pos_as_xyz
  1  'x, y, z'
loop_
 _atom_site_type_symbol
 _atom_site_label
 _atom_site_symmetry_multiplicity
 _atom_site_fract_x
 _atom_site_fract_y
 _atom_site_fract_z
 _atom_site_occupancy
  Nb  Nb0  1  0.141669  0.104119  0.127225  1
  Nb  Nb1  1  0.141669  0.395881  0.627225  1
  Nb  Nb2  1  0.358331  0.604119  0.127225  1
  Nb  Nb3  1  0.358331  0.895881  0.627225  1
  Nb  Nb4  1  0.641669  0.104119  0.372775  1
  Nb  Nb5  1  0.641669  0.395881  0.872775  1
  Nb  Nb6  1  0.858331  0.604119  0.372775  1
  Nb  Nb7  1  0.858331  0.895881  0.872775  1
  S  S8  1  0.072429  0.066802  0.722328  1
  S  S9  1  0.072429  0.433198  0.222328  1
  S  S10  1  0.160241  0.688302  0.487098  1
  S  S11  1  0.160241  0.811698  0.987098  1
  S  S12  1  0.339759  0.188302  0.487098  1
  S  S13  1  0.339759  0.311698  0.987098  1
  S  S14  1  0.427571  0.933198  0.222328  1
  S  S15  1  0.427571  0.566802  0.722328  1
  S  S16  1  0.572429  0.433198  0.277673  1
  S  S17  1  0.572429  0.066802  0.777672  1
  S  S18  1  0.660241  0.688302  0.012902  1
  S  S19  1  0.660241  0.811698  0.512902  1
  S  S20  1  0.839759  0.188302  0.012902  1
  S  S21  1  0.839759  0.311698  0.512902  1
  S  S22  1  0.927571  0.566802  0.777672  1
  S  S23  1  0.927571  0.933198  0.277673  1
  O  O24  1  0.001570  0.695068  0.472456  1
  O  O25  1  0.001570  0.804932  0.972456  1
  O  O26  1  0.017612  0.991615  0.351789  1
  O  O27  1  0.017612  0.508385  0.851789  1
  O  O28  1  0.025664  0.468561  0.325462  1
  O  O29  1  0.025664  0.031439  0.825462  1
  O  O30  1  0.082644  0.230236  0.719063  1
  O  O31  1  0.082644  0.269764  0.219063  1
  O  O32  1  0.188253  0.728267  0.081171  1
  O  O33  1  0.188253  0.771733  0.581171  1
  O  O34  1  0.194125  0.966630  0.014224  1
  O  O35  1  0.194125  0.533370  0.514224  1
  O  O36  1  0.225040  0.013985  0.716387  1
  O  O37  1  0.225040  0.486015  0.216387  1
  O  O38  1  0.240024  0.736851  0.404707  1
  O  O39  1  0.240024  0.763149  0.904707  1
  O  O40  1  0.259976  0.236851  0.404707  1
  O  O41  1  0.259976  0.263149  0.904707  1
  O  O42  1  0.274960  0.986015  0.216387  1
  O  O43  1  0.274960  0.513985  0.716387  1
  O  O44  1  0.305875  0.033370  0.514224  1
  O  O45  1  0.305875  0.466630  0.014224  1
  O  O46  1  0.311747  0.228267  0.081171  1
  O  O47  1  0.311747  0.271733  0.581171  1
  O  O48  1  0.417356  0.769764  0.219063  1
  O  O49  1  0.417356  0.730236  0.719063  1
  O  O50  1  0.474336  0.531439  0.825462  1
  O  O51  1  0.474336  0.968561  0.325462  1
  O  O52  1  0.482388  0.491615  0.351789  1
  O  O53  1  0.482388  0.008385  0.851789  1
  O  O54  1  0.498430  0.195068  0.472456  1
  O  O55  1  0.498430  0.304932  0.972456  1
  O  O56  1  0.501570  0.695068  0.027544  1
  O  O57  1  0.501570  0.804932  0.527544  1
  O  O58  1  0.517612  0.508385  0.648211  1
  O  O59  1  0.517612  0.991615  0.148211  1
  O  O60  1  0.525664  0.468561  0.174538  1
  O  O61  1  0.525664  0.031439  0.674538  1
  O  O62  1  0.582644  0.269764  0.280937  1
  O  O63  1  0.582644  0.230236  0.780937  1
  O  O64  1  0.688253  0.728267  0.418829  1
  O  O65  1  0.688253  0.771733  0.918829  1
  O  O66  1  0.694125  0.533370  0.985776  1
  O  O67  1  0.694125  0.966630  0.485776  1
  O  O68  1  0.725040  0.486015  0.283613  1
  O  O69  1  0.725040  0.013985  0.783613  1
  O  O70  1  0.740024  0.736851  0.095293  1
  O  O71  1  0.740024  0.763149  0.595293  1
  O  O72  1  0.759976  0.236851  0.095293  1
  O  O73  1  0.759976  0.263149  0.595293  1
  O  O74  1  0.774960  0.513985  0.783613  1
  O  O75  1  0.774960  0.986015  0.283613  1
  O  O76  1  0.805875  0.466630  0.485776  1
  O  O77  1  0.805875  0.033370  0.985776  1
  O  O78  1  0.811747  0.228267  0.418829  1
  O  O79  1  0.811747  0.271733  0.918829  1
  O  O80  1  0.917356  0.730236  0.780937  1
  O  O81  1  0.917356  0.769764  0.280937  1
  O  O82  1  0.974336  0.531439  0.674538  1
  O  O83  1  0.974336  0.968561  0.174538  1
  O  O84  1  0.982388  0.008385  0.648211  1
  O  O85  1  0.982388  0.491615  0.148211  1
  O  O86  1  0.998430  0.195068  0.027544  1
  O  O87  1  0.998430  0.304932  0.527544  1
