# generated using pymatgen
data_Li3Fe8(BO3)8
_symmetry_space_group_name_H-M   'P 1'
_cell_length_a   5.25944485
_cell_length_b   9.17179300
_cell_length_c   10.08322597
_cell_angle_alpha   90.86854229
_cell_angle_beta   90.14126142
_cell_angle_gamma   89.34235095
_symmetry_Int_Tables_number   1
_chemical_formula_structural   Li3Fe8(BO3)8
_chemical_formula_sum   'Li3 Fe8 B8 O24'
_cell_volume   486.31089497
_cell_formula_units_Z   1
loop_
 _symmetry_equiv_pos_site_id
 _symmetry_equiv_pos_as_xyz
  1  'x, y, z'
loop_
 _atom_site_type_symbol
 _atom_site_label
 _atom_site_symmetry_multiplicity
 _atom_site_fract_x
 _atom_site_fract_y
 _atom_site_fract_z
 _atom_site_occupancy
  Li  Li0  1  0.818387  0.830778  0.157822  1
  Li  Li1  1  0.667836  0.674232  0.887945  1
  Li  Li2  1  0.338758  0.329020  0.648024  1
  Fe  Fe3  1  0.835513  0.159767  0.631847  1
  Fe  Fe4  1  0.816165  0.495806  0.133846  1
  Fe  Fe5  1  0.691199  0.004718  0.877280  1
  Fe  Fe6  1  0.666888  0.332696  0.374873  1
  Fe  Fe7  1  0.334500  0.664972  0.625675  1
  Fe  Fe8  1  0.327154  0.002409  0.122734  1
  Fe  Fe9  1  0.173856  0.841601  0.385585  1
  Fe  Fe10  1  0.167170  0.502384  0.880859  1
  B  B11  1  0.833433  0.492365  0.635330  1
  B  B12  1  0.832386  0.161699  0.133075  1
  B  B13  1  0.663599  0.003254  0.373646  1
  B  B14  1  0.673533  0.342102  0.867295  1
  B  B15  1  0.338833  0.007339  0.626518  1
  B  B16  1  0.329851  0.675117  0.121115  1
  B  B17  1  0.161793  0.501767  0.381302  1
  B  B18  1  0.172316  0.825420  0.886844  1
  O  O19  1  0.908815  0.487176  0.342446  1
  O  O20  1  0.913893  0.828417  0.890764  1
  O  O21  1  0.799459  0.215159  0.828308  1
  O  O22  1  0.746563  0.132184  0.432525  1
  O  O23  1  0.825673  0.888180  0.352490  1
  O  O24  1  0.809722  0.460536  0.919296  1
  O  O25  1  0.691511  0.613474  0.650012  1
  O  O26  1  0.690094  0.039505  0.092533  1
  O  O27  1  0.725684  0.360162  0.584038  1
  O  O28  1  0.704283  0.285566  0.179117  1
  O  O29  1  0.590007  0.674828  0.111728  1
  O  O30  1  0.591730  0.007491  0.667994  1
  O  O31  1  0.412065  0.994346  0.329024  1
  O  O32  1  0.416969  0.356248  0.850026  1
  O  O33  1  0.301772  0.697906  0.841966  1
  O  O34  1  0.248459  0.640062  0.417584  1
  O  O35  1  0.321213  0.384097  0.390121  1
  O  O36  1  0.322324  0.940549  0.930159  1
  O  O37  1  0.185141  0.558374  0.076695  1
  O  O38  1  0.196275  0.133726  0.632794  1
  O  O39  1  0.233568  0.878928  0.577643  1
  O  O40  1  0.196966  0.800742  0.170626  1
  O  O41  1  0.089799  0.154277  0.125680  1
  O  O42  1  0.089112  0.486138  0.676222  1
