# generated using pymatgen
data_MnH8(NO5)2
_symmetry_space_group_name_H-M   'P 1'
_cell_length_a   5.45637335
_cell_length_b   27.69944409
_cell_length_c   5.87560734
_cell_angle_alpha   90.00000000
_cell_angle_beta   113.52989983
_cell_angle_gamma   90.00000000
_symmetry_Int_Tables_number   1
_chemical_formula_structural   MnH8(NO5)2
_chemical_formula_sum   'Mn4 H32 N8 O40'
_cell_volume   814.19244411
_cell_formula_units_Z   4
loop_
 _symmetry_equiv_pos_site_id
 _symmetry_equiv_pos_as_xyz
  1  'x, y, z'
loop_
 _atom_site_type_symbol
 _atom_site_label
 _atom_site_symmetry_multiplicity
 _atom_site_fract_x
 _atom_site_fract_y
 _atom_site_fract_z
 _atom_site_occupancy
  Mn  Mn0  1  0.520400  0.625891  0.220190  1
  Mn  Mn1  1  0.020400  0.874109  0.720190  1
  Mn  Mn2  1  0.479600  0.374109  0.779810  1
  Mn  Mn3  1  0.979600  0.125891  0.279810  1
  H  H4  1  0.037519  0.630663  0.792571  1
  H  H5  1  0.537519  0.869337  0.292571  1
  H  H6  1  0.962481  0.369337  0.207429  1
  H  H7  1  0.462481  0.130663  0.707429  1
  H  H8  1  0.172257  0.682012  0.846815  1
  H  H9  1  0.672257  0.817988  0.346815  1
  H  H10  1  0.827743  0.317988  0.153185  1
  H  H11  1  0.327743  0.182012  0.653185  1
  H  H12  1  0.573176  0.552343  0.887823  1
  H  H13  1  0.073176  0.947657  0.387823  1
  H  H14  1  0.426824  0.447657  0.112177  1
  H  H15  1  0.926824  0.052343  0.612177  1
  H  H16  1  0.513994  0.605133  0.762044  1
  H  H17  1  0.013994  0.894867  0.262044  1
  H  H18  1  0.486006  0.394867  0.237956  1
  H  H19  1  0.986006  0.105133  0.737956  1
  H  H20  1  0.016487  0.585747  0.433423  1
  H  H21  1  0.516487  0.914253  0.933423  1
  H  H22  1  0.983513  0.414253  0.566577  1
  H  H23  1  0.483513  0.085747  0.066577  1
  H  H24  1  0.862833  0.557647  0.568199  1
  H  H25  1  0.362833  0.942353  0.068199  1
  H  H26  1  0.137167  0.442353  0.431801  1
  H  H27  1  0.637167  0.057647  0.931801  1
  H  H28  1  0.776466  0.712690  0.171132  1
  H  H29  1  0.276466  0.787310  0.671132  1
  H  H30  1  0.223534  0.287310  0.828868  1
  H  H31  1  0.723534  0.212690  0.328868  1
  H  H32  1  0.898480  0.668357  0.079076  1
  H  H33  1  0.398480  0.831643  0.579076  1
  H  H34  1  0.101520  0.331643  0.920924  1
  H  H35  1  0.601520  0.168357  0.420924  1
  N  N36  1  0.257330  0.526995  0.264277  1
  N  N37  1  0.757330  0.973005  0.764277  1
  N  N38  1  0.742670  0.473005  0.735723  1
  N  N39  1  0.242670  0.026995  0.235723  1
  N  N40  1  0.396502  0.705127  0.518707  1
  N  N41  1  0.896502  0.794873  0.018707  1
  N  N42  1  0.603498  0.294873  0.481293  1
  N  N43  1  0.103498  0.205127  0.981293  1
  O  O44  1  0.251536  0.573272  0.301336  1
  O  O45  1  0.751537  0.926728  0.801336  1
  O  O46  1  0.748463  0.426729  0.698664  1
  O  O47  1  0.248464  0.073272  0.198664  1
  O  O48  1  0.448075  0.510246  0.220790  1
  O  O49  1  0.948075  0.989754  0.720790  1
  O  O50  1  0.551925  0.489754  0.779210  1
  O  O51  1  0.051925  0.010246  0.279210  1
  O  O52  1  0.073686  0.501611  0.275774  1
  O  O53  1  0.573686  0.998389  0.775774  1
  O  O54  1  0.926314  0.498389  0.724226  1
  O  O55  1  0.426314  0.001611  0.224226  1
  O  O56  1  0.453606  0.659285  0.529830  1
  O  O57  1  0.953606  0.840715  0.029830  1
  O  O58  1  0.546394  0.340715  0.470170  1
  O  O59  1  0.046394  0.159285  0.970170  1
  O  O60  1  0.312742  0.721752  0.675284  1
  O  O61  1  0.812742  0.778248  0.175284  1
  O  O62  1  0.687258  0.278248  0.324716  1
  O  O63  1  0.187258  0.221752  0.824716  1
  O  O64  1  0.423655  0.730581  0.357048  1
  O  O65  1  0.923655  0.769419  0.857048  1
  O  O66  1  0.576345  0.269419  0.642952  1
  O  O67  1  0.076345  0.230581  0.142952  1
  O  O68  1  0.130440  0.653700  0.929232  1
  O  O69  1  0.630440  0.846300  0.429232  1
  O  O70  1  0.869560  0.346300  0.070768  1
  O  O71  1  0.369560  0.153700  0.570768  1
  O  O72  1  0.574271  0.587419  0.919551  1
  O  O73  1  0.074271  0.912581  0.419551  1
  O  O74  1  0.425729  0.412581  0.080449  1
  O  O75  1  0.925729  0.087419  0.580449  1
  O  O76  1  0.886782  0.590459  0.512686  1
  O  O77  1  0.386782  0.909541  0.012686  1
  O  O78  1  0.113218  0.409541  0.487314  1
  O  O79  1  0.613218  0.090459  0.987314  1
  O  O80  1  0.794304  0.677074  0.177452  1
  O  O81  1  0.294304  0.822926  0.677452  1
  O  O82  1  0.205696  0.322926  0.822548  1
  O  O83  1  0.705696  0.177074  0.322548  1
