# generated using pymatgen
data_K3Ca2Mg10Si16(HO12)4
_symmetry_space_group_name_H-M   'P 1'
_cell_length_a   16.34613115
_cell_length_b   8.41229508
_cell_length_c   8.20590898
_cell_angle_alpha   117.88836496
_cell_angle_beta   97.97886151
_cell_angle_gamma   105.58050814
_symmetry_Int_Tables_number   1
_chemical_formula_structural   K3Ca2Mg10Si16(HO12)4
_chemical_formula_sum   'K3 Ca2 Mg10 Si16 H4 O48'
_cell_volume   913.16881557
_cell_formula_units_Z   1
loop_
 _symmetry_equiv_pos_site_id
 _symmetry_equiv_pos_as_xyz
  1  'x, y, z'
loop_
 _atom_site_type_symbol
 _atom_site_label
 _atom_site_symmetry_multiplicity
 _atom_site_fract_x
 _atom_site_fract_y
 _atom_site_fract_z
 _atom_site_occupancy
  K  K0  1  0.358520  0.371476  0.150249  1
  K  K1  1  0.750000  0.500000  0.000000  1
  K  K2  1  0.141480  0.628524  0.849751  1
  Ca  Ca3  1  0.939612  0.168198  0.937434  1
  Ca  Ca4  1  0.560388  0.831802  0.062566  1
  Mg  Mg5  1  0.121271  0.162957  0.077772  1
  Mg  Mg6  1  0.237201  -0.000202  0.722633  1
  Mg  Mg7  1  0.030661  0.248493  0.418670  1
  Mg  Mg8  1  0.469339  0.751507  0.581330  1
  Mg  Mg9  1  0.262799  0.000202  0.277367  1
  Mg  Mg10  1  0.378729  0.837043  0.922228  1
  Mg  Mg11  1  0.723653  0.836347  0.713348  1
  Mg  Mg12  1  0.393488  0.834579  0.298864  1
  Mg  Mg13  1  0.106512  0.165421  0.701136  1
  Mg  Mg14  1  0.776347  0.163653  0.286652  1
  Si  Si15  1  0.039715  0.814545  0.126557  1
  Si  Si16  1  0.853364  0.839830  0.466874  1
  Si  Si17  1  0.249416  0.616907  0.326259  1
  Si  Si18  1  0.633158  0.093914  0.891263  1
  Si  Si19  1  0.866842  0.906086  0.108737  1
  Si  Si20  1  0.250584  0.383093  0.673741  1
  Si  Si21  1  0.646636  0.160170  0.533126  1
  Si  Si22  1  0.460285  0.185455  0.873443  1
  Si  Si23  1  0.567398  0.590329  0.260058  1
  Si  Si24  1  0.066495  0.564636  0.315601  1
  Si  Si25  1  0.697047  0.460717  0.360720  1
  Si  Si26  1  0.001914  0.810857  0.660762  1
  Si  Si27  1  0.498086  0.189143  0.339238  1
  Si  Si28  1  0.802953  0.539283  0.639280  1
  Si  Si29  1  0.433505  0.435364  0.684399  1
  Si  Si30  1  0.932602  0.409671  0.739942  1
  H  H31  1  0.000945  0.946655  0.877287  1
  H  H32  1  0.499055  0.053345  0.122713  1
  H  H33  1  0.680183  0.781956  0.238719  1
  H  H34  1  0.819817  0.218044  -0.238719  1
  O  O35  1  0.483628  0.387161  0.502211  1
  O  O36  1  0.525163  0.051336  0.821360  1
  O  O37  1  0.063185  0.468246  0.048474  1
  O  O38  1  0.461722  0.272818  0.734593  1
  O  O39  1  0.115836  0.962281  0.766227  1
  O  O40  1  0.990584  0.293130  0.639588  1
  O  O41  1  0.687435  0.271861  0.119026  1
  O  O42  1  0.254311  0.709924  0.187549  1
  O  O43  1  0.682564  0.034480  0.358011  1
  O  O44  1  0.293929  0.009587  0.528771  1
  O  O45  1  0.226733  0.388867  0.239369  1
  O  O46  1  0.782393  0.614492  0.330771  1
  O  O47  1  0.717607  0.385508  0.669229  1
  O  O48  1  0.273267  0.611133  0.760631  1
  O  O49  1  0.206071  -0.009587  0.471229  1
  O  O50  1  0.817436  -0.034480  0.641989  1
  O  O51  1  0.245689  0.290076  0.812451  1
  O  O52  1  0.812565  0.728139  0.880974  1
  O  O53  1  0.509416  0.706870  0.360412  1
  O  O54  1  0.038278  0.727182  0.265407  1
  O  O55  1  0.436815  0.531754  0.951526  1
  O  O56  1  0.036214  0.328868  0.241906  1
  O  O57  1  0.974837  0.948664  0.178640  1
  O  O58  1  0.384164  0.037719  0.233773  1
  O  O59  1  0.079992  0.288840  0.944147  1
  O  O60  1  0.016372  0.612839  0.497789  1
  O  O61  1  0.629345  0.658705  0.139672  1
  O  O62  1  0.985023  0.642566  0.893847  1
  O  O63  1  0.850061  0.090697  0.117674  1
  O  O64  1  0.534369  0.081437  0.454842  1
  O  O65  1  0.324554  0.327419  0.553588  1
  O  O66  1  0.834160  0.890999  0.284443  1
  O  O67  1  0.133124  0.951707  0.131959  1
  O  O68  1  0.851984  0.369180  0.562272  1
  O  O69  1  0.609864  0.301272  0.365617  1
  O  O70  1  0.356383  0.734940  0.465640  1
  O  O71  1  0.143617  0.265060  0.534360  1
  O  O72  1  0.890136  0.698728  0.634383  1
  O  O73  1  0.648016  0.630820  0.437728  1
  O  O74  1  0.366876  0.048293  0.868041  1
  O  O75  1  0.665840  0.109001  0.715557  1
  O  O76  1  0.175446  0.672581  0.446412  1
  O  O77  1  0.965631  0.918563  0.545158  1
  O  O78  1  0.514977  0.357434  0.106153  1
  O  O79  1  0.870655  0.341295  0.860328  1
  O  O80  1  0.420008  0.711160  0.055853  1
  O  O81  1  0.649939  0.909303  0.882326  1
  O  O82  1  0.463786  0.671132  0.758094  1
