# generated using pymatgen
data_Li2AlCoO4
_symmetry_space_group_name_H-M   'P 1'
_cell_length_a   5.01307831
_cell_length_b   6.34719447
_cell_length_c   5.46340727
_cell_angle_alpha   90.00000000
_cell_angle_beta   90.00000000
_cell_angle_gamma   89.57293292
_symmetry_Int_Tables_number   1
_chemical_formula_structural   Li2AlCoO4
_chemical_formula_sum   'Li4 Al2 Co2 O8'
_cell_volume   173.83523341
_cell_formula_units_Z   2
loop_
 _symmetry_equiv_pos_site_id
 _symmetry_equiv_pos_as_xyz
  1  'x, y, z'
loop_
 _atom_site_type_symbol
 _atom_site_label
 _atom_site_symmetry_multiplicity
 _atom_site_fract_x
 _atom_site_fract_y
 _atom_site_fract_z
 _atom_site_occupancy
  Li  Li0  1  0.496347  0.246276  0.335502  1
  Li  Li1  1  0.497321  0.996157  0.830826  1
  Li  Li2  1  0.996347  0.746276  0.664498  1
  Li  Li3  1  0.997321  0.496157  0.169174  1
  Al  Al4  1  0.002498  0.246416  0.673726  1
  Al  Al5  1  0.502498  0.746416  0.326274  1
  Co  Co6  1  0.998248  0.002801  0.166870  1
  Co  Co7  1  0.498248  0.502801  0.833130  1
  O  O8  1  0.358182  0.261132  0.681707  1
  O  O9  1  0.375821  0.977082  0.180848  1
  O  O10  1  0.405300  0.515347  0.162699  1
  O  O11  1  0.400582  0.731888  0.637978  1
  O  O12  1  0.858182  0.761132  0.318293  1
  O  O13  1  0.875821  0.477082  0.819152  1
  O  O14  1  0.905300  0.015347  0.837301  1
  O  O15  1  0.900582  0.231888  0.362022  1
