# generated using pymatgen
data_KCrH24(SO10)2
_symmetry_space_group_name_H-M   'P 1'
_cell_length_a   12.13922570
_cell_length_b   12.13922570
_cell_length_c   12.13922570
_cell_angle_alpha   89.99995441
_cell_angle_beta   89.99995441
_cell_angle_gamma   89.99995441
_symmetry_Int_Tables_number   1
_chemical_formula_structural   KCrH24(SO10)2
_chemical_formula_sum   'K4 Cr4 H96 S8 O80'
_cell_volume   1788.84601776
_cell_formula_units_Z   4
loop_
 _symmetry_equiv_pos_site_id
 _symmetry_equiv_pos_as_xyz
  1  'x, y, z'
loop_
 _atom_site_type_symbol
 _atom_site_label
 _atom_site_symmetry_multiplicity
 _atom_site_fract_x
 _atom_site_fract_y
 _atom_site_fract_z
 _atom_site_occupancy
  K  K0  1  0.000000  0.000000  0.500000  1
  K  K1  1  0.000000  0.500000  0.000000  1
  K  K2  1  0.500000  0.000000  0.000000  1
  K  K3  1  0.500000  0.500000  0.500000  1
  Cr  Cr4  1  0.500000  0.500000  0.000000  1
  Cr  Cr5  1  0.500000  0.000000  0.500000  1
  Cr  Cr6  1  0.000000  0.500000  0.500000  1
  Cr  Cr7  1  0.000000  0.000000  0.000000  1
  H  H8  1  0.557870  0.701413  0.016001  1
  H  H9  1  0.442130  0.201412  0.483999  1
  H  H10  1  0.942131  0.298588  0.516001  1
  H  H11  1  0.057871  0.798588  0.983998  1
  H  H12  1  0.016001  0.557870  0.701413  1
  H  H13  1  0.483999  0.442130  0.201412  1
  H  H14  1  0.516001  0.942131  0.298588  1
  H  H15  1  0.983998  0.057871  0.798588  1
  H  H16  1  0.701413  0.016001  0.557870  1
  H  H17  1  0.201412  0.483999  0.442130  1
  H  H18  1  0.298588  0.516001  0.942131  1
  H  H19  1  0.798588  0.983998  0.057871  1
  H  H20  1  0.442130  0.298587  0.983999  1
  H  H21  1  0.557870  0.798588  0.516001  1
  H  H22  1  0.057869  0.701412  0.483999  1
  H  H23  1  0.942129  0.201412  0.016002  1
  H  H24  1  0.983999  0.442130  0.298587  1
  H  H25  1  0.516001  0.557870  0.798588  1
  H  H26  1  0.483999  0.057869  0.701412  1
  H  H27  1  0.016002  0.942129  0.201412  1
  H  H28  1  0.298587  0.983999  0.442130  1
  H  H29  1  0.798588  0.516001  0.557870  1
  H  H30  1  0.701412  0.483999  0.057869  1
  H  H31  1  0.201412  0.016002  0.942129  1
  H  H32  1  0.425325  0.712534  0.014793  1
  H  H33  1  0.574674  0.212534  0.485207  1
  H  H34  1  0.074675  0.287466  0.514793  1
  H  H35  1  0.925324  0.787466  0.985206  1
  H  H36  1  0.014793  0.425325  0.712534  1
  H  H37  1  0.485207  0.574674  0.212534  1
  H  H38  1  0.514793  0.074675  0.287466  1
  H  H39  1  0.985206  0.925324  0.787466  1
  H  H40  1  0.712534  0.014793  0.425325  1
  H  H41  1  0.212534  0.485207  0.574674  1
  H  H42  1  0.287466  0.514793  0.074675  1
  H  H43  1  0.787466  0.985206  0.925324  1
  H  H44  1  0.574675  0.287466  0.985207  1
  H  H45  1  0.425326  0.787466  0.514793  1
  H  H46  1  0.925325  0.712534  0.485207  1
  H  H47  1  0.074676  0.212534  0.014794  1
  H  H48  1  0.985207  0.574675  0.287466  1
  H  H49  1  0.514793  0.425326  0.787466  1
  H  H50  1  0.485207  0.925325  0.712534  1
  H  H51  1  0.014794  0.074676  0.212534  1
  H  H52  1  0.287466  0.985207  0.574675  1
  H  H53  1  0.787466  0.514793  0.425326  1
  H  H54  1  0.712534  0.485207  0.925325  1
  H  H55  1  0.212534  0.014794  0.074676  1
  H  H56  1  0.204844  0.624521  0.185850  1
  H  H57  1  0.795156  0.124520  0.314150  1
  H  H58  1  0.295156  0.375479  0.685850  1
  H  H59  1  0.704844  0.875479  0.814150  1
  H  H60  1  0.185850  0.204844  0.624521  1
  H  H61  1  0.314150  0.795156  0.124520  1
  H  H62  1  0.685850  0.295156  0.375479  1
  H  H63  1  0.814150  0.704844  0.875479  1
  H  H64  1  0.624521  0.185850  0.204844  1
  H  H65  1  0.124520  0.314150  0.795156  1
  H  H66  1  0.375479  0.685850  0.295156  1
  H  H67  1  0.875479  0.814150  0.704844  1
  H  H68  1  0.795156  0.375479  0.814150  1
  H  H69  1  0.204844  0.875480  0.685850  1
  H  H70  1  0.704844  0.624521  0.314150  1
  H  H71  1  0.295156  0.124521  0.185850  1
  H  H72  1  0.814150  0.795156  0.375479  1
  H  H73  1  0.685850  0.204844  0.875480  1
  H  H74  1  0.314150  0.704844  0.624521  1
  H  H75  1  0.185850  0.295156  0.124521  1
  H  H76  1  0.375479  0.814150  0.795156  1
  H  H77  1  0.875480  0.685850  0.204844  1
  H  H78  1  0.624521  0.314150  0.704844  1
  H  H79  1  0.124521  0.185850  0.295156  1
  H  H80  1  0.201004  0.500338  0.218262  1
  H  H81  1  0.798996  0.000337  0.281738  1
  H  H82  1  0.298996  0.499663  0.718262  1
  H  H83  1  0.701004  0.999663  0.781738  1
  H  H84  1  0.218262  0.201004  0.500338  1
  H  H85  1  0.281738  0.798996  0.000337  1
  H  H86  1  0.718262  0.298996  0.499663  1
  H  H87  1  0.781738  0.701004  0.999663  1
  H  H88  1  0.500338  0.218262  0.201004  1
  H  H89  1  0.000337  0.281738  0.798996  1
  H  H90  1  0.499663  0.718262  0.298996  1
  H  H91  1  0.999663  0.781738  0.701004  1
  H  H92  1  0.798996  0.499662  0.781738  1
  H  H93  1  0.201004  0.999663  0.718262  1
  H  H94  1  0.701004  0.500337  0.281738  1
  H  H95  1  0.298996  0.000337  0.218262  1
  H  H96  1  0.781738  0.798996  0.499662  1
  H  H97  1  0.718262  0.201004  0.999663  1
  H  H98  1  0.281738  0.701004  0.500337  1
  H  H99  1  0.218262  0.298996  0.000337  1
  H  H100  1  0.499662  0.781738  0.798996  1
  H  H101  1  0.999663  0.718262  0.201004  1
  H  H102  1  0.500337  0.281738  0.701004  1
  H  H103  1  0.000337  0.218262  0.298996  1
  S  S104  1  0.180393  0.819607  0.319606  1
  S  S105  1  0.819607  0.319606  0.180393  1
  S  S106  1  0.319606  0.180393  0.819607  1
  S  S107  1  0.680394  0.680394  0.680394  1
  S  S108  1  0.819607  0.180393  0.680394  1
  S  S109  1  0.180393  0.680394  0.819607  1
  S  S110  1  0.680394  0.819607  0.180393  1
  S  S111  1  0.319606  0.319606  0.319606  1
  O  O112  1  0.251990  0.748010  0.248010  1
  O  O113  1  0.748010  0.248010  0.251990  1
  O  O114  1  0.248010  0.251990  0.748010  1
  O  O115  1  0.751989  0.751989  0.751989  1
  O  O116  1  0.748010  0.251990  0.751990  1
  O  O117  1  0.251990  0.751990  0.748010  1
  O  O118  1  0.751990  0.748010  0.251990  1
  O  O119  1  0.248011  0.248011  0.248011  1
  O  O120  1  0.070042  0.831905  0.266996  1
  O  O121  1  0.929958  0.331905  0.233004  1
  O  O122  1  0.429960  0.168095  0.766996  1
  O  O123  1  0.570043  0.668095  0.733004  1
  O  O124  1  0.266996  0.070042  0.831905  1
  O  O125  1  0.233004  0.929958  0.331905  1
  O  O126  1  0.766996  0.429960  0.168095  1
  O  O127  1  0.733004  0.570043  0.668095  1
  O  O128  1  0.831905  0.266996  0.070042  1
  O  O129  1  0.331905  0.233004  0.929958  1
  O  O130  1  0.168095  0.766996  0.429960  1
  O  O131  1  0.668095  0.733004  0.570043  1
  O  O132  1  0.929958  0.168095  0.733004  1
  O  O133  1  0.070042  0.668095  0.766996  1
  O  O134  1  0.570040  0.831905  0.233005  1
  O  O135  1  0.429957  0.331905  0.266996  1
  O  O136  1  0.733004  0.929958  0.168095  1
  O  O137  1  0.766996  0.070042  0.668095  1
  O  O138  1  0.233005  0.570040  0.831905  1
  O  O139  1  0.266996  0.429957  0.331905  1
  O  O140  1  0.168095  0.733004  0.929958  1
  O  O141  1  0.668095  0.766996  0.070042  1
  O  O142  1  0.831905  0.233005  0.570040  1
  O  O143  1  0.331905  0.266996  0.429957  1
  O  O144  1  0.335541  0.488238  0.010308  1
  O  O145  1  0.664458  0.988236  0.489690  1
  O  O146  1  0.164458  0.511765  0.510310  1
  O  O147  1  0.835544  0.011765  0.989688  1
  O  O148  1  0.010308  0.335541  0.488238  1
  O  O149  1  0.489690  0.664458  0.988236  1
  O  O150  1  0.510310  0.164458  0.511765  1
  O  O151  1  0.989688  0.835544  0.011765  1
  O  O152  1  0.488238  0.010308  0.335541  1
  O  O153  1  0.988236  0.489690  0.664458  1
  O  O154  1  0.511765  0.510310  0.164458  1
  O  O155  1  0.011765  0.989688  0.835544  1
  O  O156  1  0.664459  0.511762  0.989692  1
  O  O157  1  0.335542  0.011764  0.510310  1
  O  O158  1  0.835542  0.488235  0.489690  1
  O  O159  1  0.164456  0.988235  0.010312  1
  O  O160  1  0.989692  0.664459  0.511762  1
  O  O161  1  0.510310  0.335542  0.011764  1
  O  O162  1  0.489690  0.835542  0.488235  1
  O  O163  1  0.010312  0.164456  0.988235  1
  O  O164  1  0.511762  0.989692  0.664459  1
  O  O165  1  0.011764  0.510310  0.335542  1
  O  O166  1  0.488235  0.489690  0.835542  1
  O  O167  1  0.988235  0.010312  0.164456  1
  O  O168  1  0.191593  0.549994  0.154298  1
  O  O169  1  0.808406  0.049995  0.345703  1
  O  O170  1  0.308407  0.450005  0.654300  1
  O  O171  1  0.691594  0.950005  0.845702  1
  O  O172  1  0.154298  0.191593  0.549994  1
  O  O173  1  0.345703  0.808406  0.049995  1
  O  O174  1  0.654300  0.308407  0.450005  1
  O  O175  1  0.845702  0.691594  0.950005  1
  O  O176  1  0.549994  0.154298  0.191593  1
  O  O177  1  0.049995  0.345703  0.808406  1
  O  O178  1  0.450005  0.654300  0.308407  1
  O  O179  1  0.950005  0.845702  0.691594  1
  O  O180  1  0.808407  0.450006  0.845702  1
  O  O181  1  0.191594  0.950005  0.654297  1
  O  O182  1  0.691593  0.549995  0.345700  1
  O  O183  1  0.308406  0.049995  0.154298  1
  O  O184  1  0.845702  0.808407  0.450006  1
  O  O185  1  0.654297  0.191594  0.950005  1
  O  O186  1  0.345700  0.691593  0.549995  1
  O  O187  1  0.154298  0.308406  0.049995  1
  O  O188  1  0.450006  0.845702  0.808407  1
  O  O189  1  0.950005  0.654297  0.191594  1
  O  O190  1  0.549995  0.345700  0.691593  1
  O  O191  1  0.049995  0.154298  0.308406  1
