# generated using pymatgen
data_LiNiPO4
_symmetry_space_group_name_H-M   'P 1'
_cell_length_a   7.41324402
_cell_length_b   13.44958231
_cell_length_c   6.14461039
_cell_angle_alpha   89.99963716
_cell_angle_beta   89.99830624
_cell_angle_gamma   90.00027388
_symmetry_Int_Tables_number   1
_chemical_formula_structural   LiNiPO4
_chemical_formula_sum   'Li8 Ni8 P8 O32'
_cell_volume   612.64859773
_cell_formula_units_Z   8
loop_
 _symmetry_equiv_pos_site_id
 _symmetry_equiv_pos_as_xyz
  1  'x, y, z'
loop_
 _atom_site_type_symbol
 _atom_site_label
 _atom_site_symmetry_multiplicity
 _atom_site_fract_x
 _atom_site_fract_y
 _atom_site_fract_z
 _atom_site_occupancy
  Li  Li0  1  0.173474  0.521223  0.441268  1
  Li  Li1  1  0.173472  0.978780  0.941274  1
  Li  Li2  1  0.326546  0.021242  0.441228  1
  Li  Li3  1  0.326564  0.478770  0.941257  1
  Li  Li4  1  0.673463  0.521230  0.058741  1
  Li  Li5  1  0.673469  0.978772  0.558738  1
  Li  Li6  1  0.826553  0.021223  0.058748  1
  Li  Li7  1  0.826552  0.478771  0.558757  1
  Ni  Ni8  1  0.186514  0.214667  0.212142  1
  Ni  Ni9  1  0.186539  0.285352  0.712143  1
  Ni  Ni10  1  0.313497  0.785390  0.712186  1
  Ni  Ni11  1  0.313483  0.714597  0.212184  1
  Ni  Ni12  1  0.686477  0.214629  0.287817  1
  Ni  Ni13  1  0.686530  0.285365  0.787835  1
  Ni  Ni14  1  0.813490  0.714601  0.287828  1
  Ni  Ni15  1  0.813499  0.785385  0.787822  1
  P  P16  1  0.039644  0.627826  0.890049  1
  P  P17  1  0.039646  0.872158  0.390051  1
  P  P18  1  0.460350  0.127834  0.890078  1
  P  P19  1  0.460355  0.372177  0.390065  1
  P  P20  1  0.539642  0.627823  0.609956  1
  P  P21  1  0.539642  0.872159  0.109957  1
  P  P22  1  0.960365  0.127837  0.609914  1
  P  P23  1  0.960325  0.372185  0.109938  1
  O  O24  1  0.970647  0.050528  0.788808  1
  O  O25  1  0.970647  0.449480  0.288860  1
  O  O26  1  0.068793  0.763603  0.297237  1
  O  O27  1  0.068803  0.736382  0.797234  1
  O  O28  1  0.147437  0.140176  0.492627  1
  O  O29  1  0.147433  0.359818  0.992719  1
  O  O30  1  0.197916  0.605493  0.047048  1
  O  O31  1  0.197921  0.894489  0.547045  1
  O  O32  1  0.302051  0.105545  0.047080  1
  O  O33  1  0.302083  0.394502  0.547085  1
  O  O34  1  0.352567  0.640136  0.492686  1
  O  O35  1  0.352567  0.859851  0.992686  1
  O  O36  1  0.431219  0.236380  0.797219  1
  O  O37  1  0.431149  0.263634  0.297241  1
  O  O38  1  0.529367  0.550526  0.788870  1
  O  O39  1  0.529366  0.949458  0.288867  1
  O  O40  1  0.470654  0.449470  0.211146  1
  O  O41  1  0.470637  0.050529  0.711190  1
  O  O42  1  0.568805  0.736378  0.702764  1
  O  O43  1  0.568793  0.763604  0.202766  1
  O  O44  1  0.647430  0.140154  0.007337  1
  O  O45  1  0.647440  0.359840  0.507306  1
  O  O46  1  0.697923  0.605489  0.452954  1
  O  O47  1  0.697923  0.894492  0.952954  1
  O  O48  1  0.802077  0.105528  0.452927  1
  O  O49  1  0.802076  0.394521  0.952899  1
  O  O50  1  0.852564  0.640142  0.007321  1
  O  O51  1  0.852563  0.859845  0.507316  1
  O  O52  1  0.931212  0.236380  0.702779  1
  O  O53  1  0.931103  0.263646  0.202761  1
  O  O54  1  0.029373  0.550526  0.711146  1
  O  O55  1  0.029371  0.949458  0.211142  1
