# generated using pymatgen
data_Li9Cr4(BO3)8
_symmetry_space_group_name_H-M   'P 1'
_cell_length_a   8.94388988
_cell_length_b   6.03887758
_cell_length_c   9.46049152
_cell_angle_alpha   88.99489782
_cell_angle_beta   65.62891844
_cell_angle_gamma   89.37733534
_symmetry_Int_Tables_number   1
_chemical_formula_structural   Li9Cr4(BO3)8
_chemical_formula_sum   'Li9 Cr4 B8 O24'
_cell_volume   465.36423805
_cell_formula_units_Z   1
loop_
 _symmetry_equiv_pos_site_id
 _symmetry_equiv_pos_as_xyz
  1  'x, y, z'
loop_
 _atom_site_type_symbol
 _atom_site_label
 _atom_site_symmetry_multiplicity
 _atom_site_fract_x
 _atom_site_fract_y
 _atom_site_fract_z
 _atom_site_occupancy
  Li  Li0  1  0.853633  0.748628  0.913913  1
  Li  Li1  1  0.872462  0.780718  0.426160  1
  Li  Li2  1  0.697720  0.571072  0.326793  1
  Li  Li3  1  0.616772  0.238427  0.513698  1
  Li  Li4  1  0.396253  0.744981  0.988924  1
  Li  Li5  1  0.621107  0.225546  0.002551  1
  Li  Li6  1  0.294492  0.452411  0.659148  1
  Li  Li7  1  0.131669  0.207850  0.573334  1
  Li  Li8  1  0.275469  0.080829  0.162940  1
  Cr  Cr9  1  0.769642  0.466651  0.717771  1
  Cr  Cr10  1  0.769925  0.032739  0.219504  1
  Cr  Cr11  1  0.238664  0.953992  0.776457  1
  Cr  Cr12  1  0.238344  0.534249  0.279008  1
  B  B13  1  0.948468  0.283747  0.919793  1
  B  B14  1  0.946746  0.215928  0.423246  1
  B  B15  1  0.548835  0.663137  0.686601  1
  B  B16  1  0.456148  0.158652  0.810408  1
  B  B17  1  0.544147  0.846182  0.196909  1
  B  B18  1  0.452680  0.326223  0.312469  1
  B  B19  1  0.058975  0.776978  0.575241  1
  B  B20  1  0.053896  0.722658  0.081668  1
  O  O21  1  0.823524  0.401091  0.901586  1
  O  O22  1  0.910308  0.712449  0.691902  1
  O  O23  1  0.915311  0.271919  0.577852  1
  O  O24  1  0.826595  0.098480  0.401339  1
  O  O25  1  0.898647  0.757573  0.202312  1
  O  O26  1  0.599002  0.231498  0.809562  1
  O  O27  1  0.913751  0.220976  0.073832  1
  O  O28  1  0.584952  0.665815  0.815130  1
  O  O29  1  0.678084  0.568579  0.557524  1
  O  O30  1  0.337142  0.036365  0.928538  1
  O  O31  1  0.604001  0.285535  0.314824  1
  O  O32  1  0.414401  0.181237  0.683214  1
  O  O33  1  0.578508  0.843534  0.327799  1
  O  O34  1  0.397568  0.717029  0.692435  1
  O  O35  1  0.678588  0.938543  0.070287  1
  O  O36  1  0.319363  0.407764  0.439629  1
  O  O37  1  0.427199  0.314015  0.177545  1
  O  O38  1  0.068979  0.796506  0.932851  1
  O  O39  1  0.403175  0.785888  0.188586  1
  O  O40  1  0.097629  0.237290  0.801757  1
  O  O41  1  0.168276  0.896232  0.611748  1
  O  O42  1  0.080721  0.734779  0.426243  1
  O  O43  1  0.096329  0.265857  0.312562  1
  O  O44  1  0.180319  0.627702  0.102211  1
