# generated using pymatgen
data_Li2Ni(CO3)2
_symmetry_space_group_name_H-M   'P 1'
_cell_length_a   8.66037457
_cell_length_b   5.97299670
_cell_length_c   5.37688053
_cell_angle_alpha   63.24995965
_cell_angle_beta   71.91485254
_cell_angle_gamma   81.96810910
_symmetry_Int_Tables_number   1
_chemical_formula_structural   Li2Ni(CO3)2
_chemical_formula_sum   'Li4 Ni2 C4 O12'
_cell_volume   236.10027444
_cell_formula_units_Z   2
loop_
 _symmetry_equiv_pos_site_id
 _symmetry_equiv_pos_as_xyz
  1  'x, y, z'
loop_
 _atom_site_type_symbol
 _atom_site_label
 _atom_site_symmetry_multiplicity
 _atom_site_fract_x
 _atom_site_fract_y
 _atom_site_fract_z
 _atom_site_occupancy
  Li  Li0  1  0.639070  0.881726  0.567200  1
  Li  Li1  1  0.139070  0.618274  0.698926  1
  Li  Li2  1  0.860930  0.381726  0.456271  1
  Li  Li3  1  0.360930  0.118274  0.087997  1
  Ni  Ni4  1  0.500000  0.500000  0.258266  1
  Ni  Ni5  1  0.000000  0.000000  0.008266  1
  C  C6  1  0.706806  0.922657  0.976653  1
  C  C7  1  0.206806  0.577343  0.149310  1
  C  C8  1  0.793194  0.422657  0.933459  1
  C  C9  1  0.293194  0.077343  0.606116  1
  O  O10  1  0.794715  0.989220  0.714745  1
  O  O11  1  0.764021  0.913816  0.177223  1
  O  O12  1  0.552714  0.861060  0.048396  1
  O  O13  1  0.052714  0.638940  0.159456  1
  O  O14  1  0.264021  0.586184  0.341038  1
  O  O15  1  0.294715  0.510780  0.953964  1
  O  O16  1  0.705285  0.489220  0.759459  1
  O  O17  1  0.735979  0.413816  0.191244  1
  O  O18  1  0.947286  0.361060  0.851111  1
  O  O19  1  0.447286  0.138940  0.462170  1
  O  O20  1  0.235979  0.086184  0.855060  1
  O  O21  1  0.205285  0.010780  0.498679  1
