# generated using pymatgen
data_Nd3SbO7
_symmetry_space_group_name_H-M   'P 1'
_cell_length_a   6.69096186
_cell_length_b   6.69096186
_cell_length_c   7.72121556
_cell_angle_alpha   90.00000000
_cell_angle_beta   90.00000000
_cell_angle_gamma   110.37817943
_symmetry_Int_Tables_number   1
_chemical_formula_structural   Nd3SbO7
_chemical_formula_sum   'Nd6 Sb2 O14'
_cell_volume   324.03694795
_cell_formula_units_Z   2
loop_
 _symmetry_equiv_pos_site_id
 _symmetry_equiv_pos_as_xyz
  1  'x, y, z'
loop_
 _atom_site_type_symbol
 _atom_site_label
 _atom_site_symmetry_multiplicity
 _atom_site_fract_x
 _atom_site_fract_y
 _atom_site_fract_z
 _atom_site_occupancy
  Nd  Nd0  1  0.060923  0.517185  0.250000  1
  Nd  Nd1  1  0.482815  0.939077  0.750000  1
  Nd  Nd2  1  0.000000  0.000000  0.000000  1
  Nd  Nd3  1  0.000000  0.000000  0.500000  1
  Nd  Nd4  1  0.517185  0.060923  0.250000  1
  Nd  Nd5  1  0.939077  0.482815  0.750000  1
  Sb  Sb6  1  0.500000  0.500000  0.000000  1
  Sb  Sb7  1  0.500000  0.500000  0.500000  1
  O  O8  1  0.112814  0.848712  0.750000  1
  O  O9  1  0.151288  0.887186  0.250000  1
  O  O10  1  0.186528  0.439369  0.533569  1
  O  O11  1  0.560631  0.813472  0.033569  1
  O  O12  1  0.560631  0.813472  0.466431  1
  O  O13  1  0.186528  0.439369  0.966431  1
  O  O14  1  0.582319  0.582319  0.750000  1
  O  O15  1  0.417681  0.417681  0.250000  1
  O  O16  1  0.439369  0.186528  0.966431  1
  O  O17  1  0.813472  0.560631  0.033569  1
  O  O18  1  0.439369  0.186528  0.533569  1
  O  O19  1  0.813472  0.560631  0.466431  1
  O  O20  1  0.848712  0.112814  0.750000  1
  O  O21  1  0.887186  0.151288  0.250000  1
