# generated using pymatgen
data_LiCoOF
_symmetry_space_group_name_H-M   'P 1'
_cell_length_a   3.02560295
_cell_length_b   3.02560295
_cell_length_c   16.52685665
_cell_angle_alpha   90.00000000
_cell_angle_beta   90.00000000
_cell_angle_gamma   90.09087165
_symmetry_Int_Tables_number   1
_chemical_formula_structural   LiCoOF
_chemical_formula_sum   'Li4 Co4 O4 F4'
_cell_volume   151.29117125
_cell_formula_units_Z   4
loop_
 _symmetry_equiv_pos_site_id
 _symmetry_equiv_pos_as_xyz
  1  'x, y, z'
loop_
 _atom_site_type_symbol
 _atom_site_label
 _atom_site_symmetry_multiplicity
 _atom_site_fract_x
 _atom_site_fract_y
 _atom_site_fract_z
 _atom_site_occupancy
  Li  Li0  1  0.500000  0.500000  0.505497  1
  Li  Li1  1  0.000000  0.000000  0.628099  1
  Li  Li2  1  0.500000  0.500000  0.746901  1
  Li  Li3  1  0.000000  0.000000  0.869503  1
  Co  Co4  1  0.500000  0.500000  0.999196  1
  Co  Co5  1  0.000000  0.000000  0.121038  1
  Co  Co6  1  0.500000  0.500000  0.253962  1
  Co  Co7  1  0.000000  0.000000  0.375804  1
  O  O8  1  0.000000  0.000000  0.993793  1
  O  O9  1  0.500000  0.500000  0.124744  1
  O  O10  1  0.000000  0.000000  0.250256  1
  O  O11  1  0.500000  0.500000  0.381207  1
  F  F12  1  0.000000  0.000000  0.508159  1
  F  F13  1  0.500000  0.500000  0.627255  1
  F  F14  1  0.000000  0.000000  0.747745  1
  F  F15  1  0.500000  0.500000  0.866841  1
