# generated using pymatgen
data_LiSn(PO3)4
_symmetry_space_group_name_H-M   'P 1'
_cell_length_a   5.48844257
_cell_length_b   10.63247055
_cell_length_c   10.63247055
_cell_angle_alpha   69.48290291
_cell_angle_beta   99.71257192
_cell_angle_gamma   99.71257192
_symmetry_Int_Tables_number   1
_chemical_formula_structural   LiSn(PO3)4
_chemical_formula_sum   'Li2 Sn2 P8 O24'
_cell_volume   568.72899992
_cell_formula_units_Z   2
loop_
 _symmetry_equiv_pos_site_id
 _symmetry_equiv_pos_as_xyz
  1  'x, y, z'
loop_
 _atom_site_type_symbol
 _atom_site_label
 _atom_site_symmetry_multiplicity
 _atom_site_fract_x
 _atom_site_fract_y
 _atom_site_fract_z
 _atom_site_occupancy
  Li  Li0  1  0.386036  0.435921  0.435921  1
  Li  Li1  1  0.613964  0.564079  0.564079  1
  Sn  Sn2  1  0.000000  0.500000  0.000000  1
  Sn  Sn3  1  0.000000  0.000000  0.500000  1
  P  P4  1  0.174299  0.371753  0.775541  1
  P  P5  1  0.174299  0.775541  0.371753  1
  P  P6  1  0.549238  0.939219  0.703693  1
  P  P7  1  0.549238  0.703693  0.939219  1
  P  P8  1  0.450762  0.060781  0.296307  1
  P  P9  1  0.450762  0.296307  0.060781  1
  P  P10  1  0.825701  0.224459  0.628247  1
  P  P11  1  0.825701  0.628247  0.224459  1
  O  O12  1  0.000000  0.236042  0.763958  1
  O  O13  1  0.000000  0.763958  0.236042  1
  O  O14  1  0.269157  0.678839  0.919918  1
  O  O15  1  0.269157  0.919918  0.678839  1
  O  O16  1  0.989228  0.190992  0.544737  1
  O  O17  1  0.989228  0.544737  0.190992  1
  O  O18  1  0.322737  0.435508  0.659773  1
  O  O19  1  0.322737  0.659773  0.435508  1
  O  O20  1  0.358402  0.301310  0.909440  1
  O  O21  1  0.358402  0.909440  0.301310  1
  O  O22  1  0.635617  0.861464  0.861464  1
  O  O23  1  0.316583  0.383763  0.105950  1
  O  O24  1  0.316583  0.105950  0.383763  1
  O  O25  1  0.683417  0.616237  0.894050  1
  O  O26  1  0.683417  0.894050  0.616237  1
  O  O27  1  0.364383  0.138536  0.138536  1
  O  O28  1  0.641598  0.698690  0.090560  1
  O  O29  1  0.641598  0.090560  0.698690  1
  O  O30  1  0.677263  0.340227  0.564492  1
  O  O31  1  0.677263  0.564492  0.340227  1
  O  O32  1  0.010772  0.455263  0.809008  1
  O  O33  1  0.010772  0.809008  0.455263  1
  O  O34  1  0.730843  0.080081  0.321161  1
  O  O35  1  0.730843  0.321161  0.080081  1
