# generated using pymatgen
data_Li2Mg11(WO4)12
_symmetry_space_group_name_H-M   'P 1'
_cell_length_a   10.51339763
_cell_length_b   10.79198119
_cell_length_c   17.84812123
_cell_angle_alpha   90.00000000
_cell_angle_beta   89.48363168
_cell_angle_gamma   90.00000000
_symmetry_Int_Tables_number   1
_chemical_formula_structural   Li2Mg11(WO4)12
_chemical_formula_sum   'Li4 Mg22 W24 O96'
_cell_volume   2024.97254707
_cell_formula_units_Z   2
loop_
 _symmetry_equiv_pos_site_id
 _symmetry_equiv_pos_as_xyz
  1  'x, y, z'
loop_
 _atom_site_type_symbol
 _atom_site_label
 _atom_site_symmetry_multiplicity
 _atom_site_fract_x
 _atom_site_fract_y
 _atom_site_fract_z
 _atom_site_occupancy
  Li  Li0  1  0.381098  0.250000  0.708528  1
  Li  Li1  1  0.622695  0.750000  0.293262  1
  Li  Li2  1  0.877910  0.250000  0.708785  1
  Li  Li3  1  0.949400  0.750000  0.750865  1
  Mg  Mg4  1  0.050530  0.250000  0.250507  1
  Mg  Mg5  1  0.129222  0.578368  0.471442  1
  Mg  Mg6  1  0.129222  0.921632  0.471442  1
  Mg  Mg7  1  0.120168  0.073522  0.968505  1
  Mg  Mg8  1  0.120168  0.426478  0.968505  1
  Mg  Mg9  1  0.211847  0.750000  0.749741  1
  Mg  Mg10  1  0.300359  0.250000  0.248798  1
  Mg  Mg11  1  0.377982  0.578545  0.028204  1
  Mg  Mg12  1  0.377982  0.921455  0.028204  1
  Mg  Mg13  1  0.370258  0.073190  0.531713  1
  Mg  Mg14  1  0.370258  0.426810  0.531713  1
  Mg  Mg15  1  0.550279  0.250000  0.250391  1
  Mg  Mg16  1  0.628554  0.576420  0.471888  1
  Mg  Mg17  1  0.628554  0.923580  0.471888  1
  Mg  Mg18  1  0.620384  0.426843  0.968487  1
  Mg  Mg19  1  0.620384  0.073157  0.968487  1
  Mg  Mg20  1  0.683284  0.750000  0.751983  1
  Mg  Mg21  1  0.801005  0.250000  0.249236  1
  Mg  Mg22  1  0.880116  0.922840  0.028038  1
  Mg  Mg23  1  0.880116  0.577160  0.028038  1
  Mg  Mg24  1  0.871823  0.072767  0.530735  1
  Mg  Mg25  1  0.871823  0.427233  0.530735  1
  W  W26  1  0.110496  0.750000  0.943590  1
  W  W27  1  0.110036  0.026801  0.657856  1
  W  W28  1  0.110036  0.473199  0.657856  1
  W  W29  1  0.137863  0.523020  0.156691  1
  W  W30  1  0.137863  0.976980  0.156691  1
  W  W31  1  0.140197  0.250000  0.443622  1
  W  W32  1  0.360469  0.750000  0.555066  1
  W  W33  1  0.362813  0.475442  0.842999  1
  W  W34  1  0.362813  0.024558  0.842999  1
  W  W35  1  0.391930  0.524177  0.343711  1
  W  W36  1  0.391930  0.975823  0.343711  1
  W  W37  1  0.389914  0.250000  0.056779  1
  W  W38  1  0.611774  0.750000  0.946346  1
  W  W39  1  0.611778  0.031030  0.657086  1
  W  W40  1  0.611778  0.468970  0.657086  1
  W  W41  1  0.639207  0.522897  0.156575  1
  W  W42  1  0.639207  0.977103  0.156575  1
  W  W43  1  0.640419  0.250000  0.442997  1
  W  W44  1  0.858526  0.750000  0.556723  1
  W  W45  1  0.861311  0.478347  0.841722  1
  W  W46  1  0.861311  0.021653  0.841722  1
  W  W47  1  0.889646  0.526140  0.342301  1
  W  W48  1  0.889646  0.973860  0.342301  1
  W  W49  1  0.890015  0.250000  0.056787  1
  O  O50  1  0.024381  0.607336  0.379976  1
  O  O51  1  0.024381  0.892664  0.379976  1
  O  O52  1  0.031911  0.250000  0.995534  1
  O  O53  1  0.038325  0.014379  0.072569  1
  O  O54  1  0.038325  0.485621  0.072569  1
  O  O55  1  0.041001  0.116981  0.465036  1
  O  O56  1  0.041001  0.383019  0.465036  1
  O  O57  1  0.038670  0.612734  0.214570  1
  O  O58  1  0.038670  0.887266  0.214570  1
  O  O59  1  0.079330  0.880034  0.705337  1
  O  O60  1  0.079330  0.619966  0.705337  1
  O  O61  1  0.076366  0.750000  0.845456  1
  O  O62  1  0.176038  0.250000  0.343232  1
  O  O63  1  0.176157  0.124331  0.206171  1
  O  O64  1  0.176157  0.375669  0.206171  1
  O  O65  1  0.208145  0.615539  0.966359  1
  O  O66  1  0.208145  0.884461  0.966359  1
  O  O67  1  0.205866  0.511135  0.571231  1
  O  O68  1  0.205866  0.988865  0.571231  1
  O  O69  1  0.215992  0.120086  0.709022  1
  O  O70  1  0.215992  0.379914  0.709022  1
  O  O71  1  0.218879  0.750000  0.493190  1
  O  O72  1  0.228600  0.110623  0.880194  1
  O  O73  1  0.228600  0.389377  0.880194  1
  O  O74  1  0.273909  0.607328  0.121456  1
  O  O75  1  0.273909  0.892672  0.121456  1
  O  O76  1  0.281787  0.250000  0.503882  1
  O  O77  1  0.291262  0.117043  0.035772  1
  O  O78  1  0.291262  0.382957  0.035772  1
  O  O79  1  0.291170  0.012654  0.427742  1
  O  O80  1  0.291170  0.487346  0.427742  1
  O  O81  1  0.293157  0.614934  0.288423  1
  O  O82  1  0.293157  0.885066  0.288423  1
  O  O83  1  0.312881  0.750000  0.650242  1
  O  O84  1  0.311930  0.615043  0.798008  1
  O  O85  1  0.311930  0.884957  0.798008  1
  O  O86  1  0.426844  0.250000  0.156940  1
  O  O87  1  0.425932  0.123662  0.293550  1
  O  O88  1  0.425932  0.376338  0.293550  1
  O  O89  1  0.458338  0.613301  0.534316  1
  O  O90  1  0.458338  0.886699  0.534316  1
  O  O91  1  0.457636  0.115988  0.780674  1
  O  O92  1  0.457636  0.384012  0.780674  1
  O  O93  1  0.462946  0.514431  0.927840  1
  O  O94  1  0.462946  0.985569  0.927840  1
  O  O95  1  0.465900  0.750000  0.006483  1
  O  O96  1  0.470686  0.114935  0.622489  1
  O  O97  1  0.470686  0.385065  0.622489  1
  O  O98  1  0.530235  0.611470  0.376657  1
  O  O99  1  0.530235  0.888530  0.376657  1
  O  O100  1  0.532511  0.250000  0.995786  1
  O  O101  1  0.537820  0.012940  0.073960  1
  O  O102  1  0.537820  0.487060  0.073960  1
  O  O103  1  0.541062  0.116379  0.463629  1
  O  O104  1  0.541062  0.383621  0.463629  1
  O  O105  1  0.547154  0.618249  0.216491  1
  O  O106  1  0.547154  0.881751  0.216491  1
  O  O107  1  0.580597  0.614359  0.702487  1
  O  O108  1  0.580597  0.885641  0.702487  1
  O  O109  1  0.577836  0.750000  0.849278  1
  O  O110  1  0.676325  0.250000  0.342670  1
  O  O111  1  0.676492  0.124151  0.206044  1
  O  O112  1  0.676492  0.375849  0.206044  1
  O  O113  1  0.710146  0.614787  0.967631  1
  O  O114  1  0.710146  0.885213  0.967631  1
  O  O115  1  0.707637  0.509357  0.570460  1
  O  O116  1  0.707637  0.990643  0.570460  1
  O  O117  1  0.719764  0.121125  0.709692  1
  O  O118  1  0.719764  0.378875  0.709692  1
  O  O119  1  0.717535  0.750000  0.494225  1
  O  O120  1  0.727537  0.107674  0.878842  1
  O  O121  1  0.727537  0.392326  0.878842  1
  O  O122  1  0.775417  0.605490  0.121503  1
  O  O123  1  0.775417  0.894510  0.121503  1
  O  O124  1  0.781372  0.250000  0.503688  1
  O  O125  1  0.790601  0.117243  0.035686  1
  O  O126  1  0.790601  0.382757  0.035686  1
  O  O127  1  0.791167  0.014268  0.426631  1
  O  O128  1  0.791167  0.485732  0.426631  1
  O  O129  1  0.784210  0.620489  0.291223  1
  O  O130  1  0.784210  0.879511  0.291223  1
  O  O131  1  0.817012  0.750000  0.653859  1
  O  O132  1  0.816837  0.622019  0.795244  1
  O  O133  1  0.816837  0.877981  0.795244  1
  O  O134  1  0.925947  0.250000  0.156964  1
  O  O135  1  0.924926  0.122727  0.293130  1
  O  O136  1  0.924926  0.377273  0.293130  1
  O  O137  1  0.957694  0.614875  0.535511  1
  O  O138  1  0.957694  0.885125  0.535511  1
  O  O139  1  0.957331  0.114907  0.781615  1
  O  O140  1  0.957331  0.385093  0.781615  1
  O  O141  1  0.961688  0.985734  0.926419  1
  O  O142  1  0.961688  0.514266  0.926419  1
  O  O143  1  0.966163  0.750000  0.004809  1
  O  O144  1  0.970903  0.112383  0.623155  1
  O  O145  1  0.970903  0.387617  0.623155  1
