# generated using pymatgen
data_Li2Mn2OF6
_symmetry_space_group_name_H-M   'P 1'
_cell_length_a   8.37866054
_cell_length_b   6.89364986
_cell_length_c   5.30519826
_cell_angle_alpha   85.06263507
_cell_angle_beta   102.21702353
_cell_angle_gamma   110.59477650
_symmetry_Int_Tables_number   1
_chemical_formula_structural   Li2Mn2OF6
_chemical_formula_sum   'Li4 Mn4 O2 F12'
_cell_volume   280.32393142
_cell_formula_units_Z   2
loop_
 _symmetry_equiv_pos_site_id
 _symmetry_equiv_pos_as_xyz
  1  'x, y, z'
loop_
 _atom_site_type_symbol
 _atom_site_label
 _atom_site_symmetry_multiplicity
 _atom_site_fract_x
 _atom_site_fract_y
 _atom_site_fract_z
 _atom_site_occupancy
  Li  Li0  1  0.106376  0.758583  0.325819  1
  Li  Li1  1  0.258968  0.984328  0.866535  1
  Li  Li2  1  0.731084  0.011050  0.129412  1
  Li  Li3  1  0.914560  0.252540  0.678783  1
  Mn  Mn4  1  0.178149  0.289005  0.273887  1
  Mn  Mn5  1  0.337048  0.517421  0.824756  1
  Mn  Mn6  1  0.671863  0.480297  0.178628  1
  Mn  Mn7  1  0.803836  0.714941  0.720254  1
  O  O8  1  0.126022  0.390825  0.942430  1
  O  O9  1  0.592004  0.575028  0.839189  1
  F  F10  1  0.027892  0.821247  0.630397  1
  F  F11  1  0.225303  0.575126  0.451097  1
  F  F12  1  0.377103  0.788577  0.928916  1
  F  F13  1  0.280181  0.242365  0.649106  1
  F  F14  1  0.187207  0.014660  0.169667  1
  F  F15  1  0.420421  0.400902  0.224343  1
  F  F16  1  0.808499  0.986233  0.821999  1
  F  F17  1  0.701768  0.747480  0.328153  1
  F  F18  1  0.623017  0.212242  0.067553  1
  F  F19  1  0.773792  0.432007  0.534382  1
  F  F20  1  0.911164  0.619492  0.066973  1
  F  F21  1  0.943743  0.185648  0.347720  1
