# generated using pymatgen
data_LiMn2F9
_symmetry_space_group_name_H-M   'P 1'
_cell_length_a   4.92324227
_cell_length_b   8.50203617
_cell_length_c   9.53414613
_cell_angle_alpha   121.34154808
_cell_angle_beta   104.98937154
_cell_angle_gamma   90.86765144
_symmetry_Int_Tables_number   1
_chemical_formula_structural   LiMn2F9
_chemical_formula_sum   'Li2 Mn4 F18'
_cell_volume   323.78291698
_cell_formula_units_Z   2
loop_
 _symmetry_equiv_pos_site_id
 _symmetry_equiv_pos_as_xyz
  1  'x, y, z'
loop_
 _atom_site_type_symbol
 _atom_site_label
 _atom_site_symmetry_multiplicity
 _atom_site_fract_x
 _atom_site_fract_y
 _atom_site_fract_z
 _atom_site_occupancy
  Li  Li0  1  0.384750  0.290577  0.421945  1
  Li  Li1  1  0.615250  0.709423  0.578055  1
  Mn  Mn2  1  0.064896  0.516768  0.759274  1
  Mn  Mn3  1  0.404149  0.130046  0.799758  1
  Mn  Mn4  1  0.595851  0.869954  0.200242  1
  Mn  Mn5  1  0.935104  0.483232  0.240726  1
  F  F6  1  0.082904  0.976464  0.651115  1
  F  F7  1  0.059800  0.293596  0.257189  1
  F  F8  1  0.213536  0.656490  0.432047  1
  F  F9  1  0.237498  0.327976  0.795549  1
  F  F10  1  0.303720  0.489501  0.629441  1
  F  F11  1  0.148207  0.455484  0.107637  1
  F  F12  1  0.388014  0.878751  0.325647  1
  F  F13  1  0.373959  0.699110  0.968176  1
  F  F14  1  0.546859  0.944258  0.813695  1
  F  F15  1  0.453141  0.055742  0.186305  1
  F  F16  1  0.626041  0.300890  0.031824  1
  F  F17  1  0.611986  0.121249  0.674353  1
  F  F18  1  0.851793  0.544516  0.892363  1
  F  F19  1  0.696280  0.510499  0.370559  1
  F  F20  1  0.762502  0.672024  0.204451  1
  F  F21  1  0.786464  0.343510  0.567953  1
  F  F22  1  0.940200  0.706404  0.742811  1
  F  F23  1  0.917096  0.023536  0.348885  1
