# generated using pymatgen
data_Li2Co3NiO8
_symmetry_space_group_name_H-M   'P 1'
_cell_length_a   8.03701506
_cell_length_b   8.04035878
_cell_length_c   8.04914248
_cell_angle_alpha   90.14113991
_cell_angle_beta   90.03450473
_cell_angle_gamma   90.03292427
_symmetry_Int_Tables_number   1
_chemical_formula_structural   Li2Co3NiO8
_chemical_formula_sum   'Li8 Co12 Ni4 O32'
_cell_volume   520.13772889
_cell_formula_units_Z   4
loop_
 _symmetry_equiv_pos_site_id
 _symmetry_equiv_pos_as_xyz
  1  'x, y, z'
loop_
 _atom_site_type_symbol
 _atom_site_label
 _atom_site_symmetry_multiplicity
 _atom_site_fract_x
 _atom_site_fract_y
 _atom_site_fract_z
 _atom_site_occupancy
  Li  Li0  1  -0.000380  0.001738  0.003136  1
  Li  Li1  1  0.250387  0.248659  0.248969  1
  Li  Li2  1  0.253212  0.751333  0.747213  1
  Li  Li3  1  0.498422  0.998622  0.500015  1
  Li  Li4  1  0.501711  0.498178  0.999383  1
  Li  Li5  1  0.748523  0.252565  0.750748  1
  Li  Li6  1  0.752713  0.748232  0.252572  1
  Li  Li7  1  0.995816  0.502232  0.497191  1
  Co  Co8  1  0.122959  0.126520  0.623046  1
  Co  Co9  1  0.123460  0.377074  0.873630  1
  Co  Co10  1  0.126739  0.625646  0.125791  1
  Co  Co11  1  0.374278  0.375110  0.622724  1
  Co  Co12  1  0.375821  0.623623  0.374774  1
  Co  Co13  1  0.376144  0.874363  0.125295  1
  Co  Co14  1  0.624106  0.374094  0.375016  1
  Co  Co15  1  0.624985  0.124534  0.126308  1
  Co  Co16  1  0.626476  0.875620  0.876337  1
  Co  Co17  1  0.873933  0.124947  0.375898  1
  Co  Co18  1  0.874624  0.875366  0.625166  1
  Co  Co19  1  0.875116  0.625626  0.874472  1
  Ni  Ni20  1  0.125618  0.874745  0.375344  1
  Ni  Ni21  1  0.375304  0.124851  0.875036  1
  Ni  Ni22  1  0.624820  0.624428  0.623770  1
  Ni  Ni23  1  0.873744  0.374252  0.127140  1
  O  O24  1  0.114346  0.109151  0.389483  1
  O  O25  1  0.112716  0.890499  0.609172  1
  O  O26  1  0.116268  0.610562  0.888237  1
  O  O27  1  0.138116  0.140877  0.861423  1
  O  O28  1  0.111163  0.390107  0.111450  1
  O  O29  1  0.134940  0.361658  0.638299  1
  O  O30  1  0.137037  0.639888  0.360630  1
  O  O31  1  0.136720  0.859422  0.140284  1
  O  O32  1  0.358883  0.135668  0.639179  1
  O  O33  1  0.358501  0.360652  0.862268  1
  O  O34  1  0.358500  0.635636  0.137496  1
  O  O35  1  0.390966  0.611548  0.611569  1
  O  O36  1  0.359979  0.862082  0.361508  1
  O  O37  1  0.386900  0.387051  0.387924  1
  O  O38  1  0.387855  0.111015  0.108531  1
  O  O39  1  0.390007  0.891293  0.887469  1
  O  O40  1  0.610825  0.391101  0.612495  1
  O  O41  1  0.612346  0.612501  0.391011  1
  O  O42  1  0.613815  0.884723  0.110088  1
  O  O43  1  0.641205  0.361364  0.137224  1
  O  O44  1  0.608763  0.111058  0.885580  1
  O  O45  1  0.637829  0.136811  0.361942  1
  O  O46  1  0.636812  0.861242  0.640592  1
  O  O47  1  0.638561  0.639890  0.861137  1
  O  O48  1  0.862325  0.361984  0.358741  1
  O  O49  1  0.861802  0.141478  0.139369  1
  O  O50  1  0.860607  0.861876  0.863956  1
  O  O51  1  0.890720  0.887892  0.388883  1
  O  O52  1  0.859792  0.638647  0.638338  1
  O  O53  1  0.890786  0.114191  0.615475  1
  O  O54  1  0.890521  0.385277  0.889962  1
  O  O55  1  0.891861  0.610642  0.111444  1
