# generated using pymatgen
data_Na4Bi2C4SO16
_symmetry_space_group_name_H-M   'P 1'
_cell_length_a   10.29562136
_cell_length_b   10.27863617
_cell_length_c   17.96265684
_cell_angle_alpha   89.84163746
_cell_angle_beta   72.62229257
_cell_angle_gamma   119.25339279
_symmetry_Int_Tables_number   1
_chemical_formula_structural   Na4Bi2C4SO16
_chemical_formula_sum   'Na16 Bi8 C16 S4 O64'
_cell_volume   1557.32199429
_cell_formula_units_Z   4
loop_
 _symmetry_equiv_pos_site_id
 _symmetry_equiv_pos_as_xyz
  1  'x, y, z'
loop_
 _atom_site_type_symbol
 _atom_site_label
 _atom_site_symmetry_multiplicity
 _atom_site_fract_x
 _atom_site_fract_y
 _atom_site_fract_z
 _atom_site_occupancy
  Na  Na0  1  0.922385  0.413728  0.163872  1
  Na  Na1  1  0.682020  0.783544  0.034171  1
  Na  Na2  1  0.920435  0.211019  0.960534  1
  Na  Na3  1  0.338471  0.116957  0.460768  1
  Na  Na4  1  0.919698  0.689772  0.460603  1
  Na  Na5  1  0.329794  0.414660  0.164462  1
  Na  Na6  1  0.920653  0.005429  0.164655  1
  Na  Na7  1  0.917809  0.501143  0.659956  1
  Na  Na8  1  0.072347  0.089429  0.340320  1
  Na  Na9  1  0.924825  0.912902  0.668194  1
  Na  Na10  1  0.682327  0.895721  0.534597  1
  Na  Na11  1  0.319969  0.701444  0.460329  1
  Na  Na12  1  0.329066  0.212388  0.958961  1
  Na  Na13  1  0.328211  0.919901  0.665211  1
  Na  Na14  1  0.327216  0.618674  0.962233  1
  Na  Na15  1  0.066510  0.590648  0.841045  1
  Bi  Bi16  1  0.495017  0.003325  0.999788  1
  Bi  Bi17  1  0.508333  0.251181  0.248815  1
  Bi  Bi18  1  0.495708  0.491363  0.499432  1
  Bi  Bi19  1  0.496685  0.750123  0.253530  1
  Bi  Bi20  1  0.501092  0.252437  0.749407  1
  Bi  Bi21  1  0.998578  0.742723  0.247991  1
  Bi  Bi22  1  0.505156  0.751928  0.752937  1
  Bi  Bi23  1  -0.000028  0.246503  0.748381  1
  C  C24  1  0.674752  0.081750  0.134633  1
  C  C25  1  0.272188  0.088413  0.141977  1
  C  C26  1  0.719631  0.420094  0.358452  1
  C  C27  1  0.721214  0.612361  0.169571  1
  C  C28  1  0.718863  0.106968  0.669681  1
  C  C29  1  0.722493  0.802514  0.361127  1
  C  C30  1  0.339226  0.416436  0.360678  1
  C  C31  1  0.721540  0.302318  0.858668  1
  C  C32  1  0.276478  0.186982  0.637293  1
  C  C33  1  0.674344  0.591284  0.635468  1
  C  C34  1  0.282997  0.689070  0.136159  1
  C  C35  1  0.279135  0.592157  0.639747  1
  C  C36  1  0.269695  0.890774  0.337221  1
  C  C37  1  0.270131  0.390669  0.837179  1
  C  C38  1  0.718567  0.918714  0.861599  1
  C  C39  1  0.339100  0.918921  0.860444  1
  S  S40  1  0.873785  0.184395  0.437284  1
  S  S41  1  0.125177  0.312445  0.062542  1
  S  S42  1  0.874797  0.687530  0.937523  1
  S  S43  1  0.125228  0.811920  0.562607  1
  O  O44  1  0.673977  0.133027  0.068933  1
  O  O45  1  0.933749  0.208743  0.348339  1
  O  O46  1  0.932417  0.087849  0.465669  1
  O  O47  1  0.677662  0.155711  0.193130  1
  O  O48  1  0.285850  0.038801  0.075186  1
  O  O49  1  0.933957  0.328728  0.467260  1
  O  O50  1  0.695764  0.091413  0.468538  1
  O  O51  1  0.839621  0.986135  0.796314  1
  O  O52  1  0.844754  0.481412  0.294786  1
  O  O53  1  0.718718  0.485326  0.173010  1
  O  O54  1  0.388677  0.211644  0.149562  1
  O  O55  1  0.840457  0.228707  0.673903  1
  O  O56  1  0.592847  0.296776  0.359541  1
  O  O57  1  0.844291  0.736164  0.171939  1
  O  O58  1  0.283080  0.023988  0.337504  1
  O  O59  1  0.302583  0.400462  0.032627  1
  O  O60  1  0.066601  0.164765  0.033115  1
  O  O61  1  0.590324  0.106180  0.673350  1
  O  O62  1  0.719919  0.486668  0.420148  1
  O  O63  1  0.598424  0.617195  0.165765  1
  O  O64  1  0.331834  0.349251  0.299248  1
  O  O65  1  0.855088  0.812191  0.358622  1
  O  O66  1  0.852283  0.310467  0.859030  1
  O  O67  1  0.065723  0.401779  0.033124  1
  O  O68  1  0.065585  0.282246  0.151281  1
  O  O69  1  0.673970  0.465663  0.642719  1
  O  O70  1  0.392903  0.250642  0.569881  1
  O  O71  1  0.676484  0.955665  0.141499  1
  O  O72  1  0.402485  0.754591  0.069198  1
  O  O73  1  0.720396  0.360505  0.794757  1
  O  O74  1  0.341724  0.353745  0.422579  1
  O  O75  1  0.713859  0.853184  0.297771  1
  O  O76  1  0.672715  0.643307  0.569548  1
  O  O77  1  0.293508  0.130623  0.696043  1
  O  O78  1  0.297460  0.630156  0.194874  1
  O  O79  1  0.600327  0.740607  0.426677  1
  O  O80  1  0.593735  0.233940  0.920504  1
  O  O81  1  0.348959  0.049530  0.857254  1
  O  O82  1  0.348616  0.547361  0.359701  1
  O  O83  1  0.935882  0.597914  0.965750  1
  O  O84  1  0.935380  0.716607  0.848354  1
  O  O85  1  0.141792  0.176005  0.644949  1
  O  O86  1  0.680317  0.668218  0.693105  1
  O  O87  1  0.150144  0.680557  0.142438  1
  O  O88  1  0.291710  0.541478  0.573997  1
  O  O89  1  0.387177  0.875829  0.338882  1
  O  O90  1  0.388050  0.376463  0.837281  1
  O  O91  1  0.696565  0.601027  0.968221  1
  O  O92  1  0.931353  0.835214  0.967616  1
  O  O93  1  0.720452  0.980604  0.663869  1
  O  O94  1  0.398473  0.717936  0.645981  1
  O  O95  1  0.137891  0.274844  0.838064  1
  O  O96  1  0.138726  0.774108  0.337141  1
  O  O97  1  0.592633  0.794257  0.862028  1
  O  O98  1  0.282932  0.524546  0.838114  1
  O  O99  1  0.147073  0.520848  0.700188  1
  O  O100  1  0.137973  0.014679  0.201335  1
  O  O101  1  0.302545  0.898677  0.532635  1
  O  O102  1  0.066591  0.664012  0.533344  1
  O  O103  1  0.719264  0.976202  0.926160  1
  O  O104  1  0.327473  0.846420  0.800677  1
  O  O105  1  0.065588  0.901038  0.533243  1
  O  O106  1  0.065805  0.781394  0.651373  1
  O  O107  1  0.345264  0.859772  0.922281  1
