# generated using pymatgen
data_Li2AlVO4
_symmetry_space_group_name_H-M   'P 1'
_cell_length_a   11.07008977
_cell_length_b   5.08771086
_cell_length_c   6.49137228
_cell_angle_alpha   90.00006372
_cell_angle_beta   89.99993902
_cell_angle_gamma   90.00023034
_symmetry_Int_Tables_number   1
_chemical_formula_structural   Li2AlVO4
_chemical_formula_sum   'Li8 Al4 V4 O16'
_cell_volume   365.60327823
_cell_formula_units_Z   4
loop_
 _symmetry_equiv_pos_site_id
 _symmetry_equiv_pos_as_xyz
  1  'x, y, z'
loop_
 _atom_site_type_symbol
 _atom_site_label
 _atom_site_symmetry_multiplicity
 _atom_site_fract_x
 _atom_site_fract_y
 _atom_site_fract_z
 _atom_site_occupancy
  Li  Li0  1  0.080823  0.744435  0.869003  1
  Li  Li1  1  0.163630  0.190607  0.117302  1
  Li  Li2  1  0.336369  0.690608  0.617302  1
  Li  Li3  1  0.419176  0.244435  0.369004  1
  Li  Li4  1  0.580823  0.755563  0.869003  1
  Li  Li5  1  0.663630  0.309391  0.117302  1
  Li  Li6  1  0.836369  0.809392  0.617303  1
  Li  Li7  1  0.919176  0.255562  0.369003  1
  Al  Al8  1  0.085305  0.684263  0.366493  1
  Al  Al9  1  0.414696  0.184263  0.866493  1
  Al  Al10  1  0.585302  0.815737  0.366494  1
  Al  Al11  1  0.914695  0.315735  0.866494  1
  V  V12  1  0.168234  0.188496  0.619595  1
  V  V13  1  0.331772  0.688498  0.119596  1
  V  V14  1  0.668230  0.311513  0.619600  1
  V  V15  1  0.831774  0.811504  0.119595  1
  O  O16  1  0.071487  0.246857  0.860685  1
  O  O17  1  0.094690  0.333083  0.375001  1
  O  O18  1  0.158599  0.803722  0.592559  1
  O  O19  1  0.163372  0.793657  0.141456  1
  O  O20  1  0.336626  0.293659  0.641456  1
  O  O21  1  0.341401  0.303720  0.092560  1
  O  O22  1  0.405310  0.833083  0.875003  1
  O  O23  1  0.428512  0.746857  0.360684  1
  O  O24  1  0.571489  0.253146  0.860683  1
  O  O25  1  0.594689  0.166917  0.375004  1
  O  O26  1  0.658599  0.696280  0.592559  1
  O  O27  1  0.663372  0.706341  0.141457  1
  O  O28  1  0.836627  0.206341  0.641454  1
  O  O29  1  0.841401  0.196274  0.092559  1
  O  O30  1  0.905310  0.666918  0.875004  1
  O  O31  1  0.928512  0.753143  0.360690  1
