# generated using pymatgen
data_Li3Ti(PO4)2
_symmetry_space_group_name_H-M   'P 1'
_cell_length_a   4.77125479
_cell_length_b   5.25544422
_cell_length_c   13.17380278
_cell_angle_alpha   82.57437767
_cell_angle_beta   90.16870776
_cell_angle_gamma   63.12877466
_symmetry_Int_Tables_number   1
_chemical_formula_structural   Li3Ti(PO4)2
_chemical_formula_sum   'Li6 Ti2 P4 O16'
_cell_volume   291.49093364
_cell_formula_units_Z   2
loop_
 _symmetry_equiv_pos_site_id
 _symmetry_equiv_pos_as_xyz
  1  'x, y, z'
loop_
 _atom_site_type_symbol
 _atom_site_label
 _atom_site_symmetry_multiplicity
 _atom_site_fract_x
 _atom_site_fract_y
 _atom_site_fract_z
 _atom_site_occupancy
  Li  Li0  1  0.643028  0.656091  0.648342  1
  Li  Li1  1  0.700573  0.653542  0.151717  1
  Li  Li2  1  0.298102  0.344832  0.850477  1
  Li  Li3  1  0.354028  0.340955  0.351790  1
  Li  Li4  1  0.948227  0.999060  0.750662  1
  Li  Li5  1  0.049450  -0.000179  0.250101  1
  Ti  Ti6  1  0.998906  0.998637  0.500137  1
  Ti  Ti7  1  0.001383  0.997237  0.000408  1
  P  P8  1  0.638740  0.679078  0.884931  1
  P  P9  1  0.677984  0.680690  0.385653  1
  P  P10  1  0.319547  0.316902  0.614665  1
  P  P11  1  0.363340  0.316173  0.115079  1
  O  O12  1  0.277142  0.894363  0.868200  1
  O  O13  1  0.823073  0.897657  0.367701  1
  O  O14  1  0.774606  0.770983  0.972930  1
  O  O15  1  0.452162  0.773276  0.473106  1
  O  O16  1  0.817777  0.682171  0.788332  1
  O  O17  1  0.043148  0.625898  0.584554  1
  O  O18  1  0.495712  0.680423  0.289230  1
  O  O19  1  0.331186  0.624941  0.085467  1
  O  O20  1  0.673025  0.369910  0.914354  1
  O  O21  1  0.501514  0.317040  0.710883  1
  O  O22  1  0.954878  0.372161  0.415533  1
  O  O23  1  0.180530  0.316356  0.211586  1
  O  O24  1  0.546038  0.224898  0.526826  1
  O  O25  1  0.227972  0.224444  0.027587  1
  O  O26  1  0.174824  0.099665  0.632436  1
  O  O27  1  0.724353  0.098463  0.132998  1
