# generated using pymatgen
data_CaMn7O8
_symmetry_space_group_name_H-M   'P 1'
_cell_length_a   6.43080695
_cell_length_b   5.56749308
_cell_length_c   6.43080695
_cell_angle_alpha   106.93482070
_cell_angle_beta   120.07631247
_cell_angle_gamma   73.06517930
_symmetry_Int_Tables_number   1
_chemical_formula_structural   CaMn7O8
_chemical_formula_sum   'Ca1 Mn7 O8'
_cell_volume   187.64564219
_cell_formula_units_Z   1
loop_
 _symmetry_equiv_pos_site_id
 _symmetry_equiv_pos_as_xyz
  1  'x, y, z'
loop_
 _atom_site_type_symbol
 _atom_site_label
 _atom_site_symmetry_multiplicity
 _atom_site_fract_x
 _atom_site_fract_y
 _atom_site_fract_z
 _atom_site_occupancy
  Ca  Ca0  1  0.250000  0.500000  0.750000  1
  Mn  Mn1  1  0.997258  0.000000  0.497258  1
  Mn  Mn2  1  0.500837  0.998115  0.499163  1
  Mn  Mn3  1  0.999163  0.001885  0.000837  1
  Mn  Mn4  1  0.250000  0.500000  0.250000  1
  Mn  Mn5  1  0.750000  0.500000  0.750000  1
  Mn  Mn6  1  0.502742  0.000000  0.002742  1
  Mn  Mn7  1  0.750000  0.500000  0.250000  1
  O  O8  1  0.123008  0.242272  0.876992  1
  O  O9  1  0.120353  0.245207  0.365711  1
  O  O10  1  0.634289  0.245207  0.879647  1
  O  O11  1  0.624993  0.253620  0.375007  1
  O  O12  1  0.376992  0.757727  0.623008  1
  O  O13  1  0.865711  0.754793  0.620353  1
  O  O14  1  0.379647  0.754793  0.134289  1
  O  O15  1  0.875007  0.746380  0.124993  1
