# generated using pymatgen
data_K2W4O13
_symmetry_space_group_name_H-M   'P 1'
_cell_length_a   15.99131976
_cell_length_b   16.02868160
_cell_length_c   3.88632796
_cell_angle_alpha   89.96193167
_cell_angle_beta   90.00753228
_cell_angle_gamma   119.98213222
_symmetry_Int_Tables_number   1
_chemical_formula_structural   K2W4O13
_chemical_formula_sum   'K6 W12 O39'
_cell_volume   862.83995192
_cell_formula_units_Z   3
loop_
 _symmetry_equiv_pos_site_id
 _symmetry_equiv_pos_as_xyz
  1  'x, y, z'
loop_
 _atom_site_type_symbol
 _atom_site_label
 _atom_site_symmetry_multiplicity
 _atom_site_fract_x
 _atom_site_fract_y
 _atom_site_fract_z
 _atom_site_occupancy
  K  K0  1  0.001121  0.999092  0.499751  1
  K  K1  1  0.310763  0.504746  0.527188  1
  K  K2  1  0.495994  0.810159  0.526948  1
  K  K3  1  0.497007  0.182672  0.473078  1
  K  K4  1  0.687138  0.501628  0.472443  1
  K  K5  1  0.815793  0.314613  0.472188  1
  W  W6  1  0.090300  0.819841  0.030736  1
  W  W7  1  0.091726  0.454759  0.021737  1
  W  W8  1  0.360401  0.908790  0.024569  1
  W  W9  1  0.177585  0.267920  0.027697  1
  W  W10  1  0.265248  0.087994  0.974270  1
  W  W11  1  0.551222  0.637968  0.023440  1
  W  W12  1  0.449879  0.361144  0.976734  1
  W  W13  1  0.733186  0.910677  0.027572  1
  W  W14  1  0.824605  0.734102  0.971705  1
  W  W15  1  0.636984  0.087754  0.977384  1
  W  W16  1  0.912139  0.549505  0.972727  1
  W  W17  1  0.910906  0.178148  0.973439  1
  O  O18  1  0.150248  0.968546  0.996490  1
  O  O19  1  0.094205  0.829056  0.510063  1
  O  O20  1  0.034195  0.688992  0.004487  1
  O  O21  1  0.000086  0.500403  0.999002  1
  O  O22  1  0.221971  0.844576  0.009483  1
  O  O23  1  0.079214  0.441220  0.511598  1
  O  O24  1  0.363656  0.922340  0.512248  1
  O  O25  1  0.202103  0.563611  0.016419  1
  O  O26  1  0.031522  0.182010  0.997090  1
  O  O27  1  0.156277  0.377550  0.009889  1
  O  O28  1  0.375908  0.806939  0.018607  1
  O  O29  1  0.171699  0.266890  0.509661  1
  O  O30  1  0.183008  0.151965  0.003569  1
  O  O31  1  0.435369  0.630274  0.014867  1
  O  O32  1  0.310755  0.349887  0.001328  1
  O  O33  1  0.650420  0.960721  0.001219  1
  O  O34  1  0.266297  0.095996  0.490862  1
  O  O35  1  0.559564  0.637511  0.512047  1
  O  O36  1  0.620985  0.778203  0.010637  1
  O  O37  1  0.500933  0.499984  0.000203  1
  O  O38  1  0.379253  0.222107  0.989125  1
  O  O39  1  0.441957  0.362936  0.487968  1
  O  O40  1  0.732851  0.904361  0.509566  1
  O  O41  1  0.349073  0.040003  0.998691  1
  O  O42  1  0.690599  0.651576  0.998893  1
  O  O43  1  0.566272  0.369899  0.984994  1
  O  O44  1  0.817102  0.848953  0.996064  1
  O  O45  1  0.828861  0.733831  0.489735  1
  O  O46  1  0.500081  0.001992  0.998912  1
  O  O47  1  0.631005  0.196697  0.984421  1
  O  O48  1  0.841538  0.620474  0.987931  1
  O  O49  1  0.968302  0.817497  0.001838  1
  O  O50  1  0.803345  0.433971  0.986289  1
  O  O51  1  0.637661  0.079154  0.487918  1
  O  O52  1  0.918494  0.557203  0.486901  1
  O  O53  1  0.778001  0.156317  0.989611  1
  O  O54  1  0.959873  0.309188  0.997603  1
  O  O55  1  0.904507  0.170345  0.490530  1
  O  O56  1  0.848652  0.030892  0.003838  1
