# generated using pymatgen
data_LiMn2(PO4)2
_symmetry_space_group_name_H-M   'P 1'
_cell_length_a   8.58860975
_cell_length_b   5.32621868
_cell_length_c   8.25558804
_cell_angle_alpha   90.00000000
_cell_angle_beta   106.58377521
_cell_angle_gamma   90.00000000
_symmetry_Int_Tables_number   1
_chemical_formula_structural   LiMn2(PO4)2
_chemical_formula_sum   'Li2 Mn4 P4 O16'
_cell_volume   361.94138019
_cell_formula_units_Z   2
loop_
 _symmetry_equiv_pos_site_id
 _symmetry_equiv_pos_as_xyz
  1  'x, y, z'
loop_
 _atom_site_type_symbol
 _atom_site_label
 _atom_site_symmetry_multiplicity
 _atom_site_fract_x
 _atom_site_fract_y
 _atom_site_fract_z
 _atom_site_occupancy
  Li  Li0  1  0.287523  0.335924  0.504869  1
  Li  Li1  1  0.787523  0.664076  0.504869  1
  Mn  Mn2  1  0.198277  0.330757  0.872968  1
  Mn  Mn3  1  0.389250  0.828807  0.368650  1
  Mn  Mn4  1  0.698277  0.669243  0.872968  1
  Mn  Mn5  1  0.889250  0.171193  0.368650  1
  P  P6  1  0.014608  0.663031  0.248581  1
  P  P7  1  0.326311  0.831456  0.737268  1
  P  P8  1  0.514608  0.336969  0.248581  1
  P  P9  1  0.826311  0.168544  0.737268  1
  O  O10  1  0.063686  0.395331  0.321832  1
  O  O11  1  0.195028  0.686980  0.792922  1
  O  O12  1  0.267709  0.105586  0.689073  1
  O  O13  1  0.166342  0.803176  0.227640  1
  O  O14  1  0.352324  0.691132  0.577988  1
  O  O15  1  0.489205  0.826638  0.877223  1
  O  O16  1  0.439931  0.197769  0.375664  1
  O  O17  1  0.392693  0.340992  0.073321  1
  O  O18  1  0.563686  0.604669  0.321832  1
  O  O19  1  0.695028  0.313020  0.792922  1
  O  O20  1  0.767709  0.894414  0.689073  1
  O  O21  1  0.666342  0.196824  0.227640  1
  O  O22  1  0.852324  0.308868  0.577988  1
  O  O23  1  0.989205  0.173362  0.877223  1
  O  O24  1  0.939931  0.802231  0.375664  1
  O  O25  1  0.892693  0.659008  0.073321  1
