# generated using pymatgen
data_Lu4(B2O5)3
_symmetry_space_group_name_H-M   'P 1'
_cell_length_a   4.37326405
_cell_length_b   6.18111815
_cell_length_c   18.67674835
_cell_angle_alpha   84.18370593
_cell_angle_beta   90.00000000
_cell_angle_gamma   69.28253646
_symmetry_Int_Tables_number   1
_chemical_formula_structural   Lu4(B2O5)3
_chemical_formula_sum   'Lu8 B12 O30'
_cell_volume   469.43738726
_cell_formula_units_Z   2
loop_
 _symmetry_equiv_pos_site_id
 _symmetry_equiv_pos_as_xyz
  1  'x, y, z'
loop_
 _atom_site_type_symbol
 _atom_site_label
 _atom_site_symmetry_multiplicity
 _atom_site_fract_x
 _atom_site_fract_y
 _atom_site_fract_z
 _atom_site_occupancy
  Lu  Lu0  1  0.342784  0.725382  0.801766  1
  Lu  Lu1  1  0.330961  0.731919  0.599700  1
  Lu  Lu2  1  0.931833  0.725382  0.301766  1
  Lu  Lu3  1  0.937121  0.731919  0.099700  1
  Lu  Lu4  1  0.062879  0.268081  0.900300  1
  Lu  Lu5  1  0.068167  0.274618  0.698234  1
  Lu  Lu6  1  0.669039  0.268081  0.400300  1
  Lu  Lu7  1  0.657216  0.274618  0.198234  1
  B  B8  1  0.802584  0.806399  0.912940  1
  B  B9  1  0.796285  0.862288  0.694128  1
  B  B10  1  0.358104  0.662696  0.974562  1
  B  B11  1  0.391017  0.806399  0.412940  1
  B  B12  1  0.341427  0.862288  0.194128  1
  B  B13  1  0.979200  0.662696  0.474562  1
  B  B14  1  0.020800  0.337304  0.525438  1
  B  B15  1  0.658573  0.137712  0.805872  1
  B  B16  1  0.608983  0.193601  0.587060  1
  B  B17  1  0.641896  0.337304  0.025438  1
  B  B18  1  0.203715  0.137712  0.305872  1
  B  B19  1  0.197416  0.193601  0.087060  1
  O  O20  1  0.842980  0.969631  0.621055  1
  O  O21  1  0.454342  0.832636  0.928704  1
  O  O22  1  0.465364  0.867821  0.696685  1
  O  O23  1  0.003207  0.746301  0.980742  1
  O  O24  1  0.187390  0.969631  0.121055  1
  O  O25  1  0.713023  0.832636  0.428704  1
  O  O26  1  0.928557  0.635991  0.861297  1
  O  O27  1  0.666815  0.867821  0.196685  1
  O  O28  1  0.250491  0.746301  0.480742  1
  O  O29  1  0.052024  0.632124  0.704154  1
  O  O30  1  0.908708  0.584084  0.549942  1
  O  O31  1  0.492791  0.415916  0.950058  1
  O  O32  1  0.435452  0.635991  0.361297  1
  O  O33  1  0.315852  0.632124  0.204154  1
  O  O34  1  0.684148  0.367876  0.795846  1
  O  O35  1  0.564548  0.364009  0.638703  1
  O  O36  1  0.507209  0.584084  0.049942  1
  O  O37  1  0.091292  0.415916  0.450058  1
  O  O38  1  0.947976  0.367876  0.295846  1
  O  O39  1  0.749509  0.253699  0.519258  1
  O  O40  1  0.333185  0.132179  0.803315  1
  O  O41  1  0.071443  0.364009  0.138703  1
  O  O42  1  0.286977  0.167364  0.571296  1
  O  O43  1  0.812610  0.030369  0.878945  1
  O  O44  1  0.870215  0.000000  0.750000  1
  O  O45  1  0.996793  0.253699  0.019258  1
  O  O46  1  0.534636  0.132179  0.303315  1
  O  O47  1  0.545658  0.167364  0.071296  1
  O  O48  1  0.157020  0.030369  0.378945  1
  O  O49  1  0.129785  0.000000  0.250000  1
