# generated using pymatgen
data_Li4Cr2Cu3Sb3O16
_symmetry_space_group_name_H-M   'P 1'
_cell_length_a   6.10457137
_cell_length_b   6.01675791
_cell_length_c   9.63337785
_cell_angle_alpha   89.99010376
_cell_angle_beta   88.29468728
_cell_angle_gamma   119.56661980
_symmetry_Int_Tables_number   1
_chemical_formula_structural   Li4Cr2Cu3Sb3O16
_chemical_formula_sum   'Li4 Cr2 Cu3 Sb3 O16'
_cell_volume   307.57511027
_cell_formula_units_Z   1
loop_
 _symmetry_equiv_pos_site_id
 _symmetry_equiv_pos_as_xyz
  1  'x, y, z'
loop_
 _atom_site_type_symbol
 _atom_site_label
 _atom_site_symmetry_multiplicity
 _atom_site_fract_x
 _atom_site_fract_y
 _atom_site_fract_z
 _atom_site_occupancy
  Li  Li0  1  0.339276  0.669631  0.904486  1
  Li  Li1  1  0.011273  0.005455  0.005158  1
  Li  Li2  1  0.065485  0.032869  0.480484  1
  Li  Li3  1  0.679836  0.339858  0.384881  1
  Cr  Cr4  1  0.316015  0.658055  0.477971  1
  Cr  Cr5  1  0.643337  0.321798  0.995531  1
  Cu  Cu6  1  0.166115  0.829690  0.211509  1
  Cu  Cu7  1  0.166202  0.336572  0.211538  1
  Cu  Cu8  1  0.337003  0.168421  0.719770  1
  Sb  Sb9  1  0.652670  0.826346  0.215518  1
  Sb  Sb10  1  0.830596  0.662887  0.713024  1
  Sb  Sb11  1  0.830478  0.167671  0.713017  1
  O  O12  1  0.153882  0.832941  0.601707  1
  O  O13  1  0.048596  0.524642  0.343897  1
  O  O14  1  0.335567  0.667840  0.108523  1
  O  O15  1  0.987960  0.994004  0.301853  1
  O  O16  1  0.970707  0.985340  0.820969  1
  O  O17  1  0.153648  0.320942  0.601658  1
  O  O18  1  0.493506  0.965719  0.352019  1
  O  O19  1  0.492007  0.526514  0.351624  1
  O  O20  1  0.320048  0.159941  0.091441  1
  O  O21  1  0.682886  0.841404  0.599982  1
  O  O22  1  0.524852  0.487236  0.838810  1
  O  O23  1  0.524972  0.037638  0.838903  1
  O  O24  1  0.697029  0.348619  0.596212  1
  O  O25  1  0.806510  0.660747  0.093538  1
  O  O26  1  0.962241  0.481120  0.840104  1
  O  O27  1  0.807303  0.146404  0.093716  1
