# generated using pymatgen
data_Fe3(OF2)2
_symmetry_space_group_name_H-M   'P 1'
_cell_length_a   4.74472762
_cell_length_b   4.74472771
_cell_length_c   9.41868495
_cell_angle_alpha   90.00013085
_cell_angle_beta   90.00004545
_cell_angle_gamma   90.00364649
_symmetry_Int_Tables_number   1
_chemical_formula_structural   Fe3(OF2)2
_chemical_formula_sum   'Fe6 O4 F8'
_cell_volume   212.03758539
_cell_formula_units_Z   2
loop_
 _symmetry_equiv_pos_site_id
 _symmetry_equiv_pos_as_xyz
  1  'x, y, z'
loop_
 _atom_site_type_symbol
 _atom_site_label
 _atom_site_symmetry_multiplicity
 _atom_site_fract_x
 _atom_site_fract_y
 _atom_site_fract_z
 _atom_site_occupancy
  Fe  Fe0  1  0.000001  0.999998  0.023461  1
  Fe  Fe1  1  0.000001  -0.000002  0.309780  1
  Fe  Fe2  1  0.999998  0.000001  0.666651  1
  Fe  Fe3  1  0.500002  0.499998  0.166662  1
  Fe  Fe4  1  0.500000  0.499999  0.809856  1
  Fe  Fe5  1  0.499999  0.499999  0.523565  1
  O  O6  1  0.213651  0.786348  0.166695  1
  O  O7  1  0.286331  0.286332  0.666665  1
  O  O8  1  0.713669  0.713670  0.666664  1
  O  O9  1  0.786349  0.213652  0.166695  1
  F  F10  1  0.193588  0.806413  0.494269  1
  F  F11  1  0.193577  0.806424  0.839027  1
  F  F12  1  0.306416  0.306418  0.994247  1
  F  F13  1  0.306417  0.306418  0.339110  1
  F  F14  1  0.693582  0.693583  0.994246  1
  F  F15  1  0.693583  0.693584  0.339110  1
  F  F16  1  0.806424  0.193577  0.839027  1
  F  F17  1  0.806412  0.193588  0.494270  1
