# generated using pymatgen
data_Fe6O5F7
_symmetry_space_group_name_H-M   'P 1'
_cell_length_a   4.74348106
_cell_length_b   7.86055811
_cell_length_c   5.69132535
_cell_angle_alpha   94.82425222
_cell_angle_beta   91.30740130
_cell_angle_gamma   89.35459193
_symmetry_Int_Tables_number   1
_chemical_formula_structural   Fe6O5F7
_chemical_formula_sum   'Fe6 O5 F7'
_cell_volume   211.39294850
_cell_formula_units_Z   1
loop_
 _symmetry_equiv_pos_site_id
 _symmetry_equiv_pos_as_xyz
  1  'x, y, z'
loop_
 _atom_site_type_symbol
 _atom_site_label
 _atom_site_symmetry_multiplicity
 _atom_site_fract_x
 _atom_site_fract_y
 _atom_site_fract_z
 _atom_site_occupancy
  Fe  Fe0  1  0.562540  0.657398  0.171645  1
  Fe  Fe1  1  0.513828  0.012977  0.480544  1
  Fe  Fe2  1  0.489197  0.335672  0.832793  1
  Fe  Fe3  1  0.969413  0.686592  0.666639  1
  Fe  Fe4  1  0.991552  0.320420  0.333948  1
  Fe  Fe5  1  0.978358  0.987942  0.017002  1
  O  O6  1  0.801071  0.754230  0.955920  1
  O  O7  1  0.802794  0.108064  0.309449  1
  O  O8  1  0.691243  0.775712  0.464325  1
  O  O9  1  0.694708  0.425537  0.121056  1
  O  O10  1  0.308074  0.237755  0.544219  1
  F  F11  1  0.803837  0.439826  0.631097  1
  F  F12  1  0.696103  0.106864  0.797589  1
  F  F13  1  0.295943  0.565166  0.865726  1
  F  F14  1  0.308727  0.888479  0.200244  1
  F  F15  1  0.202413  0.233445  0.037191  1
  F  F16  1  0.184725  0.565175  0.376540  1
  F  F17  1  0.205474  0.898745  0.694074  1
