# generated using pymatgen
data_CaV2P3HO12
_symmetry_space_group_name_H-M   'P 1'
_cell_length_a   6.47966650
_cell_length_b   20.31129292
_cell_length_c   6.52978707
_cell_angle_alpha   90.00000000
_cell_angle_beta   91.38292084
_cell_angle_gamma   90.00000000
_symmetry_Int_Tables_number   1
_chemical_formula_structural   CaV2P3HO12
_chemical_formula_sum   'Ca4 V8 P12 H4 O48'
_cell_volume   859.13760013
_cell_formula_units_Z   4
loop_
 _symmetry_equiv_pos_site_id
 _symmetry_equiv_pos_as_xyz
  1  'x, y, z'
loop_
 _atom_site_type_symbol
 _atom_site_label
 _atom_site_symmetry_multiplicity
 _atom_site_fract_x
 _atom_site_fract_y
 _atom_site_fract_z
 _atom_site_occupancy
  Ca  Ca0  1  0.854047  0.920853  0.059356  1
  Ca  Ca1  1  0.354047  0.579147  0.559356  1
  Ca  Ca2  1  0.145953  0.079147  0.940644  1
  Ca  Ca3  1  0.645953  0.420853  0.440644  1
  V  V4  1  0.404915  0.903047  0.732390  1
  V  V5  1  0.904915  0.596953  0.232389  1
  V  V6  1  0.595085  0.096953  0.267610  1
  V  V7  1  0.095085  0.403047  0.767610  1
  V  V8  1  0.435117  0.789284  0.086131  1
  V  V9  1  0.935117  0.710716  0.586131  1
  V  V10  1  0.564883  0.210716  0.913869  1
  V  V11  1  0.064883  0.289284  0.413869  1
  P  P12  1  0.915906  0.878146  0.617112  1
  P  P13  1  0.415906  0.621854  0.117112  1
  P  P14  1  0.084094  0.121854  0.382888  1
  P  P15  1  0.584094  0.378146  0.882888  1
  P  P16  1  0.438464  0.747979  0.580792  1
  P  P17  1  0.938464  0.752021  0.080792  1
  P  P18  1  0.561536  0.252021  0.419208  1
  P  P19  1  0.061536  0.247979  0.919208  1
  P  P20  1  0.382062  0.949510  0.218488  1
  P  P21  1  0.882062  0.550490  0.718488  1
  P  P22  1  0.617938  0.050490  0.781512  1
  P  P23  1  0.117938  0.449510  0.281512  1
  H  H24  1  0.065936  0.943704  0.406978  1
  H  H25  1  0.565936  0.556296  0.906978  1
  H  H26  1  0.934064  0.056296  0.593022  1
  H  H27  1  0.434064  0.443704  0.093022  1
  O  O28  1  0.713594  0.894143  0.723771  1
  O  O29  1  0.213594  0.605857  0.223771  1
  O  O30  1  0.286406  0.105857  0.276229  1
  O  O31  1  0.786406  0.394143  0.776229  1
  O  O32  1  0.922260  0.927415  0.424208  1
  O  O33  1  0.422260  0.572585  0.924208  1
  O  O34  1  0.077740  0.072585  0.575792  1
  O  O35  1  0.577740  0.427415  0.075792  1
  O  O36  1  0.090610  0.899923  0.769308  1
  O  O37  1  0.590610  0.600077  0.269308  1
  O  O38  1  0.909390  0.100077  0.230692  1
  O  O39  1  0.409390  0.399923  0.730692  1
  O  O40  1  0.933135  0.808734  0.541543  1
  O  O41  1  0.433135  0.691266  0.041543  1
  O  O42  1  0.066865  0.191266  0.458457  1
  O  O43  1  0.566865  0.308734  0.958457  1
  O  O44  1  0.411545  0.799912  0.761111  1
  O  O45  1  0.911545  0.700088  0.261111  1
  O  O46  1  0.588455  0.200088  0.238889  1
  O  O47  1  0.088455  0.299912  0.738889  1
  O  O48  1  0.461092  0.788658  0.385806  1
  O  O49  1  0.961092  0.711342  0.885806  1
  O  O50  1  0.538908  0.211342  0.614194  1
  O  O51  1  0.038908  0.288658  0.114194  1
  O  O52  1  0.627871  0.702862  0.615612  1
  O  O53  1  0.127871  0.797138  0.115612  1
  O  O54  1  0.372129  0.297138  0.384388  1
  O  O55  1  0.872129  0.202862  0.884388  1
  O  O56  1  0.248947  0.701050  0.572806  1
  O  O57  1  0.748947  0.798950  0.072806  1
  O  O58  1  0.751053  0.298950  0.427194  1
  O  O59  1  0.251053  0.201050  0.927194  1
  O  O60  1  0.347693  0.920276  0.431298  1
  O  O61  1  0.847693  0.579724  0.931298  1
  O  O62  1  0.652307  0.079724  0.568702  1
  O  O63  1  0.152307  0.420276  0.068702  1
  O  O64  1  0.455875  0.894144  0.063334  1
  O  O65  1  0.955875  0.605856  0.563334  1
  O  O66  1  0.544125  0.105856  0.936666  1
  O  O67  1  0.044125  0.394144  0.436666  1
  O  O68  1  0.175931  0.978151  0.135712  1
  O  O69  1  0.675931  0.521849  0.635712  1
  O  O70  1  0.824069  0.021849  0.864288  1
  O  O71  1  0.324069  0.478151  0.364288  1
  O  O72  1  0.565709  0.998803  0.221814  1
  O  O73  1  0.065709  0.501197  0.721814  1
  O  O74  1  0.434291  0.001197  0.778186  1
  O  O75  1  0.934291  0.498803  0.278186  1
