# generated using pymatgen
data_Li14Mn22Cr3Cu3O56
_symmetry_space_group_name_H-M   'P 1'
_cell_length_a   5.92424754
_cell_length_b   5.92424781
_cell_length_c   41.41459925
_cell_angle_alpha   59.69909268
_cell_angle_beta   59.69909119
_cell_angle_gamma   59.96462227
_symmetry_Int_Tables_number   1
_chemical_formula_structural   Li14Mn22Cr3Cu3O56
_chemical_formula_sum   'Li14 Mn22 Cr3 Cu3 O56'
_cell_volume   1022.82040135
_cell_formula_units_Z   1
loop_
 _symmetry_equiv_pos_site_id
 _symmetry_equiv_pos_as_xyz
  1  'x, y, z'
loop_
 _atom_site_type_symbol
 _atom_site_label
 _atom_site_symmetry_multiplicity
 _atom_site_fract_x
 _atom_site_fract_y
 _atom_site_fract_z
 _atom_site_occupancy
  Li  Li0  1  0.121648  0.121648  0.019003  1
  Li  Li1  1  0.120468  0.120468  0.162249  1
  Li  Li2  1  0.121843  0.121843  0.305036  1
  Li  Li3  1  0.879181  0.879181  0.123399  1
  Li  Li4  1  0.117638  0.117638  0.447184  1
  Li  Li5  1  0.879009  0.879009  0.266352  1
  Li  Li6  1  0.123702  0.123702  0.588103  1
  Li  Li7  1  0.873793  0.873793  0.411174  1
  Li  Li8  1  0.122665  0.122665  0.731336  1
  Li  Li9  1  0.120672  0.120672  0.874809  1
  Li  Li10  1  0.880878  0.880878  0.554230  1
  Li  Li11  1  0.877338  0.877338  0.697264  1
  Li  Li12  1  0.879656  0.879656  0.839239  1
  Li  Li13  1  0.882030  0.882030  0.980962  1
  Mn  Mn14  1  0.001946  0.497315  0.071612  1
  Mn  Mn15  1  0.497315  0.001946  0.071612  1
  Mn  Mn16  1  0.498107  0.498107  0.071682  1
  Mn  Mn17  1  0.997891  0.501452  0.214005  1
  Mn  Mn18  1  0.500015  0.500015  0.142828  1
  Mn  Mn19  1  0.500841  0.500841  0.214191  1
  Mn  Mn20  1  0.001252  0.497700  0.357550  1
  Mn  Mn21  1  0.501452  0.997891  0.214005  1
  Mn  Mn22  1  0.497607  0.497607  0.357422  1
  Mn  Mn23  1  -0.000464  0.500064  0.500023  1
  Mn  Mn24  1  0.500064  -0.000464  0.500023  1
  Mn  Mn25  1  0.496213  0.496213  0.428844  1
  Mn  Mn26  1  0.497700  0.001252  0.357550  1
  Mn  Mn27  1  0.000716  0.501027  0.642751  1
  Mn  Mn28  1  0.501379  0.501379  0.571096  1
  Mn  Mn29  1  0.000011  0.499592  0.785723  1
  Mn  Mn30  1  0.501027  0.000716  0.642751  1
  Mn  Mn31  1  0.500176  0.500176  0.714242  1
  Mn  Mn32  1  0.501430  -0.001544  0.928329  1
  Mn  Mn33  1  0.500813  0.500813  0.857165  1
  Mn  Mn34  1  0.499592  0.000011  0.785723  1
  Mn  Mn35  1  -0.001544  0.501430  0.928329  1
  Cr  Cr36  1  0.500383  0.500383  0.642838  1
  Cr  Cr37  1  0.499841  0.499841  0.785740  1
  Cr  Cr38  1  0.501403  0.501403  0.928451  1
  Cu  Cu39  1  0.501061  0.501061  0.999909  1
  Cu  Cu40  1  0.499819  0.499819  0.285786  1
  Cu  Cu41  1  0.500217  0.500217  0.499762  1
  O  O42  1  0.251003  0.251003  0.041206  1
  O  O43  1  0.264335  0.264335  0.103675  1
  O  O44  1  0.255916  0.708272  0.040841  1
  O  O45  1  0.708272  0.255916  0.040841  1
  O  O46  1  0.292049  0.733088  0.105106  1
  O  O47  1  0.265702  0.265702  0.180137  1
  O  O48  1  0.732236  0.732236  0.040749  1
  O  O49  1  0.247518  0.247518  0.245041  1
  O  O50  1  0.261548  0.707350  0.180553  1
  O  O51  1  0.733088  0.292049  0.105106  1
  O  O52  1  0.707350  0.261548  0.180553  1
  O  O53  1  0.733932  0.733932  0.105480  1
  O  O54  1  0.253217  0.253217  0.326804  1
  O  O55  1  0.291449  0.751470  0.244617  1
  O  O56  1  0.755485  0.755485  0.182097  1
  O  O57  1  0.751470  0.291449  0.244617  1
  O  O58  1  0.255275  0.709282  0.326748  1
  O  O59  1  0.265502  0.265502  0.389172  1
  O  O60  1  0.709282  0.255275  0.326748  1
  O  O61  1  0.746612  0.746612  0.244840  1
  O  O62  1  0.290769  0.729682  0.391479  1
  O  O63  1  0.259481  0.259481  0.466453  1
  O  O64  1  0.729682  0.290769  0.391479  1
  O  O65  1  0.731454  0.731454  0.326389  1
  O  O66  1  0.253837  0.709032  0.463776  1
  O  O67  1  0.259908  0.259908  0.529084  1
  O  O68  1  0.731326  0.731326  0.391705  1
  O  O69  1  0.709032  0.253837  0.463776  1
  O  O70  1  0.291274  0.746550  0.535701  1
  O  O71  1  0.269439  0.269439  0.606113  1
  O  O72  1  0.740809  0.740809  0.470573  1
  O  O73  1  0.746550  0.291274  0.535701  1
  O  O74  1  0.259685  0.259685  0.672327  1
  O  O75  1  0.264975  0.709796  0.608111  1
  O  O76  1  0.739514  0.739514  0.533877  1
  O  O77  1  0.709796  0.264975  0.608111  1
  O  O78  1  0.291781  0.737113  0.677609  1
  O  O79  1  0.267427  0.267427  0.749168  1
  O  O80  1  0.741184  0.741184  0.613207  1
  O  O81  1  0.737113  0.291781  0.677609  1
  O  O82  1  0.258937  0.258937  0.815408  1
  O  O83  1  0.263444  0.708330  0.750972  1
  O  O84  1  0.733179  0.733179  0.679184  1
  O  O85  1  0.708330  0.263444  0.750972  1
  O  O86  1  0.291268  0.735819  0.820495  1
  O  O87  1  0.264684  0.264684  0.894215  1
  O  O88  1  0.735819  0.291268  0.820495  1
  O  O89  1  0.740478  0.740478  0.756217  1
  O  O90  1  0.262069  0.707362  0.893704  1
  O  O91  1  0.259129  0.259129  0.958228  1
  O  O92  1  0.732677  0.732677  0.822263  1
  O  O93  1  0.707362  0.262069  0.893704  1
  O  O94  1  0.291055  0.753747  0.960071  1
  O  O95  1  0.742514  0.742514  0.898120  1
  O  O96  1  0.753747  0.291055  0.960071  1
  O  O97  1  0.752249  0.752249  0.958423  1
