# generated using pymatgen
data_LiMnPH2O5
_symmetry_space_group_name_H-M   'P 1'
_cell_length_a   11.18708003
_cell_length_b   8.20120018
_cell_length_c   5.15745565
_cell_angle_alpha   90.00000000
_cell_angle_beta   90.00000000
_cell_angle_gamma   90.00000000
_symmetry_Int_Tables_number   1
_chemical_formula_structural   LiMnPH2O5
_chemical_formula_sum   'Li4 Mn4 P4 H8 O20'
_cell_volume   473.18357331
_cell_formula_units_Z   4
loop_
 _symmetry_equiv_pos_site_id
 _symmetry_equiv_pos_as_xyz
  1  'x, y, z'
loop_
 _atom_site_type_symbol
 _atom_site_label
 _atom_site_symmetry_multiplicity
 _atom_site_fract_x
 _atom_site_fract_y
 _atom_site_fract_z
 _atom_site_occupancy
  Li  Li0  1  0.115566  0.122532  0.195042  1
  Li  Li1  1  0.384434  0.622532  0.695042  1
  Li  Li2  1  0.615566  0.377468  0.195042  1
  Li  Li3  1  0.884434  0.877468  0.695042  1
  Mn  Mn4  1  0.195978  0.311594  0.701326  1
  Mn  Mn5  1  0.304022  0.811594  0.201326  1
  Mn  Mn6  1  0.695978  0.188406  0.701326  1
  Mn  Mn7  1  0.804022  0.688406  0.201326  1
  P  P8  1  0.164296  0.911664  0.691134  1
  P  P9  1  0.335704  0.411664  0.191134  1
  P  P10  1  0.664296  0.588336  0.691134  1
  P  P11  1  0.835704  0.088336  0.191134  1
  H  H12  1  0.009721  0.570470  0.373289  1
  H  H13  1  0.040406  0.687869  0.143651  1
  H  H14  1  0.459594  0.187869  0.643651  1
  H  H15  1  0.490279  0.070470  0.873289  1
  H  H16  1  0.509721  0.929530  0.373289  1
  H  H17  1  0.540406  0.812131  0.143651  1
  H  H18  1  0.959594  0.312131  0.643651  1
  H  H19  1  0.990279  0.429530  0.873289  1
  O  O20  1  0.011084  0.403630  0.692079  1
  O  O21  1  0.048475  0.822856  0.627011  1
  O  O22  1  0.167857  0.083630  0.557569  1
  O  O23  1  0.180157  0.936711  0.991148  1
  O  O24  1  0.223030  0.314810  0.094021  1
  O  O25  1  0.276970  0.814810  0.594021  1
  O  O26  1  0.319843  0.436711  0.491148  1
  O  O27  1  0.332143  0.583630  0.057569  1
  O  O28  1  0.451525  0.322856  0.127011  1
  O  O29  1  0.488916  0.903630  0.192079  1
  O  O30  1  0.511084  0.096370  0.692079  1
  O  O31  1  0.548475  0.677144  0.627011  1
  O  O32  1  0.667857  0.416370  0.557569  1
  O  O33  1  0.680157  0.563289  0.991148  1
  O  O34  1  0.723030  0.185190  0.094021  1
  O  O35  1  0.776970  0.685190  0.594021  1
  O  O36  1  0.819843  0.063289  0.491148  1
  O  O37  1  0.832143  0.916370  0.057569  1
  O  O38  1  0.951525  0.177144  0.127011  1
  O  O39  1  0.988916  0.596370  0.192079  1
