# generated using pymatgen
data_Ca3B6(H4O5)4
_symmetry_space_group_name_H-M   'P 1'
_cell_length_a   8.15840257
_cell_length_b   13.62194828
_cell_length_c   8.15840257
_cell_angle_alpha   67.03443221
_cell_angle_beta   107.94736934
_cell_angle_gamma   112.96556779
_symmetry_Int_Tables_number   1
_chemical_formula_structural   Ca3B6(H4O5)4
_chemical_formula_sum   'Ca6 B12 H32 O40'
_cell_volume   755.53071342
_cell_formula_units_Z   2
loop_
 _symmetry_equiv_pos_site_id
 _symmetry_equiv_pos_as_xyz
  1  'x, y, z'
loop_
 _atom_site_type_symbol
 _atom_site_label
 _atom_site_symmetry_multiplicity
 _atom_site_fract_x
 _atom_site_fract_y
 _atom_site_fract_z
 _atom_site_occupancy
  Ca  Ca0  1  0.751264  0.750000  0.751264  1
  Ca  Ca1  1  0.248736  0.250000  0.248736  1
  Ca  Ca2  1  0.429394  0.069461  0.752592  1
  Ca  Ca3  1  0.752592  0.430539  0.429394  1
  Ca  Ca4  1  0.570606  0.930539  0.247408  1
  Ca  Ca5  1  0.247408  0.569461  0.570606  1
  B  B6  1  0.922978  0.667996  0.401212  1
  B  B7  1  0.401212  0.832004  0.922978  1
  B  B8  1  0.077022  0.332004  0.598788  1
  B  B9  1  0.598788  0.167996  0.077022  1
  B  B10  1  0.617741  0.657774  0.430882  1
  B  B11  1  0.430882  0.842226  0.617741  1
  B  B12  1  0.382259  0.342226  0.569118  1
  B  B13  1  0.569118  0.157774  0.382259  1
  B  B14  1  0.894281  0.843373  0.406253  1
  B  B15  1  0.406253  0.656627  0.894281  1
  B  B16  1  0.105719  0.156627  0.593747  1
  B  B17  1  0.593747  0.343373  0.105719  1
  H  H18  1  0.651133  0.512805  0.041130  1
  H  H19  1  0.041130  0.987195  0.651133  1
  H  H20  1  0.348867  0.487195  0.958870  1
  H  H21  1  0.958870  0.012805  0.348867  1
  H  H22  1  0.609890  0.517929  0.659419  1
  H  H23  1  0.659419  0.982071  0.609890  1
  H  H24  1  0.390110  0.482071  0.340581  1
  H  H25  1  0.340581  0.017929  0.390110  1
  H  H26  1  0.996034  0.658012  0.183833  1
  H  H27  1  0.183833  0.841988  0.996034  1
  H  H28  1  0.003966  0.341988  0.816167  1
  H  H29  1  0.816167  0.158012  0.003966  1
  H  H30  1  0.398760  0.666385  0.206549  1
  H  H31  1  0.206549  0.833615  0.398760  1
  H  H32  1  0.601240  0.333615  0.793451  1
  H  H33  1  0.793451  0.166385  0.601240  1
  H  H34  1  0.971770  0.628363  0.688563  1
  H  H35  1  0.688563  0.871637  0.971770  1
  H  H36  1  0.028230  0.371637  0.311437  1
  H  H37  1  0.311437  0.128363  0.028230  1
  H  H38  1  0.109285  0.657295  0.956493  1
  H  H39  1  0.956493  0.842705  0.109285  1
  H  H40  1  0.890715  0.342705  0.043507  1
  H  H41  1  0.043507  0.157295  0.890715  1
  H  H42  1  0.916337  0.564416  0.006541  1
  H  H43  1  0.006541  0.935584  0.916337  1
  H  H44  1  0.083663  0.435584  0.993459  1
  H  H45  1  0.993459  0.064416  0.083663  1
  H  H46  1  0.626121  0.643993  0.119142  1
  H  H47  1  0.119142  0.856007  0.626121  1
  H  H48  1  0.373879  0.356007  0.880858  1
  H  H49  1  0.880858  0.143993  0.373879  1
  O  O50  1  0.722206  0.621175  0.359631  1
  O  O51  1  0.359631  0.878825  0.722206  1
  O  O52  1  0.277794  0.378825  0.640369  1
  O  O53  1  0.640369  0.121175  0.277794  1
  O  O54  1  0.701303  0.778153  0.420017  1
  O  O55  1  0.420017  0.721847  0.701303  1
  O  O56  1  0.298697  0.221847  0.579983  1
  O  O57  1  0.579983  0.278153  0.298697  1
  O  O58  1  0.898394  0.958417  0.280866  1
  O  O59  1  0.280866  0.541583  0.898394  1
  O  O60  1  0.101606  0.041583  0.719134  1
  O  O61  1  0.719134  0.458417  0.101606  1
  O  O62  1  0.629292  0.904891  0.609209  1
  O  O63  1  0.609209  0.595109  0.629292  1
  O  O64  1  0.370708  0.095109  0.390791  1
  O  O65  1  0.390791  0.404891  0.370708  1
  O  O66  1  0.978513  0.791400  0.341941  1
  O  O67  1  0.341941  0.708600  0.978513  1
  O  O68  1  0.021487  0.208600  0.658059  1
  O  O69  1  0.658059  0.291400  0.021487  1
  O  O70  1  0.006586  0.626138  0.314938  1
  O  O71  1  0.314938  0.873862  0.006586  1
  O  O72  1  0.993414  0.373862  0.685062  1
  O  O73  1  0.685062  0.126138  0.993414  1
  O  O74  1  0.341326  0.868167  0.424690  1
  O  O75  1  0.424690  0.631833  0.341326  1
  O  O76  1  0.658674  0.131833  0.575310  1
  O  O77  1  0.575310  0.368167  0.658674  1
  O  O78  1  0.997668  0.614723  0.592269  1
  O  O79  1  0.592269  0.885277  0.997668  1
  O  O80  1  0.002332  0.385277  0.407731  1
  O  O81  1  0.407731  0.114723  0.002332  1
  O  O82  1  0.975596  0.643284  0.938913  1
  O  O83  1  0.938913  0.856716  0.975596  1
  O  O84  1  0.024404  0.356716  0.061088  1
  O  O85  1  0.061088  0.143284  0.024404  1
  O  O86  1  0.990607  0.854829  0.591662  1
  O  O87  1  0.591662  0.645171  0.990607  1
  O  O88  1  0.009393  0.145171  0.408338  1
  O  O89  1  0.408338  0.354829  0.009393  1
