# generated using pymatgen
data_K2Cd2O3
_symmetry_space_group_name_H-M   'P 1'
_cell_length_a   6.57101782
_cell_length_b   6.89927085
_cell_length_c   6.72235629
_cell_angle_alpha   90.00000000
_cell_angle_beta   90.00000000
_cell_angle_gamma   118.18062903
_symmetry_Int_Tables_number   1
_chemical_formula_structural   K2Cd2O3
_chemical_formula_sum   'K4 Cd4 O6'
_cell_volume   268.63434403
_cell_formula_units_Z   2
loop_
 _symmetry_equiv_pos_site_id
 _symmetry_equiv_pos_as_xyz
  1  'x, y, z'
loop_
 _atom_site_type_symbol
 _atom_site_label
 _atom_site_symmetry_multiplicity
 _atom_site_fract_x
 _atom_site_fract_y
 _atom_site_fract_z
 _atom_site_occupancy
  O  O0  1  0.000000  0.500000  0.500000  1
  O  O1  1  0.632130  0.736905  0.599616  1
  O  O2  1  0.367870  0.763095  0.099616  1
  O  O3  1  0.367870  0.263095  0.400384  1
  O  O4  1  0.000000  0.000000  0.000000  1
  O  O5  1  0.632130  0.236905  0.900384  1
  K  K6  1  0.844628  0.089027  0.347250  1
  K  K7  1  0.844628  0.589027  0.152750  1
  K  K8  1  0.155372  0.910973  0.652750  1
  K  K9  1  0.155372  0.410973  0.847250  1
  Cd  Cd10  1  0.339676  0.079536  0.123606  1
  Cd  Cd11  1  0.339676  0.579536  0.376394  1
  Cd  Cd12  1  0.660324  0.920464  0.876394  1
  Cd  Cd13  1  0.660324  0.420464  0.623606  1
