# generated using pymatgen
data_Li32Mn13Cr3O48
_symmetry_space_group_name_H-M   'P 1'
_cell_length_a   4.99965470
_cell_length_b   8.67740721
_cell_length_c   19.46287144
_cell_angle_alpha   98.24454852
_cell_angle_beta   94.78860432
_cell_angle_gamma   89.75367714
_symmetry_Int_Tables_number   1
_chemical_formula_structural   Li32Mn13Cr3O48
_chemical_formula_sum   'Li32 Mn13 Cr3 O48'
_cell_volume   832.70931893
_cell_formula_units_Z   1
loop_
 _symmetry_equiv_pos_site_id
 _symmetry_equiv_pos_as_xyz
  1  'x, y, z'
loop_
 _atom_site_type_symbol
 _atom_site_label
 _atom_site_symmetry_multiplicity
 _atom_site_fract_x
 _atom_site_fract_y
 _atom_site_fract_z
 _atom_site_occupancy
  Li  Li0  1  0.991585  0.168448  0.249443  1
  Li  Li1  1  0.875486  0.374579  0.375122  1
  Li  Li2  1  0.749710  0.250036  0.000073  1
  Li  Li3  1  0.745747  0.920398  0.000540  1
  Li  Li4  1  0.991475  0.168259  0.750177  1
  Li  Li5  1  0.755542  0.579774  0.499931  1
  Li  Li6  1  0.874633  0.374648  0.874818  1
  Li  Li7  1  0.751359  0.250263  0.499961  1
  Li  Li8  1  0.744801  0.920558  0.500884  1
  Li  Li9  1  0.624764  0.125088  0.125016  1
  Li  Li10  1  0.756156  0.579888  0.000111  1
  Li  Li11  1  0.507115  0.331589  0.250433  1
  Li  Li12  1  0.627134  0.124433  0.624831  1
  Li  Li13  1  0.500330  0.000273  0.249967  1
  Li  Li14  1  0.493981  0.668459  0.249907  1
  Li  Li15  1  0.508678  0.334338  0.750576  1
  Li  Li16  1  0.376996  0.874307  0.374851  1
  Li  Li17  1  0.500142  0.000068  0.750047  1
  Li  Li18  1  0.250064  0.750173  0.000077  1
  Li  Li19  1  0.490217  0.665610  0.749227  1
  Li  Li20  1  0.244972  0.419991  0.000196  1
  Li  Li21  1  0.372852  0.875604  0.875184  1
  Li  Li22  1  0.255067  0.080831  0.499491  1
  Li  Li23  1  0.249726  0.749670  0.500023  1
  Li  Li24  1  0.124882  0.625047  0.125027  1
  Li  Li25  1  0.242299  0.419239  0.499646  1
  Li  Li26  1  0.006135  0.831385  0.249951  1
  Li  Li27  1  0.254118  0.079676  0.999485  1
  Li  Li28  1  0.125214  0.624453  0.625131  1
  Li  Li29  1  0.000149  0.499868  0.249932  1
  Li  Li30  1  0.008749  0.831604  0.749926  1
  Li  Li31  1  0.000784  0.500105  0.749879  1
  Mn  Mn32  1  0.872812  0.707155  0.374365  1
  Mn  Mn33  1  0.877014  0.042782  0.875721  1
  Mn  Mn34  1  0.625700  0.791411  0.125020  1
  Mn  Mn35  1  0.624585  0.458450  0.125004  1
  Mn  Mn36  1  0.625090  0.791526  0.625106  1
  Mn  Mn37  1  0.626141  0.460153  0.625696  1
  Mn  Mn38  1  0.374901  0.541650  0.375001  1
  Mn  Mn39  1  0.375481  0.210145  0.375579  1
  Mn  Mn40  1  0.373480  0.540028  0.874344  1
  Mn  Mn41  1  0.374927  0.208453  0.874957  1
  Mn  Mn42  1  0.124627  0.958486  0.124955  1
  Mn  Mn43  1  0.125781  0.291428  0.124950  1
  Mn  Mn44  1  0.122853  0.957077  0.624356  1
  Cr  Cr45  1  0.880917  0.040238  0.374914  1
  Cr  Cr46  1  0.868165  0.709025  0.875137  1
  Cr  Cr47  1  0.131981  0.290162  0.624927  1
  O  O48  1  0.963592  0.106977  0.069094  1
  O  O49  1  0.928379  0.785200  0.068997  1
  O  O50  1  0.927560  0.427476  0.067959  1
  O  O51  1  0.961907  0.102699  0.568175  1
  O  O52  1  0.821838  0.964741  0.180990  1
  O  O53  1  0.822704  0.322494  0.181960  1
  O  O54  1  0.928302  0.784295  0.569094  1
  O  O55  1  0.926021  0.426523  0.568086  1
  O  O56  1  0.786494  0.642933  0.180849  1
  O  O57  1  0.711763  0.853410  0.318339  1
  O  O58  1  0.821166  0.964915  0.681052  1
  O  O59  1  0.822016  0.323270  0.681973  1
  O  O60  1  0.678042  0.534344  0.318976  1
  O  O61  1  0.675724  0.176555  0.317821  1
  O  O62  1  0.787665  0.644134  0.681146  1
  O  O63  1  0.719577  0.856608  0.819244  1
  O  O64  1  0.463857  0.606760  0.069006  1
  O  O65  1  0.570891  0.714784  0.430940  1
  O  O66  1  0.571685  0.073699  0.432091  1
  O  O67  1  0.674419  0.533184  0.818712  1
  O  O68  1  0.677159  0.177513  0.818009  1
  O  O69  1  0.427811  0.927418  0.068078  1
  O  O70  1  0.428545  0.285288  0.069043  1
  O  O71  1  0.537327  0.394052  0.431044  1
  O  O72  1  0.463506  0.607454  0.569100  1
  O  O73  1  0.571876  0.712804  0.930991  1
  O  O74  1  0.572554  0.072443  0.931928  1
  O  O75  1  0.322465  0.822582  0.181923  1
  O  O76  1  0.321781  0.464697  0.180934  1
  O  O77  1  0.427513  0.927683  0.568068  1
  O  O78  1  0.426311  0.287307  0.569237  1
  O  O79  1  0.536383  0.392730  0.930945  1
  O  O80  1  0.286133  0.143090  0.180909  1
  O  O81  1  0.213259  0.357393  0.319031  1
  O  O82  1  0.322970  0.822512  0.682060  1
  O  O83  1  0.326184  0.467252  0.681559  1
  O  O84  1  0.177269  0.677677  0.318003  1
  O  O85  1  0.176053  0.037278  0.318990  1
  O  O86  1  0.281548  0.143363  0.680857  1
  O  O87  1  0.212088  0.355923  0.818898  1
  O  O88  1  0.072635  0.572365  0.431970  1
  O  O89  1  0.075862  0.217123  0.431600  1
  O  O90  1  0.179361  0.676813  0.817860  1
  O  O91  1  0.179033  0.035226  0.819035  1
  O  O92  1  0.032047  0.893155  0.430820  1
  O  O93  1  0.073653  0.574298  0.931992  1
  O  O94  1  0.071798  0.215802  0.930928  1
  O  O95  1  0.037955  0.896926  0.931788  1
