# generated using pymatgen
data_Ba4La6Mn5In5O30
_symmetry_space_group_name_H-M   'P 1'
_cell_length_a   5.74043321
_cell_length_b   5.77712217
_cell_length_c   28.91083023
_cell_angle_alpha   59.72108506
_cell_angle_beta   60.22799419
_cell_angle_gamma   60.22941625
_symmetry_Int_Tables_number   1
_chemical_formula_structural   Ba4La6Mn5In5O30
_chemical_formula_sum   'Ba4 La6 Mn5 In5 O30'
_cell_volume   678.83529690
_cell_formula_units_Z   1
loop_
 _symmetry_equiv_pos_site_id
 _symmetry_equiv_pos_as_xyz
  1  'x, y, z'
loop_
 _atom_site_type_symbol
 _atom_site_label
 _atom_site_symmetry_multiplicity
 _atom_site_fract_x
 _atom_site_fract_y
 _atom_site_fract_z
 _atom_site_occupancy
  Ba  Ba0  1  0.247064  0.743131  0.152689  1
  Ba  Ba1  1  0.738469  0.238962  0.056777  1
  Ba  Ba2  1  0.752784  0.259536  0.247024  1
  Ba  Ba3  1  0.761243  0.260048  0.443511  1
  La  La4  1  0.275190  0.756818  0.338223  1
  La  La5  1  0.269734  0.738050  0.544489  1
  La  La6  1  0.240854  0.733945  0.756973  1
  La  La7  1  0.769210  0.279812  0.636287  1
  La  La8  1  0.226863  0.713242  0.966517  1
  La  La9  1  0.727475  0.254491  0.858117  1
  Mn  Mn10  1  0.993296  0.490941  0.104681  1
  Mn  Mn11  1  0.482051  0.005940  0.005888  1
  Mn  Mn12  1  0.998776  0.513972  0.297923  1
  Mn  Mn13  1  0.505529  0.995934  0.198813  1
  Mn  Mn14  1  0.009120  0.512627  0.493867  1
  In  In15  1  0.504571  0.004770  0.397217  1
  In  In16  1  0.996982  0.504061  0.700399  1
  In  In17  1  0.509474  0.996949  0.596842  1
  In  In18  1  0.994517  0.480822  0.906056  1
  In  In19  1  0.494781  0.002622  0.801626  1
  O  O20  1  0.246473  0.218157  0.057534  1
  O  O21  1  0.242718  0.257101  0.152074  1
  O  O22  1  0.255685  0.735686  0.046886  1
  O  O23  1  0.231812  0.233578  0.260619  1
  O  O24  1  0.224627  0.316470  0.347440  1
  O  O25  1  0.256707  0.758078  0.250008  1
  O  O26  1  0.736867  0.257799  0.151965  1
  O  O27  1  0.772793  0.736338  0.046840  1
  O  O28  1  0.244619  0.180628  0.466022  1
  O  O29  1  0.754727  0.747915  0.148640  1
  O  O30  1  0.207936  0.312984  0.551637  1
  O  O31  1  0.274618  0.711098  0.439285  1
  O  O32  1  0.721696  0.316915  0.347535  1
  O  O33  1  0.736892  0.757890  0.250075  1
  O  O34  1  0.259237  0.130374  0.670293  1
  O  O35  1  0.763610  0.785294  0.338241  1
  O  O36  1  0.157482  0.328433  0.768581  1
  O  O37  1  0.326567  0.677376  0.630670  1
  O  O38  1  0.720535  0.313409  0.551604  1
  O  O39  1  0.817902  0.711521  0.439291  1
  O  O40  1  0.245629  0.105533  0.880515  1
  O  O41  1  0.779705  0.788627  0.530504  1
  O  O42  1  0.235519  0.279261  0.961310  1
  O  O43  1  0.308428  0.676743  0.840266  1
  O  O44  1  0.671021  0.328651  0.768573  1
  O  O45  1  0.842635  0.677506  0.630691  1
  O  O46  1  0.745233  0.894881  0.722816  1
  O  O47  1  0.677901  0.279861  0.961221  1
  O  O48  1  0.813706  0.677155  0.840245  1
  O  O49  1  0.728735  0.818068  0.944701  1
