# generated using pymatgen
data_P3H30N7O12
_symmetry_space_group_name_H-M   'P 1'
_cell_length_a   10.48459651
_cell_length_b   6.33037595
_cell_length_c   14.03418290
_cell_angle_alpha   90.00000000
_cell_angle_beta   104.03436396
_cell_angle_gamma   90.00000000
_symmetry_Int_Tables_number   1
_chemical_formula_structural   P3H30N7O12
_chemical_formula_sum   'P6 H60 N14 O24'
_cell_volume   903.66497264
_cell_formula_units_Z   2
loop_
 _symmetry_equiv_pos_site_id
 _symmetry_equiv_pos_as_xyz
  1  'x, y, z'
loop_
 _atom_site_type_symbol
 _atom_site_label
 _atom_site_symmetry_multiplicity
 _atom_site_fract_x
 _atom_site_fract_y
 _atom_site_fract_z
 _atom_site_occupancy
  P  P0  1  0.062597  0.705504  0.699474  1
  P  P1  1  0.264549  0.802544  0.024584  1
  P  P2  1  0.501907  0.201949  0.660412  1
  P  P3  1  0.498093  0.701949  0.339588  1
  P  P4  1  0.735451  0.302544  0.975416  1
  P  P5  1  0.937403  0.205504  0.300526  1
  H  H6  1  0.059792  0.225135  0.511567  1
  H  H7  1  0.101591  0.297480  0.633643  1
  H  H8  1  0.102839  0.036624  0.597485  1
  H  H9  1  0.192059  0.866552  0.833216  1
  H  H10  1  0.208652  0.375575  0.812081  1
  H  H11  1  0.057608  0.830727  0.250739  1
  H  H12  1  0.276096  0.184830  0.896558  1
  H  H13  1  0.002575  0.222285  0.029192  1
  H  H14  1  0.088829  0.566707  0.254618  1
  H  H15  1  0.222013  0.208135  0.581292  1
  H  H16  1  0.075947  0.260071  0.151549  1
  H  H17  1  0.323241  0.445598  0.915518  1
  H  H18  1  0.225234  0.720799  0.564756  1
  H  H19  1  0.130019  0.713963  0.164716  1
  H  H20  1  0.367870  0.306449  0.824579  1
  H  H21  1  0.123957  0.408881  0.064919  1
  H  H22  1  0.218085  0.737051  0.284304  1
  H  H23  1  0.163361  0.146431  0.077982  1
  H  H24  1  0.220544  0.234071  0.343607  1
  H  H25  1  0.350723  0.544844  0.575818  1
  H  H26  1  0.330531  0.728092  0.485853  1
  H  H27  1  0.444348  0.771806  0.910445  1
  H  H28  1  0.384527  0.807834  0.605785  1
  H  H29  1  0.343503  0.227711  0.452414  1
  H  H30  1  0.341738  0.044865  0.364038  1
  H  H31  1  0.485670  0.860655  0.802770  1
  H  H32  1  0.379958  0.305686  0.346182  1
  H  H33  1  0.565121  0.951860  0.916172  1
  H  H34  1  0.583306  0.691870  0.883387  1
  H  H35  1  0.581481  0.371627  0.812670  1
  H  H36  1  0.418519  0.871627  0.187330  1
  H  H37  1  0.416694  0.191870  0.116613  1
  H  H38  1  0.434879  0.451860  0.083828  1
  H  H39  1  0.620042  0.805686  0.653818  1
  H  H40  1  0.514330  0.360655  0.197230  1
  H  H41  1  0.658262  0.544865  0.635962  1
  H  H42  1  0.656497  0.727711  0.547586  1
  H  H43  1  0.615473  0.307834  0.394215  1
  H  H44  1  0.555652  0.271806  0.089555  1
  H  H45  1  0.669469  0.228092  0.514147  1
  H  H46  1  0.649277  0.044844  0.424182  1
  H  H47  1  0.779456  0.734071  0.656393  1
  H  H48  1  0.836639  0.646431  0.922018  1
  H  H49  1  0.781915  0.237051  0.715696  1
  H  H50  1  0.876043  0.908881  0.935081  1
  H  H51  1  0.632130  0.806449  0.175421  1
  H  H52  1  0.869981  0.213963  0.835284  1
  H  H53  1  0.774766  0.220799  0.435244  1
  H  H54  1  0.676759  0.945598  0.084482  1
  H  H55  1  0.924053  0.760071  0.848452  1
  H  H56  1  0.777987  0.708135  0.418708  1
  H  H57  1  0.911171  0.066707  0.745382  1
  H  H58  1  0.997425  0.722285  0.970808  1
  H  H59  1  0.723904  0.684830  0.103442  1
  H  H60  1  0.942392  0.330727  0.749261  1
  H  H61  1  0.791348  0.875575  0.187919  1
  H  H62  1  0.807941  0.366552  0.166784  1
  H  H63  1  0.897161  0.536624  0.402515  1
  H  H64  1  0.898409  0.797480  0.366357  1
  H  H65  1  0.940208  0.725135  0.488433  1
  N  N66  1  0.121753  0.192134  0.581007  1
  N  N67  1  0.294762  0.326001  0.862803  1
  N  N68  1  0.123564  0.714664  0.238543  1
  N  N69  1  0.091970  0.257565  0.080426  1
  N  N70  1  0.321803  0.702031  0.557683  1
  N  N71  1  0.320242  0.203124  0.375909  1
  N  N72  1  0.518308  0.819366  0.876803  1
  N  N73  1  0.481692  0.319366  0.123197  1
  N  N74  1  0.679758  0.703124  0.624091  1
  N  N75  1  0.678197  0.202031  0.442317  1
  N  N76  1  0.908030  0.757565  0.919574  1
  N  N77  1  0.876436  0.214664  0.761457  1
  N  N78  1  0.705238  0.826001  0.137197  1
  N  N79  1  0.878247  0.692134  0.418993  1
  O  O80  1  0.074194  0.466518  0.723270  1
  O  O81  1  0.064858  0.750220  0.591431  1
  O  O82  1  0.212461  0.953072  0.936635  1
  O  O83  1  0.190346  0.824347  0.761373  1
  O  O84  1  0.061030  0.297636  0.273975  1
  O  O85  1  0.149187  0.672431  0.047995  1
  O  O86  1  0.380470  0.267595  0.578811  1
  O  O87  1  0.368346  0.767979  0.366462  1
  O  O88  1  0.490956  0.330049  0.755599  1
  O  O89  1  0.323379  0.947839  0.115773  1
  O  O90  1  0.499734  0.962811  0.682729  1
  O  O91  1  0.629534  0.149666  0.996428  1
  O  O92  1  0.370466  0.649666  0.003572  1
  O  O93  1  0.500266  0.462811  0.317271  1
  O  O94  1  0.676621  0.447839  0.884227  1
  O  O95  1  0.509044  0.830049  0.244401  1
  O  O96  1  0.631654  0.267979  0.633538  1
  O  O97  1  0.619530  0.767595  0.421189  1
  O  O98  1  0.850813  0.172431  0.952005  1
  O  O99  1  0.938970  0.797636  0.726025  1
  O  O100  1  0.809654  0.324347  0.238627  1
  O  O101  1  0.787539  0.453072  0.063365  1
  O  O102  1  0.935142  0.250220  0.408569  1
  O  O103  1  0.925806  0.966518  0.276730  1
