# generated using pymatgen
data_MnOF
_symmetry_space_group_name_H-M   'P 1'
_cell_length_a   4.59724395
_cell_length_b   5.72301897
_cell_length_c   10.33559056
_cell_angle_alpha   89.33615253
_cell_angle_beta   90.97423406
_cell_angle_gamma   91.73460342
_symmetry_Int_Tables_number   1
_chemical_formula_structural   MnOF
_chemical_formula_sum   'Mn8 O8 F8'
_cell_volume   271.74999186
_cell_formula_units_Z   8
loop_
 _symmetry_equiv_pos_site_id
 _symmetry_equiv_pos_as_xyz
  1  'x, y, z'
loop_
 _atom_site_type_symbol
 _atom_site_label
 _atom_site_symmetry_multiplicity
 _atom_site_fract_x
 _atom_site_fract_y
 _atom_site_fract_z
 _atom_site_occupancy
  Mn  Mn0  1  0.997478  0.154305  0.612192  1
  Mn  Mn1  1  0.001921  0.854864  0.369094  1
  Mn  Mn2  1  0.030653  0.176073  0.110133  1
  Mn  Mn3  1  0.010903  0.846136  0.865308  1
  Mn  Mn4  1  0.510284  0.345295  0.882440  1
  Mn  Mn5  1  0.504730  0.352524  0.382739  1
  Mn  Mn6  1  0.532299  0.622958  0.137966  1
  Mn  Mn7  1  0.500176  0.654375  0.637476  1
  O  O8  1  0.210280  0.117648  0.452075  1
  O  O9  1  0.228196  0.110967  0.951402  1
  O  O10  1  0.211466  0.885108  0.701189  1
  O  O11  1  0.295941  0.392294  0.218825  1
  O  O12  1  0.736781  0.373159  0.038599  1
  O  O13  1  0.745102  0.613472  0.298485  1
  O  O14  1  0.710554  0.386835  0.548292  1
  O  O15  1  0.715511  0.619324  0.798933  1
  F  F16  1  0.245804  0.891140  0.205077  1
  F  F17  1  0.251314  0.624382  0.475064  1
  F  F18  1  0.247201  0.384116  0.729712  1
  F  F19  1  0.266093  0.616387  0.980842  1
  F  F20  1  0.780263  0.113415  0.271562  1
  F  F21  1  0.773792  0.862779  0.038912  1
  F  F22  1  0.756385  0.114402  0.772031  1
  F  F23  1  0.736876  0.888044  0.521651  1
