# generated using pymatgen
data_VCo3(PO4)4
_symmetry_space_group_name_H-M   'P 1'
_cell_length_a   4.86060621
_cell_length_b   9.86322449
_cell_length_c   5.91284661
_cell_angle_alpha   90.00000000
_cell_angle_beta   90.00000000
_cell_angle_gamma   91.40720449
_symmetry_Int_Tables_number   1
_chemical_formula_structural   VCo3(PO4)4
_chemical_formula_sum   'V1 Co3 P4 O16'
_cell_volume   283.38376737
_cell_formula_units_Z   1
loop_
 _symmetry_equiv_pos_site_id
 _symmetry_equiv_pos_as_xyz
  1  'x, y, z'
loop_
 _atom_site_type_symbol
 _atom_site_label
 _atom_site_symmetry_multiplicity
 _atom_site_fract_x
 _atom_site_fract_y
 _atom_site_fract_z
 _atom_site_occupancy
  V  V0  1  0.976581  0.272330  0.250000  1
  Co  Co1  1  0.030866  0.723704  0.750000  1
  Co  Co2  1  0.466440  0.231006  0.750000  1
  Co  Co3  1  0.553628  0.774045  0.250000  1
  P  P4  1  0.092222  0.597553  0.250000  1
  P  P5  1  0.392453  0.097186  0.250000  1
  P  P6  1  0.584307  0.901653  0.750000  1
  P  P7  1  0.927463  0.404486  0.750000  1
  O  O8  1  0.151280  0.440106  0.250000  1
  O  O9  1  0.245789  0.665247  0.046805  1
  O  O10  1  0.245789  0.665247  0.453195  1
  O  O11  1  0.236353  0.392143  0.750000  1
  O  O12  1  0.270805  0.872847  0.750000  1
  O  O13  1  0.241289  0.171206  0.049644  1
  O  O14  1  0.241289  0.171206  0.450356  1
  O  O15  1  0.343712  0.945308  0.250000  1
  O  O16  1  0.649524  0.051883  0.750000  1
  O  O17  1  0.726259  0.827409  0.543739  1
  O  O18  1  0.726259  0.827409  0.956261  1
  O  O19  1  0.704663  0.133391  0.250000  1
  O  O20  1  0.780654  0.611760  0.250000  1
  O  O21  1  0.780544  0.332831  0.542777  1
  O  O22  1  0.780544  0.332831  0.957223  1
  O  O23  1  0.851283  0.557214  0.750000  1
