# generated using pymatgen
data_Li2MnPO4F
_symmetry_space_group_name_H-M   'P 1'
_cell_length_a   13.18498829
_cell_length_b   5.14087113
_cell_length_c   13.27140400
_cell_angle_alpha   90.00000000
_cell_angle_beta   120.26021831
_cell_angle_gamma   90.00000000
_symmetry_Int_Tables_number   1
_chemical_formula_structural   Li2MnPO4F
_chemical_formula_sum   'Li16 Mn8 P8 O32 F8'
_cell_volume   776.99675857
_cell_formula_units_Z   8
loop_
 _symmetry_equiv_pos_site_id
 _symmetry_equiv_pos_as_xyz
  1  'x, y, z'
loop_
 _atom_site_type_symbol
 _atom_site_label
 _atom_site_symmetry_multiplicity
 _atom_site_fract_x
 _atom_site_fract_y
 _atom_site_fract_z
 _atom_site_occupancy
  Li  Li0  1  0.178718  0.733325  0.827426  1
  Li  Li1  1  0.177606  0.730838  0.598584  1
  Li  Li2  1  0.322394  0.230838  0.901416  1
  Li  Li3  1  0.172659  0.718747  0.322000  1
  Li  Li4  1  0.321282  0.233325  0.672574  1
  Li  Li5  1  0.092280  0.274170  0.174169  1
  Li  Li6  1  0.407720  0.774170  0.325831  1
  Li  Li7  1  0.672659  0.781253  0.822000  1
  Li  Li8  1  0.327341  0.218747  0.178000  1
  Li  Li9  1  0.592280  0.225830  0.674169  1
  Li  Li10  1  0.907720  0.725830  0.825831  1
  Li  Li11  1  0.678718  0.766675  0.327426  1
  Li  Li12  1  0.827341  0.281253  0.678000  1
  Li  Li13  1  0.677606  0.769162  0.098584  1
  Li  Li14  1  0.822394  0.269162  0.401416  1
  Li  Li15  1  0.821282  0.266675  0.172574  1
  Mn  Mn16  1  0.091477  0.274245  0.670387  1
  Mn  Mn17  1  0.408523  0.774245  0.829613  1
  Mn  Mn18  1  0.329123  0.229369  0.406391  1
  Mn  Mn19  1  0.170877  0.729369  0.093609  1
  Mn  Mn20  1  0.829123  0.270631  0.906391  1
  Mn  Mn21  1  0.670877  0.770631  0.593609  1
  Mn  Mn22  1  0.591477  0.225755  0.170387  1
  Mn  Mn23  1  0.908523  0.725755  0.329613  1
  P  P24  1  0.085624  0.217859  0.918843  1
  P  P25  1  0.083696  0.214880  0.416449  1
  P  P26  1  0.583696  0.285120  0.916448  1
  P  P27  1  0.414376  0.717859  0.581157  1
  P  P28  1  0.585624  0.282141  0.418843  1
  P  P29  1  0.416304  0.714880  0.083551  1
  P  P30  1  0.916304  0.785120  0.583552  1
  P  P31  1  0.914376  0.782141  0.081157  1
  O  O32  1  0.079594  0.912450  0.922012  1
  O  O33  1  0.043394  0.675745  0.646499  1
  O  O34  1  0.151513  0.303335  0.855391  1
  O  O35  1  0.077476  0.909451  0.414105  1
  O  O36  1  0.151317  0.313159  0.544395  1
  O  O37  1  0.348683  0.813159  0.955605  1
  O  O38  1  0.148412  0.312836  0.353065  1
  O  O39  1  0.040709  0.667197  0.146432  1
  O  O40  1  0.348487  0.803335  0.644609  1
  O  O41  1  0.456606  0.175745  0.853501  1
  O  O42  1  0.577476  0.590549  0.914105  1
  O  O43  1  0.347122  0.823173  0.453925  1
  O  O44  1  0.420406  0.412450  0.577988  1
  O  O45  1  0.152878  0.323173  0.046075  1
  O  O46  1  0.648412  0.187164  0.853065  1
  O  O47  1  0.540709  0.832803  0.646432  1
  O  O48  1  0.459291  0.167197  0.353568  1
  O  O49  1  0.351588  0.812836  0.146935  1
  O  O50  1  0.847122  0.676827  0.953925  1
  O  O51  1  0.579594  0.587550  0.422012  1
  O  O52  1  0.652878  0.176827  0.546075  1
  O  O53  1  0.422524  0.409451  0.085895  1
  O  O54  1  0.543394  0.824255  0.146499  1
  O  O55  1  0.651513  0.196666  0.355391  1
  O  O56  1  0.959291  0.332803  0.853568  1
  O  O57  1  0.851588  0.687164  0.646935  1
  O  O58  1  0.651317  0.186841  0.044395  1
  O  O59  1  0.848683  0.686841  0.455605  1
  O  O60  1  0.922524  0.090549  0.585895  1
  O  O61  1  0.848487  0.696665  0.144609  1
  O  O62  1  0.956606  0.324255  0.353501  1
  O  O63  1  0.920406  0.087550  0.077988  1
  F  F64  1  0.227469  0.989178  0.736905  1
  F  F65  1  0.272531  0.489178  0.763095  1
  F  F66  1  0.220857  0.013688  0.232968  1
  F  F67  1  0.279143  0.513688  0.267032  1
  F  F68  1  0.720857  0.486312  0.732968  1
  F  F69  1  0.779143  0.986312  0.767032  1
  F  F70  1  0.727469  0.510822  0.236905  1
  F  F71  1  0.772531  0.010822  0.263095  1
