# generated using pymatgen
data_VBi(PbO3)2
_symmetry_space_group_name_H-M   'P 1'
_cell_length_a   5.83773748
_cell_length_b   7.88814209
_cell_length_c   30.14185754
_cell_angle_alpha   94.91859783
_cell_angle_beta   90.00000000
_cell_angle_gamma   90.00000000
_symmetry_Int_Tables_number   1
_chemical_formula_structural   VBi(PbO3)2
_chemical_formula_sum   'V8 Bi8 Pb16 O48'
_cell_volume   1382.88818228
_cell_formula_units_Z   8
loop_
 _symmetry_equiv_pos_site_id
 _symmetry_equiv_pos_as_xyz
  1  'x, y, z'
loop_
 _atom_site_type_symbol
 _atom_site_label
 _atom_site_symmetry_multiplicity
 _atom_site_fract_x
 _atom_site_fract_y
 _atom_site_fract_z
 _atom_site_occupancy
  V  V0  1  0.496736  0.158438  0.642440  1
  V  V1  1  0.972609  0.827797  0.997740  1
  V  V2  1  0.508809  0.470842  0.900151  1
  V  V3  1  0.042702  0.148320  0.259040  1
  V  V4  1  0.957298  0.648320  0.759040  1
  V  V5  1  0.491191  0.970842  0.400151  1
  V  V6  1  0.503264  0.658438  0.142440  1
  V  V7  1  0.027391  0.327797  0.497740  1
  Bi  Bi8  1  0.997858  0.681624  0.341859  1
  Bi  Bi9  1  0.514048  0.620917  0.559080  1
  Bi  Bi10  1  0.002142  0.181624  0.841859  1
  Bi  Bi11  1  0.503832  0.431289  0.300184  1
  Bi  Bi12  1  0.014953  0.874381  0.597418  1
  Bi  Bi13  1  0.496168  0.931289  0.800184  1
  Bi  Bi14  1  0.485952  0.120917  0.059080  1
  Bi  Bi15  1  0.985047  0.374381  0.097418  1
  Pb  Pb16  1  0.500466  0.977636  0.924039  1
  Pb  Pb17  1  0.544473  0.069000  0.527684  1
  Pb  Pb18  1  0.952666  0.110980  0.722593  1
  Pb  Pb19  1  0.456914  0.395275  0.774482  1
  Pb  Pb20  1  0.047334  0.610980  0.222593  1
  Pb  Pb21  1  0.007608  0.734452  0.871556  1
  Pb  Pb22  1  0.499534  0.477636  0.424039  1
  Pb  Pb23  1  0.513166  0.191273  0.179026  1
  Pb  Pb24  1  0.976120  0.411787  0.625027  1
  Pb  Pb25  1  0.486834  0.691273  0.679026  1
  Pb  Pb26  1  0.987715  0.318137  0.975036  1
  Pb  Pb27  1  0.023880  0.911787  0.125027  1
  Pb  Pb28  1  0.455527  0.569000  0.027684  1
  Pb  Pb29  1  0.012285  0.818137  0.475036  1
  Pb  Pb30  1  0.543086  0.895275  0.274482  1
  Pb  Pb31  1  0.992392  0.234452  0.371556  1
  O  O32  1  0.681831  0.873552  0.999528  1
  O  O33  1  0.774744  0.820264  0.539607  1
  O  O34  1  0.999188  0.470656  0.722618  1
  O  O35  1  0.270905  0.673494  0.285566  1
  O  O36  1  0.988406  0.106845  0.498442  1
  O  O37  1  0.640046  0.893451  0.351677  1
  O  O38  1  0.254873  0.163288  0.608083  1
  O  O39  1  0.011594  0.606845  0.998442  1
  O  O40  1  0.279746  0.834495  0.541102  1
  O  O41  1  0.730016  0.120957  0.605043  1
  O  O42  1  0.209630  0.695063  0.789479  1
  O  O43  1  0.140515  0.323898  0.232016  1
  O  O44  1  0.753543  0.145083  0.115769  1
  O  O45  1  0.745127  0.663288  0.108083  1
  O  O46  1  0.000812  0.970656  0.222618  1
  O  O47  1  0.318169  0.373552  0.499528  1
  O  O48  1  0.628326  0.905393  0.447456  1
  O  O49  1  0.465123  0.192730  0.402568  1
  O  O50  1  0.732734  0.680265  0.620229  1
  O  O51  1  0.228208  0.465236  0.357088  1
  O  O52  1  0.542065  0.354035  0.671574  1
  O  O53  1  0.790370  0.195063  0.289479  1
  O  O54  1  0.457935  0.854035  0.171574  1
  O  O55  1  0.267266  0.180265  0.120229  1
  O  O56  1  0.216329  0.886257  0.399132  1
  O  O57  1  0.225256  0.320264  0.039607  1
  O  O58  1  0.532416  0.497776  0.178349  1
  O  O59  1  0.087824  0.901130  0.948725  1
  O  O60  1  0.720254  0.334495  0.041102  1
  O  O61  1  0.896576  0.430306  0.545131  1
  O  O62  1  0.771792  0.965236  0.857088  1
  O  O63  1  0.729095  0.173494  0.785566  1
  O  O64  1  0.912176  0.401130  0.448725  1
  O  O65  1  0.270635  0.976576  0.859514  1
  O  O66  1  0.371674  0.405393  0.947456  1
  O  O67  1  0.269984  0.620957  0.105043  1
  O  O68  1  0.103424  0.930306  0.045131  1
  O  O69  1  0.749981  0.610441  0.799429  1
  O  O70  1  0.534877  0.692730  0.902568  1
  O  O71  1  0.782807  0.620129  0.279314  1
  O  O72  1  0.729365  0.476576  0.359514  1
  O  O73  1  0.467584  0.997776  0.678349  1
  O  O74  1  0.246457  0.645083  0.615769  1
  O  O75  1  0.783671  0.386257  0.899132  1
  O  O76  1  0.859485  0.823898  0.732016  1
  O  O77  1  0.217193  0.120129  0.779314  1
  O  O78  1  0.250019  0.110441  0.299429  1
  O  O79  1  0.359954  0.393451  0.851677  1
