# generated using pymatgen
data_Ba2YCl7
_symmetry_space_group_name_H-M   'P 1'
_cell_length_a   12.10923177
_cell_length_b   7.68799096
_cell_length_c   14.30365402
_cell_angle_alpha   90.00000000
_cell_angle_beta   90.00000000
_cell_angle_gamma   80.36298235
_symmetry_Int_Tables_number   1
_chemical_formula_structural   Ba2YCl7
_chemical_formula_sum   'Ba8 Y4 Cl28'
_cell_volume   1312.81663268
_cell_formula_units_Z   4
loop_
 _symmetry_equiv_pos_site_id
 _symmetry_equiv_pos_as_xyz
  1  'x, y, z'
loop_
 _atom_site_type_symbol
 _atom_site_label
 _atom_site_symmetry_multiplicity
 _atom_site_fract_x
 _atom_site_fract_y
 _atom_site_fract_z
 _atom_site_occupancy
  Ba  Ba0  1  0.170556  0.328289  0.565626  1
  Ba  Ba1  1  0.209243  0.194633  0.878604  1
  Ba  Ba2  1  0.290757  0.805367  0.378604  1
  Ba  Ba3  1  0.329444  0.671711  0.065626  1
  Ba  Ba4  1  0.670556  0.328289  0.934374  1
  Ba  Ba5  1  0.709243  0.194633  0.621396  1
  Ba  Ba6  1  0.790757  0.805367  0.121396  1
  Ba  Ba7  1  0.829444  0.671711  0.434374  1
  Y  Y8  1  0.015205  0.162768  0.206416  1
  Y  Y9  1  0.484795  0.837232  0.706416  1
  Y  Y10  1  0.515205  0.162768  0.293584  1
  Y  Y11  1  0.984795  0.837232  0.793584  1
  Cl  Cl12  1  0.113311  0.827101  0.188298  1
  Cl  Cl13  1  0.108497  0.151546  0.374294  1
  Cl  Cl14  1  0.092023  0.635381  0.435234  1
  Cl  Cl15  1  0.114454  0.858449  0.942321  1
  Cl  Cl16  1  0.140334  0.321279  0.090189  1
  Cl  Cl17  1  0.137802  0.998541  0.702998  1
  Cl  Cl18  1  0.115586  0.525690  0.756515  1
  Cl  Cl19  1  0.384414  0.474310  0.256515  1
  Cl  Cl20  1  0.362198  0.001459  0.202998  1
  Cl  Cl21  1  0.359666  0.678721  0.590189  1
  Cl  Cl22  1  0.385546  0.141551  0.442321  1
  Cl  Cl23  1  0.407977  0.364619  0.935234  1
  Cl  Cl24  1  0.391503  0.848454  0.874294  1
  Cl  Cl25  1  0.386689  0.172899  0.688298  1
  Cl  Cl26  1  0.613311  0.827101  0.311702  1
  Cl  Cl27  1  0.608497  0.151546  0.125706  1
  Cl  Cl28  1  0.592023  0.635381  0.064766  1
  Cl  Cl29  1  0.614454  0.858449  0.557679  1
  Cl  Cl30  1  0.640334  0.321279  0.409811  1
  Cl  Cl31  1  0.637802  0.998541  0.797002  1
  Cl  Cl32  1  0.615586  0.525690  0.743485  1
  Cl  Cl33  1  0.884414  0.474310  0.243485  1
  Cl  Cl34  1  0.862198  0.001459  0.297002  1
  Cl  Cl35  1  0.859666  0.678721  0.909811  1
  Cl  Cl36  1  0.885546  0.141551  0.057679  1
  Cl  Cl37  1  0.907977  0.364619  0.564766  1
  Cl  Cl38  1  0.891503  0.848454  0.625706  1
  Cl  Cl39  1  0.886689  0.172899  0.811702  1
