# generated using pymatgen
data_Na(SnO2)2
_symmetry_space_group_name_H-M   'P 1'
_cell_length_a   6.67150554
_cell_length_b   6.68374371
_cell_length_c   6.67150554
_cell_angle_alpha   60.06054677
_cell_angle_beta   90.00000000
_cell_angle_gamma   119.93945323
_symmetry_Int_Tables_number   1
_chemical_formula_structural   Na(SnO2)2
_chemical_formula_sum   'Na2 Sn4 O8'
_cell_volume   210.73926410
_cell_formula_units_Z   2
loop_
 _symmetry_equiv_pos_site_id
 _symmetry_equiv_pos_as_xyz
  1  'x, y, z'
loop_
 _atom_site_type_symbol
 _atom_site_label
 _atom_site_symmetry_multiplicity
 _atom_site_fract_x
 _atom_site_fract_y
 _atom_site_fract_z
 _atom_site_occupancy
  Na  Na0  1  0.000000  0.000000  0.000000  1
  Na  Na1  1  0.750000  0.500000  0.750000  1
  Sn  Sn2  1  0.375000  0.250000  0.375000  1
  Sn  Sn3  1  0.875000  0.250000  0.375000  1
  Sn  Sn4  1  0.375000  0.750000  0.375000  1
  Sn  Sn5  1  0.375000  0.750000  0.875000  1
  O  O6  1  0.144040  0.288080  0.142406  1
  O  O7  1  0.605960  0.211920  0.180486  1
  O  O8  1  0.569514  0.711920  0.144040  1
  O  O9  1  0.142406  0.711920  0.144040  1
  O  O10  1  0.605960  0.211920  0.607594  1
  O  O11  1  0.144040  0.288080  0.569514  1
  O  O12  1  0.607594  0.788080  0.605960  1
  O  O13  1  0.180486  0.788080  0.605960  1
