# generated using pymatgen
data_Li9Y(NiO4)2
_symmetry_space_group_name_H-M   'P 1'
_cell_length_a   16.17257172
_cell_length_b   6.50581109
_cell_length_c   7.71254290
_cell_angle_alpha   89.99900167
_cell_angle_beta   90.03693013
_cell_angle_gamma   90.00580682
_symmetry_Int_Tables_number   1
_chemical_formula_structural   Li9Y(NiO4)2
_chemical_formula_sum   'Li36 Y4 Ni8 O32'
_cell_volume   811.48039921
_cell_formula_units_Z   4
loop_
 _symmetry_equiv_pos_site_id
 _symmetry_equiv_pos_as_xyz
  1  'x, y, z'
loop_
 _atom_site_type_symbol
 _atom_site_label
 _atom_site_symmetry_multiplicity
 _atom_site_fract_x
 _atom_site_fract_y
 _atom_site_fract_z
 _atom_site_occupancy
  Li  Li0  1  0.069526  0.500087  0.540293  1
  Li  Li1  1  0.069527  0.999929  0.540283  1
  Li  Li2  1  0.146355  0.249993  0.362079  1
  Li  Li3  1  0.127081  0.499091  0.129527  1
  Li  Li4  1  0.127082  0.000946  0.129525  1
  Li  Li5  1  0.146484  0.750015  0.349699  1
  Li  Li6  1  0.196382  0.249973  0.831400  1
  Li  Li7  1  0.210808  0.009186  0.582416  1
  Li  Li8  1  0.210821  0.490773  0.582373  1
  Li  Li9  1  0.289233  0.509251  0.082230  1
  Li  Li10  1  0.289222  0.990742  0.082221  1
  Li  Li11  1  0.303609  0.750015  0.331400  1
  Li  Li12  1  0.353396  0.249999  0.849701  1
  Li  Li13  1  0.373038  0.500957  0.629451  1
  Li  Li14  1  0.373029  0.999023  0.629448  1
  Li  Li15  1  0.353675  0.750018  0.861904  1
  Li  Li16  1  0.430548  0.000050  0.039936  1
  Li  Li17  1  0.430548  0.499943  0.039911  1
  Li  Li18  1  0.569448  0.500131  0.959691  1
  Li  Li19  1  0.569445  0.999871  0.959704  1
  Li  Li20  1  0.646155  0.250000  0.137940  1
  Li  Li21  1  0.626994  0.000904  0.370347  1
  Li  Li22  1  0.626994  0.499107  0.370346  1
  Li  Li23  1  0.646446  0.750008  0.150337  1
  Li  Li24  1  0.696346  0.249993  0.668347  1
  Li  Li25  1  0.710812  0.009352  0.917516  1
  Li  Li26  1  0.710815  0.490641  0.917538  1
  Li  Li27  1  0.789149  0.509558  0.417909  1
  Li  Li28  1  0.789147  0.990455  0.417909  1
  Li  Li29  1  0.803583  0.750011  0.168526  1
  Li  Li30  1  0.853476  0.250000  0.649962  1
  Li  Li31  1  0.872994  0.500868  0.870667  1
  Li  Li32  1  0.872989  0.999129  0.870667  1
  Li  Li33  1  0.853626  0.750015  0.638200  1
  Li  Li34  1  0.930520  0.999916  0.459959  1
  Li  Li35  1  0.930520  0.500097  0.459967  1
  Y  Y36  1  0.021187  0.750003  0.825372  1
  Y  Y37  1  0.478621  0.249975  0.324846  1
  Y  Y38  1  0.521370  0.750014  0.674480  1
  Y  Y39  1  0.978676  0.249999  0.175170  1
  Ni  Ni40  1  0.033898  0.249903  0.778924  1
  Ni  Ni41  1  0.203773  0.749983  0.830725  1
  Ni  Ni42  1  0.295988  0.250013  0.330424  1
  Ni  Ni43  1  0.466455  0.750107  0.278573  1
  Ni  Ni44  1  0.533684  0.249990  0.720605  1
  Ni  Ni45  1  0.703889  0.749982  0.669583  1
  Ni  Ni46  1  0.795912  0.250051  0.169764  1
  Ni  Ni47  1  0.966495  0.749947  0.221145  1
  O  O48  1  0.032238  0.511966  0.308228  1
  O  O49  1  0.032237  0.988068  0.308231  1
  O  O50  1  0.093666  0.250012  0.003110  1
  O  O51  1  0.131473  0.249998  0.610393  1
  O  O52  1  0.131120  0.750010  0.617112  1
  O  O53  1  0.120662  0.750030  0.013783  1
  O  O54  1  0.221830  0.006506  0.307782  1
  O  O55  1  0.221831  0.493499  0.307773  1
  O  O56  1  0.278182  0.506711  0.807902  1
  O  O57  1  0.278172  0.993265  0.807927  1
  O  O58  1  0.379269  0.249991  0.513471  1
  O  O59  1  0.368771  0.249995  0.116812  1
  O  O60  1  0.368444  0.749991  0.110245  1
  O  O61  1  0.406420  0.750005  0.502707  1
  O  O62  1  0.467944  0.012006  0.808028  1
  O  O63  1  0.467960  0.487981  0.808012  1
  O  O64  1  0.532147  0.511760  0.191687  1
  O  O65  1  0.532141  0.988202  0.191692  1
  O  O66  1  0.593582  0.249999  0.496891  1
  O  O67  1  0.631624  0.250005  0.889605  1
  O  O68  1  0.631172  0.750009  0.883126  1
  O  O69  1  0.620702  0.750003  0.486228  1
  O  O70  1  0.721868  0.006435  0.192460  1
  O  O71  1  0.721870  0.493574  0.192469  1
  O  O72  1  0.778187  0.506704  0.692236  1
  O  O73  1  0.778177  0.993272  0.692226  1
  O  O74  1  0.879259  0.249995  0.986893  1
  O  O75  1  0.868698  0.250003  0.383201  1
  O  O76  1  0.868525  0.750005  0.389858  1
  O  O77  1  0.906313  0.750005  0.997131  1
  O  O78  1  0.967867  0.012022  0.691910  1
  O  O79  1  0.967876  0.487964  0.691928  1
