# generated using pymatgen
data_Li2CoP2O7
_symmetry_space_group_name_H-M   'P 1'
_cell_length_a   7.69325833
_cell_length_b   7.69184813
_cell_length_c   5.00097658
_cell_angle_alpha   89.98373397
_cell_angle_beta   89.98805097
_cell_angle_gamma   90.00714759
_symmetry_Int_Tables_number   1
_chemical_formula_structural   Li2CoP2O7
_chemical_formula_sum   'Li4 Co2 P4 O14'
_cell_volume   295.93464236
_cell_formula_units_Z   2
loop_
 _symmetry_equiv_pos_site_id
 _symmetry_equiv_pos_as_xyz
  1  'x, y, z'
loop_
 _atom_site_type_symbol
 _atom_site_label
 _atom_site_symmetry_multiplicity
 _atom_site_fract_x
 _atom_site_fract_y
 _atom_site_fract_z
 _atom_site_occupancy
  Li  Li0  1  0.216600  0.716625  0.539269  1
  Li  Li1  1  0.283357  0.216568  0.460792  1
  Li  Li2  1  0.716653  0.783495  0.460779  1
  Li  Li3  1  0.783454  0.283394  0.539084  1
  Co  Co4  1  0.000021  0.999901  0.000089  1
  Co  Co5  1  0.499881  0.500016  0.999921  1
  P  P6  1  0.142696  0.357154  0.901738  1
  P  P7  1  0.357213  0.857274  0.098067  1
  P  P8  1  0.642938  0.142801  0.098589  1
  P  P9  1  0.857176  0.642805  0.901739  1
  O  O10  1  0.999898  0.499942  0.811050  1
  O  O11  1  0.080686  0.190079  0.757394  1
  O  O12  1  0.155143  0.344607  0.200955  1
  O  O13  1  0.190137  0.919335  0.242653  1
  O  O14  1  0.309798  0.419373  0.757408  1
  O  O15  1  0.344714  0.844898  0.799132  1
  O  O16  1  0.419258  0.690073  0.242512  1
  O  O17  1  0.500057  0.000026  0.189026  1
  O  O18  1  0.580866  0.309915  0.242444  1
  O  O19  1  0.655508  0.155216  0.798868  1
  O  O20  1  0.690081  0.580776  0.757455  1
  O  O21  1  0.809899  0.080677  0.242689  1
  O  O22  1  0.844676  0.655270  0.200976  1
  O  O23  1  0.919389  0.809879  0.757375  1
