# generated using pymatgen
data_Sb2(SeO4)3
_symmetry_space_group_name_H-M   'P 1'
_cell_length_a   9.27270110
_cell_length_b   9.75879084
_cell_length_c   13.00225316
_cell_angle_alpha   90.00000000
_cell_angle_beta   91.53167963
_cell_angle_gamma   90.00000000
_symmetry_Int_Tables_number   1
_chemical_formula_structural   Sb2(SeO4)3
_chemical_formula_sum   'Sb8 Se12 O48'
_cell_volume   1176.15805316
_cell_formula_units_Z   4
loop_
 _symmetry_equiv_pos_site_id
 _symmetry_equiv_pos_as_xyz
  1  'x, y, z'
loop_
 _atom_site_type_symbol
 _atom_site_label
 _atom_site_symmetry_multiplicity
 _atom_site_fract_x
 _atom_site_fract_y
 _atom_site_fract_z
 _atom_site_occupancy
  Sb  Sb0  1  0.253448  0.464986  0.885859  1
  Sb  Sb1  1  0.246552  0.964986  0.614141  1
  Sb  Sb2  1  0.252294  0.531184  0.381775  1
  Sb  Sb3  1  0.247706  0.031184  0.118225  1
  Sb  Sb4  1  0.752294  0.968816  0.881775  1
  Sb  Sb5  1  0.747706  0.468816  0.618225  1
  Sb  Sb6  1  0.753448  0.035014  0.385859  1
  Sb  Sb7  1  0.746552  0.535014  0.114141  1
  Se  Se8  1  0.039168  0.252571  0.493576  1
  Se  Se9  1  0.100639  0.124640  0.846938  1
  Se  Se10  1  0.110899  0.380316  0.143627  1
  Se  Se11  1  0.399361  0.624640  0.653062  1
  Se  Se12  1  0.389101  0.880316  0.356373  1
  Se  Se13  1  0.460832  0.752571  0.006424  1
  Se  Se14  1  0.539168  0.247429  0.993576  1
  Se  Se15  1  0.610899  0.119684  0.643627  1
  Se  Se16  1  0.600639  0.375360  0.346938  1
  Se  Se17  1  0.889101  0.619684  0.856373  1
  Se  Se18  1  0.899361  0.875360  0.153062  1
  Se  Se19  1  0.960832  0.747429  0.506424  1
  O  O20  1  0.058477  0.615565  0.905746  1
  O  O21  1  0.049875  0.627354  0.441117  1
  O  O22  1  0.063898  0.809212  0.605413  1
  O  O23  1  0.067804  0.921014  0.193051  1
  O  O24  1  0.083449  0.125933  0.576312  1
  O  O25  1  0.119569  0.292056  0.819430  1
  O  O26  1  0.118686  0.101976  0.974589  1
  O  O27  1  0.123229  0.498658  0.238240  1
  O  O28  1  0.151222  0.225547  0.191840  1
  O  O29  1  0.190912  0.320799  0.446636  1
  O  O30  1  0.222074  0.028843  0.785552  1
  O  O31  1  0.231439  0.420725  0.053131  1
  O  O32  1  0.277926  0.528843  0.714448  1
  O  O33  1  0.268561  0.920725  0.446869  1
  O  O34  1  0.309088  0.820799  0.053364  1
  O  O35  1  0.348778  0.725547  0.308160  1
  O  O36  1  0.381314  0.601976  0.525411  1
  O  O37  1  0.380431  0.792056  0.680570  1
  O  O38  1  0.376771  0.998658  0.261760  1
  O  O39  1  0.416551  0.625933  0.923688  1
  O  O40  1  0.436102  0.309212  0.894587  1
  O  O41  1  0.441523  0.115565  0.594254  1
  O  O42  1  0.432196  0.421014  0.306949  1
  O  O43  1  0.450125  0.127354  0.058883  1
  O  O44  1  0.549875  0.872646  0.941117  1
  O  O45  1  0.567804  0.578986  0.693051  1
  O  O46  1  0.558477  0.884435  0.405746  1
  O  O47  1  0.563898  0.690788  0.105413  1
  O  O48  1  0.583449  0.374067  0.076312  1
  O  O49  1  0.623229  0.001342  0.738240  1
  O  O50  1  0.619569  0.207944  0.319430  1
  O  O51  1  0.618686  0.398024  0.474589  1
  O  O52  1  0.651222  0.274453  0.691840  1
  O  O53  1  0.690912  0.179201  0.946636  1
  O  O54  1  0.731439  0.079275  0.553131  1
  O  O55  1  0.722074  0.471157  0.285552  1
  O  O56  1  0.768561  0.579275  0.946869  1
  O  O57  1  0.777926  0.971157  0.214448  1
  O  O58  1  0.809088  0.679201  0.553364  1
  O  O59  1  0.848778  0.774453  0.808160  1
  O  O60  1  0.876771  0.501342  0.761760  1
  O  O61  1  0.881314  0.898024  0.025411  1
  O  O62  1  0.880431  0.707944  0.180570  1
  O  O63  1  0.916551  0.874067  0.423688  1
  O  O64  1  0.932196  0.078986  0.806949  1
  O  O65  1  0.936102  0.190788  0.394587  1
  O  O66  1  0.950125  0.372646  0.558883  1
  O  O67  1  0.941523  0.384435  0.094254  1
