# generated using pymatgen
data_Li2FeP4(H4O5)4
_symmetry_space_group_name_H-M   'P 1'
_cell_length_a   7.12821383
_cell_length_b   10.66736933
_cell_length_c   10.97776948
_cell_angle_alpha   90.00000000
_cell_angle_beta   99.53751851
_cell_angle_gamma   90.00000000
_symmetry_Int_Tables_number   1
_chemical_formula_structural   Li2FeP4(H4O5)4
_chemical_formula_sum   'Li4 Fe2 P8 H32 O40'
_cell_volume   823.20341800
_cell_formula_units_Z   2
loop_
 _symmetry_equiv_pos_site_id
 _symmetry_equiv_pos_as_xyz
  1  'x, y, z'
loop_
 _atom_site_type_symbol
 _atom_site_label
 _atom_site_symmetry_multiplicity
 _atom_site_fract_x
 _atom_site_fract_y
 _atom_site_fract_z
 _atom_site_occupancy
  Li  Li0  1  0.252149  0.339325  0.952727  1
  Li  Li1  1  0.247851  0.839325  0.547273  1
  Li  Li2  1  0.752149  0.160675  0.452727  1
  Li  Li3  1  0.747851  0.660675  0.047273  1
  Fe  Fe4  1  0.000000  0.000000  0.000000  1
  Fe  Fe5  1  0.500000  0.500000  0.500000  1
  P  P6  1  0.239285  0.044010  0.776786  1
  P  P7  1  0.260715  0.544010  0.723214  1
  P  P8  1  0.236591  0.238717  0.416513  1
  P  P9  1  0.263409  0.738717  0.083487  1
  P  P10  1  0.736591  0.261283  0.916514  1
  P  P11  1  0.763409  0.761283  0.583486  1
  P  P12  1  0.739285  0.455990  0.276786  1
  P  P13  1  0.760715  0.955990  0.223214  1
  H  H14  1  0.066549  0.708468  0.711589  1
  H  H15  1  0.168367  0.411905  0.574291  1
  H  H16  1  0.155678  0.103800  0.555328  1
  H  H17  1  0.154269  0.594509  0.398231  1
  H  H18  1  0.138418  0.962873  0.316793  1
  H  H19  1  0.116757  0.565140  0.099888  1
  H  H20  1  0.344322  0.603800  0.944672  1
  H  H21  1  0.331633  0.911905  0.925709  1
  H  H22  1  0.189443  0.170400  0.157184  1
  H  H23  1  0.189562  0.376924  0.185451  1
  H  H24  1  0.310438  0.876924  0.314549  1
  H  H25  1  0.433451  0.208468  0.788411  1
  H  H26  1  0.310557  0.670400  0.342816  1
  H  H27  1  0.383243  0.065140  0.400112  1
  H  H28  1  0.361582  0.462873  0.183207  1
  H  H29  1  0.345731  0.094509  0.101769  1
  H  H30  1  0.654269  0.905491  0.898231  1
  H  H31  1  0.638418  0.537127  0.816793  1
  H  H32  1  0.616757  0.934860  0.599888  1
  H  H33  1  0.689443  0.329600  0.657184  1
  H  H34  1  0.566549  0.791532  0.211589  1
  H  H35  1  0.689562  0.123076  0.685451  1
  H  H36  1  0.810438  0.623076  0.814549  1
  H  H37  1  0.810557  0.829600  0.842816  1
  H  H38  1  0.668367  0.088095  0.074291  1
  H  H39  1  0.655678  0.396200  0.055328  1
  H  H40  1  0.883243  0.434860  0.900112  1
  H  H41  1  0.861582  0.037127  0.683207  1
  H  H42  1  0.845731  0.405491  0.601769  1
  H  H43  1  0.844322  0.896200  0.444672  1
  H  H44  1  0.831633  0.588095  0.425709  1
  H  H45  1  0.933451  0.291532  0.288411  1
  O  O46  1  0.044587  0.027966  0.815224  1
  O  O47  1  0.107232  0.457239  0.640647  1
  O  O48  1  0.090806  0.165707  0.483882  1
  O  O49  1  0.199845  0.686042  0.693895  1
  O  O50  1  0.255835  0.513280  0.858279  1
  O  O51  1  0.142214  0.257629  0.281850  1
  O  O52  1  0.244165  0.013280  0.641721  1
  O  O53  1  0.076157  0.655506  0.076385  1
  O  O54  1  0.300155  0.186042  0.806105  1
  O  O55  1  0.392768  0.957239  0.859353  1
  O  O56  1  0.259513  0.937511  0.370194  1
  O  O57  1  0.278393  0.636152  0.421493  1
  O  O58  1  0.290826  0.361508  0.484461  1
  O  O59  1  0.209174  0.861508  0.015539  1
  O  O60  1  0.221607  0.136152  0.078507  1
  O  O61  1  0.240487  0.437511  0.129806  1
  O  O62  1  0.455413  0.527966  0.684776  1
  O  O63  1  0.423843  0.155506  0.423615  1
  O  O64  1  0.357786  0.757629  0.218150  1
  O  O65  1  0.590806  0.334293  0.983882  1
  O  O66  1  0.409194  0.665707  0.016118  1
  O  O67  1  0.642214  0.242371  0.781850  1
  O  O68  1  0.576157  0.844494  0.576385  1
  O  O69  1  0.544587  0.472034  0.315224  1
  O  O70  1  0.759513  0.562489  0.870194  1
  O  O71  1  0.778393  0.863848  0.921493  1
  O  O72  1  0.790826  0.138492  0.984461  1
  O  O73  1  0.709174  0.638492  0.515539  1
  O  O74  1  0.721607  0.363848  0.578507  1
  O  O75  1  0.740487  0.062489  0.629806  1
  O  O76  1  0.607232  0.042761  0.140647  1
  O  O77  1  0.699845  0.813958  0.193895  1
  O  O78  1  0.923843  0.344494  0.923615  1
  O  O79  1  0.755835  0.986720  0.358279  1
  O  O80  1  0.857786  0.742371  0.718150  1
  O  O81  1  0.744165  0.486720  0.141721  1
  O  O82  1  0.800155  0.313958  0.306105  1
  O  O83  1  0.909194  0.834293  0.516118  1
  O  O84  1  0.892768  0.542761  0.359353  1
  O  O85  1  0.955413  0.972034  0.184776  1
