# generated using pymatgen
data_Ba2SrI6
_symmetry_space_group_name_H-M   'P 1'
_cell_length_a   8.01605022
_cell_length_b   9.15977505
_cell_length_c   11.43280167
_cell_angle_alpha   90.00000000
_cell_angle_beta   91.01127268
_cell_angle_gamma   90.00000000
_symmetry_Int_Tables_number   1
_chemical_formula_structural   Ba2SrI6
_chemical_formula_sum   'Ba4 Sr2 I12'
_cell_volume   839.32518940
_cell_formula_units_Z   2
loop_
 _symmetry_equiv_pos_site_id
 _symmetry_equiv_pos_as_xyz
  1  'x, y, z'
loop_
 _atom_site_type_symbol
 _atom_site_label
 _atom_site_symmetry_multiplicity
 _atom_site_fract_x
 _atom_site_fract_y
 _atom_site_fract_z
 _atom_site_occupancy
  Ba  Ba0  1  0.446039  0.642042  0.798018  1
  Ba  Ba1  1  0.515156  0.857222  0.306289  1
  Ba  Ba2  1  0.946039  0.357958  0.298018  1
  Ba  Ba3  1  0.015156  0.142778  0.806289  1
  Sr  Sr4  1  0.481700  0.250584  0.553826  1
  Sr  Sr5  1  0.981700  0.749416  0.053826  1
  I  I6  1  0.115079  0.706779  0.320504  1
  I  I7  1  0.147048  0.432318  0.994108  1
  I  I8  1  0.147223  0.427501  0.623333  1
  I  I9  1  0.319218  0.922141  0.986812  1
  I  I10  1  0.314946  0.934397  0.613600  1
  I  I11  1  0.345798  0.205764  0.288347  1
  I  I12  1  0.615079  0.293221  0.820504  1
  I  I13  1  0.647048  0.567682  0.494108  1
  I  I14  1  0.647223  0.572499  0.123333  1
  I  I15  1  0.819218  0.077859  0.486812  1
  I  I16  1  0.814946  0.065603  0.113600  1
  I  I17  1  0.845798  0.794236  0.788347  1
