# generated using pymatgen
data_Li2Mn3(BO3)3
_symmetry_space_group_name_H-M   'P 1'
_cell_length_a   7.81726753
_cell_length_b   9.17544978
_cell_length_c   6.21169427
_cell_angle_alpha   104.02428321
_cell_angle_beta   79.73663063
_cell_angle_gamma   66.48817241
_symmetry_Int_Tables_number   1
_chemical_formula_structural   Li2Mn3(BO3)3
_chemical_formula_sum   'Li4 Mn6 B6 O18'
_cell_volume   376.98736395
_cell_formula_units_Z   2
loop_
 _symmetry_equiv_pos_site_id
 _symmetry_equiv_pos_as_xyz
  1  'x, y, z'
loop_
 _atom_site_type_symbol
 _atom_site_label
 _atom_site_symmetry_multiplicity
 _atom_site_fract_x
 _atom_site_fract_y
 _atom_site_fract_z
 _atom_site_occupancy
  Li  Li0  1  0.374941  0.619794  0.941114  1
  Li  Li1  1  0.729526  0.947886  0.611510  1
  Li  Li2  1  0.270474  0.052114  0.388490  1
  Li  Li3  1  0.625059  0.380206  0.058886  1
  Mn  Mn4  1  0.996295  0.407697  0.758616  1
  Mn  Mn5  1  0.708305  0.277357  0.545515  1
  Mn  Mn6  1  0.664013  0.040678  0.100349  1
  Mn  Mn7  1  0.335987  0.959322  0.899651  1
  Mn  Mn8  1  0.291695  0.722643  0.454485  1
  Mn  Mn9  1  0.003705  0.592303  0.241384  1
  B  B10  1  0.982480  0.065716  0.762845  1
  B  B11  1  0.368451  0.282421  0.883698  1
  B  B12  1  0.679638  0.628691  0.593330  1
  B  B13  1  0.320362  0.371309  0.406670  1
  B  B14  1  0.631549  0.717579  0.116302  1
  B  B15  1  0.017520  0.934284  0.237155  1
  O  O16  1  0.880332  0.239328  0.807807  1
  O  O17  1  0.841434  0.633248  0.026532  1
  O  O18  1  0.891834  0.972482  0.813328  1
  O  O19  1  0.814828  0.018366  0.355417  1
  O  O20  1  0.466306  0.114507  0.863831  1
  O  O21  1  0.802891  0.465201  0.583636  1
  O  O22  1  0.460751  0.375328  0.838991  1
  O  O23  1  0.759340  0.720563  0.508675  1
  O  O24  1  0.478728  0.693315  0.690317  1
  O  O25  1  0.521272  0.306685  0.309683  1
  O  O26  1  0.240660  0.279437  0.491325  1
  O  O27  1  0.539249  0.624672  0.161009  1
  O  O28  1  0.197109  0.534799  0.416364  1
  O  O29  1  0.533694  0.885493  0.136169  1
  O  O30  1  0.185172  0.981634  0.644583  1
  O  O31  1  0.108166  0.027518  0.186672  1
  O  O32  1  0.158566  0.366752  0.973468  1
  O  O33  1  0.119668  0.760672  0.192193  1
