# generated using pymatgen
data_Li3Mn(OF)2
_symmetry_space_group_name_H-M   'P 1'
_cell_length_a   2.85194938
_cell_length_b   6.02564953
_cell_length_c   6.02564538
_cell_angle_alpha   57.43917072
_cell_angle_beta   118.24829403
_cell_angle_gamma   118.24844165
_symmetry_Int_Tables_number   1
_chemical_formula_structural   Li3Mn(OF)2
_chemical_formula_sum   'Li3 Mn1 O2 F2'
_cell_volume   73.47297882
_cell_formula_units_Z   1
loop_
 _symmetry_equiv_pos_site_id
 _symmetry_equiv_pos_as_xyz
  1  'x, y, z'
loop_
 _atom_site_type_symbol
 _atom_site_label
 _atom_site_symmetry_multiplicity
 _atom_site_fract_x
 _atom_site_fract_y
 _atom_site_fract_z
 _atom_site_occupancy
  Li  Li0  1  0.999027  0.500271  0.999937  1
  Li  Li1  1  0.000217  0.500318  0.500320  1
  Li  Li2  1  0.999029  0.999939  0.500272  1
  Mn  Mn3  1  0.000766  0.000792  0.000777  1
  O  O4  1  0.501229  0.773558  0.228477  1
  O  O5  1  0.501230  0.228467  0.773568  1
  F  F6  1  0.522408  0.261942  0.261939  1
  F  F7  1  0.478029  0.739700  0.739698  1
