# generated using pymatgen
data_FeGe4H24C8(S5N)2
_symmetry_space_group_name_H-M   'P 1'
_cell_length_a   9.96855062
_cell_length_b   9.96855062
_cell_length_c   9.96855062
_cell_angle_alpha   122.55300782
_cell_angle_beta   122.55300782
_cell_angle_gamma   85.63216404
_symmetry_Int_Tables_number   1
_chemical_formula_structural   FeGe4H24C8(S5N)2
_chemical_formula_sum   'Fe1 Ge4 H24 C8 S10 N2'
_cell_volume   671.29966410
_cell_formula_units_Z   1
loop_
 _symmetry_equiv_pos_site_id
 _symmetry_equiv_pos_as_xyz
  1  'x, y, z'
loop_
 _atom_site_type_symbol
 _atom_site_label
 _atom_site_symmetry_multiplicity
 _atom_site_fract_x
 _atom_site_fract_y
 _atom_site_fract_z
 _atom_site_occupancy
  Fe  Fe0  1  0.750000  0.250000  0.500000  1
  Ge  Ge1  1  0.976053  0.732043  0.887507  1
  Ge  Ge2  1  0.844537  0.088547  0.112493  1
  Ge  Ge3  1  0.911453  0.023947  0.755990  1
  Ge  Ge4  1  0.267957  0.155463  0.244010  1
  H  H5  1  0.417705  0.519578  0.770644  1
  H  H6  1  0.748934  0.647061  0.229356  1
  H  H7  1  0.352939  0.582295  0.101873  1
  H  H8  1  0.480422  0.251066  0.898127  1
  H  H9  1  0.323236  0.616367  0.897258  1
  H  H10  1  0.719109  0.425978  0.102742  1
  H  H11  1  0.574022  0.676764  0.293131  1
  H  H12  1  0.383633  0.280891  0.706869  1
  H  H13  1  0.534763  0.714741  0.012597  1
  H  H14  1  0.702144  0.522167  0.987403  1
  H  H15  1  0.477833  0.465237  0.179977  1
  H  H16  1  0.285259  0.297856  0.820023  1
  H  H17  1  0.257808  0.919058  0.431876  1
  H  H18  1  0.487182  0.825932  0.568124  1
  H  H19  1  0.174068  0.742192  0.661250  1
  H  H20  1  0.080942  0.512818  0.338750  1
  H  H21  1  0.101584  0.914554  0.468317  1
  H  H22  1  0.446237  0.633267  0.531683  1
  H  H23  1  0.366733  0.898416  0.812970  1
  H  H24  1  0.085446  0.553763  0.187030  1
  H  H25  1  0.315553  0.012194  0.674573  1
  H  H26  1  0.337621  0.640980  0.325427  1
  H  H27  1  0.359020  0.684447  0.696641  1
  H  H28  1  0.987806  0.662379  0.303359  1
  C  C29  1  0.438835  0.595497  0.913570  1
  C  C30  1  0.681928  0.525265  0.086430  1
  C  C31  1  0.474735  0.561165  0.156662  1
  C  C32  1  0.404503  0.318072  0.843338  1
  C  C33  1  0.229688  0.910476  0.519557  1
  C  C34  1  0.390918  0.710131  0.480443  1
  C  C35  1  0.289869  0.770312  0.680787  1
  C  C36  1  0.089524  0.609082  0.319213  1
  S  S37  1  0.249464  0.886276  0.135270  1
  S  S38  1  0.751006  0.114193  0.864730  1
  S  S39  1  0.885807  0.750536  0.636813  1
  S  S40  1  0.113724  0.248994  0.363187  1
  S  S41  1  0.817515  0.817515  0.000000  1
  S  S42  1  0.182485  0.182485  0.000000  1
  S  S43  1  0.976076  0.475023  0.794112  1
  S  S44  1  0.680911  0.181965  0.205888  1
  S  S45  1  0.818036  0.023924  0.498946  1
  S  S46  1  0.524977  0.319089  0.501054  1
  N  N47  1  0.500000  0.500000  0.000000  1
  N  N48  1  0.250000  0.750000  0.500000  1
