# generated using pymatgen
data_Mn3O5F
_symmetry_space_group_name_H-M   'P 1'
_cell_length_a   4.54501644
_cell_length_b   4.54501644
_cell_length_c   9.02403538
_cell_angle_alpha   90.00000000
_cell_angle_beta   90.00000000
_cell_angle_gamma   92.04360678
_symmetry_Int_Tables_number   1
_chemical_formula_structural   Mn3O5F
_chemical_formula_sum   'Mn6 O10 F2'
_cell_volume   186.29251129
_cell_formula_units_Z   2
loop_
 _symmetry_equiv_pos_site_id
 _symmetry_equiv_pos_as_xyz
  1  'x, y, z'
loop_
 _atom_site_type_symbol
 _atom_site_label
 _atom_site_symmetry_multiplicity
 _atom_site_fract_x
 _atom_site_fract_y
 _atom_site_fract_z
 _atom_site_occupancy
  Mn  Mn0  1  0.007299  0.992701  0.006986  1
  Mn  Mn1  1  0.007299  0.992701  0.326347  1
  Mn  Mn2  1  0.016346  0.983653  0.666667  1
  Mn  Mn3  1  0.483218  0.516782  0.834375  1
  Mn  Mn4  1  0.506805  0.493195  0.166667  1
  Mn  Mn5  1  0.483218  0.516782  0.498959  1
  O  O6  1  0.197055  0.802945  0.166667  1
  O  O7  1  0.194757  0.805243  0.494814  1
  O  O8  1  0.194757  0.805243  0.838519  1
  O  O9  1  0.305743  0.305051  0.000222  1
  O  O10  1  0.305743  0.305051  0.333111  1
  O  O11  1  0.303468  0.307289  0.666667  1
  O  O12  1  0.694949  0.694257  0.000222  1
  O  O13  1  0.694949  0.694257  0.333111  1
  O  O14  1  0.692711  0.696532  0.666667  1
  O  O15  1  0.809390  0.190610  0.166667  1
  F  F16  1  0.801145  0.198855  0.497257  1
  F  F17  1  0.801145  0.198855  0.836077  1
