# generated using pymatgen
data_V6O7F5
_symmetry_space_group_name_H-M   'P 1'
_cell_length_a   4.66284068
_cell_length_b   7.80082144
_cell_length_c   5.61553799
_cell_angle_alpha   93.78106725
_cell_angle_beta   91.52147768
_cell_angle_gamma   88.68690942
_symmetry_Int_Tables_number   1
_chemical_formula_structural   V6O7F5
_chemical_formula_sum   'V6 O7 F5'
_cell_volume   203.69717327
_cell_formula_units_Z   1
loop_
 _symmetry_equiv_pos_site_id
 _symmetry_equiv_pos_as_xyz
  1  'x, y, z'
loop_
 _atom_site_type_symbol
 _atom_site_label
 _atom_site_symmetry_multiplicity
 _atom_site_fract_x
 _atom_site_fract_y
 _atom_site_fract_z
 _atom_site_occupancy
  V  V0  1  0.515677  0.651402  0.165982  1
  V  V1  1  0.512664  0.004935  0.515290  1
  V  V2  1  0.492482  0.341636  0.832865  1
  V  V3  1  0.020177  0.684142  0.659288  1
  V  V4  1  0.983182  0.315157  0.341484  1
  V  V5  1  0.983674  0.004833  0.989194  1
  O  O6  1  0.793847  0.088151  0.297803  1
  O  O7  1  0.695835  0.107316  0.793565  1
  O  O8  1  0.689463  0.768559  0.464340  1
  O  O9  1  0.705568  0.427916  0.132923  1
  O  O10  1  0.296857  0.571230  0.871746  1
  O  O11  1  0.306886  0.232043  0.536961  1
  O  O12  1  0.205810  0.908509  0.700052  1
  F  F13  1  0.803543  0.442881  0.634404  1
  F  F14  1  0.799979  0.769486  0.961400  1
  F  F15  1  0.297093  0.894653  0.198618  1
  F  F16  1  0.200281  0.229673  0.039089  1
  F  F17  1  0.196979  0.557478  0.364995  1
