# generated using pymatgen
data_V3OF11
_symmetry_space_group_name_H-M   'P 1'
_cell_length_a   5.42271272
_cell_length_b   5.27472278
_cell_length_c   14.93741325
_cell_angle_alpha   90.00000000
_cell_angle_beta   100.23461929
_cell_angle_gamma   90.00000000
_symmetry_Int_Tables_number   1
_chemical_formula_structural   V3OF11
_chemical_formula_sum   'V6 O2 F22'
_cell_volume   420.46103922
_cell_formula_units_Z   2
loop_
 _symmetry_equiv_pos_site_id
 _symmetry_equiv_pos_as_xyz
  1  'x, y, z'
loop_
 _atom_site_type_symbol
 _atom_site_label
 _atom_site_symmetry_multiplicity
 _atom_site_fract_x
 _atom_site_fract_y
 _atom_site_fract_z
 _atom_site_occupancy
  V  V0  1  0.029768  0.962193  0.004055  1
  V  V1  1  0.165980  0.499228  0.333556  1
  V  V2  1  0.334020  0.999228  0.666444  1
  V  V3  1  0.470232  0.462193  0.995945  1
  V  V4  1  0.665901  0.999509  0.333735  1
  V  V5  1  0.834099  0.499509  0.666265  1
  O  O6  1  0.219858  0.273987  0.980782  1
  O  O7  1  0.280142  0.773987  0.019218  1
  F  F8  1  0.017253  0.192042  0.641245  1
  F  F9  1  0.151017  0.691947  0.691262  1
  F  F10  1  0.036112  0.088109  0.114796  1
  F  F11  1  0.203819  0.410802  0.449094  1
  F  F12  1  0.369534  0.087484  0.782354  1
  F  F13  1  0.130466  0.587484  0.217646  1
  F  F14  1  0.296181  0.910802  0.550906  1
  F  F15  1  0.463888  0.588109  0.885204  1
  F  F16  1  0.348983  0.191947  0.308738  1
  F  F17  1  0.517997  0.307169  0.642026  1
  F  F18  1  0.709614  0.233282  0.977853  1
  F  F19  1  0.482747  0.692042  0.358755  1
  F  F20  1  0.650416  0.807205  0.691327  1
  F  F21  1  0.567092  0.444048  0.115572  1
  F  F22  1  0.703149  0.089462  0.449112  1
  F  F23  1  0.875588  0.413532  0.782434  1
  F  F24  1  0.624412  0.913532  0.217566  1
  F  F25  1  0.796851  0.589462  0.550888  1
  F  F26  1  0.932908  0.944048  0.884428  1
  F  F27  1  0.849584  0.307205  0.308673  1
  F  F28  1  0.790386  0.733282  0.022147  1
  F  F29  1  0.982003  0.807169  0.357974  1
