# generated using pymatgen
data_Na(Bi3O5)4
_symmetry_space_group_name_H-M   'P 1'
_cell_length_a   8.90589731
_cell_length_b   8.90589731
_cell_length_c   8.90589731
_cell_angle_alpha   109.47697021
_cell_angle_beta   109.50588084
_cell_angle_gamma   109.43081969
_symmetry_Int_Tables_number   1
_chemical_formula_structural   Na(Bi3O5)4
_chemical_formula_sum   'Na1 Bi12 O20'
_cell_volume   543.76464735
_cell_formula_units_Z   1
loop_
 _symmetry_equiv_pos_site_id
 _symmetry_equiv_pos_as_xyz
  1  'x, y, z'
loop_
 _atom_site_type_symbol
 _atom_site_label
 _atom_site_symmetry_multiplicity
 _atom_site_fract_x
 _atom_site_fract_y
 _atom_site_fract_z
 _atom_site_occupancy
  Na  Na0  1  0.000000  0.000000  0.000000  1
  Bi  Bi1  1  0.828119  0.316811  0.141061  1
  Bi  Bi2  1  0.488663  0.171876  0.312539  1
  Bi  Bi3  1  0.859336  0.176123  0.687461  1
  Bi  Bi4  1  0.313504  0.489136  0.171693  1
  Bi  Bi5  1  0.686496  0.858190  0.175632  1
  Bi  Bi6  1  0.824250  0.683189  0.511308  1
  Bi  Bi7  1  0.171881  0.312942  0.488692  1
  Bi  Bi8  1  0.682557  0.510864  0.824368  1
  Bi  Bi9  1  0.317443  0.141811  0.828307  1
  Bi  Bi10  1  0.511337  0.823877  0.683213  1
  Bi  Bi11  1  0.140664  0.828124  0.316787  1
  Bi  Bi12  1  0.175750  0.687058  0.858939  1
  O  O13  1  0.344537  0.999847  0.999901  1
  O  O14  1  0.733517  0.109152  0.364627  1
  O  O15  1  0.889931  0.624135  0.254697  1
  O  O16  1  0.630562  0.375865  0.265796  1
  O  O17  1  0.274988  0.273561  0.274898  1
  O  O18  1  0.725012  0.999910  0.998573  1
  O  O19  1  0.744526  0.368890  0.635373  1
  O  O20  1  0.999947  0.344635  0.000099  1
  O  O21  1  0.376139  0.266625  0.631402  1
  O  O22  1  0.623861  0.255264  0.890486  1
  O  O23  1  0.364778  0.733375  0.109514  1
  O  O24  1  0.635222  0.744736  0.368598  1
  O  O25  1  0.655463  0.655365  0.655311  1
  O  O26  1  0.266483  0.631110  0.375635  1
  O  O27  1  0.998663  0.000090  0.725102  1
  O  O28  1  0.001337  0.726439  0.001427  1
  O  O29  1  0.110069  0.364765  0.734204  1
  O  O30  1  0.369438  0.635235  0.745303  1
  O  O31  1  0.255474  0.890848  0.624365  1
  O  O32  1  0.000053  0.000153  0.344689  1
