# generated using pymatgen
data_Li3MnPCO7
_symmetry_space_group_name_H-M   'P 1'
_cell_length_a   8.57925934
_cell_length_b   9.98929681
_cell_length_c   6.57422829
_cell_angle_alpha   89.74275384
_cell_angle_beta   90.49984082
_cell_angle_gamma   85.38663405
_symmetry_Int_Tables_number   1
_chemical_formula_structural   Li3MnPCO7
_chemical_formula_sum   'Li12 Mn4 P4 C4 O28'
_cell_volume   561.56203700
_cell_formula_units_Z   4
loop_
 _symmetry_equiv_pos_site_id
 _symmetry_equiv_pos_as_xyz
  1  'x, y, z'
loop_
 _atom_site_type_symbol
 _atom_site_label
 _atom_site_symmetry_multiplicity
 _atom_site_fract_x
 _atom_site_fract_y
 _atom_site_fract_z
 _atom_site_occupancy
  Li  Li0  1  0.089631  0.382026  0.256480  1
  Li  Li1  1  0.089955  0.879516  0.255186  1
  Li  Li2  1  0.279177  0.122509  0.473149  1
  Li  Li3  1  0.272600  0.623166  0.031851  1
  Li  Li4  1  0.273525  0.622715  0.465731  1
  Li  Li5  1  0.662602  0.105164  0.251262  1
  Li  Li6  1  0.724098  0.368234  0.520108  1
  Li  Li7  1  0.723934  0.367854  0.980458  1
  Li  Li8  1  0.724482  0.889886  0.516048  1
  Li  Li9  1  0.725235  0.889681  0.984993  1
  Li  Li10  1  0.895197  0.113370  0.747357  1
  Li  Li11  1  0.904387  0.618715  0.749032  1
  Mn  Mn12  1  0.269581  0.133985  0.010844  1
  Mn  Mn13  1  0.347166  0.394848  0.746272  1
  Mn  Mn14  1  0.344777  0.877330  0.742183  1
  Mn  Mn15  1  0.660579  0.613601  0.249946  1
  P  P16  1  0.412390  0.360465  0.250157  1
  P  P17  1  0.412885  0.861053  0.249199  1
  P  P18  1  0.593096  0.137875  0.750358  1
  P  P19  1  0.592737  0.638283  0.749807  1
  C  C20  1  0.033834  0.350198  0.755612  1
  C  C21  1  0.033461  0.852317  0.752661  1
  C  C22  1  0.959986  0.148865  0.250865  1
  C  C23  1  0.967026  0.648920  0.249720  1
  O  O24  1  0.069612  0.472562  0.747831  1
  O  O25  1  0.109630  0.181596  0.251042  1
  O  O26  1  0.069812  0.976157  0.756499  1
  O  O27  1  0.149441  0.253849  0.765173  1
  O  O28  1  0.112580  0.679142  0.249214  1
  O  O29  1  0.145982  0.755460  0.750155  1
  O  O30  1  0.310677  0.412112  0.062893  1
  O  O31  1  0.310943  0.415120  0.432289  1
  O  O32  1  0.312398  0.915315  0.060307  1
  O  O33  1  0.310235  0.916631  0.429644  1
  O  O34  1  0.420458  0.092886  0.750184  1
  O  O35  1  0.425596  0.203586  0.249723  1
  O  O36  1  0.421443  0.596645  0.749040  1
  O  O37  1  0.420661  0.703860  0.249965  1
  O  O38  1  0.576799  0.295944  0.749754  1
  O  O39  1  0.577401  0.410108  0.251292  1
  O  O40  1  0.580093  0.795348  0.749431  1
  O  O41  1  0.579331  0.905156  0.250125  1
  O  O42  1  0.687241  0.086564  0.939339  1
  O  O43  1  0.684291  0.086281  0.562201  1
  O  O44  1  0.689262  0.582742  0.566015  1
  O  O45  1  0.690042  0.581610  0.935115  1
  O  O46  1  0.851969  0.244923  0.252863  1
  O  O47  1  0.891503  0.317023  0.750903  1
  O  O48  1  0.856144  0.745676  0.249748  1
  O  O49  1  0.932772  0.024765  0.249585  1
  O  O50  1  0.889543  0.822390  0.750073  1
  O  O51  1  0.931802  0.525971  0.250312  1
