# generated using pymatgen
data_VF4
_symmetry_space_group_name_H-M   'P 1'
_cell_length_a   5.19914522
_cell_length_b   6.26897629
_cell_length_c   5.47520220
_cell_angle_alpha   86.60931474
_cell_angle_beta   89.96880711
_cell_angle_gamma   65.63775156
_symmetry_Int_Tables_number   1
_chemical_formula_structural   VF4
_chemical_formula_sum   'V2 F8'
_cell_volume   162.22418492
_cell_formula_units_Z   2
loop_
 _symmetry_equiv_pos_site_id
 _symmetry_equiv_pos_as_xyz
  1  'x, y, z'
loop_
 _atom_site_type_symbol
 _atom_site_label
 _atom_site_symmetry_multiplicity
 _atom_site_fract_x
 _atom_site_fract_y
 _atom_site_fract_z
 _atom_site_occupancy
  V  V0  1  0.000806  0.499001  0.002761  1
  V  V1  1  0.502545  0.495934  0.503036  1
  F  F2  1  0.044426  0.205148  0.003140  1
  F  F3  1  0.246377  0.416756  0.300092  1
  F  F4  1  0.338149  0.416309  0.798352  1
  F  F5  1  0.253323  0.790785  0.500952  1
  F  F6  1  0.758565  0.204564  0.502225  1
  F  F7  1  0.666230  0.580834  0.205678  1
  F  F8  1  0.758441  0.577059  0.706145  1
  F  F9  1  0.971182  0.790139  0.998185  1
