# generated using pymatgen
data_Li2MnNb3O8
_symmetry_space_group_name_H-M   'P 1'
_cell_length_a   6.13443956
_cell_length_b   6.13447621
_cell_length_c   10.26159796
_cell_angle_alpha   90.00038942
_cell_angle_beta   90.00015469
_cell_angle_gamma   120.00021270
_symmetry_Int_Tables_number   1
_chemical_formula_structural   Li2MnNb3O8
_chemical_formula_sum   'Li4 Mn2 Nb6 O16'
_cell_volume   334.42372093
_cell_formula_units_Z   2
loop_
 _symmetry_equiv_pos_site_id
 _symmetry_equiv_pos_as_xyz
  1  'x, y, z'
loop_
 _atom_site_type_symbol
 _atom_site_label
 _atom_site_symmetry_multiplicity
 _atom_site_fract_x
 _atom_site_fract_y
 _atom_site_fract_z
 _atom_site_occupancy
  Li  Li0  1  0.333337  0.666686  0.890363  1
  Li  Li1  1  0.999996  -0.000001  0.995273  1
  Li  Li2  1  0.000005  0.000005  0.495278  1
  Li  Li3  1  0.666660  0.333348  0.390367  1
  Mn  Mn4  1  0.333324  0.666680  0.501185  1
  Mn  Mn5  1  0.666660  0.333343  0.001203  1
  Nb  Nb6  1  0.176785  0.823224  0.214101  1
  Nb  Nb7  1  0.176787  0.353584  0.214101  1
  Nb  Nb8  1  0.646425  0.823226  0.214102  1
  Nb  Nb9  1  0.353562  0.176795  0.714075  1
  Nb  Nb10  1  0.823222  0.646451  0.714078  1
  Nb  Nb11  1  0.823220  0.176789  0.714076  1
  O  O12  1  0.156505  0.843510  0.606186  1
  O  O13  1  0.025609  0.512819  0.335861  1
  O  O14  1  0.333332  0.666673  0.084542  1
  O  O15  1  0.000000  0.000015  0.314115  1
  O  O16  1  0.000003  0.000013  0.814116  1
  O  O17  1  0.156504  0.313006  0.606183  1
  O  O18  1  0.487185  0.974385  0.335870  1
  O  O19  1  0.487190  0.512828  0.335866  1
  O  O20  1  0.312999  0.156508  0.106191  1
  O  O21  1  0.687003  0.843508  0.606186  1
  O  O22  1  0.512810  0.487207  0.835870  1
  O  O23  1  0.512805  0.025625  0.835867  1
  O  O24  1  0.666670  0.333345  0.584543  1
  O  O25  1  0.843494  0.687008  0.106194  1
  O  O26  1  0.974410  0.487214  0.835861  1
  O  O27  1  0.843498  0.156507  0.106186  1
