# generated using pymatgen
data_BaZn2As3HO11
_symmetry_space_group_name_H-M   'P 1'
_cell_length_a   12.04543348
_cell_length_b   8.35559890
_cell_length_c   10.08254858
_cell_angle_alpha   90.00004696
_cell_angle_beta   95.22737008
_cell_angle_gamma   90.00002546
_symmetry_Int_Tables_number   1
_chemical_formula_structural   BaZn2As3HO11
_chemical_formula_sum   'Ba4 Zn8 As12 H4 O44'
_cell_volume   1010.55589404
_cell_formula_units_Z   4
loop_
 _symmetry_equiv_pos_site_id
 _symmetry_equiv_pos_as_xyz
  1  'x, y, z'
loop_
 _atom_site_type_symbol
 _atom_site_label
 _atom_site_symmetry_multiplicity
 _atom_site_fract_x
 _atom_site_fract_y
 _atom_site_fract_z
 _atom_site_occupancy
  Ba  Ba0  1  0.214959  0.967644  0.998670  1
  Ba  Ba1  1  0.214958  0.532354  0.498667  1
  Ba  Ba2  1  0.785042  0.467646  0.501333  1
  Ba  Ba3  1  0.785041  0.032356  0.001330  1
  Zn  Zn4  1  0.287201  0.180361  0.700097  1
  Zn  Zn5  1  0.287201  0.319639  0.200097  1
  Zn  Zn6  1  0.453699  0.685621  0.995322  1
  Zn  Zn7  1  0.453698  0.814379  0.495322  1
  Zn  Zn8  1  0.546302  0.185621  0.504678  1
  Zn  Zn9  1  0.546301  0.314379  0.004678  1
  Zn  Zn10  1  0.712799  0.680361  0.799903  1
  Zn  Zn11  1  0.712799  0.819639  0.299903  1
  As  As12  1  0.994791  0.144577  0.713364  1
  As  As13  1  0.994791  0.355422  0.213364  1
  As  As14  1  0.226798  0.472209  0.897980  1
  As  As15  1  0.226798  0.027791  0.397980  1
  As  As16  1  0.494695  0.487767  0.702609  1
  As  As17  1  0.505305  0.987768  0.797391  1
  As  As18  1  0.494695  0.012232  0.202609  1
  As  As19  1  0.505305  0.512233  0.297391  1
  As  As20  1  0.773202  0.972209  0.602020  1
  As  As21  1  0.773202  0.527791  0.102020  1
  As  As22  1  0.005209  0.644578  0.786636  1
  As  As23  1  0.005209  0.855423  0.286636  1
  H  H24  1  0.018203  0.764651  0.998933  1
  H  H25  1  0.018203  0.735350  0.498933  1
  H  H26  1  0.981797  0.264650  0.501067  1
  H  H27  1  0.981797  0.235349  0.001067  1
  O  O28  1  0.992235  0.304786  0.595532  1
  O  O29  1  0.992235  0.195215  0.095532  1
  O  O30  1  0.075798  0.492666  0.887785  1
  O  O31  1  0.079633  0.692684  0.660327  1
  O  O32  1  0.075798  0.007334  0.387785  1
  O  O33  1  0.079633  0.807316  0.160328  1
  O  O34  1  0.128483  0.089197  0.756102  1
  O  O35  1  0.128482  0.410803  0.256101  1
  O  O36  1  0.251559  0.406926  0.743115  1
  O  O37  1  0.247225  0.183021  0.506798  1
  O  O38  1  0.280601  0.653316  0.946850  1
  O  O39  1  0.251559  0.093073  0.243114  1
  O  O40  1  0.247225  0.316978  0.006798  1
  O  O41  1  0.280601  0.846683  0.446850  1
  O  O42  1  0.364928  0.021734  0.813623  1
  O  O43  1  0.364929  0.478266  0.313623  1
  O  O44  1  0.413868  0.634321  0.622228  1
  O  O45  1  0.413868  0.865679  0.122228  1
  O  O46  1  0.456416  0.305552  0.631540  1
  O  O47  1  0.476148  0.476913  0.871274  1
  O  O48  1  0.456416  0.194449  0.131541  1
  O  O49  1  0.476148  0.023087  0.371272  1
  O  O50  1  0.523852  0.976913  0.628728  1
  O  O51  1  0.543584  0.805551  0.868459  1
  O  O52  1  0.523852  0.523087  0.128726  1
  O  O53  1  0.543584  0.694448  0.368460  1
  O  O54  1  0.586132  0.134321  0.877772  1
  O  O55  1  0.586132  0.365679  0.377772  1
  O  O56  1  0.635071  0.521734  0.686377  1
  O  O57  1  0.635072  0.978266  0.186377  1
  O  O58  1  0.719399  0.153317  0.553150  1
  O  O59  1  0.748441  0.906927  0.756886  1
  O  O60  1  0.719399  0.346684  0.053150  1
  O  O61  1  0.752775  0.816979  0.493202  1
  O  O62  1  0.748441  0.593074  0.256885  1
  O  O63  1  0.752775  0.683022  0.993202  1
  O  O64  1  0.871518  0.589197  0.743899  1
  O  O65  1  0.871517  0.910803  0.243898  1
  O  O66  1  0.920367  0.192684  0.839672  1
  O  O67  1  0.924202  0.992666  0.612215  1
  O  O68  1  0.920367  0.307316  0.339673  1
  O  O69  1  0.924202  0.507334  0.112215  1
  O  O70  1  0.007765  0.804785  0.904468  1
  O  O71  1  0.007765  0.695214  0.404468  1
