# generated using pymatgen
data_LiCo2OF3
_symmetry_space_group_name_H-M   'P 1'
_cell_length_a   6.03963767
_cell_length_b   6.06125823
_cell_length_c   6.17253994
_cell_angle_alpha   59.65657650
_cell_angle_beta   60.70973466
_cell_angle_gamma   60.11793334
_symmetry_Int_Tables_number   1
_chemical_formula_structural   LiCo2OF3
_chemical_formula_sum   'Li2 Co4 O2 F6'
_cell_volume   160.33707323
_cell_formula_units_Z   2
loop_
 _symmetry_equiv_pos_site_id
 _symmetry_equiv_pos_as_xyz
  1  'x, y, z'
loop_
 _atom_site_type_symbol
 _atom_site_label
 _atom_site_symmetry_multiplicity
 _atom_site_fract_x
 _atom_site_fract_y
 _atom_site_fract_z
 _atom_site_occupancy
  Li  Li0  1  0.625000  0.125000  0.625000  1
  Li  Li1  1  0.625000  0.625000  0.125000  1
  Co  Co2  1  0.988630  0.966415  0.056324  1
  Co  Co3  1  0.261370  0.283585  0.193676  1
  Co  Co4  1  0.125000  0.625000  0.625000  1
  Co  Co5  1  0.625000  0.625000  0.625000  1
  O  O6  1  0.383899  0.413258  0.818944  1
  O  O7  1  0.866101  0.836742  0.431056  1
  F  F8  1  0.386907  0.380406  0.371507  1
  F  F9  1  0.861180  0.380406  0.371507  1
  F  F10  1  0.388865  0.874803  0.347469  1
  F  F11  1  0.861135  0.375197  0.902531  1
  F  F12  1  0.388820  0.869594  0.878493  1
  F  F13  1  0.863093  0.869594  0.878493  1
