# generated using pymatgen
data_LiVP2O7
_symmetry_space_group_name_H-M   'P 1'
_cell_length_a   7.04215250
_cell_length_b   8.48319043
_cell_length_c   9.26368378
_cell_angle_alpha   90.00000000
_cell_angle_beta   112.27086003
_cell_angle_gamma   90.00000000
_symmetry_Int_Tables_number   1
_chemical_formula_structural   LiVP2O7
_chemical_formula_sum   'Li4 V4 P8 O28'
_cell_volume   512.12864977
_cell_formula_units_Z   4
loop_
 _symmetry_equiv_pos_site_id
 _symmetry_equiv_pos_as_xyz
  1  'x, y, z'
loop_
 _atom_site_type_symbol
 _atom_site_label
 _atom_site_symmetry_multiplicity
 _atom_site_fract_x
 _atom_site_fract_y
 _atom_site_fract_z
 _atom_site_occupancy
  Li  Li0  1  0.100843  0.571499  0.903043  1
  Li  Li1  1  0.399157  0.071499  0.596957  1
  Li  Li2  1  0.600843  0.928501  0.403043  1
  Li  Li3  1  0.899157  0.428501  0.096957  1
  V  V4  1  0.116274  0.928915  0.811119  1
  V  V5  1  0.383727  0.428915  0.688881  1
  V  V6  1  0.616274  0.571085  0.311119  1
  V  V7  1  0.883726  0.071085  0.188881  1
  P  P8  1  0.058223  0.715431  0.532971  1
  P  P9  1  0.441777  0.215431  0.967029  1
  P  P10  1  0.173678  0.736883  0.240274  1
  P  P11  1  0.326322  0.236883  0.259726  1
  P  P12  1  0.673678  0.763117  0.740274  1
  P  P13  1  0.826322  0.263117  0.759726  1
  P  P14  1  0.558223  0.784569  0.032971  1
  P  P15  1  0.941777  0.284569  0.467029  1
  O  O16  1  0.144777  0.584557  0.651539  1
  O  O17  1  0.128492  0.880531  0.608465  1
  O  O18  1  0.320818  0.783770  0.953216  1
  O  O19  1  0.179182  0.283770  0.546784  1
  O  O20  1  0.371508  0.380531  0.891535  1
  O  O21  1  0.151811  0.689631  0.404181  1
  O  O22  1  0.355223  0.084557  0.848461  1
  O  O23  1  0.092051  0.248008  0.209246  1
  O  O24  1  0.072763  0.900358  0.193813  1
  O  O25  1  0.078278  0.609737  0.122552  1
  O  O26  1  0.651811  0.810369  0.904181  1
  O  O27  1  0.421722  0.109737  0.377448  1
  O  O28  1  0.592051  0.251992  0.709246  1
  O  O29  1  0.572763  0.599642  0.693813  1
  O  O30  1  0.427237  0.400358  0.306187  1
  O  O31  1  0.407949  0.748008  0.290754  1
  O  O32  1  0.578278  0.890263  0.622552  1
  O  O33  1  0.348189  0.189631  0.095819  1
  O  O34  1  0.921722  0.390263  0.877448  1
  O  O35  1  0.927237  0.099642  0.806187  1
  O  O36  1  0.907949  0.751992  0.790754  1
  O  O37  1  0.644777  0.915443  0.151539  1
  O  O38  1  0.848189  0.310369  0.595819  1
  O  O39  1  0.628492  0.619469  0.108465  1
  O  O40  1  0.820818  0.716230  0.453216  1
  O  O41  1  0.679182  0.216230  0.046784  1
  O  O42  1  0.871508  0.119469  0.391535  1
  O  O43  1  0.855223  0.415443  0.348461  1
