# generated using pymatgen
data_Li5Ni3(SbO5)2
_symmetry_space_group_name_H-M   'P 1'
_cell_length_a   5.23985965
_cell_length_b   5.36264409
_cell_length_c   7.92272190
_cell_angle_alpha   106.90686409
_cell_angle_beta   102.75706783
_cell_angle_gamma   101.80099009
_symmetry_Int_Tables_number   1
_chemical_formula_structural   Li5Ni3(SbO5)2
_chemical_formula_sum   'Li5 Ni3 Sb2 O10'
_cell_volume   198.94376378
_cell_formula_units_Z   1
loop_
 _symmetry_equiv_pos_site_id
 _symmetry_equiv_pos_as_xyz
  1  'x, y, z'
loop_
 _atom_site_type_symbol
 _atom_site_label
 _atom_site_symmetry_multiplicity
 _atom_site_fract_x
 _atom_site_fract_y
 _atom_site_fract_z
 _atom_site_occupancy
  Li  Li0  1  0.227301  0.884148  0.384500  1
  Li  Li1  1  0.419376  0.300425  0.808188  1
  Li  Li2  1  0.500000  0.500000  0.500000  1
  Li  Li3  1  0.580624  0.699575  0.191812  1
  Li  Li4  1  0.772699  0.115852  0.615500  1
  Ni  Ni5  1  0.000000  0.500000  0.000000  1
  Ni  Ni6  1  0.705097  0.894730  0.897791  1
  Ni  Ni7  1  0.294903  0.105270  0.102209  1
  Sb  Sb8  1  0.107078  0.705466  0.702346  1
  Sb  Sb9  1  0.892922  0.294534  0.297654  1
  O  O10  1  0.052770  0.059114  0.835360  1
  O  O11  1  0.347827  0.705067  0.938636  1
  O  O12  1  0.133211  0.331415  0.552900  1
  O  O13  1  0.227787  0.480670  0.245739  1
  O  O14  1  0.441028  0.892186  0.656233  1
  O  O15  1  0.558972  0.107814  0.343767  1
  O  O16  1  0.772213  0.519330  0.754261  1
  O  O17  1  0.866789  0.668585  0.447100  1
  O  O18  1  0.652173  0.294933  0.061364  1
  O  O19  1  0.947230  0.940886  0.164640  1
