# generated using pymatgen
data_Li24Ti11CrO36
_symmetry_space_group_name_H-M   'P 1'
_cell_length_a   8.84157664
_cell_length_b   8.81475354
_cell_length_c   10.28269447
_cell_angle_alpha   90.00000127
_cell_angle_beta   72.98463256
_cell_angle_gamma   60.10030242
_symmetry_Int_Tables_number   1
_chemical_formula_structural   Li24Ti11CrO36
_chemical_formula_sum   'Li24 Ti11 Cr1 O36'
_cell_volume   653.95200266
_cell_formula_units_Z   1
loop_
 _symmetry_equiv_pos_site_id
 _symmetry_equiv_pos_as_xyz
  1  'x, y, z'
loop_
 _atom_site_type_symbol
 _atom_site_label
 _atom_site_symmetry_multiplicity
 _atom_site_fract_x
 _atom_site_fract_y
 _atom_site_fract_z
 _atom_site_occupancy
  Li  Li0  1  0.167701  0.004509  0.500176  1
  Li  Li1  1  0.165639  0.167686  0.250376  1
  Li  Li2  1  0.166662  0.004641  0.998962  1
  Li  Li3  1  0.166174  0.328339  0.000991  1
  Li  Li4  1  0.500016  0.000068  0.000021  1
  Li  Li5  1  0.166650  0.166727  0.750032  1
  Li  Li6  1  0.166130  0.328023  0.499934  1
  Li  Li7  1  0.499250  0.001338  0.500805  1
  Li  Li8  1  0.167417  0.667253  0.999195  1
  Li  Li9  1  0.166651  0.666749  0.499979  1
  Li  Li10  1  0.500004  0.337969  0.501038  1
  Li  Li11  1  0.501027  0.499992  0.249624  1
  Li  Li12  1  0.498966  0.338876  0.999824  1
  Li  Li13  1  0.500536  0.660820  0.000066  1
  Li  Li14  1  0.832820  0.334809  0.001088  1
  Li  Li15  1  0.500016  0.500044  0.749968  1
  Li  Li16  1  0.500493  0.661179  0.499009  1
  Li  Li17  1  0.833847  0.334295  0.498912  1
  Li  Li18  1  0.834089  0.670268  0.499575  1
  Li  Li19  1  0.833333  0.833094  0.250000  1
  Li  Li20  1  0.832578  0.671023  0.000425  1
  Li  Li21  1  0.834147  0.994744  0.000661  1
  Li  Li22  1  0.833333  0.833364  0.750000  1
  Li  Li23  1  0.832520  0.995558  0.499339  1
  Ti  Ti24  1  0.165776  0.497708  0.252192  1
  Ti  Ti25  1  0.500702  0.166594  0.249801  1
  Ti  Ti26  1  0.166427  0.499026  0.750086  1
  Ti  Ti27  1  0.499980  0.167418  0.750240  1
  Ti  Ti28  1  0.165964  0.833963  0.250199  1
  Ti  Ti29  1  0.833333  0.168560  0.250000  1
  Ti  Ti30  1  0.166686  0.834065  0.749760  1
  Ti  Ti31  1  0.833333  0.165903  0.750000  1
  Ti  Ti32  1  0.500891  0.830150  0.247808  1
  Ti  Ti33  1  0.500240  0.832120  0.749914  1
  Ti  Ti34  1  0.833333  0.500669  0.750000  1
  Cr  Cr35  1  0.833333  0.503173  0.250000  1
  O  O36  1  0.355027  0.072012  0.365774  1
  O  O37  1  0.998207  0.569794  0.138163  1
  O  O38  1  0.352977  0.073398  0.865701  1
  O  O39  1  0.336218  0.259814  0.136635  1
  O  O40  1  0.002910  0.570424  0.636566  1
  O  O41  1  0.336281  0.259810  0.636760  1
  O  O42  1  0.329149  0.407107  0.363597  1
  O  O43  1  0.019186  0.740616  0.365527  1
  O  O44  1  0.663767  0.097539  0.363583  1
  O  O45  1  0.330116  0.406891  0.863575  1
  O  O46  1  0.311640  0.593707  0.134226  1
  O  O47  1  0.669534  0.237224  0.136770  1
  O  O48  1  0.019966  0.739951  0.865561  1
  O  O49  1  0.663755  0.096096  0.863146  1
  O  O50  1  0.002900  0.927973  0.136417  1
  O  O51  1  0.313690  0.593042  0.634299  1
  O  O52  1  0.669315  0.237411  0.636687  1
  O  O53  1  0.002912  0.926517  0.636854  1
  O  O54  1  0.997132  0.073425  0.363230  1
  O  O55  1  0.330449  0.762699  0.363365  1
  O  O56  1  0.687344  0.409270  0.363748  1
  O  O57  1  0.997351  0.073393  0.863313  1
  O  O58  1  0.337517  0.902923  0.136403  1
  O  O59  1  0.979323  0.263280  0.136252  1
  O  O60  1  0.330385  0.762757  0.863240  1
  O  O61  1  0.686438  0.406739  0.865549  1
  O  O62  1  0.668577  0.593233  0.137153  1
  O  O63  1  0.336551  0.903675  0.636425  1
  O  O64  1  0.980229  0.259843  0.634451  1
  O  O65  1  0.669434  0.593212  0.636969  1
  O  O66  1  0.668460  0.734667  0.361837  1
  O  O67  1  0.998090  0.428477  0.362847  1
  O  O68  1  0.663757  0.740000  0.863434  1
  O  O69  1  0.647481  0.926468  0.134473  1
  O  O70  1  0.997233  0.429313  0.863031  1
  O  O71  1  0.646701  0.926583  0.634439  1
