# generated using pymatgen
data_Na5LiMn2P2(CO7)2
_symmetry_space_group_name_H-M   'P 1'
_cell_length_a   8.96060734
_cell_length_b   13.62493298
_cell_length_c   5.16002037
_cell_angle_alpha   90.11956625
_cell_angle_beta   89.79964242
_cell_angle_gamma   89.76481743
_symmetry_Int_Tables_number   1
_chemical_formula_structural   Na5LiMn2P2(CO7)2
_chemical_formula_sum   'Na10 Li2 Mn4 P4 C4 O28'
_cell_volume   629.96433797
_cell_formula_units_Z   2
loop_
 _symmetry_equiv_pos_site_id
 _symmetry_equiv_pos_as_xyz
  1  'x, y, z'
loop_
 _atom_site_type_symbol
 _atom_site_label
 _atom_site_symmetry_multiplicity
 _atom_site_fract_x
 _atom_site_fract_y
 _atom_site_fract_z
 _atom_site_occupancy
  Na  Na0  1  0.083059  0.124962  0.760209  1
  Na  Na1  1  0.082050  0.624247  0.760204  1
  Na  Na2  1  0.258592  0.000663  0.248165  1
  Na  Na3  1  0.258922  0.249187  0.247677  1
  Na  Na4  1  0.258754  0.501186  0.248014  1
  Na  Na5  1  0.258524  0.749021  0.247744  1
  Na  Na6  1  0.741074  0.252375  0.752672  1
  Na  Na7  1  0.741824  0.749827  0.752345  1
  Na  Na8  1  0.741556  0.998786  0.752276  1
  Na  Na9  1  0.915850  0.376890  0.239854  1
  Li  Li10  1  0.733162  0.496511  0.759869  1
  Li  Li11  1  0.914566  0.874886  0.244239  1
  Mn  Mn12  1  0.361913  0.375169  0.778116  1
  Mn  Mn13  1  0.361548  0.874685  0.777525  1
  Mn  Mn14  1  0.639785  0.124858  0.222457  1
  Mn  Mn15  1  0.640821  0.623883  0.221247  1
  P  P16  1  0.413282  0.623531  0.700984  1
  P  P17  1  0.410850  0.124834  0.702186  1
  P  P18  1  0.590899  0.376480  0.297215  1
  P  P19  1  0.593530  0.874709  0.297471  1
  C  C20  1  0.056822  0.377551  0.736375  1
  C  C21  1  0.054967  0.874780  0.734760  1
  C  C22  1  0.939141  0.623703  0.265216  1
  C  C23  1  0.940123  0.125269  0.264454  1
  O  O24  1  0.084707  0.125250  0.285545  1
  O  O25  1  0.083822  0.625189  0.286768  1
  O  O26  1  0.107205  0.874993  0.970688  1
  O  O27  1  0.120433  0.375377  0.962669  1
  O  O28  1  0.146596  0.874639  0.537322  1
  O  O29  1  0.140810  0.374818  0.529458  1
  O  O30  1  0.318591  0.033369  0.785333  1
  O  O31  1  0.318698  0.216929  0.784826  1
  O  O32  1  0.318639  0.533084  0.783357  1
  O  O33  1  0.323400  0.716082  0.788932  1
  O  O34  1  0.428014  0.124538  0.400589  1
  O  O35  1  0.428282  0.625065  0.399077  1
  O  O36  1  0.430948  0.374851  0.181888  1
  O  O37  1  0.434870  0.875055  0.175342  1
  O  O38  1  0.569116  0.124966  0.822710  1
  O  O39  1  0.573431  0.619425  0.816637  1
  O  O40  1  0.577345  0.381454  0.600563  1
  O  O41  1  0.572878  0.874760  0.598455  1
  O  O42  1  0.681550  0.283304  0.219184  1
  O  O43  1  0.682001  0.466129  0.200230  1
  O  O44  1  0.687992  0.783635  0.214869  1
  O  O45  1  0.687959  0.965512  0.216529  1
  O  O46  1  0.856240  0.125664  0.471082  1
  O  O47  1  0.854865  0.622151  0.471679  1
  O  O48  1  0.877900  0.125215  0.037363  1
  O  O49  1  0.877436  0.623651  0.037620  1
  O  O50  1  0.912554  0.874676  0.693262  1
  O  O51  1  0.912105  0.382221  0.716744  1
