# generated using pymatgen
data_Fe6O7F5
_symmetry_space_group_name_H-M   'P 1'
_cell_length_a   4.66097100
_cell_length_b   7.81052569
_cell_length_c   5.58790924
_cell_angle_alpha   93.77310662
_cell_angle_beta   90.63358907
_cell_angle_gamma   89.23264020
_symmetry_Int_Tables_number   1
_chemical_formula_structural   Fe6O7F5
_chemical_formula_sum   'Fe6 O7 F5'
_cell_volume   202.95609470
_cell_formula_units_Z   1
loop_
 _symmetry_equiv_pos_site_id
 _symmetry_equiv_pos_as_xyz
  1  'x, y, z'
loop_
 _atom_site_type_symbol
 _atom_site_label
 _atom_site_symmetry_multiplicity
 _atom_site_fract_x
 _atom_site_fract_y
 _atom_site_fract_z
 _atom_site_occupancy
  Fe  Fe0  1  0.538686  0.654454  0.159635  1
  Fe  Fe1  1  0.498171  0.001153  0.501522  1
  Fe  Fe2  1  0.476967  0.351381  0.831727  1
  Fe  Fe3  1  0.009447  0.688527  0.667939  1
  Fe  Fe4  1  0.982831  0.313774  0.339463  1
  Fe  Fe5  1  0.984818  0.986905  0.000762  1
  O  O6  1  0.800531  0.770993  0.955876  1
  O  O7  1  0.801365  0.092573  0.296478  1
  O  O8  1  0.690104  0.770374  0.457852  1
  O  O9  1  0.698053  0.424086  0.130973  1
  O  O10  1  0.301845  0.571483  0.872859  1
  O  O11  1  0.308239  0.233620  0.539377  1
  O  O12  1  0.198040  0.911085  0.703967  1
  F  F13  1  0.809199  0.439631  0.633344  1
  F  F14  1  0.706508  0.116565  0.799014  1
  F  F15  1  0.300427  0.892044  0.200306  1
  F  F16  1  0.203118  0.220574  0.039972  1
  F  F17  1  0.191654  0.560780  0.368935  1
