# generated using pymatgen
data_LiSb4P7O24
_symmetry_space_group_name_H-M   'P 1'
_cell_length_a   11.00679511
_cell_length_b   11.03401731
_cell_length_c   11.79109901
_cell_angle_alpha   113.33833861
_cell_angle_beta   108.94369216
_cell_angle_gamma   104.25126742
_symmetry_Int_Tables_number   1
_chemical_formula_structural   LiSb4P7O24
_chemical_formula_sum   'Li2 Sb8 P14 O48'
_cell_volume   1121.87018254
_cell_formula_units_Z   2
loop_
 _symmetry_equiv_pos_site_id
 _symmetry_equiv_pos_as_xyz
  1  'x, y, z'
loop_
 _atom_site_type_symbol
 _atom_site_label
 _atom_site_symmetry_multiplicity
 _atom_site_fract_x
 _atom_site_fract_y
 _atom_site_fract_z
 _atom_site_occupancy
  Li  Li0  1  0.039614  0.360678  0.627707  1
  Li  Li1  1  0.960386  0.639322  0.372293  1
  Sb  Sb2  1  0.245663  0.840938  0.746758  1
  Sb  Sb3  1  0.082855  0.713140  0.069995  1
  Sb  Sb4  1  0.366323  0.229979  0.889716  1
  Sb  Sb5  1  0.419310  0.594025  0.402021  1
  Sb  Sb6  1  0.580690  0.405975  0.597979  1
  Sb  Sb7  1  0.633677  0.770021  0.110284  1
  Sb  Sb8  1  0.917145  0.286860  0.930005  1
  Sb  Sb9  1  0.754337  0.159062  0.253242  1
  P  P10  1  0.978260  0.970105  0.763823  1
  P  P11  1  0.223826  0.807899  0.426125  1
  P  P12  1  0.066620  0.327284  0.278484  1
  P  P13  1  0.504051  0.721368  0.764730  1
  P  P14  1  0.259205  0.122063  0.515013  1
  P  P15  1  0.384316  0.957787  0.124076  1
  P  P16  1  0.310401  0.527585  0.050388  1
  P  P17  1  0.689599  0.472415  0.949612  1
  P  P18  1  0.615684  0.042213  0.875924  1
  P  P19  1  0.740795  0.877937  0.484987  1
  P  P20  1  0.495949  0.278632  0.235270  1
  P  P21  1  0.933380  0.672716  0.721516  1
  P  P22  1  0.776174  0.192101  0.573875  1
  P  P23  1  0.021740  0.029895  0.236177  1
  O  O24  1  0.015853  0.683578  0.859288  1
  O  O25  1  0.022439  0.667759  0.642298  1
  O  O26  1  0.314214  0.903411  0.967939  1
  O  O27  1  0.050331  0.917165  0.139375  1
  O  O28  1  0.145996  0.780410  0.507943  1
  O  O29  1  0.107192  0.725199  0.272738  1
  O  O30  1  0.267997  0.368932  0.932759  1
  O  O31  1  0.132401  0.006436  0.799002  1
  O  O32  1  0.291918  0.981140  0.482551  1
  O  O33  1  0.347153  0.698702  0.719119  1
  O  O34  1  0.097919  0.060854  0.393864  1
  O  O35  1  0.091982  0.178335  0.241635  1
  O  O36  1  0.214474  0.452120  0.372525  1
  O  O37  1  0.254168  0.184115  0.651683  1
  O  O38  1  0.172991  0.550146  0.013127  1
  O  O39  1  0.351113  0.771816  0.450466  1
  O  O40  1  0.291858  0.867936  0.162953  1
  O  O41  1  0.570074  0.725011  0.902099  1
  O  O42  1  0.598495  0.876896  0.789379  1
  O  O43  1  0.358938  0.222092  0.495343  1
  O  O44  1  0.513441  0.607940  0.645345  1
  O  O45  1  0.464172  0.031059  0.816760  1
  O  O46  1  0.574684  0.366095  0.957072  1
  O  O47  1  0.369632  0.544952  0.196681  1
  O  O48  1  0.630368  0.455048  0.803319  1
  O  O49  1  0.425316  0.633905  0.042928  1
  O  O50  1  0.535828  0.968941  0.183240  1
  O  O51  1  0.486559  0.392060  0.354655  1
  O  O52  1  0.641062  0.777908  0.504657  1
  O  O53  1  0.401506  0.123104  0.210621  1
  O  O54  1  0.429926  0.274989  0.097901  1
  O  O55  1  0.708142  0.132064  0.837047  1
  O  O56  1  0.648887  0.228184  0.549534  1
  O  O57  1  0.827009  0.449854  0.986873  1
  O  O58  1  0.745832  0.815885  0.348317  1
  O  O59  1  0.785526  0.547880  0.627475  1
  O  O60  1  0.908018  0.821665  0.758365  1
  O  O61  1  0.902081  0.939146  0.606136  1
  O  O62  1  0.652847  0.301298  0.280881  1
  O  O63  1  0.708082  0.018860  0.517449  1
  O  O64  1  0.867599  0.993564  0.200998  1
  O  O65  1  0.732003  0.631068  0.067241  1
  O  O66  1  0.892808  0.274801  0.727262  1
  O  O67  1  0.854004  0.219590  0.492057  1
  O  O68  1  0.949669  0.082835  0.860625  1
  O  O69  1  0.685786  0.096589  0.032061  1
  O  O70  1  0.977561  0.332241  0.357702  1
  O  O71  1  0.984147  0.316422  0.140712  1
