# generated using pymatgen
data_Li3V(Si2O5)3
_symmetry_space_group_name_H-M   'P 1'
_cell_length_a   11.02754850
_cell_length_b   11.02754850
_cell_length_c   10.19935585
_cell_angle_alpha   90.00000000
_cell_angle_beta   90.00000000
_cell_angle_gamma   80.06037800
_symmetry_Int_Tables_number   1
_chemical_formula_structural   Li3V(Si2O5)3
_chemical_formula_sum   'Li12 V4 Si24 O60'
_cell_volume   1221.69446101
_cell_formula_units_Z   4
loop_
 _symmetry_equiv_pos_site_id
 _symmetry_equiv_pos_as_xyz
  1  'x, y, z'
loop_
 _atom_site_type_symbol
 _atom_site_label
 _atom_site_symmetry_multiplicity
 _atom_site_fract_x
 _atom_site_fract_y
 _atom_site_fract_z
 _atom_site_occupancy
  Li  Li0  1  0.235666  0.764334  0.000000  1
  Li  Li1  1  0.477188  0.977188  0.250000  1
  Li  Li2  1  0.022812  0.522812  0.750000  1
  Li  Li3  1  0.264334  0.735666  0.500000  1
  Li  Li4  1  0.062137  0.062137  0.797648  1
  Li  Li5  1  0.562137  0.562137  0.702352  1
  Li  Li6  1  0.437863  0.437863  0.297648  1
  Li  Li7  1  0.937863  0.937863  0.202352  1
  Li  Li8  1  0.735666  0.264334  0.500000  1
  Li  Li9  1  0.522812  0.022812  0.750000  1
  Li  Li10  1  0.977188  0.477188  0.250000  1
  Li  Li11  1  0.764334  0.235666  0.000000  1
  V  V12  1  0.155464  0.655464  0.250000  1
  V  V13  1  0.344536  0.844536  0.750000  1
  V  V14  1  0.844536  0.344536  0.750000  1
  V  V15  1  0.655464  0.155464  0.250000  1
  Si  Si16  1  0.041101  0.810919  0.806392  1
  Si  Si17  1  0.189081  0.958899  0.193608  1
  Si  Si18  1  0.310919  0.541101  0.693608  1
  Si  Si19  1  0.458899  0.689081  0.306392  1
  Si  Si20  1  0.017432  0.235374  0.483798  1
  Si  Si21  1  0.264626  0.482568  0.983798  1
  Si  Si22  1  0.764626  0.982568  0.516202  1
  Si  Si23  1  0.517432  0.735374  0.016202  1
  Si  Si24  1  0.201157  0.419602  0.454423  1
  Si  Si25  1  0.701157  0.919602  0.045577  1
  Si  Si26  1  0.080398  0.298843  0.954423  1
  Si  Si27  1  0.580398  0.798843  0.545577  1
  Si  Si28  1  0.419602  0.201157  0.454423  1
  Si  Si29  1  0.298843  0.080398  0.954423  1
  Si  Si30  1  0.919602  0.701157  0.045577  1
  Si  Si31  1  0.798843  0.580398  0.545577  1
  Si  Si32  1  0.735374  0.517432  0.016202  1
  Si  Si33  1  0.235374  0.017432  0.483798  1
  Si  Si34  1  0.482568  0.264626  0.983798  1
  Si  Si35  1  0.982568  0.764626  0.516202  1
  Si  Si36  1  0.541101  0.310919  0.693608  1
  Si  Si37  1  0.689081  0.458899  0.306392  1
  Si  Si38  1  0.810919  0.041101  0.806392  1
  Si  Si39  1  0.958899  0.189081  0.193608  1
  O  O40  1  0.281711  0.986734  0.075998  1
  O  O41  1  0.013266  0.718289  0.924002  1
  O  O42  1  0.029833  0.733878  0.670070  1
  O  O43  1  0.266122  0.970167  0.329930  1
  O  O44  1  0.168256  0.858431  0.832710  1
  O  O45  1  0.141569  0.831744  0.167290  1
  O  O46  1  0.097243  0.744212  0.418655  1
  O  O47  1  0.255788  0.902757  0.581345  1
  O  O48  1  0.140371  0.488091  0.326305  1
  O  O49  1  0.011909  0.359629  0.826305  1
  O  O50  1  0.640371  0.988091  0.173695  1
  O  O51  1  0.511909  0.859629  0.673695  1
  O  O52  1  0.244212  0.597243  0.081345  1
  O  O53  1  0.402757  0.755788  0.918655  1
  O  O54  1  0.358431  0.668256  0.667290  1
  O  O55  1  0.331744  0.641569  0.332710  1
  O  O56  1  0.470167  0.766122  0.170070  1
  O  O57  1  0.233878  0.529833  0.829930  1
  O  O58  1  0.218289  0.513266  0.575998  1
  O  O59  1  0.486734  0.781711  0.424002  1
  O  O60  1  0.172623  0.384610  0.015564  1
  O  O61  1  0.115390  0.327377  0.515564  1
  O  O62  1  0.615390  0.827377  0.984436  1
  O  O63  1  0.672623  0.884610  0.484436  1
  O  O64  1  0.593205  0.593205  0.007600  1
  O  O65  1  0.341229  0.341229  0.417334  1
  O  O66  1  0.063443  0.063443  0.194875  1
  O  O67  1  0.093205  0.093205  0.492400  1
  O  O68  1  0.158771  0.158771  0.917334  1
  O  O69  1  0.436557  0.436557  0.694875  1
  O  O70  1  0.841229  0.841229  0.082666  1
  O  O71  1  0.406795  0.406795  0.992400  1
  O  O72  1  0.658771  0.658771  0.582666  1
  O  O73  1  0.936557  0.936557  0.805125  1
  O  O74  1  0.563443  0.563443  0.305125  1
  O  O75  1  0.906795  0.906795  0.507600  1
  O  O76  1  0.327377  0.115390  0.515564  1
  O  O77  1  0.884610  0.672623  0.484436  1
  O  O78  1  0.384610  0.172623  0.015564  1
  O  O79  1  0.827377  0.615390  0.984436  1
  O  O80  1  0.513266  0.218289  0.575998  1
  O  O81  1  0.781711  0.486734  0.424002  1
  O  O82  1  0.529833  0.233878  0.829930  1
  O  O83  1  0.766122  0.470167  0.170070  1
  O  O84  1  0.641569  0.331744  0.332710  1
  O  O85  1  0.668256  0.358431  0.667290  1
  O  O86  1  0.597243  0.244212  0.081345  1
  O  O87  1  0.755788  0.402757  0.918655  1
  O  O88  1  0.359629  0.011909  0.826305  1
  O  O89  1  0.488091  0.140371  0.326305  1
  O  O90  1  0.988091  0.640371  0.173695  1
  O  O91  1  0.859629  0.511909  0.673695  1
  O  O92  1  0.744212  0.097243  0.418655  1
  O  O93  1  0.902757  0.255788  0.581345  1
  O  O94  1  0.858431  0.168256  0.832710  1
  O  O95  1  0.831744  0.141569  0.167290  1
  O  O96  1  0.733878  0.029833  0.670070  1
  O  O97  1  0.970167  0.266122  0.329930  1
  O  O98  1  0.718289  0.013266  0.924002  1
  O  O99  1  0.986734  0.281711  0.075998  1
