# generated using pymatgen
data_Li3MgNi3O8
_symmetry_space_group_name_H-M   'P 1'
_cell_length_a   5.09279514
_cell_length_b   20.52402481
_cell_length_c   9.84109473
_cell_angle_alpha   16.33660353
_cell_angle_beta   28.22382642
_cell_angle_gamma   32.28100643
_symmetry_Int_Tables_number   1
_chemical_formula_structural   Li3MgNi3O8
_chemical_formula_sum   'Li3 Mg1 Ni3 O8'
_cell_volume   136.83139269
_cell_formula_units_Z   1
loop_
 _symmetry_equiv_pos_site_id
 _symmetry_equiv_pos_as_xyz
  1  'x, y, z'
loop_
 _atom_site_type_symbol
 _atom_site_label
 _atom_site_symmetry_multiplicity
 _atom_site_fract_x
 _atom_site_fract_y
 _atom_site_fract_z
 _atom_site_occupancy
  Li  Li0  1  0.507704  0.748064  0.501255  1
  Li  Li1  1  0.514478  0.489615  0.515758  1
  Li  Li2  1  0.503406  0.016585  0.468284  1
  Mg  Mg3  1  0.004259  0.748595  0.002476  1
  Ni  Ni4  1  0.005257  0.496112  0.006592  1
  Ni  Ni5  1  0.005558  0.252270  0.995037  1
  Ni  Ni6  1  0.005731  0.001984  0.995331  1
  O  O7  1  0.795695  0.733763  0.750721  1
  O  O8  1  0.216592  0.733119  0.311394  1
  O  O9  1  0.282154  0.485878  0.284496  1
  O  O10  1  0.726360  0.485842  0.771501  1
  O  O11  1  0.290049  0.259823  0.231299  1
  O  O12  1  0.719989  0.261425  0.725833  1
  O  O13  1  0.276673  0.013020  0.233349  1
  O  O14  1  0.734119  0.011996  0.715951  1
