# generated using pymatgen
data_Fe3H4(S2O9)2
_symmetry_space_group_name_H-M   'P 1'
_cell_length_a   5.19202237
_cell_length_b   14.55877553
_cell_length_c   8.54196391
_cell_angle_alpha   90.00000000
_cell_angle_beta   92.83988124
_cell_angle_gamma   90.00000000
_symmetry_Int_Tables_number   1
_chemical_formula_structural   Fe3H4(S2O9)2
_chemical_formula_sum   'Fe6 H8 S8 O36'
_cell_volume   644.88971260
_cell_formula_units_Z   2
loop_
 _symmetry_equiv_pos_site_id
 _symmetry_equiv_pos_as_xyz
  1  'x, y, z'
loop_
 _atom_site_type_symbol
 _atom_site_label
 _atom_site_symmetry_multiplicity
 _atom_site_fract_x
 _atom_site_fract_y
 _atom_site_fract_z
 _atom_site_occupancy
  Fe  Fe0  1  0.000000  0.000000  0.000000  1
  Fe  Fe1  1  0.500000  0.500000  0.500000  1
  Fe  Fe2  1  0.751359  0.846999  0.473894  1
  Fe  Fe3  1  0.251359  0.653001  0.973894  1
  Fe  Fe4  1  0.248641  0.153001  0.526106  1
  Fe  Fe5  1  0.748641  0.346999  0.026106  1
  H  H6  1  0.824660  0.826998  0.953216  1
  H  H7  1  0.324660  0.673002  0.453216  1
  H  H8  1  0.175340  0.173002  0.046784  1
  H  H9  1  0.675340  0.326998  0.546784  1
  H  H10  1  0.579254  0.891912  0.937661  1
  H  H11  1  0.079254  0.608088  0.437661  1
  H  H12  1  0.420746  0.108088  0.062339  1
  H  H13  1  0.920746  0.391912  0.562339  1
  S  S14  1  0.726064  0.067194  0.322103  1
  S  S15  1  0.226064  0.432806  0.822103  1
  S  S16  1  0.273936  0.932806  0.677897  1
  S  S17  1  0.773936  0.567194  0.177897  1
  S  S18  1  0.218079  0.829203  0.230204  1
  S  S19  1  0.718079  0.670797  0.730204  1
  S  S20  1  0.781921  0.170797  0.769796  1
  S  S21  1  0.281921  0.329203  0.269796  1
  O  O22  1  0.733077  0.062579  0.149176  1
  O  O23  1  0.233077  0.437421  0.649176  1
  O  O24  1  0.266923  0.937421  0.850824  1
  O  O25  1  0.766923  0.562579  0.350824  1
  O  O26  1  0.762196  0.974703  0.392088  1
  O  O27  1  0.262196  0.525297  0.892088  1
  O  O28  1  0.237804  0.025297  0.607912  1
  O  O29  1  0.737804  0.474703  0.107912  1
  O  O30  1  0.931366  0.129816  0.385204  1
  O  O31  1  0.431366  0.370184  0.885204  1
  O  O32  1  0.068634  0.870184  0.614796  1
  O  O33  1  0.568634  0.629816  0.114796  1
  O  O34  1  0.469927  0.105145  0.356531  1
  O  O35  1  0.969927  0.394855  0.856531  1
  O  O36  1  0.530073  0.894855  0.643469  1
  O  O37  1  0.030073  0.605145  0.143469  1
  O  O38  1  0.976446  0.798335  0.304046  1
  O  O39  1  0.476446  0.701665  0.804046  1
  O  O40  1  0.023554  0.201665  0.695954  1
  O  O41  1  0.523554  0.298335  0.195954  1
  O  O42  1  0.216719  0.928120  0.198352  1
  O  O43  1  0.716719  0.571880  0.698352  1
  O  O44  1  0.783281  0.071880  0.801648  1
  O  O45  1  0.283281  0.428120  0.301648  1
  O  O46  1  0.440079  0.802755  0.340052  1
  O  O47  1  0.940079  0.697245  0.840052  1
  O  O48  1  0.559921  0.197245  0.659948  1
  O  O49  1  0.059921  0.302755  0.159948  1
  O  O50  1  0.237717  0.778359  0.079158  1
  O  O51  1  0.737717  0.721641  0.579158  1
  O  O52  1  0.762283  0.221641  0.920842  1
  O  O53  1  0.262283  0.278359  0.420842  1
  O  O54  1  0.754417  0.886036  0.986128  1
  O  O55  1  0.254417  0.613964  0.486128  1
  O  O56  1  0.245583  0.113964  0.013872  1
  O  O57  1  0.745583  0.386036  0.513872  1
