# generated using pymatgen
data_LiMnF3
_symmetry_space_group_name_H-M   'P 1'
_cell_length_a   10.06838688
_cell_length_b   9.33973070
_cell_length_c   5.89076147
_cell_angle_alpha   90.00000000
_cell_angle_beta   90.00000000
_cell_angle_gamma   90.00000000
_symmetry_Int_Tables_number   1
_chemical_formula_structural   LiMnF3
_chemical_formula_sum   'Li8 Mn8 F24'
_cell_volume   553.94377544
_cell_formula_units_Z   8
loop_
 _symmetry_equiv_pos_site_id
 _symmetry_equiv_pos_as_xyz
  1  'x, y, z'
loop_
 _atom_site_type_symbol
 _atom_site_label
 _atom_site_symmetry_multiplicity
 _atom_site_fract_x
 _atom_site_fract_y
 _atom_site_fract_z
 _atom_site_occupancy
  Li  Li0  1  0.203347  0.420318  0.548846  1
  Li  Li1  1  0.203347  0.579682  0.048846  1
  Li  Li2  1  0.296653  0.079682  0.048846  1
  Li  Li3  1  0.296653  0.920318  0.548846  1
  Li  Li4  1  0.703347  0.079682  0.451154  1
  Li  Li5  1  0.703347  0.920318  0.951154  1
  Li  Li6  1  0.796653  0.420318  0.951154  1
  Li  Li7  1  0.796653  0.579682  0.451154  1
  Mn  Mn8  1  0.000000  0.282254  0.250000  1
  Mn  Mn9  1  0.000000  0.093720  0.750000  1
  Mn  Mn10  1  0.000000  0.906280  0.250000  1
  Mn  Mn11  1  0.000000  0.717746  0.750000  1
  Mn  Mn12  1  0.500000  0.593720  0.750000  1
  Mn  Mn13  1  0.500000  0.782254  0.250000  1
  Mn  Mn14  1  0.500000  0.217746  0.750000  1
  Mn  Mn15  1  0.500000  0.406280  0.250000  1
  F  F16  1  0.103778  0.087357  0.085655  1
  F  F17  1  0.103778  0.912643  0.585655  1
  F  F18  1  0.099107  0.250687  0.569393  1
  F  F19  1  0.099107  0.749313  0.069393  1
  F  F20  1  0.153835  0.430175  0.234741  1
  F  F21  1  0.153835  0.569825  0.734741  1
  F  F22  1  0.346165  0.930175  0.234741  1
  F  F23  1  0.346165  0.069825  0.734741  1
  F  F24  1  0.400893  0.249313  0.069393  1
  F  F25  1  0.400893  0.750687  0.569393  1
  F  F26  1  0.396222  0.587357  0.085655  1
  F  F27  1  0.396222  0.412643  0.585655  1
  F  F28  1  0.603778  0.412643  0.914345  1
  F  F29  1  0.603778  0.587357  0.414345  1
  F  F30  1  0.599107  0.249313  0.430607  1
  F  F31  1  0.599107  0.750687  0.930607  1
  F  F32  1  0.653835  0.930175  0.265259  1
  F  F33  1  0.653835  0.069825  0.765259  1
  F  F34  1  0.846165  0.430175  0.265259  1
  F  F35  1  0.846165  0.569825  0.765259  1
  F  F36  1  0.900893  0.250687  0.930607  1
  F  F37  1  0.900893  0.749313  0.430607  1
  F  F38  1  0.896222  0.087357  0.414345  1
  F  F39  1  0.896222  0.912643  0.914345  1
