# generated using pymatgen
data_H8C3(NO)4
_symmetry_space_group_name_H-M   'P 1'
_cell_length_a   10.16718923
_cell_length_b   8.58795041
_cell_length_c   8.70894495
_cell_angle_alpha   90.00000000
_cell_angle_beta   90.00000000
_cell_angle_gamma   90.86417922
_symmetry_Int_Tables_number   1
_chemical_formula_structural   H8C3(NO)4
_chemical_formula_sum   'H32 C12 N16 O16'
_cell_volume   760.33779574
_cell_formula_units_Z   4
loop_
 _symmetry_equiv_pos_site_id
 _symmetry_equiv_pos_as_xyz
  1  'x, y, z'
loop_
 _atom_site_type_symbol
 _atom_site_label
 _atom_site_symmetry_multiplicity
 _atom_site_fract_x
 _atom_site_fract_y
 _atom_site_fract_z
 _atom_site_occupancy
  H  H0  1  0.414314  0.681041  0.467864  1
  H  H1  1  0.585686  0.818959  0.967864  1
  H  H2  1  0.585686  0.318959  0.532136  1
  H  H3  1  0.414314  0.181041  0.032136  1
  H  H4  1  0.575714  0.771560  0.455823  1
  H  H5  1  0.424286  0.728440  0.955823  1
  H  H6  1  0.424286  0.228440  0.544177  1
  H  H7  1  0.575714  0.271560  0.044177  1
  H  H8  1  0.536331  0.638199  0.609852  1
  H  H9  1  0.463669  0.861801  0.109852  1
  H  H10  1  0.463669  0.361801  0.390148  1
  H  H11  1  0.536331  0.138199  0.890148  1
  H  H12  1  0.118124  0.994902  0.667362  1
  H  H13  1  0.881876  0.505098  0.167362  1
  H  H14  1  0.881876  0.005098  0.332638  1
  H  H15  1  0.118124  0.494902  0.832638  1
  H  H16  1  0.161743  0.125395  0.825752  1
  H  H17  1  0.838257  0.374605  0.325752  1
  H  H18  1  0.838257  0.874605  0.174248  1
  H  H19  1  0.161743  0.625395  0.674248  1
  H  H20  1  0.235451  0.719970  0.293134  1
  H  H21  1  0.764549  0.780030  0.793134  1
  H  H22  1  0.764549  0.280030  0.706866  1
  H  H23  1  0.235451  0.219970  0.206866  1
  H  H24  1  0.220026  0.929474  0.293732  1
  H  H25  1  0.779974  0.570526  0.793732  1
  H  H26  1  0.779974  0.070526  0.706268  1
  H  H27  1  0.220026  0.429474  0.206268  1
  H  H28  1  0.080481  0.804224  0.340147  1
  H  H29  1  0.919519  0.695776  0.840147  1
  H  H30  1  0.919519  0.195776  0.659853  1
  H  H31  1  0.080481  0.304224  0.159853  1
  C  C32  1  0.174507  0.010400  0.773604  1
  C  C33  1  0.825493  0.489600  0.273604  1
  C  C34  1  0.825493  0.989600  0.226396  1
  C  C35  1  0.174507  0.510400  0.726396  1
  C  C36  1  0.498390  0.727537  0.532317  1
  C  C37  1  0.501610  0.772463  0.032317  1
  C  C38  1  0.501610  0.272463  0.467683  1
  C  C39  1  0.498390  0.227537  0.967683  1
  C  C40  1  0.170303  0.818062  0.271294  1
  C  C41  1  0.829697  0.681938  0.771294  1
  C  C42  1  0.829697  0.181938  0.728706  1
  C  C43  1  0.170303  0.318062  0.228706  1
  N  N44  1  0.458104  0.860184  0.628348  1
  N  N45  1  0.541896  0.639816  0.128348  1
  N  N46  1  0.541896  0.139816  0.371652  1
  N  N47  1  0.458104  0.360184  0.871652  1
  N  N48  1  0.131613  0.805976  0.108000  1
  N  N49  1  0.868387  0.694024  0.608000  1
  N  N50  1  0.868387  0.194024  0.892000  1
  N  N51  1  0.131613  0.305976  0.392000  1
  N  N52  1  0.333558  0.876679  0.644007  1
  N  N53  1  0.666442  0.623321  0.144007  1
  N  N54  1  0.666442  0.123321  0.355993  1
  N  N55  1  0.333558  0.376679  0.855993  1
  N  N56  1  0.169700  0.920640  0.022820  1
  N  N57  1  0.830300  0.579360  0.522820  1
  N  N58  1  0.830300  0.079360  0.977180  1
  N  N59  1  0.169700  0.420640  0.477180  1
  O  O60  1  0.128748  0.888776  0.872345  1
  O  O61  1  0.871252  0.611224  0.372345  1
  O  O62  1  0.871252  0.111224  0.127655  1
  O  O63  1  0.128748  0.388776  0.627655  1
  O  O64  1  0.312671  0.001294  0.744240  1
  O  O65  1  0.687329  0.498706  0.244240  1
  O  O66  1  0.687329  0.998706  0.255760  1
  O  O67  1  0.312671  0.501294  0.755760  1
  O  O68  1  0.547942  0.942891  0.690056  1
  O  O69  1  0.452058  0.557109  0.190056  1
  O  O70  1  0.452058  0.057109  0.309944  1
  O  O71  1  0.547942  0.442891  0.809944  1
  O  O72  1  0.068231  0.686008  0.064629  1
  O  O73  1  0.931769  0.813992  0.564629  1
  O  O74  1  0.931769  0.313992  0.935371  1
  O  O75  1  0.068231  0.186008  0.435371  1
