# generated using pymatgen
data_Li5Cu(PO4)2
_symmetry_space_group_name_H-M   'P 1'
_cell_length_a   6.20281813
_cell_length_b   5.35367114
_cell_length_c   9.95127484
_cell_angle_alpha   90.00167859
_cell_angle_beta   89.89372020
_cell_angle_gamma   90.00814789
_symmetry_Int_Tables_number   1
_chemical_formula_structural   Li5Cu(PO4)2
_chemical_formula_sum   'Li10 Cu2 P4 O16'
_cell_volume   330.45985477
_cell_formula_units_Z   2
loop_
 _symmetry_equiv_pos_site_id
 _symmetry_equiv_pos_as_xyz
  1  'x, y, z'
loop_
 _atom_site_type_symbol
 _atom_site_label
 _atom_site_symmetry_multiplicity
 _atom_site_fract_x
 _atom_site_fract_y
 _atom_site_fract_z
 _atom_site_occupancy
  Li  Li0  1  0.000039  0.155064  0.745626  1
  Li  Li1  1  0.999805  0.156334  0.245696  1
  Li  Li2  1  0.245575  0.327549  0.494357  1
  Li  Li3  1  0.248153  0.326593  0.996837  1
  Li  Li4  1  0.252286  0.673002  0.244652  1
  Li  Li5  1  0.500447  0.844706  0.995990  1
  Li  Li6  1  0.499257  0.843837  0.495064  1
  Li  Li7  1  0.747474  0.671475  0.745374  1
  Li  Li8  1  0.746248  0.674048  0.246008  1
  Li  Li9  1  0.752328  0.326834  0.494004  1
  Cu  Cu10  1  0.256733  0.665756  0.748499  1
  Cu  Cu11  1  0.756485  0.334495  0.999007  1
  P  P12  1  0.002151  0.826106  0.002067  1
  P  P13  1  0.997213  0.826888  0.496504  1
  P  P14  1  0.498127  0.173547  0.252466  1
  P  P15  1  0.501184  0.173513  0.746273  1
  O  O16  1  0.991066  0.826608  0.653493  1
  O  O17  1  0.998598  0.103214  0.446659  1
  O  O18  1  0.996280  0.823768  0.158297  1
  O  O19  1  0.014289  0.098480  0.947055  1
  O  O20  1  0.203908  0.688737  0.445702  1
  O  O21  1  0.209062  0.681362  0.956904  1
  O  O22  1  0.294303  0.311944  0.198145  1
  O  O23  1  0.290535  0.297060  0.690798  1
  O  O24  1  0.491101  0.171918  0.903057  1
  O  O25  1  0.512962  0.899409  0.693499  1
  O  O26  1  0.496371  0.177954  0.408703  1
  O  O27  1  0.500108  0.898794  0.200315  1
  O  O28  1  0.704902  0.316733  0.696318  1
  O  O29  1  0.707979  0.313445  0.206303  1
  O  O30  1  0.791907  0.688133  0.444511  1
  O  O31  1  0.793125  0.702692  0.944410  1
