# generated using pymatgen
data_Ga2HgO4
_symmetry_space_group_name_H-M   'P 1'
_cell_length_a   9.80408694
_cell_length_b   12.61596894
_cell_length_c   2.95547606
_cell_angle_alpha   90.00000000
_cell_angle_beta   90.00000000
_cell_angle_gamma   90.00000000
_symmetry_Int_Tables_number   1
_chemical_formula_structural   Ga2HgO4
_chemical_formula_sum   'Ga8 Hg4 O16'
_cell_volume   365.55708936
_cell_formula_units_Z   4
loop_
 _symmetry_equiv_pos_site_id
 _symmetry_equiv_pos_as_xyz
  1  'x, y, z'
loop_
 _atom_site_type_symbol
 _atom_site_label
 _atom_site_symmetry_multiplicity
 _atom_site_fract_x
 _atom_site_fract_y
 _atom_site_fract_z
 _atom_site_occupancy
  Ga  Ga0  1  0.122171  0.713738  0.750000  1
  Ga  Ga1  1  0.108596  0.129100  0.750000  1
  Ga  Ga2  1  0.391404  0.629100  0.250000  1
  Ga  Ga3  1  0.377829  0.213738  0.250000  1
  Ga  Ga4  1  0.622171  0.786262  0.750000  1
  Ga  Ga5  1  0.608596  0.370900  0.750000  1
  Ga  Ga6  1  0.891404  0.870900  0.250000  1
  Ga  Ga7  1  0.877829  0.286262  0.250000  1
  Hg  Hg8  1  0.154375  0.438432  0.750000  1
  Hg  Hg9  1  0.345625  0.938432  0.250000  1
  Hg  Hg10  1  0.654375  0.061568  0.750000  1
  Hg  Hg11  1  0.845625  0.561568  0.250000  1
  O  O12  1  0.009691  0.834083  0.750000  1
  O  O13  1  0.961475  0.370378  0.750000  1
  O  O14  1  0.251443  0.739636  0.250000  1
  O  O15  1  0.314581  0.544018  0.750000  1
  O  O16  1  0.185419  0.044018  0.250000  1
  O  O17  1  0.248557  0.239636  0.750000  1
  O  O18  1  0.538525  0.870378  0.250000  1
  O  O19  1  0.490309  0.334083  0.250000  1
  O  O20  1  0.509691  0.665917  0.750000  1
  O  O21  1  0.461475  0.129622  0.750000  1
  O  O22  1  0.751443  0.760364  0.250000  1
  O  O23  1  0.814582  0.955982  0.750000  1
  O  O24  1  0.685418  0.455982  0.250000  1
  O  O25  1  0.748557  0.260364  0.750000  1
  O  O26  1  0.038525  0.629622  0.250000  1
  O  O27  1  0.990309  0.165917  0.250000  1
