# generated using pymatgen
data_Li2Ti3CrO8
_symmetry_space_group_name_H-M   'P 1'
_cell_length_a   8.44069715
_cell_length_b   8.44255237
_cell_length_c   8.44319504
_cell_angle_alpha   89.99803853
_cell_angle_beta   89.99609493
_cell_angle_gamma   89.99897377
_symmetry_Int_Tables_number   1
_chemical_formula_structural   Li2Ti3CrO8
_chemical_formula_sum   'Li8 Ti12 Cr4 O32'
_cell_volume   601.67075424
_cell_formula_units_Z   4
loop_
 _symmetry_equiv_pos_site_id
 _symmetry_equiv_pos_as_xyz
  1  'x, y, z'
loop_
 _atom_site_type_symbol
 _atom_site_label
 _atom_site_symmetry_multiplicity
 _atom_site_fract_x
 _atom_site_fract_y
 _atom_site_fract_z
 _atom_site_occupancy
  Li  Li0  1  0.002673  0.002577  0.002858  1
  Li  Li1  1  0.247477  0.247411  0.247354  1
  Li  Li2  1  0.252496  0.752901  0.747412  1
  Li  Li3  1  0.497536  0.997210  0.502640  1
  Li  Li4  1  0.502595  0.497534  0.997067  1
  Li  Li5  1  0.747494  0.252681  0.752823  1
  Li  Li6  1  0.752669  0.747167  0.252649  1
  Li  Li7  1  0.997247  0.502579  0.497379  1
  Ti  Ti8  1  0.124937  0.125065  0.624785  1
  Ti  Ti9  1  0.124980  0.374613  0.875324  1
  Ti  Ti10  1  0.125143  0.625023  0.125008  1
  Ti  Ti11  1  0.375134  0.374802  0.625179  1
  Ti  Ti12  1  0.374736  0.625174  0.375531  1
  Ti  Ti13  1  0.375182  0.874807  0.125030  1
  Ti  Ti14  1  0.624979  0.375260  0.374997  1
  Ti  Ti15  1  0.624712  0.125271  0.124896  1
  Ti  Ti16  1  0.625092  0.875101  0.874865  1
  Ti  Ti17  1  0.874990  0.125062  0.374667  1
  Ti  Ti18  1  0.875052  0.874882  0.624755  1
  Ti  Ti19  1  0.875179  0.625037  0.875026  1
  Cr  Cr20  1  0.124900  0.875122  0.375033  1
  Cr  Cr21  1  0.374802  0.124860  0.874944  1
  Cr  Cr22  1  0.625116  0.625098  0.625117  1
  Cr  Cr23  1  0.874980  0.375142  0.124906  1
  O  O24  1  0.111118  0.114327  0.388356  1
  O  O25  1  0.111510  0.888918  0.613993  1
  O  O26  1  0.113140  0.612763  0.887107  1
  O  O27  1  0.135670  0.138686  0.861398  1
  O  O28  1  0.114162  0.388345  0.111244  1
  O  O29  1  0.137001  0.362838  0.637241  1
  O  O30  1  0.138368  0.635851  0.361228  1
  O  O31  1  0.138953  0.861386  0.135705  1
  O  O32  1  0.361118  0.138373  0.635731  1
  O  O33  1  0.361484  0.363993  0.861215  1
  O  O34  1  0.363114  0.636946  0.137292  1
  O  O35  1  0.385707  0.611443  0.611413  1
  O  O36  1  0.364251  0.861157  0.361580  1
  O  O37  1  0.386913  0.387089  0.387269  1
  O  O38  1  0.388344  0.111095  0.114121  1
  O  O39  1  0.388935  0.885638  0.888510  1
  O  O40  1  0.611166  0.385719  0.611571  1
  O  O41  1  0.611455  0.611196  0.385958  1
  O  O42  1  0.613181  0.887181  0.112883  1
  O  O43  1  0.635594  0.361311  0.138475  1
  O  O44  1  0.614221  0.111529  0.888807  1
  O  O45  1  0.636950  0.137194  0.362844  1
  O  O46  1  0.638534  0.864159  0.638844  1
  O  O47  1  0.639038  0.638581  0.864291  1
  O  O48  1  0.861014  0.361545  0.364209  1
  O  O49  1  0.861396  0.135949  0.138763  1
  O  O50  1  0.863172  0.862944  0.862732  1
  O  O51  1  0.885717  0.888578  0.388669  1
  O  O52  1  0.864291  0.638902  0.638442  1
  O  O53  1  0.886964  0.112904  0.612726  1
  O  O54  1  0.888511  0.388910  0.885825  1
  O  O55  1  0.888909  0.614307  0.111454  1
