# generated using pymatgen
data_Li7V3P8O29
_symmetry_space_group_name_H-M   'P 1'
_cell_length_a   9.84588559
_cell_length_b   9.85762564
_cell_length_c   13.90327266
_cell_angle_alpha   90.19982594
_cell_angle_beta   89.78914706
_cell_angle_gamma   59.86230858
_symmetry_Int_Tables_number   1
_chemical_formula_structural   Li7V3P8O29
_chemical_formula_sum   'Li14 V6 P16 O58'
_cell_volume   1166.96902266
_cell_formula_units_Z   2
loop_
 _symmetry_equiv_pos_site_id
 _symmetry_equiv_pos_as_xyz
  1  'x, y, z'
loop_
 _atom_site_type_symbol
 _atom_site_label
 _atom_site_symmetry_multiplicity
 _atom_site_fract_x
 _atom_site_fract_y
 _atom_site_fract_z
 _atom_site_occupancy
  Li  Li0  1  0.901747  0.761627  0.060094  1
  Li  Li1  1  0.772976  0.906492  0.565655  1
  Li  Li2  1  0.913888  0.319159  0.559712  1
  Li  Li3  1  0.665469  0.678203  0.883195  1
  Li  Li4  1  0.766764  0.328773  0.063468  1
  Li  Li5  1  0.319908  0.904540  0.060606  1
  Li  Li6  1  0.684728  0.225933  0.439860  1
  Li  Li7  1  0.314838  0.774506  0.560597  1
  Li  Li8  1  0.228744  0.669564  0.937948  1
  Li  Li9  1  0.345643  0.329359  0.111337  1
  Li  Li10  1  0.090700  0.687087  0.440195  1
  Li  Li11  1  0.229637  0.085832  0.443094  1
  Li  Li12  1  0.094201  0.230259  0.936449  1
  Li  Li13  1  0.938312  0.013679  0.988814  1
  V  V14  1  0.568982  0.432638  0.250512  1
  V  V15  1  0.432436  0.566657  0.749968  1
  V  V16  1  0.566017  0.004624  0.753249  1
  V  V17  1  0.437295  0.998290  0.247233  1
  V  V18  1  0.998736  0.569077  0.251127  1
  V  V19  1  0.002007  0.433369  0.749596  1
  P  P20  1  0.908726  0.775491  0.842803  1
  P  P21  1  0.765639  0.913481  0.344861  1
  P  P22  1  0.915989  0.318928  0.341670  1
  P  P23  1  0.666756  0.668860  0.123782  1
  P  P24  1  0.669920  0.664799  0.628580  1
  P  P25  1  0.776128  0.315562  0.846036  1
  P  P26  1  0.684786  0.231391  0.660018  1
  P  P27  1  0.316111  0.909295  0.842674  1
  P  P28  1  0.695061  0.083998  0.157941  1
  P  P29  1  0.321343  0.768854  0.341474  1
  P  P30  1  0.226490  0.681297  0.157702  1
  P  P31  1  0.334078  0.331349  0.371217  1
  P  P32  1  0.326561  0.339605  0.873395  1
  P  P33  1  0.091491  0.676328  0.658587  1
  P  P34  1  0.234298  0.086691  0.658108  1
  P  P35  1  0.091438  0.226823  0.155280  1
  O  O36  1  0.000262  0.756002  0.569282  1
  O  O37  1  0.918655  0.750252  0.342035  1
  O  O38  1  0.801756  0.984254  0.077822  1
  O  O39  1  0.747369  0.919406  0.842293  1
  O  O40  1  0.895921  0.625284  0.832967  1
  O  O41  1  0.811982  0.676942  0.161674  1
  O  O42  1  0.899881  0.481034  0.317440  1
  O  O43  1  0.997386  0.232447  0.068105  1
  O  O44  1  0.922369  0.334430  0.843057  1
  O  O45  1  0.673456  0.811870  0.664796  1
  O  O46  1  0.622629  0.895225  0.323737  1
  O  O47  1  0.817964  0.514611  0.676052  1
  O  O48  1  0.659819  0.682833  0.015816  1
  O  O49  1  0.681112  0.641786  0.521948  1
  O  O50  1  0.672467  0.516812  0.157402  1
  O  O51  1  0.479977  0.889172  0.834639  1
  O  O52  1  0.511695  0.816516  0.165984  1
  O  O53  1  0.756018  0.330905  0.344089  1
  O  O54  1  0.792570  0.212197  0.751682  1
  O  O55  1  0.756888  0.254268  0.570055  1
  O  O56  1  0.783127  0.225590  0.935061  1
  O  O57  1  0.626684  0.478665  0.834867  1
  O  O58  1  0.516680  0.670556  0.670583  1
  O  O59  1  0.670284  0.250388  0.155330  1
  O  O60  1  0.481892  0.626724  0.321900  1
  O  O61  1  0.328946  0.921658  0.339610  1
  O  O62  1  0.783955  0.011746  0.258569  1
  O  O63  1  0.752407  0.999404  0.437028  1
  O  O64  1  0.243190  0.994475  0.568754  1
  O  O65  1  0.669267  0.085875  0.657299  1
  O  O66  1  0.522745  0.380621  0.683027  1
  O  O67  1  0.332106  0.743251  0.841364  1
  O  O68  1  0.486727  0.327180  0.336747  1
  O  O69  1  0.370768  0.516986  0.166238  1
  O  O70  1  0.224434  0.770471  0.068783  1
  O  O71  1  0.242786  0.757175  0.431909  1
  O  O72  1  0.208038  0.785675  0.250983  1
  O  O73  1  0.254544  0.665514  0.657946  1
  O  O74  1  0.472945  0.196996  0.834629  1
  O  O75  1  0.531866  0.094950  0.162604  1
  O  O76  1  0.317724  0.494578  0.837508  1
  O  O77  1  0.305561  0.349485  0.981651  1
  O  O78  1  0.322758  0.318717  0.477111  1
  O  O79  1  0.186973  0.485399  0.330837  1
  O  O80  1  0.377532  0.101159  0.675282  1
  O  O81  1  0.335040  0.184099  0.319311  1
  O  O82  1  0.076208  0.665369  0.159221  1
  O  O83  1  0.002682  0.786689  0.750549  1
  O  O84  1  0.000447  0.772758  0.932036  1
  O  O85  1  0.108685  0.515069  0.675098  1
  O  O86  1  0.177333  0.334593  0.832218  1
  O  O87  1  0.109107  0.373086  0.168748  1
  O  O88  1  0.255477  0.078818  0.152005  1
  O  O89  1  0.222496  0.998404  0.931332  1
  O  O90  1  0.213638  0.994951  0.749908  1
  O  O91  1  0.081439  0.248002  0.659125  1
  O  O92  1  0.011143  0.249402  0.430844  1
  O  O93  1  0.007868  0.207717  0.250158  1
