# generated using pymatgen
data_Li6Fe2O5F2
_symmetry_space_group_name_H-M   'P 1'
_cell_length_a   5.91737722
_cell_length_b   5.91689362
_cell_length_c   9.96991933
_cell_angle_alpha   82.94082556
_cell_angle_beta   93.19609633
_cell_angle_gamma   61.08937122
_symmetry_Int_Tables_number   1
_chemical_formula_structural   Li6Fe2O5F2
_chemical_formula_sum   'Li12 Fe4 O10 F4'
_cell_volume   300.57583103
_cell_formula_units_Z   2
loop_
 _symmetry_equiv_pos_site_id
 _symmetry_equiv_pos_as_xyz
  1  'x, y, z'
loop_
 _atom_site_type_symbol
 _atom_site_label
 _atom_site_symmetry_multiplicity
 _atom_site_fract_x
 _atom_site_fract_y
 _atom_site_fract_z
 _atom_site_occupancy
  Li  Li0  1  0.208511  0.873553  0.092124  1
  Li  Li1  1  0.475136  0.864664  0.606458  1
  Li  Li2  1  0.919220  0.877415  0.582360  1
  Li  Li3  1  0.682885  0.869431  0.098772  1
  Li  Li4  1  0.335927  0.585105  0.888685  1
  Li  Li5  1  0.073166  0.586259  0.392867  1
  Li  Li6  1  0.926834  0.413741  0.607133  1
  Li  Li7  1  0.664073  0.414895  0.111315  1
  Li  Li8  1  0.317115  0.130569  0.901228  1
  Li  Li9  1  0.080780  0.122585  0.417640  1
  Li  Li10  1  0.524864  0.135336  0.393542  1
  Li  Li11  1  0.791489  0.126447  0.907876  1
  Fe  Fe12  1  0.791293  0.609659  0.885251  1
  Fe  Fe13  1  0.546175  0.618586  0.381244  1
  Fe  Fe14  1  0.453825  0.381414  0.618756  1
  Fe  Fe15  1  0.208707  0.390341  0.114749  1
  O  O16  1  0.494939  0.759991  0.979200  1
  O  O17  1  0.736800  0.754967  0.471493  1
  O  O18  1  0.260063  0.738423  0.501628  1
  O  O19  1  0.634208  0.490387  0.749311  1
  O  O20  1  0.996452  0.735848  0.996089  1
  O  O21  1  0.003548  0.264152  0.003911  1
  O  O22  1  0.365792  0.509613  0.250689  1
  O  O23  1  0.739937  0.261577  0.498372  1
  O  O24  1  0.263200  0.245033  0.528507  1
  O  O25  1  0.505061  0.240009  0.020800  1
  F  F26  1  0.135472  0.493429  0.754257  1
  F  F27  1  0.864528  0.506571  0.245743  1
  F  F28  1  0.668341  0.983659  0.746729  1
  F  F29  1  0.331659  0.016341  0.253271  1
