# generated using pymatgen
data_Li2NbOF5
_symmetry_space_group_name_H-M   'P 1'
_cell_length_a   5.03351300
_cell_length_b   5.03344367
_cell_length_c   13.95468431
_cell_angle_alpha   89.99510239
_cell_angle_beta   89.99827811
_cell_angle_gamma   120.00509136
_symmetry_Int_Tables_number   1
_chemical_formula_structural   Li2NbOF5
_chemical_formula_sum   'Li6 Nb3 O3 F15'
_cell_volume   306.17150500
_cell_formula_units_Z   3
loop_
 _symmetry_equiv_pos_site_id
 _symmetry_equiv_pos_as_xyz
  1  'x, y, z'
loop_
 _atom_site_type_symbol
 _atom_site_label
 _atom_site_symmetry_multiplicity
 _atom_site_fract_x
 _atom_site_fract_y
 _atom_site_fract_z
 _atom_site_occupancy
  Li  Li0  1  0.345605  0.673150  0.167913  1
  Li  Li1  1  0.326847  0.672434  0.501266  1
  Li  Li2  1  0.327594  0.654386  0.834608  1
  Li  Li3  1  0.669335  0.336961  0.501203  1
  Li  Li4  1  0.667637  0.330638  0.167849  1
  Li  Li5  1  0.663030  0.332351  0.834553  1
  Nb  Nb6  1  0.974493  0.975490  0.005996  1
  Nb  Nb7  1  0.024375  0.998920  0.339327  1
  Nb  Nb8  1  0.001049  0.025517  0.672682  1
  O  O9  1  0.998447  0.309799  0.747986  1
  O  O10  1  0.311138  0.001486  0.414632  1
  O  O11  1  0.690356  0.688787  0.081346  1
  F  F12  1  0.996845  0.677319  0.248938  1
  F  F13  1  0.005285  0.683621  0.915332  1
  F  F14  1  0.997957  0.676990  0.582231  1
  F  F15  1  0.995504  0.321380  0.415497  1
  F  F16  1  0.005667  0.327681  0.081540  1
  F  F17  1  0.322690  0.319673  0.582289  1
  F  F18  1  0.316292  0.321435  0.248603  1
  F  F19  1  0.323084  0.320945  0.915487  1
  F  F20  1  0.325941  0.004573  0.082129  1
  F  F21  1  0.321969  0.994447  0.748321  1
  F  F22  1  0.672267  0.677770  0.414904  1
  F  F23  1  0.678718  0.674172  0.748920  1
  F  F24  1  0.678914  0.002108  0.248841  1
  F  F25  1  0.678414  0.994910  0.582029  1
  F  F26  1  0.680520  0.003056  0.915578  1
