# generated using pymatgen
data_Li2VCrP2(HO5)2
_symmetry_space_group_name_H-M   'P 1'
_cell_length_a   5.41996070
_cell_length_b   7.37403791
_cell_length_c   14.30883014
_cell_angle_alpha   86.61053516
_cell_angle_beta   84.80737692
_cell_angle_gamma   106.28750543
_symmetry_Int_Tables_number   1
_chemical_formula_structural   Li2VCrP2(HO5)2
_chemical_formula_sum   'Li6 V3 Cr3 P6 H6 O30'
_cell_volume   544.53629782
_cell_formula_units_Z   3
loop_
 _symmetry_equiv_pos_site_id
 _symmetry_equiv_pos_as_xyz
  1  'x, y, z'
loop_
 _atom_site_type_symbol
 _atom_site_label
 _atom_site_symmetry_multiplicity
 _atom_site_fract_x
 _atom_site_fract_y
 _atom_site_fract_z
 _atom_site_occupancy
  Li  Li0  1  0.148909  0.574303  0.249020  1
  Li  Li1  1  0.184009  0.759062  0.417507  1
  Li  Li2  1  0.482198  0.906581  0.915625  1
  Li  Li3  1  0.517802  0.093419  0.084375  1
  Li  Li4  1  0.815991  0.240938  0.582493  1
  Li  Li5  1  0.851091  0.425697  0.750980  1
  V  V6  1  0.000000  0.000000  0.000000  1
  V  V7  1  0.332828  0.833013  0.666462  1
  V  V8  1  0.667172  0.166987  0.333538  1
  Cr  Cr9  1  0.000000  0.500000  0.000000  1
  Cr  Cr10  1  0.333761  0.333365  0.666662  1
  Cr  Cr11  1  0.666239  0.666635  0.333338  1
  P  P12  1  0.199691  0.327428  0.441691  1
  P  P13  1  0.134698  0.006141  0.225903  1
  P  P14  1  0.530765  0.658759  0.107791  1
  P  P15  1  0.469235  0.341241  0.892209  1
  P  P16  1  0.865302  0.993859  0.774097  1
  P  P17  1  0.800309  0.672572  0.558309  1
  H  H18  1  0.061244  0.778802  0.879963  1
  H  H19  1  0.272221  0.550578  0.786445  1
  H  H20  1  0.606029  0.884265  0.452908  1
  H  H21  1  0.393971  0.115735  0.547092  1
  H  H22  1  0.727779  0.449422  0.213555  1
  H  H23  1  0.938756  0.221198  0.120037  1
  O  O24  1  0.129313  0.949187  0.123641  1
  O  O25  1  0.042717  0.824178  0.296165  1
  O  O26  1  0.039768  0.861598  0.757841  1
  O  O27  1  0.088003  0.776278  0.564295  1
  O  O28  1  0.101074  0.776221  0.946202  1
  O  O29  1  0.241471  0.557000  0.101913  1
  O  O30  1  0.290429  0.509284  0.371231  1
  O  O31  1  0.206632  0.385120  0.543960  1
  O  O32  1  0.228426  0.552535  0.720696  1
  O  O33  1  0.622017  0.842423  0.037921  1
  O  O34  1  0.537470  0.716898  0.210179  1
  O  O35  1  0.561720  0.886120  0.387274  1
  O  O36  1  0.295034  0.472475  0.909185  1
  O  O37  1  0.373557  0.195148  0.424707  1
  O  O38  1  0.577671  0.889804  0.768300  1
  O  O39  1  0.422329  0.110196  0.231700  1
  O  O40  1  0.626443  0.804852  0.575293  1
  O  O41  1  0.704966  0.527525  0.090815  1
  O  O42  1  0.438280  0.113880  0.612726  1
  O  O43  1  0.462530  0.283102  0.789821  1
  O  O44  1  0.377983  0.157577  0.962079  1
  O  O45  1  0.771574  0.447465  0.279304  1
  O  O46  1  0.793368  0.614880  0.456040  1
  O  O47  1  0.709571  0.490716  0.628769  1
  O  O48  1  0.758528  0.443000  0.898087  1
  O  O49  1  0.898926  0.223779  0.053798  1
  O  O50  1  0.911997  0.223722  0.435705  1
  O  O51  1  0.960232  0.138402  0.242159  1
  O  O52  1  0.957283  0.175822  0.703835  1
  O  O53  1  0.870687  0.050813  0.876359  1
