# generated using pymatgen
data_NaFeAsCO7
_symmetry_space_group_name_H-M   'P 1'
_cell_length_a   9.35208895
_cell_length_b   6.68170509
_cell_length_c   5.39750267
_cell_angle_alpha   90.00000000
_cell_angle_beta   87.34009641
_cell_angle_gamma   90.00000000
_symmetry_Int_Tables_number   1
_chemical_formula_structural   NaFeAsCO7
_chemical_formula_sum   'Na2 Fe2 As2 C2 O14'
_cell_volume   336.91522363
_cell_formula_units_Z   2
loop_
 _symmetry_equiv_pos_site_id
 _symmetry_equiv_pos_as_xyz
  1  'x, y, z'
loop_
 _atom_site_type_symbol
 _atom_site_label
 _atom_site_symmetry_multiplicity
 _atom_site_fract_x
 _atom_site_fract_y
 _atom_site_fract_z
 _atom_site_occupancy
  Na  Na0  1  0.230550  0.482563  0.232728  1
  Na  Na1  1  0.769450  0.982563  0.767272  1
  Fe  Fe2  1  0.352060  0.762840  0.792648  1
  Fe  Fe3  1  0.647940  0.262840  0.207352  1
  As  As4  1  0.428441  0.253567  0.722235  1
  As  As5  1  0.571559  0.753567  0.277765  1
  C  C6  1  0.082434  0.745756  0.724460  1
  C  C7  1  0.917566  0.245756  0.275540  1
  O  O8  1  0.049610  0.251528  0.307471  1
  O  O9  1  0.134213  0.748665  0.942497  1
  O  O10  1  0.177384  0.738610  0.541003  1
  O  O11  1  0.322550  0.051173  0.787634  1
  O  O12  1  0.325904  0.457816  0.801216  1
  O  O13  1  0.411610  0.740291  0.133430  1
  O  O14  1  0.470213  0.265039  0.405435  1
  O  O15  1  0.529787  0.765039  0.594565  1
  O  O16  1  0.588390  0.240291  0.866570  1
  O  O17  1  0.674096  0.957816  0.198784  1
  O  O18  1  0.677450  0.551173  0.212366  1
  O  O19  1  0.822616  0.238610  0.458997  1
  O  O20  1  0.865787  0.248665  0.057503  1
  O  O21  1  0.950390  0.751528  0.692529  1
