# generated using pymatgen
data_Li12V3FeP4(CO7)4
_symmetry_space_group_name_H-M   'P 1'
_cell_length_a   8.48456478
_cell_length_b   10.01196121
_cell_length_c   6.59927160
_cell_angle_alpha   90.00000000
_cell_angle_beta   90.00000000
_cell_angle_gamma   84.88296302
_symmetry_Int_Tables_number   1
_chemical_formula_structural   Li12V3FeP4(CO7)4
_chemical_formula_sum   'Li12 V3 Fe1 P4 C4 O28'
_cell_volume   558.35502632
_cell_formula_units_Z   1
loop_
 _symmetry_equiv_pos_site_id
 _symmetry_equiv_pos_as_xyz
  1  'x, y, z'
loop_
 _atom_site_type_symbol
 _atom_site_label
 _atom_site_symmetry_multiplicity
 _atom_site_fract_x
 _atom_site_fract_y
 _atom_site_fract_z
 _atom_site_occupancy
  Li  Li0  1  0.094146  0.380779  0.250000  1
  Li  Li1  1  0.093043  0.880543  0.250000  1
  Li  Li2  1  0.277102  0.123518  0.028081  1
  Li  Li3  1  0.277102  0.123518  0.471919  1
  Li  Li4  1  0.276190  0.623256  0.028814  1
  Li  Li5  1  0.276190  0.623256  0.471186  1
  Li  Li6  1  0.723409  0.376342  0.525018  1
  Li  Li7  1  0.723409  0.376342  0.974982  1
  Li  Li8  1  0.723697  0.876651  0.526550  1
  Li  Li9  1  0.723697  0.876651  0.973450  1
  Li  Li10  1  0.906495  0.118955  0.750000  1
  Li  Li11  1  0.908199  0.619326  0.750000  1
  V  V12  1  0.329984  0.396281  0.750000  1
  V  V13  1  0.329888  0.896697  0.750000  1
  V  V14  1  0.669876  0.103630  0.250000  1
  Fe  Fe15  1  0.665431  0.605268  0.250000  1
  P  P16  1  0.411322  0.359707  0.250000  1
  P  P17  1  0.411009  0.860015  0.250000  1
  P  P18  1  0.589204  0.140338  0.750000  1
  P  P19  1  0.588929  0.640411  0.750000  1
  C  C20  1  0.034198  0.350065  0.750000  1
  C  C21  1  0.034383  0.849988  0.750000  1
  C  C22  1  0.965652  0.149869  0.250000  1
  C  C23  1  0.965490  0.649008  0.250000  1
  O  O24  1  0.074230  0.472478  0.750000  1
  O  O25  1  0.112061  0.176993  0.250000  1
  O  O26  1  0.074091  0.972552  0.750000  1
  O  O27  1  0.147614  0.253073  0.750000  1
  O  O28  1  0.112120  0.678169  0.250000  1
  O  O29  1  0.147851  0.753146  0.750000  1
  O  O30  1  0.308463  0.413472  0.066985  1
  O  O31  1  0.308463  0.413472  0.433015  1
  O  O32  1  0.308265  0.913458  0.066880  1
  O  O33  1  0.308265  0.913458  0.433120  1
  O  O34  1  0.421682  0.090660  0.750000  1
  O  O35  1  0.428812  0.202759  0.250000  1
  O  O36  1  0.421770  0.590270  0.750000  1
  O  O37  1  0.429260  0.703320  0.250000  1
  O  O38  1  0.570762  0.296919  0.750000  1
  O  O39  1  0.578727  0.408691  0.250000  1
  O  O40  1  0.570963  0.797084  0.750000  1
  O  O41  1  0.578171  0.910032  0.250000  1
  O  O42  1  0.691956  0.086495  0.932907  1
  O  O43  1  0.691956  0.086495  0.567093  1
  O  O44  1  0.690498  0.587365  0.564669  1
  O  O45  1  0.690498  0.587365  0.935331  1
  O  O46  1  0.852358  0.246654  0.250000  1
  O  O47  1  0.887886  0.323063  0.750000  1
  O  O48  1  0.852004  0.745785  0.250000  1
  O  O49  1  0.925955  0.027304  0.250000  1
  O  O50  1  0.888155  0.822786  0.750000  1
  O  O51  1  0.929115  0.526269  0.250000  1
