# generated using pymatgen
data_DyErO3
_symmetry_space_group_name_H-M   'P 1'
_cell_length_a   6.41184474
_cell_length_b   6.41187869
_cell_length_c   12.70056691
_cell_angle_alpha   89.99964719
_cell_angle_beta   90.00026036
_cell_angle_gamma   120.00090577
_symmetry_Int_Tables_number   1
_chemical_formula_structural   DyErO3
_chemical_formula_sum   'Dy6 Er6 O18'
_cell_volume   452.18699652
_cell_formula_units_Z   6
loop_
 _symmetry_equiv_pos_site_id
 _symmetry_equiv_pos_as_xyz
  1  'x, y, z'
loop_
 _atom_site_type_symbol
 _atom_site_label
 _atom_site_symmetry_multiplicity
 _atom_site_fract_x
 _atom_site_fract_y
 _atom_site_fract_z
 _atom_site_occupancy
  Dy  Dy0  1  0.333329  0.666689  0.234314  1
  Dy  Dy1  1  0.999997  0.000021  0.264963  1
  Dy  Dy2  1  0.999986  0.999981  0.764966  1
  Dy  Dy3  1  0.333318  0.666646  0.734311  1
  Dy  Dy4  1  0.666652  0.333314  0.734312  1
  Dy  Dy5  1  0.666671  0.333353  0.234316  1
  Er  Er6  1  0.999984  0.667302  0.496827  1
  Er  Er7  1  -0.000001  0.332708  0.996825  1
  Er  Er8  1  0.332661  0.332653  0.496830  1
  Er  Er9  1  0.667311  0.667334  0.996837  1
  Er  Er10  1  0.332692  0.000026  0.996835  1
  Er  Er11  1  0.667298  0.999975  0.496833  1
  O  O12  1  -0.000003  0.694368  0.670070  1
  O  O13  1  0.999990  0.634985  0.324941  1
  O  O14  1  -0.000003  0.365005  0.824937  1
  O  O15  1  0.999995  0.305636  0.170070  1
  O  O16  1  0.333325  0.666693  0.020540  1
  O  O17  1  0.999983  0.999974  0.461108  1
  O  O18  1  -0.000002  0.000014  0.961093  1
  O  O19  1  0.333306  0.666637  0.520529  1
  O  O20  1  0.305618  0.305613  0.670071  1
  O  O21  1  0.365003  0.365020  0.324946  1
  O  O22  1  0.305642  0.000021  0.170075  1
  O  O23  1  0.634981  0.634977  0.824940  1
  O  O24  1  0.694373  0.694390  0.170078  1
  O  O25  1  0.365012  0.999989  0.824939  1
  O  O26  1  0.666640  0.333300  0.520531  1
  O  O27  1  0.666686  0.333369  0.020539  1
  O  O28  1  0.634990  0.000016  0.324945  1
  O  O29  1  0.694365  0.999989  0.670074  1
