# generated using pymatgen
data_GaH5(NF)2
_symmetry_space_group_name_H-M   'P 1'
_cell_length_a   5.85925469
_cell_length_b   6.33215709
_cell_length_c   5.01144580
_cell_angle_alpha   91.42787286
_cell_angle_beta   90.00000000
_cell_angle_gamma   62.44120537
_symmetry_Int_Tables_number   1
_chemical_formula_structural   GaH5(NF)2
_chemical_formula_sum   'Ga2 H10 N4 F4'
_cell_volume   164.77150596
_cell_formula_units_Z   2
loop_
 _symmetry_equiv_pos_site_id
 _symmetry_equiv_pos_as_xyz
  1  'x, y, z'
loop_
 _atom_site_type_symbol
 _atom_site_label
 _atom_site_symmetry_multiplicity
 _atom_site_fract_x
 _atom_site_fract_y
 _atom_site_fract_z
 _atom_site_occupancy
  Ga  Ga0  1  0.500000  0.000000  0.500000  1
  Ga  Ga1  1  0.000000  0.000000  0.000000  1
  H  H2  1  0.111813  0.776375  0.426128  1
  H  H3  1  0.042925  0.616921  0.211576  1
  H  H4  1  0.340154  0.616921  0.211576  1
  H  H5  1  0.648778  0.702445  0.111074  1
  H  H6  1  0.723649  0.552702  0.401969  1
  H  H7  1  0.276351  0.447298  0.598031  1
  H  H8  1  0.351222  0.297555  0.888926  1
  H  H9  1  0.659846  0.383079  0.788424  1
  H  H10  1  0.957075  0.383079  0.788424  1
  H  H11  1  0.888187  0.223625  0.573872  1
  N  N12  1  0.644029  0.711943  0.312177  1
  N  N13  1  0.143197  0.713605  0.232316  1
  N  N14  1  0.856803  0.286395  0.767684  1
  N  N15  1  0.355971  0.288057  0.687823  1
  F  F16  1  0.310416  0.857637  0.764147  1
  F  F17  1  0.831947  0.857637  0.764147  1
  F  F18  1  0.168053  0.142363  0.235853  1
  F  F19  1  0.689584  0.142363  0.235853  1
