# generated using pymatgen
data_Ba2GeO4
_symmetry_space_group_name_H-M   'P 1'
_cell_length_a   23.15515108
_cell_length_b   10.55775513
_cell_length_c   6.15039296
_cell_angle_alpha   90.00000000
_cell_angle_beta   90.00000000
_cell_angle_gamma   90.00000000
_symmetry_Int_Tables_number   1
_chemical_formula_structural   Ba2GeO4
_chemical_formula_sum   'Ba24 Ge12 O48'
_cell_volume   1503.56451839
_cell_formula_units_Z   12
loop_
 _symmetry_equiv_pos_site_id
 _symmetry_equiv_pos_as_xyz
  1  'x, y, z'
loop_
 _atom_site_type_symbol
 _atom_site_label
 _atom_site_symmetry_multiplicity
 _atom_site_fract_x
 _atom_site_fract_y
 _atom_site_fract_z
 _atom_site_occupancy
  Ba  Ba0  1  0.997871  0.299275  0.788467  1
  Ba  Ba1  1  0.002129  0.700725  0.288467  1
  Ba  Ba2  1  0.054444  0.078412  0.281462  1
  Ba  Ba3  1  0.110417  0.579199  0.763185  1
  Ba  Ba4  1  0.169050  0.803988  0.244494  1
  Ba  Ba5  1  0.164746  0.200925  0.735332  1
  Ba  Ba6  1  0.220127  0.424573  0.234557  1
  Ba  Ba7  1  0.279873  0.924573  0.734557  1
  Ba  Ba8  1  0.335254  0.700925  0.235332  1
  Ba  Ba9  1  0.330950  0.303988  0.744494  1
  Ba  Ba10  1  0.389583  0.079199  0.263185  1
  Ba  Ba11  1  0.445556  0.578412  0.781462  1
  Ba  Ba12  1  0.497871  0.200725  0.788467  1
  Ba  Ba13  1  0.502129  0.799275  0.288467  1
  Ba  Ba14  1  0.554444  0.421588  0.281462  1
  Ba  Ba15  1  0.610417  0.920801  0.763185  1
  Ba  Ba16  1  0.669050  0.696012  0.244494  1
  Ba  Ba17  1  0.664746  0.299075  0.735332  1
  Ba  Ba18  1  0.720127  0.075427  0.234557  1
  Ba  Ba19  1  0.779873  0.575427  0.734557  1
  Ba  Ba20  1  0.835254  0.799075  0.235332  1
  Ba  Ba21  1  0.830950  0.196012  0.744494  1
  Ba  Ba22  1  0.889583  0.420801  0.263185  1
  Ba  Ba23  1  0.945556  0.921588  0.781462  1
  Ge  Ge24  1  0.072719  0.417488  0.253857  1
  Ge  Ge25  1  0.094374  0.916857  0.779570  1
  Ge  Ge26  1  0.240969  0.086268  0.243775  1
  Ge  Ge27  1  0.259031  0.586268  0.743775  1
  Ge  Ge28  1  0.405626  0.416857  0.279570  1
  Ge  Ge29  1  0.427281  0.917488  0.753857  1
  Ge  Ge30  1  0.572719  0.082512  0.253857  1
  Ge  Ge31  1  0.594374  0.583143  0.779570  1
  Ge  Ge32  1  0.740969  0.413732  0.243775  1
  Ge  Ge33  1  0.759031  0.913732  0.743775  1
  Ge  Ge34  1  0.905626  0.083143  0.279570  1
  Ge  Ge35  1  0.927281  0.582512  0.753857  1
  O  O36  1  0.000476  0.556250  0.681488  1
  O  O37  1  0.057289  0.065008  0.822215  1
  O  O38  1  0.070726  0.806524  0.981245  1
  O  O39  1  0.073471  0.860021  0.518498  1
  O  O40  1  0.081874  0.307377  0.470173  1
  O  O41  1  0.107534  0.359631  0.011100  1
  O  O42  1  0.108730  0.563556  0.320007  1
  O  O43  1  0.166703  0.066468  0.308289  1
  O  O44  1  0.169730  0.939970  0.811477  1
  O  O45  1  0.224195  0.438217  0.679174  1
  O  O46  1  0.224685  0.639416  0.989398  1
  O  O47  1  0.247174  0.697220  0.530434  1
  O  O48  1  0.252825  0.197220  0.030434  1
  O  O49  1  0.275315  0.139416  0.489398  1
  O  O50  1  0.275805  0.938217  0.179174  1
  O  O51  1  0.330270  0.439970  0.311477  1
  O  O52  1  0.333297  0.566468  0.808289  1
  O  O53  1  0.391270  0.063556  0.820007  1
  O  O54  1  0.392466  0.859631  0.511100  1
  O  O55  1  0.418126  0.807377  0.970173  1
  O  O56  1  0.426529  0.360021  0.018498  1
  O  O57  1  0.429274  0.306524  0.481245  1
  O  O58  1  0.442711  0.565008  0.322215  1
  O  O59  1  0.499524  0.056250  0.181488  1
  O  O60  1  0.500476  0.943750  0.681488  1
  O  O61  1  0.557289  0.434992  0.822215  1
  O  O62  1  0.570726  0.693476  0.981245  1
  O  O63  1  0.573471  0.639979  0.518498  1
  O  O64  1  0.581874  0.192623  0.470173  1
  O  O65  1  0.607534  0.140369  0.011100  1
  O  O66  1  0.608730  0.936444  0.320007  1
  O  O67  1  0.666703  0.433532  0.308289  1
  O  O68  1  0.669730  0.560030  0.811477  1
  O  O69  1  0.724195  0.061783  0.679174  1
  O  O70  1  0.724685  0.860584  0.989398  1
  O  O71  1  0.747174  0.802780  0.530434  1
  O  O72  1  0.752826  0.302780  0.030434  1
  O  O73  1  0.775315  0.360584  0.489398  1
  O  O74  1  0.775805  0.561783  0.179174  1
  O  O75  1  0.830270  0.060030  0.311477  1
  O  O76  1  0.833297  0.933532  0.808289  1
  O  O77  1  0.891270  0.436444  0.820007  1
  O  O78  1  0.892466  0.640369  0.511100  1
  O  O79  1  0.918126  0.692623  0.970173  1
  O  O80  1  0.926529  0.139979  0.018498  1
  O  O81  1  0.929274  0.193476  0.481245  1
  O  O82  1  0.942711  0.934992  0.322215  1
  O  O83  1  0.999524  0.443750  0.181488  1
