# generated using pymatgen
data_CoOF
_symmetry_space_group_name_H-M   'P 1'
_cell_length_a   4.60440400
_cell_length_b   13.61501398
_cell_length_c   2.94441873
_cell_angle_alpha   90.00000550
_cell_angle_beta   90.00001933
_cell_angle_gamma   89.99830392
_symmetry_Int_Tables_number   1
_chemical_formula_structural   CoOF
_chemical_formula_sum   'Co6 O6 F6'
_cell_volume   184.58273883
_cell_formula_units_Z   6
loop_
 _symmetry_equiv_pos_site_id
 _symmetry_equiv_pos_as_xyz
  1  'x, y, z'
loop_
 _atom_site_type_symbol
 _atom_site_label
 _atom_site_symmetry_multiplicity
 _atom_site_fract_x
 _atom_site_fract_y
 _atom_site_fract_z
 _atom_site_occupancy
  Co  Co0  1  0.977089  0.998725  1.000000  1
  Co  Co1  1  0.102121  0.332429  1.000000  1
  Co  Co2  1  0.957628  0.669794  1.000000  1
  Co  Co3  1  0.542362  0.169809  0.500000  1
  Co  Co4  1  0.523101  0.498750  0.500000  1
  Co  Co5  1  0.397855  0.832342  0.500000  1
  O  O6  1  0.267647  0.269805  0.500000  1
  O  O7  1  0.132072  0.931301  0.500000  1
  O  O8  1  0.232328  0.769723  1.000000  1
  O  O9  1  0.367937  0.431373  0.000000  1
  O  O10  1  0.694804  0.564309  0.000000  1
  O  O11  1  0.805320  0.064271  0.500000  1
  F  F12  1  0.177177  0.601509  0.500000  1
  F  F13  1  0.322741  0.101487  0.000000  1
  F  F14  1  0.778783  0.236044  1.000000  1
  F  F15  1  0.605225  0.896127  0.000000  1
  F  F16  1  0.894605  0.396222  0.500000  1
  F  F17  1  0.721207  0.735980  0.500000  1
