# generated using pymatgen
data_Li32Mn3Cr13O48
_symmetry_space_group_name_H-M   'P 1'
_cell_length_a   5.03807437
_cell_length_b   8.71651597
_cell_length_c   19.51754595
_cell_angle_alpha   98.15936552
_cell_angle_beta   94.89354118
_cell_angle_gamma   89.74844506
_symmetry_Int_Tables_number   1
_chemical_formula_structural   Li32Mn3Cr13O48
_chemical_formula_sum   'Li32 Mn3 Cr13 O48'
_cell_volume   845.30761989
_cell_formula_units_Z   1
loop_
 _symmetry_equiv_pos_site_id
 _symmetry_equiv_pos_as_xyz
  1  'x, y, z'
loop_
 _atom_site_type_symbol
 _atom_site_label
 _atom_site_symmetry_multiplicity
 _atom_site_fract_x
 _atom_site_fract_y
 _atom_site_fract_z
 _atom_site_occupancy
  Li  Li0  1  0.990109  0.169215  0.249540  1
  Li  Li1  1  0.876121  0.375859  0.375298  1
  Li  Li2  1  0.752363  0.250080  0.999883  1
  Li  Li3  1  0.740041  0.920437  0.000247  1
  Li  Li4  1  0.989328  0.168019  0.749256  1
  Li  Li5  1  0.756989  0.580037  0.499494  1
  Li  Li6  1  0.872309  0.373473  0.874714  1
  Li  Li7  1  0.752575  0.248567  0.500168  1
  Li  Li8  1  0.739068  0.920685  0.499303  1
  Li  Li9  1  0.624321  0.124244  0.124849  1
  Li  Li10  1  0.754450  0.578232  0.999209  1
  Li  Li11  1  0.508848  0.330654  0.250009  1
  Li  Li12  1  0.624388  0.125597  0.625292  1
  Li  Li13  1  0.497950  0.000154  0.250037  1
  Li  Li14  1  0.495632  0.670424  0.250539  1
  Li  Li15  1  0.506798  0.329584  0.749764  1
  Li  Li16  1  0.377199  0.876670  0.375103  1
  Li  Li17  1  0.500294  0.002243  0.750198  1
  Li  Li18  1  0.251718  0.751167  0.999658  1
  Li  Li19  1  0.490291  0.668664  0.750340  1
  Li  Li20  1  0.244113  0.419635  0.999744  1
  Li  Li21  1  0.374421  0.874543  0.874754  1
  Li  Li22  1  0.262297  0.082191  0.500691  1
  Li  Li23  1  0.248056  0.748932  0.500072  1
  Li  Li24  1  0.124366  0.624435  0.124979  1
  Li  Li25  1  0.242628  0.420254  0.500683  1
  Li  Li26  1  0.005608  0.831504  0.250477  1
  Li  Li27  1  0.260434  0.079238  0.000208  1
  Li  Li28  1  0.126058  0.623088  0.624627  1
  Li  Li29  1  0.999555  0.499769  0.250300  1
  Li  Li30  1  0.008789  0.831163  0.750676  1
  Li  Li31  1  0.005335  0.499384  0.749675  1
  Mn  Mn32  1  0.872700  0.708096  0.374241  1
  Mn  Mn33  1  0.376285  0.541983  0.875445  1
  Mn  Mn34  1  0.128839  0.290801  0.626041  1
  Cr  Cr35  1  0.881870  0.039499  0.374807  1
  Cr  Cr36  1  0.871339  0.703909  0.874717  1
  Cr  Cr37  1  0.877023  0.037514  0.874865  1
  Cr  Cr38  1  0.617988  0.789498  0.123980  1
  Cr  Cr39  1  0.631583  0.455227  0.126089  1
  Cr  Cr40  1  0.619227  0.794395  0.623777  1
  Cr  Cr41  1  0.630867  0.457264  0.625552  1
  Cr  Cr42  1  0.375384  0.545953  0.374857  1
  Cr  Cr43  1  0.375728  0.212490  0.375601  1
  Cr  Cr44  1  0.369116  0.211718  0.875356  1
  Cr  Cr45  1  0.115282  0.958617  0.123724  1
  Cr  Cr46  1  0.134452  0.295184  0.126614  1
  Cr  Cr47  1  0.117838  0.954696  0.624535  1
  O  O48  1  0.968134  0.105093  0.068820  1
  O  O49  1  0.924296  0.784724  0.068539  1
  O  O50  1  0.932308  0.423060  0.067961  1
  O  O51  1  0.968471  0.107471  0.569472  1
  O  O52  1  0.822885  0.962156  0.180758  1
  O  O53  1  0.819241  0.322886  0.182916  1
  O  O54  1  0.931850  0.787434  0.568299  1
  O  O55  1  0.928853  0.426633  0.568227  1
  O  O56  1  0.783344  0.640210  0.181010  1
  O  O57  1  0.709920  0.853104  0.318471  1
  O  O58  1  0.815567  0.959457  0.681238  1
  O  O59  1  0.826368  0.321240  0.682434  1
  O  O60  1  0.682968  0.535069  0.319056  1
  O  O61  1  0.673152  0.174529  0.318148  1
  O  O62  1  0.780536  0.640162  0.680775  1
  O  O63  1  0.716956  0.852576  0.818522  1
  O  O64  1  0.466509  0.608435  0.069082  1
  O  O65  1  0.573152  0.713778  0.430657  1
  O  O66  1  0.575584  0.071734  0.432731  1
  O  O67  1  0.676183  0.535270  0.819040  1
  O  O68  1  0.673532  0.178191  0.817815  1
  O  O69  1  0.426472  0.929426  0.066827  1
  O  O70  1  0.433237  0.290195  0.069087  1
  O  O71  1  0.532512  0.395684  0.431445  1
  O  O72  1  0.466433  0.608615  0.568219  1
  O  O73  1  0.567376  0.714573  0.930794  1
  O  O74  1  0.576946  0.074818  0.931990  1
  O  O75  1  0.324652  0.826161  0.181595  1
  O  O76  1  0.318014  0.464511  0.181705  1
  O  O77  1  0.432130  0.926067  0.567153  1
  O  O78  1  0.428420  0.288078  0.569697  1
  O  O79  1  0.540001  0.397649  0.931627  1
  O  O80  1  0.283287  0.145953  0.181455  1
  O  O81  1  0.217752  0.358970  0.319047  1
  O  O82  1  0.317834  0.827596  0.682281  1
  O  O83  1  0.318321  0.464904  0.681312  1
  O  O84  1  0.175780  0.677211  0.318037  1
  O  O85  1  0.171024  0.036464  0.318737  1
  O  O86  1  0.288233  0.144201  0.681075  1
  O  O87  1  0.216127  0.357147  0.819527  1
  O  O88  1  0.068479  0.572854  0.431997  1
  O  O89  1  0.080058  0.214629  0.431338  1
  O  O90  1  0.181462  0.677216  0.817718  1
  O  O91  1  0.167839  0.035279  0.818540  1
  O  O92  1  0.032466  0.893163  0.430618  1
  O  O93  1  0.073898  0.573576  0.931798  1
  O  O94  1  0.081475  0.214443  0.931540  1
  O  O95  1  0.031993  0.892420  0.930882  1
