# generated using pymatgen
data_LiMnF5
_symmetry_space_group_name_H-M   'P 1'
_cell_length_a   6.72797993
_cell_length_b   10.58514880
_cell_length_c   10.58514880
_cell_angle_alpha   95.79667844
_cell_angle_beta   108.53009965
_cell_angle_gamma   71.46990035
_symmetry_Int_Tables_number   1
_chemical_formula_structural   LiMnF5
_chemical_formula_sum   'Li8 Mn8 F40'
_cell_volume   677.70233202
_cell_formula_units_Z   8
loop_
 _symmetry_equiv_pos_site_id
 _symmetry_equiv_pos_as_xyz
  1  'x, y, z'
loop_
 _atom_site_type_symbol
 _atom_site_label
 _atom_site_symmetry_multiplicity
 _atom_site_fract_x
 _atom_site_fract_y
 _atom_site_fract_z
 _atom_site_occupancy
  Li  Li0  1  0.210892  0.216907  0.544431  1
  Li  Li1  1  0.616633  0.716907  0.044431  1
  Li  Li2  1  0.072202  0.044431  0.783093  1
  Li  Li3  1  0.166460  0.544431  0.283093  1
  Li  Li4  1  0.833540  0.455569  0.716907  1
  Li  Li5  1  0.927798  0.955569  0.216907  1
  Li  Li6  1  0.789108  0.783093  0.455569  1
  Li  Li7  1  0.383367  0.283093  0.955569  1
  Mn  Mn8  1  0.323918  0.047764  0.145861  1
  Mn  Mn9  1  0.871683  0.354139  0.047764  1
  Mn  Mn10  1  0.678058  0.145861  0.452236  1
  Mn  Mn11  1  0.725822  0.452236  0.354139  1
  Mn  Mn12  1  0.274178  0.547764  0.645861  1
  Mn  Mn13  1  0.321942  0.854139  0.547764  1
  Mn  Mn14  1  0.128317  0.645861  0.952236  1
  Mn  Mn15  1  0.676082  0.952236  0.854139  1
  F  F16  1  0.424013  0.164842  0.088841  1
  F  F17  1  0.041048  0.180014  0.123916  1
  F  F18  1  0.417132  0.123916  0.319986  1
  F  F19  1  0.835173  0.088841  0.335158  1
  F  F20  1  0.088856  0.411159  0.164842  1
  F  F21  1  0.721061  0.376084  0.180014  1
  F  F22  1  0.711294  0.521656  0.995752  1
  F  F23  1  0.262802  0.021656  0.495752  1
  F  F24  1  0.597146  0.319986  0.376084  1
  F  F25  1  0.444074  0.555704  0.285230  1
  F  F26  1  0.785453  0.055704  0.785230  1
  F  F27  1  0.998543  0.677758  0.085682  1
  F  F28  1  0.909382  0.177758  0.585682  1
  F  F29  1  0.000015  0.335158  0.411159  1
  F  F30  1  0.341156  0.714770  0.055704  1
  F  F31  1  0.499779  0.214770  0.555704  1
  F  F32  1  0.412861  0.085682  0.822242  1
  F  F33  1  0.823700  0.585682  0.322242  1
  F  F34  1  0.267050  0.495752  0.478344  1
  F  F35  1  0.215542  0.995752  0.978344  1
  F  F36  1  0.732950  0.504248  0.521656  1
  F  F37  1  0.784458  0.004248  0.021656  1
  F  F38  1  0.587139  0.914318  0.177758  1
  F  F39  1  0.176300  0.414318  0.677758  1
  F  F40  1  0.500221  0.785230  0.444296  1
  F  F41  1  0.658844  0.285230  0.944296  1
  F  F42  1  -0.000015  0.664842  0.588841  1
  F  F43  1  0.090618  0.822242  0.414318  1
  F  F44  1  0.001457  0.322242  0.914318  1
  F  F45  1  0.214547  0.944296  0.214770  1
  F  F46  1  0.555926  0.444296  0.714770  1
  F  F47  1  0.402854  0.680014  0.623916  1
  F  F48  1  0.737198  0.978344  0.504248  1
  F  F49  1  0.288706  0.478344  0.004248  1
  F  F50  1  0.278939  0.623916  0.819986  1
  F  F51  1  0.911144  0.588841  0.835158  1
  F  F52  1  0.164827  0.911159  0.664842  1
  F  F53  1  0.582868  0.876084  0.680014  1
  F  F54  1  0.958952  0.819986  0.876084  1
  F  F55  1  0.575986  0.835158  0.911159  1
