# generated using pymatgen
data_Na3FeBAsO7
_symmetry_space_group_name_H-M   'P 1'
_cell_length_a   9.11541434
_cell_length_b   6.86773638
_cell_length_c   5.29728572
_cell_angle_alpha   90.00000000
_cell_angle_beta   88.88561278
_cell_angle_gamma   90.00000000
_symmetry_Int_Tables_number   1
_chemical_formula_structural   Na3FeBAsO7
_chemical_formula_sum   'Na6 Fe2 B2 As2 O14'
_cell_volume   331.55934896
_cell_formula_units_Z   2
loop_
 _symmetry_equiv_pos_site_id
 _symmetry_equiv_pos_as_xyz
  1  'x, y, z'
loop_
 _atom_site_type_symbol
 _atom_site_label
 _atom_site_symmetry_multiplicity
 _atom_site_fract_x
 _atom_site_fract_y
 _atom_site_fract_z
 _atom_site_occupancy
  Na  Na0  1  0.072672  0.250000  0.755838  1
  Na  Na1  1  0.243239  0.999600  0.247861  1
  Na  Na2  1  0.243239  0.500400  0.247861  1
  Na  Na3  1  0.756761  0.499600  0.752139  1
  Na  Na4  1  0.756761  0.000399  0.752139  1
  Na  Na5  1  0.927328  0.750000  0.244162  1
  Fe  Fe6  1  0.330146  0.750000  0.778721  1
  Fe  Fe7  1  0.669854  0.250000  0.221279  1
  B  B8  1  0.062373  0.750000  0.734491  1
  B  B9  1  0.937627  0.250000  0.265509  1
  As  As10  1  0.423305  0.250000  0.707279  1
  As  As11  1  0.576695  0.750000  0.292721  1
  O  O12  1  0.084358  0.250000  0.297725  1
  O  O13  1  0.131033  0.750000  0.969919  1
  O  O14  1  0.166435  0.750000  0.532753  1
  O  O15  1  0.312453  0.054228  0.781721  1
  O  O16  1  0.312453  0.445772  0.781721  1
  O  O17  1  0.463209  0.250000  0.384728  1
  O  O18  1  0.412804  0.750000  0.139823  1
  O  O19  1  0.587196  0.250000  0.860177  1
  O  O20  1  0.536791  0.750000  0.615272  1
  O  O21  1  0.687547  0.554228  0.218279  1
  O  O22  1  0.687547  0.945772  0.218279  1
  O  O23  1  0.833565  0.250000  0.467247  1
  O  O24  1  0.868967  0.250000  0.030081  1
  O  O25  1  0.915642  0.750000  0.702275  1
