# generated using pymatgen
data_DyP2H9O10
_symmetry_space_group_name_H-M   'P 1'
_cell_length_a   7.27658127
_cell_length_b   9.26636117
_cell_length_c   13.71596539
_cell_angle_alpha   90.00000000
_cell_angle_beta   90.00000000
_cell_angle_gamma   90.00000000
_symmetry_Int_Tables_number   1
_chemical_formula_structural   DyP2H9O10
_chemical_formula_sum   'Dy4 P8 H36 O40'
_cell_volume   924.83229801
_cell_formula_units_Z   4
loop_
 _symmetry_equiv_pos_site_id
 _symmetry_equiv_pos_as_xyz
  1  'x, y, z'
loop_
 _atom_site_type_symbol
 _atom_site_label
 _atom_site_symmetry_multiplicity
 _atom_site_fract_x
 _atom_site_fract_y
 _atom_site_fract_z
 _atom_site_occupancy
  Dy  Dy0  1  0.750000  0.222179  0.250000  1
  Dy  Dy1  1  0.750000  0.277821  0.750000  1
  Dy  Dy2  1  0.250000  0.777821  0.750000  1
  Dy  Dy3  1  0.250000  0.722179  0.250000  1
  P  P4  1  0.909841  0.540285  0.424920  1
  P  P5  1  0.909841  0.959715  0.575080  1
  P  P6  1  0.590159  0.540285  0.075080  1
  P  P7  1  0.590159  0.959715  0.924920  1
  P  P8  1  0.090159  0.459715  0.575080  1
  P  P9  1  0.090159  0.040285  0.424920  1
  P  P10  1  0.409841  0.459715  0.924920  1
  P  P11  1  0.409841  0.040285  0.075080  1
  H  H12  1  0.479598  0.074716  0.299131  1
  H  H13  1  0.479598  0.425284  0.700869  1
  H  H14  1  0.020402  0.074716  0.200869  1
  H  H15  1  0.020402  0.425284  0.799131  1
  H  H16  1  0.520402  0.925284  0.700869  1
  H  H17  1  0.520402  0.574716  0.299131  1
  H  H18  1  0.979598  0.925284  0.799131  1
  H  H19  1  0.979598  0.574716  0.200869  1
  H  H20  1  0.761930  0.750000  0.500000  1
  H  H21  1  0.738070  0.750000  0.000000  1
  H  H22  1  0.238070  0.250000  0.500000  1
  H  H23  1  0.261930  0.250000  0.000000  1
  H  H24  1  0.561238  0.634414  0.403936  1
  H  H25  1  0.561238  0.865586  0.596064  1
  H  H26  1  0.938762  0.634414  0.096064  1
  H  H27  1  0.938762  0.865586  0.903936  1
  H  H28  1  0.438762  0.365586  0.596064  1
  H  H29  1  0.438762  0.134414  0.403936  1
  H  H30  1  0.061238  0.365586  0.903936  1
  H  H31  1  0.061238  0.134414  0.096064  1
  H  H32  1  0.846689  0.098842  0.900396  1
  H  H33  1  0.846689  0.401158  0.099604  1
  H  H34  1  0.653311  0.098842  0.599604  1
  H  H35  1  0.653311  0.401158  0.400396  1
  H  H36  1  0.153311  0.901158  0.099604  1
  H  H37  1  0.153311  0.598842  0.900396  1
  H  H38  1  0.346689  0.901158  0.400396  1
  H  H39  1  0.346689  0.598842  0.599604  1
  H  H40  1  0.627733  0.854077  0.321748  1
  H  H41  1  0.627733  0.645923  0.678252  1
  H  H42  1  0.872267  0.854077  0.178252  1
  H  H43  1  0.872267  0.645923  0.821748  1
  H  H44  1  0.372267  0.145923  0.678252  1
  H  H45  1  0.372267  0.354077  0.321748  1
  H  H46  1  0.127733  0.145923  0.821748  1
  H  H47  1  0.127733  0.354077  0.178252  1
  O  O48  1  0.480245  0.588549  0.165979  1
  O  O49  1  0.480245  0.911451  0.834021  1
  O  O50  1  0.019755  0.588549  0.334021  1
  O  O51  1  0.019755  0.911451  0.665979  1
  O  O52  1  0.519755  0.411451  0.834021  1
  O  O53  1  0.519755  0.088549  0.165979  1
  O  O54  1  0.980245  0.411451  0.665979  1
  O  O55  1  0.980245  0.088549  0.334021  1
  O  O56  1  0.758367  0.636844  0.043103  1
  O  O57  1  0.758367  0.863156  0.956897  1
  O  O58  1  0.741633  0.636844  0.456897  1
  O  O59  1  0.741633  0.863156  0.543103  1
  O  O60  1  0.241633  0.363156  0.956897  1
  O  O61  1  0.241633  0.136844  0.043103  1
  O  O62  1  0.258367  0.363156  0.543103  1
  O  O63  1  0.258367  0.136844  0.456897  1
  O  O64  1  0.455626  0.621901  0.354253  1
  O  O65  1  0.455626  0.878099  0.645747  1
  O  O66  1  0.044374  0.621901  0.145747  1
  O  O67  1  0.044374  0.878099  0.854253  1
  O  O68  1  0.544374  0.378099  0.645747  1
  O  O69  1  0.544374  0.121901  0.354253  1
  O  O70  1  0.955626  0.378099  0.854253  1
  O  O71  1  0.955626  0.121901  0.145747  1
  O  O72  1  0.255679  0.925143  0.350464  1
  O  O73  1  0.255679  0.574857  0.649536  1
  O  O74  1  0.244321  0.925143  0.149536  1
  O  O75  1  0.244321  0.574857  0.850464  1
  O  O76  1  0.744321  0.074857  0.649536  1
  O  O77  1  0.744321  0.425143  0.350464  1
  O  O78  1  0.755679  0.074857  0.850464  1
  O  O79  1  0.755679  0.425143  0.149536  1
  O  O80  1  0.445536  0.608155  0.983390  1
  O  O81  1  0.445536  0.891845  0.016610  1
  O  O82  1  0.054464  0.608155  0.516610  1
  O  O83  1  0.054464  0.891845  0.483390  1
  O  O84  1  0.554464  0.391845  0.016610  1
  O  O85  1  0.554464  0.108155  0.983390  1
  O  O86  1  0.945536  0.391845  0.483390  1
  O  O87  1  0.945536  0.108155  0.516610  1
