# generated using pymatgen
data_Ca3W2O9
_symmetry_space_group_name_H-M   'P 1'
_cell_length_a   8.57187922
_cell_length_b   7.79125208
_cell_length_c   9.31314051
_cell_angle_alpha   90.00000000
_cell_angle_beta   117.71465385
_cell_angle_gamma   90.00000000
_symmetry_Int_Tables_number   1
_chemical_formula_structural   Ca3W2O9
_chemical_formula_sum   'Ca6 W4 O18'
_cell_volume   550.62701071
_cell_formula_units_Z   2
loop_
 _symmetry_equiv_pos_site_id
 _symmetry_equiv_pos_as_xyz
  1  'x, y, z'
loop_
 _atom_site_type_symbol
 _atom_site_label
 _atom_site_symmetry_multiplicity
 _atom_site_fract_x
 _atom_site_fract_y
 _atom_site_fract_z
 _atom_site_occupancy
  Ca  Ca0  1  0.107719  0.250000  0.750257  1
  Ca  Ca1  1  0.000000  0.000000  0.000000  1
  Ca  Ca2  1  0.000000  0.500000  0.000000  1
  Ca  Ca3  1  0.371502  0.250000  0.215462  1
  Ca  Ca4  1  0.628498  0.750000  0.784538  1
  Ca  Ca5  1  0.892281  0.750000  0.249743  1
  W  W6  1  0.162554  0.750000  0.726898  1
  W  W7  1  0.556099  0.250000  0.707534  1
  W  W8  1  0.443901  0.750000  0.292466  1
  W  W9  1  0.837446  0.250000  0.273102  1
  O  O10  1  0.117566  0.250000  0.991532  1
  O  O11  1  0.073836  0.557969  0.775942  1
  O  O12  1  0.073836  0.942031  0.775942  1
  O  O13  1  0.108486  0.750000  0.514946  1
  O  O14  1  0.366958  0.250000  0.743214  1
  O  O15  1  0.399157  0.750000  0.842232  1
  O  O16  1  0.309728  0.557996  0.204010  1
  O  O17  1  0.309728  0.942004  0.204010  1
  O  O18  1  0.476095  0.250000  0.491339  1
  O  O19  1  0.523905  0.750000  0.508661  1
  O  O20  1  0.690272  0.057996  0.795990  1
  O  O21  1  0.690272  0.442004  0.795990  1
  O  O22  1  0.600843  0.250000  0.157768  1
  O  O23  1  0.633042  0.750000  0.256786  1
  O  O24  1  0.891514  0.250000  0.485054  1
  O  O25  1  0.926164  0.057969  0.224058  1
  O  O26  1  0.926164  0.442031  0.224058  1
  O  O27  1  0.882434  0.750000  0.008468  1
