# generated using pymatgen
data_MnCu4H14(SO9)2
_symmetry_space_group_name_H-M   'P 1'
_cell_length_a   6.09073730
_cell_length_b   11.57137097
_cell_length_c   11.36423323
_cell_angle_alpha   80.22408874
_cell_angle_beta   90.00000000
_cell_angle_gamma   74.74108568
_symmetry_Int_Tables_number   1
_chemical_formula_structural   MnCu4H14(SO9)2
_chemical_formula_sum   'Mn2 Cu8 H28 S4 O36'
_cell_volume   760.63317930
_cell_formula_units_Z   2
loop_
 _symmetry_equiv_pos_site_id
 _symmetry_equiv_pos_as_xyz
  1  'x, y, z'
loop_
 _atom_site_type_symbol
 _atom_site_label
 _atom_site_symmetry_multiplicity
 _atom_site_fract_x
 _atom_site_fract_y
 _atom_site_fract_z
 _atom_site_occupancy
  Mn  Mn0  1  0.927220  0.925287  0.266147  1
  Mn  Mn1  1  0.852507  0.074713  0.733853  1
  Cu  Cu2  1  0.758052  0.498213  0.001565  1
  Cu  Cu3  1  0.005114  0.524326  0.745019  1
  Cu  Cu4  1  0.503969  0.525571  0.747387  1
  Cu  Cu5  1  0.772139  0.502417  0.497583  1
  Cu  Cu6  1  0.274556  0.497583  0.502417  1
  Cu  Cu7  1  0.029540  0.474429  0.252613  1
  Cu  Cu8  1  0.529440  0.475674  0.254981  1
  Cu  Cu9  1  0.256265  0.501787  0.998435  1
  H  H10  1  0.241422  0.930113  0.838386  1
  H  H11  1  0.916911  0.889620  0.927996  1
  H  H12  1  0.646094  0.934038  0.932492  1
  H  H13  1  0.253693  0.936907  0.700884  1
  H  H14  1  0.908600  0.879562  0.621740  1
  H  H15  1  0.642945  0.928328  0.586078  1
  H  H16  1  0.587657  0.835766  0.350736  1
  H  H17  1  0.591224  0.833750  0.207056  1
  H  H18  1  0.682151  0.684507  0.821376  1
  H  H19  1  0.174369  0.683727  0.828127  1
  H  H20  1  0.960740  0.677377  0.488355  1
  H  H21  1  0.723258  0.649838  0.301430  1
  H  H22  1  0.913014  0.668995  0.036440  1
  H  H23  1  0.197560  0.644470  0.293549  1
  H  H24  1  0.842030  0.355530  0.706451  1
  H  H25  1  0.582008  0.331005  0.963560  1
  H  H26  1  0.373096  0.350162  0.698570  1
  H  H27  1  0.638117  0.322623  0.511645  1
  H  H28  1  0.858097  0.316273  0.171873  1
  H  H29  1  0.366658  0.315493  0.178624  1
  H  H30  1  0.424974  0.166250  0.792944  1
  H  H31  1  0.423423  0.164234  0.649264  1
  H  H32  1  0.571272  0.071672  0.413923  1
  H  H33  1  0.788161  0.120438  0.378260  1
  H  H34  1  0.190599  0.063093  0.299116  1
  H  H35  1  0.580132  0.065962  0.067508  1
  H  H36  1  0.806532  0.110380  0.072004  1
  H  H37  1  0.171534  0.069887  0.161614  1
  S  S38  1  0.310453  0.788706  0.518707  1
  S  S39  1  0.319017  0.769060  0.061458  1
  S  S40  1  0.088076  0.230940  0.938542  1
  S  S41  1  0.099160  0.211294  0.481293  1
  O  O42  1  0.776963  0.948559  0.888453  1
  O  O43  1  0.762752  0.933837  0.640792  1
  O  O44  1  0.206431  0.010251  0.237292  1
  O  O45  1  0.194817  0.808376  0.941035  1
  O  O46  1  0.206334  0.827531  0.628808  1
  O  O47  1  0.469746  0.862368  0.474260  1
  O  O48  1  0.688652  0.812353  0.283010  1
  O  O49  1  0.123196  0.804623  0.425724  1
  O  O50  1  0.491487  0.838260  0.066760  1
  O  O51  1  0.151360  0.788408  0.157033  1
  O  O52  1  0.720204  0.596379  0.827483  1
  O  O53  1  0.435779  0.656953  0.547252  1
  O  O54  1  0.210800  0.596082  0.826547  1
  O  O55  1  0.976542  0.595452  0.534183  1
  O  O56  1  0.434763  0.635792  0.075584  1
  O  O57  1  0.747453  0.559905  0.321888  1
  O  O58  1  0.965165  0.580661  0.054671  1
  O  O59  1  0.238270  0.556002  0.324152  1
  O  O60  1  0.794273  0.443998  0.675848  1
  O  O61  1  0.545826  0.419339  0.945329  1
  O  O62  1  0.307358  0.440095  0.678112  1
  O  O63  1  0.070555  0.364208  0.924416  1
  O  O64  1  0.571994  0.404548  0.465817  1
  O  O65  1  0.806883  0.403918  0.173453  1
  O  O66  1  0.092730  0.343047  0.452748  1
  O  O67  1  0.316583  0.403621  0.172517  1
  O  O68  1  0.939769  0.211592  0.842967  1
  O  O69  1  0.329748  0.161740  0.933240  1
  O  O70  1  0.927819  0.195377  0.574276  1
  O  O71  1  0.501004  0.187647  0.716990  1
  O  O72  1  0.332114  0.137632  0.525740  1
  O  O73  1  0.033864  0.172469  0.371192  1
  O  O74  1  0.003193  0.191624  0.058965  1
  O  O75  1  0.216682  0.989749  0.762708  1
  O  O76  1  0.696589  0.066163  0.359208  1
  O  O77  1  0.725523  0.051441  0.111547  1
