# generated using pymatgen
data_Li2Co2Si2O7
_symmetry_space_group_name_H-M   'P 1'
_cell_length_a   4.98825145
_cell_length_b   5.26032295
_cell_length_c   13.41795568
_cell_angle_alpha   90.00000000
_cell_angle_beta   90.00000000
_cell_angle_gamma   118.30332939
_symmetry_Int_Tables_number   1
_chemical_formula_structural   Li2Co2Si2O7
_chemical_formula_sum   'Li4 Co4 Si4 O14'
_cell_volume   309.99286609
_cell_formula_units_Z   2
loop_
 _symmetry_equiv_pos_site_id
 _symmetry_equiv_pos_as_xyz
  1  'x, y, z'
loop_
 _atom_site_type_symbol
 _atom_site_label
 _atom_site_symmetry_multiplicity
 _atom_site_fract_x
 _atom_site_fract_y
 _atom_site_fract_z
 _atom_site_occupancy
  Li  Li0  1  0.011082  0.000000  0.000000  1
  Li  Li1  1  0.011082  0.000000  0.500000  1
  Li  Li2  1  0.014386  0.039585  0.250000  1
  Li  Li3  1  0.974801  0.960415  0.750000  1
  Co  Co4  1  0.346454  0.566947  0.581941  1
  Co  Co5  1  0.346454  0.566947  0.918059  1
  Co  Co6  1  0.779508  0.433053  0.081941  1
  Co  Co7  1  0.779508  0.433053  0.418059  1
  Si  Si8  1  0.433279  0.769478  0.139558  1
  Si  Si9  1  0.433279  0.769478  0.360442  1
  Si  Si10  1  0.663801  0.230522  0.639558  1
  Si  Si11  1  0.663801  0.230522  0.860442  1
  O  O12  1  0.130203  0.808315  0.124483  1
  O  O13  1  0.130203  0.808315  0.375517  1
  O  O14  1  0.429751  0.622776  0.250000  1
  O  O15  1  0.672468  0.924780  0.868812  1
  O  O16  1  0.672468  0.924780  0.631188  1
  O  O17  1  0.443780  0.532782  0.061269  1
  O  O18  1  0.443780  0.532782  0.438731  1
  O  O19  1  0.321887  0.191685  0.875517  1
  O  O20  1  0.321887  0.191685  0.624483  1
  O  O21  1  0.806976  0.377224  0.750000  1
  O  O22  1  0.747687  0.075220  0.368812  1
  O  O23  1  0.747687  0.075220  0.131188  1
  O  O24  1  0.910997  0.467218  0.561269  1
  O  O25  1  0.910997  0.467218  0.938731  1
