# generated using pymatgen
data_C6S3(N3Cl)2
_symmetry_space_group_name_H-M   'P 1'
_cell_length_a   7.90951694
_cell_length_b   16.03455082
_cell_length_c   12.34802444
_cell_angle_alpha   90.00000000
_cell_angle_beta   99.16027511
_cell_angle_gamma   90.00000000
_symmetry_Int_Tables_number   1
_chemical_formula_structural   C6S3(N3Cl)2
_chemical_formula_sum   'C24 S12 N24 Cl8'
_cell_volume   1546.07304450
_cell_formula_units_Z   4
loop_
 _symmetry_equiv_pos_site_id
 _symmetry_equiv_pos_as_xyz
  1  'x, y, z'
loop_
 _atom_site_type_symbol
 _atom_site_label
 _atom_site_symmetry_multiplicity
 _atom_site_fract_x
 _atom_site_fract_y
 _atom_site_fract_z
 _atom_site_occupancy
  C  C0  1  0.299869  0.731007  0.419940  1
  C  C1  1  0.799869  0.768993  0.919940  1
  C  C2  1  0.700131  0.268993  0.580060  1
  C  C3  1  0.200131  0.231007  0.080060  1
  C  C4  1  0.629517  0.838312  0.304826  1
  C  C5  1  0.129517  0.661688  0.804826  1
  C  C6  1  0.370483  0.161688  0.695174  1
  C  C7  1  0.870483  0.338312  0.195174  1
  C  C8  1  0.408512  0.777691  0.355419  1
  C  C9  1  0.908512  0.722309  0.855419  1
  C  C10  1  0.591488  0.222309  0.644581  1
  C  C11  1  0.091488  0.277691  0.144581  1
  C  C12  1  0.805854  0.862055  0.316257  1
  C  C13  1  0.305854  0.637945  0.816257  1
  C  C14  1  0.194146  0.137945  0.683743  1
  C  C15  1  0.694146  0.362055  0.183743  1
  C  C16  1  0.728441  0.596494  0.333228  1
  C  C17  1  0.228441  0.903506  0.833228  1
  C  C18  1  0.271559  0.403506  0.666772  1
  C  C19  1  0.771559  0.096494  0.166772  1
  C  C20  1  0.592155  0.599046  0.248117  1
  C  C21  1  0.092155  0.900954  0.748117  1
  C  C22  1  0.407845  0.400954  0.751883  1
  C  C23  1  0.907845  0.099046  0.251883  1
  S  S24  1  0.019168  0.652135  0.433425  1
  S  S25  1  0.519168  0.847865  0.933425  1
  S  S26  1  0.980832  0.347865  0.566575  1
  S  S27  1  0.480832  0.152135  0.066575  1
  S  S28  1  0.336552  0.817287  0.224888  1
  S  S29  1  0.836552  0.682713  0.724888  1
  S  S30  1  0.663448  0.182713  0.775112  1
  S  S31  1  0.163448  0.317287  0.275112  1
  S  S32  1  0.473606  0.578967  0.130382  1
  S  S33  1  0.973606  0.921033  0.630382  1
  S  S34  1  0.526394  0.421033  0.869618  1
  S  S35  1  0.026394  0.078967  0.369618  1
  N  N36  1  0.153542  0.704521  0.371763  1
  N  N37  1  0.653542  0.795479  0.871763  1
  N  N38  1  0.846458  0.295479  0.628237  1
  N  N39  1  0.346458  0.204521  0.128237  1
  N  N40  1  0.523140  0.855989  0.212638  1
  N  N41  1  0.023140  0.644011  0.712638  1
  N  N42  1  0.476860  0.144011  0.787362  1
  N  N43  1  0.976860  0.355989  0.287362  1
  N  N44  1  0.572602  0.795571  0.387052  1
  N  N45  1  0.072602  0.704429  0.887052  1
  N  N46  1  0.427398  0.204429  0.612948  1
  N  N47  1  0.927398  0.295571  0.112948  1
  N  N48  1  0.951195  0.879340  0.326245  1
  N  N49  1  0.451195  0.620660  0.826245  1
  N  N50  1  0.048805  0.120660  0.673755  1
  N  N51  1  0.548805  0.379340  0.173755  1
  N  N52  1  0.871276  0.635575  0.327087  1
  N  N53  1  0.371276  0.864425  0.827087  1
  N  N54  1  0.128724  0.364425  0.672913  1
  N  N55  1  0.628724  0.135575  0.172913  1
  N  N56  1  0.291049  0.546081  0.127954  1
  N  N57  1  0.791049  0.953919  0.627954  1
  N  N58  1  0.708951  0.453919  0.872046  1
  N  N59  1  0.208951  0.046081  0.372046  1
  Cl  Cl60  1  0.377691  0.716814  0.558737  1
  Cl  Cl61  1  0.877691  0.783186  0.058737  1
  Cl  Cl62  1  0.622309  0.283186  0.441263  1
  Cl  Cl63  1  0.122309  0.216814  0.941263  1
  Cl  Cl64  1  0.684789  0.547703  0.454938  1
  Cl  Cl65  1  0.184789  0.952297  0.954938  1
  Cl  Cl66  1  0.315211  0.452297  0.545062  1
  Cl  Cl67  1  0.815211  0.047703  0.045062  1
