# generated using pymatgen
data_LiFePO4
_symmetry_space_group_name_H-M   'P 1'
_cell_length_a   19.67569399
_cell_length_b   5.86713045
_cell_length_c   8.23462035
_cell_angle_alpha   90.00000000
_cell_angle_beta   90.00000000
_cell_angle_gamma   90.00000000
_symmetry_Int_Tables_number   1
_chemical_formula_structural   LiFePO4
_chemical_formula_sum   'Li12 Fe12 P12 O48'
_cell_volume   950.60344781
_cell_formula_units_Z   12
loop_
 _symmetry_equiv_pos_site_id
 _symmetry_equiv_pos_as_xyz
  1  'x, y, z'
loop_
 _atom_site_type_symbol
 _atom_site_label
 _atom_site_symmetry_multiplicity
 _atom_site_fract_x
 _atom_site_fract_y
 _atom_site_fract_z
 _atom_site_occupancy
  Li  Li0  1  0.988745  0.103720  0.735903  1
  Li  Li1  1  0.177072  0.836117  0.246893  1
  Li  Li2  1  0.157386  0.184882  0.743355  1
  Li  Li3  1  0.342614  0.684882  0.243355  1
  Li  Li4  1  0.322928  0.336117  0.746893  1
  Li  Li5  1  0.511255  0.603720  0.235903  1
  Li  Li6  1  0.488745  0.103720  0.764097  1
  Li  Li7  1  0.677072  0.836117  0.253107  1
  Li  Li8  1  0.657386  0.184882  0.756645  1
  Li  Li9  1  0.842614  0.684882  0.256645  1
  Li  Li10  1  0.822928  0.336117  0.753107  1
  Li  Li11  1  0.011255  0.603720  0.264097  1
  Fe  Fe12  1  0.070154  0.289503  0.006258  1
  Fe  Fe13  1  0.099854  0.649592  0.547955  1
  Fe  Fe14  1  0.235062  0.285238  0.449404  1
  Fe  Fe15  1  0.264938  0.785238  0.949404  1
  Fe  Fe16  1  0.400146  0.149592  0.047955  1
  Fe  Fe17  1  0.429846  0.789503  0.506258  1
  Fe  Fe18  1  0.570154  0.289503  0.493742  1
  Fe  Fe19  1  0.599854  0.649592  0.952045  1
  Fe  Fe20  1  0.735062  0.285238  0.050596  1
  Fe  Fe21  1  0.764938  0.785238  0.550596  1
  Fe  Fe22  1  0.900146  0.149592  0.452045  1
  Fe  Fe23  1  0.929846  0.789503  0.993742  1
  P  P24  1  0.071515  0.161044  0.411629  1
  P  P25  1  0.091715  0.786145  0.919524  1
  P  P26  1  0.240168  0.274275  0.073856  1
  P  P27  1  0.259832  0.774275  0.573856  1
  P  P28  1  0.408285  0.286145  0.419524  1
  P  P29  1  0.428485  0.661044  0.911629  1
  P  P30  1  0.571515  0.161044  0.088371  1
  P  P31  1  0.591715  0.786145  0.580476  1
  P  P32  1  0.740168  0.274275  0.426144  1
  P  P33  1  0.759832  0.774275  0.926144  1
  P  P34  1  0.908285  0.286145  0.080476  1
  P  P35  1  0.928485  0.661044  0.588371  1
  O  O36  1  0.004283  0.145715  0.504424  1
  O  O37  1  0.033046  0.745036  0.044344  1
  O  O38  1  0.079026  0.017086  0.829007  1
  O  O39  1  0.090273  0.588930  0.793226  1
  O  O40  1  0.063640  0.301008  0.252840  1
  O  O41  1  0.100418  0.918913  0.379774  1
  O  O42  1  0.124858  0.295880  0.519698  1
  O  O43  1  0.160052  0.794686  0.010981  1
  O  O44  1  0.173568  0.296318  0.979012  1
  O  O45  1  0.208318  0.643575  0.460260  1
  O  O46  1  0.230283  0.009953  0.622113  1
  O  O47  1  0.267797  0.626225  0.730380  1
  O  O48  1  0.232203  0.126225  0.230380  1
  O  O49  1  0.269717  0.509953  0.122113  1
  O  O50  1  0.291682  0.143575  0.960260  1
  O  O51  1  0.326432  0.796318  0.479012  1
  O  O52  1  0.339948  0.294686  0.510981  1
  O  O53  1  0.375142  0.795880  0.019698  1
  O  O54  1  0.399582  0.418913  0.879774  1
  O  O55  1  0.436360  0.801008  0.752840  1
  O  O56  1  0.409727  0.088930  0.293226  1
  O  O57  1  0.420974  0.517086  0.329007  1
  O  O58  1  0.466954  0.245036  0.544344  1
  O  O59  1  0.495717  0.645715  0.004424  1
  O  O60  1  0.504283  0.145715  0.995576  1
  O  O61  1  0.533046  0.745036  0.455656  1
  O  O62  1  0.579026  0.017086  0.670993  1
  O  O63  1  0.590273  0.588930  0.706774  1
  O  O64  1  0.563640  0.301008  0.247160  1
  O  O65  1  0.600418  0.918913  0.120226  1
  O  O66  1  0.624858  0.295880  0.980302  1
  O  O67  1  0.660052  0.794686  0.489019  1
  O  O68  1  0.673568  0.296318  0.520988  1
  O  O69  1  0.708318  0.643575  0.039740  1
  O  O70  1  0.730283  0.009953  0.877887  1
  O  O71  1  0.767797  0.626225  0.769620  1
  O  O72  1  0.732203  0.126225  0.269620  1
  O  O73  1  0.769717  0.509953  0.377887  1
  O  O74  1  0.791682  0.143575  0.539740  1
  O  O75  1  0.826432  0.796318  0.020988  1
  O  O76  1  0.839948  0.294686  0.989019  1
  O  O77  1  0.875142  0.795880  0.480302  1
  O  O78  1  0.899582  0.418913  0.620226  1
  O  O79  1  0.936360  0.801008  0.747160  1
  O  O80  1  0.909727  0.088930  0.206774  1
  O  O81  1  0.920974  0.517086  0.170993  1
  O  O82  1  0.966954  0.245036  0.955656  1
  O  O83  1  0.995717  0.645715  0.495576  1
