# generated using pymatgen
data_Na17(WO3)19
_symmetry_space_group_name_H-M   'P 1'
_cell_length_a   75.54589068
_cell_length_b   16.39541512
_cell_length_c   8.88989970
_cell_angle_alpha   29.75513571
_cell_angle_beta   26.54365942
_cell_angle_gamma   14.01758269
_symmetry_Int_Tables_number   1
_chemical_formula_structural   Na17(WO3)19
_chemical_formula_sum   'Na17 W19 O57'
_cell_volume   1191.87112625
_cell_formula_units_Z   1
loop_
 _symmetry_equiv_pos_site_id
 _symmetry_equiv_pos_as_xyz
  1  'x, y, z'
loop_
 _atom_site_type_symbol
 _atom_site_label
 _atom_site_symmetry_multiplicity
 _atom_site_fract_x
 _atom_site_fract_y
 _atom_site_fract_z
 _atom_site_occupancy
  Na  Na0  1  0.053108  0.996918  0.000544  1
  Na  Na1  1  0.106359  0.996065  0.998585  1
  Na  Na2  1  0.158847  0.997016  0.996591  1
  Na  Na3  1  0.211081  0.998713  0.998371  1
  Na  Na4  1  0.263386  0.999234  0.999831  1
  Na  Na5  1  0.316103  0.999270  0.999402  1
  Na  Na6  1  0.367792  0.001847  0.000841  1
  Na  Na7  1  0.420740  0.000101  0.004130  1
  Na  Na8  1  0.525223  0.005877  0.998856  1
  Na  Na9  1  0.577660  0.004070  0.002418  1
  Na  Na10  1  0.630375  0.004381  0.003710  1
  Na  Na11  1  0.683685  0.002378  0.998596  1
  Na  Na12  1  0.736947  0.000148  0.998621  1
  Na  Na13  1  0.789716  0.997901  0.002151  1
  Na  Na14  1  0.841887  0.999730  0.002356  1
  Na  Na15  1  0.895054  0.000523  0.996605  1
  Na  Na16  1  0.947876  0.998829  0.997564  1
  W  W17  1  0.025953  0.503375  0.496864  1
  W  W18  1  0.077926  0.504797  0.500848  1
  W  W19  1  0.131363  0.503599  0.497665  1
  W  W20  1  0.183895  0.498075  0.504233  1
  W  W21  1  0.237437  0.497499  0.499676  1
  W  W22  1  0.289321  0.505237  0.494084  1
  W  W23  1  0.342551  0.495965  0.502074  1
  W  W24  1  0.395403  0.499237  0.496464  1
  W  W25  1  0.447612  0.496515  0.504620  1
  W  W26  1  0.498873  0.505106  0.500427  1
  W  W27  1  0.551929  0.502488  0.499871  1
  W  W28  1  0.604240  0.503163  0.503908  1
  W  W29  1  0.657343  0.499761  0.504171  1
  W  W30  1  0.710852  0.498439  0.501386  1
  W  W31  1  0.762560  0.502855  0.501397  1
  W  W32  1  0.816590  0.499250  0.493917  1
  W  W33  1  0.870032  0.494048  0.496039  1
  W  W34  1  0.920866  0.500772  0.501077  1
  W  W35  1  0.975107  0.493093  0.498629  1
  O  O36  1  0.023928  0.508910  0.001442  1
  O  O37  1  0.998282  0.508310  0.504156  1
  O  O38  1  0.078574  0.493416  0.013426  1
  O  O39  1  0.052146  0.499279  0.505506  1
  O  O40  1  0.133542  0.500064  0.986830  1
  O  O41  1  0.107496  0.487769  0.497675  1
  O  O42  1  0.028585  0.985364  0.501268  1
  O  O43  1  0.185173  0.493720  0.001952  1
  O  O44  1  0.161163  0.489826  0.489106  1
  O  O45  1  0.076694  0.015893  0.490513  1
  O  O46  1  0.235326  0.506169  0.002383  1
  O  O47  1  0.208732  0.513480  0.494505  1
  O  O48  1  0.127516  0.018297  0.501844  1
  O  O49  1  0.287698  0.509645  0.999308  1
  O  O50  1  0.260370  0.507165  0.507307  1
  O  O51  1  0.338526  0.505958  0.015113  1
  O  O52  1  0.182913  0.002612  0.505543  1
  O  O53  1  0.312152  0.511411  0.512346  1
  O  O54  1  0.237168  0.999404  0.499764  1
  O  O55  1  0.395058  0.504849  0.989247  1
  O  O56  1  0.368441  0.501651  0.502586  1
  O  O57  1  0.448839  0.493899  0.000510  1
  O  O58  1  0.289239  0.002028  0.497304  1
  O  O59  1  0.421665  0.493789  0.498469  1
  O  O60  1  0.499749  0.493172  0.013012  1
  O  O61  1  0.342466  0.998628  0.497412  1
  O  O62  1  0.476079  0.489754  0.497368  1
  O  O63  1  0.554062  0.491336  0.999109  1
  O  O64  1  0.395347  0.990311  0.516242  1
  O  O65  1  0.527794  0.495007  0.505879  1
  O  O66  1  0.609187  0.489809  0.987868  1
  O  O67  1  0.445413  0.011907  0.502186  1
  O  O68  1  0.578036  0.498960  0.501843  1
  O  O69  1  0.504227  0.982965  0.485438  1
  O  O70  1  0.660034  0.496422  0.983904  1
  O  O71  1  0.635135  0.489591  0.492042  1
  O  O72  1  0.557229  0.982666  0.492181  1
  O  O73  1  0.710861  0.493379  0.010503  1
  O  O74  1  0.684529  0.497631  0.496548  1
  O  O75  1  0.762694  0.502802  0.996884  1
  O  O76  1  0.604477  0.008786  0.493230  1
  O  O77  1  0.738441  0.496543  0.492733  1
  O  O78  1  0.816979  0.503461  0.987869  1
  O  O79  1  0.660135  0.987397  0.505945  1
  O  O80  1  0.789889  0.495755  0.504433  1
  O  O81  1  0.864313  0.511555  0.012642  1
  O  O82  1  0.707722  0.014624  0.495630  1
  O  O83  1  0.837080  0.519129  0.508540  1
  O  O84  1  0.918412  0.509999  0.010996  1
  O  O85  1  0.761055  0.009591  0.501588  1
  O  O86  1  0.897251  0.492064  0.501114  1
  O  O87  1  0.975196  0.498441  0.989114  1
  O  O88  1  0.816541  0.999239  0.494298  1
  O  O89  1  0.946887  0.502011  0.493693  1
  O  O90  1  0.868491  0.998338  0.501951  1
  O  O91  1  0.921831  0.989739  0.510479  1
  O  O92  1  0.973857  -0.000194  0.502707  1
