# generated using pymatgen
data_Mo3H9I3(ClO)4
_symmetry_space_group_name_H-M   'P 1'
_cell_length_a   18.59298255
_cell_length_b   10.23968656
_cell_length_c   9.91552924
_cell_angle_alpha   90.00000000
_cell_angle_beta   99.24909097
_cell_angle_gamma   90.00000000
_symmetry_Int_Tables_number   1
_chemical_formula_structural   Mo3H9I3(ClO)4
_chemical_formula_sum   'Mo12 H36 I12 Cl16 O16'
_cell_volume   1863.23785934
_cell_formula_units_Z   4
loop_
 _symmetry_equiv_pos_site_id
 _symmetry_equiv_pos_as_xyz
  1  'x, y, z'
loop_
 _atom_site_type_symbol
 _atom_site_label
 _atom_site_symmetry_multiplicity
 _atom_site_fract_x
 _atom_site_fract_y
 _atom_site_fract_z
 _atom_site_occupancy
  Mo  Mo0  1  0.501744  0.817484  0.906051  1
  Mo  Mo1  1  0.998256  0.317484  0.093949  1
  Mo  Mo2  1  0.498256  0.182516  0.093949  1
  Mo  Mo3  1  0.001744  0.682516  0.906051  1
  Mo  Mo4  1  0.500158  0.083298  0.829441  1
  Mo  Mo5  1  0.999842  0.583298  0.170559  1
  Mo  Mo6  1  0.499842  0.916702  0.170559  1
  Mo  Mo7  1  0.000158  0.416702  0.829441  1
  Mo  Mo8  1  0.613741  0.002807  0.035481  1
  Mo  Mo9  1  0.886259  0.502807  0.964519  1
  Mo  Mo10  1  0.386259  0.997193  0.964519  1
  Mo  Mo11  1  0.113741  0.497193  0.035481  1
  H  H12  1  0.351215  0.767056  0.356563  1
  H  H13  1  0.148785  0.267056  0.643437  1
  H  H14  1  0.648785  0.232944  0.643437  1
  H  H15  1  0.851215  0.732944  0.356563  1
  H  H16  1  0.709692  0.314085  0.736754  1
  H  H17  1  0.790308  0.814085  0.263246  1
  H  H18  1  0.290308  0.685915  0.263246  1
  H  H19  1  0.209692  0.185915  0.736754  1
  H  H20  1  0.245695  0.170542  0.391782  1
  H  H21  1  0.254305  0.670542  0.608218  1
  H  H22  1  0.754305  0.829458  0.608218  1
  H  H23  1  0.745695  0.329458  0.391782  1
  H  H24  1  0.302533  0.298663  0.455262  1
  H  H25  1  0.197467  0.798663  0.544738  1
  H  H26  1  0.697467  0.701337  0.544738  1
  H  H27  1  0.802533  0.201337  0.455262  1
  H  H28  1  0.259217  0.733817  0.446099  1
  H  H29  1  0.240783  0.233817  0.553901  1
  H  H30  1  0.740783  0.266183  0.553901  1
  H  H31  1  0.759217  0.766183  0.446099  1
  H  H32  1  0.851183  0.916973  0.751579  1
  H  H33  1  0.648817  0.416973  0.248421  1
  H  H34  1  0.148817  0.083027  0.248421  1
  H  H35  1  0.351183  0.583027  0.751579  1
  H  H36  1  0.779466  0.951977  0.807531  1
  H  H37  1  0.720534  0.451977  0.192469  1
  H  H38  1  0.220534  0.048023  0.192469  1
  H  H39  1  0.279466  0.548023  0.807531  1
  H  H40  1  0.619602  0.579201  0.636284  1
  H  H41  1  0.880398  0.079201  0.363716  1
  H  H42  1  0.380398  0.420799  0.363716  1
  H  H43  1  0.119602  0.920799  0.636284  1
  H  H44  1  0.611294  0.558782  0.480178  1
  H  H45  1  0.888706  0.058782  0.519822  1
  H  H46  1  0.388706  0.441218  0.519822  1
  H  H47  1  0.111294  0.941218  0.480178  1
  I  I48  1  0.499081  0.568832  0.779540  1
  I  I49  1  0.000919  0.068832  0.220460  1
  I  I50  1  0.500919  0.431168  0.220460  1
  I  I51  1  0.999081  0.931168  0.779540  1
  I  I52  1  0.507712  0.210299  0.579765  1
  I  I53  1  0.992288  0.710299  0.420235  1
  I  I54  1  0.492288  0.789701  0.420235  1
  I  I55  1  0.007712  0.289701  0.579765  1
  I  I56  1  0.767927  0.014155  0.078203  1
  I  I57  1  0.732073  0.514155  0.921797  1
  I  I58  1  0.232073  0.985845  0.921797  1
  I  I59  1  0.267927  0.485845  0.078203  1
  Cl  Cl60  1  0.600889  0.919245  0.792062  1
  Cl  Cl61  1  0.899111  0.419245  0.207938  1
  Cl  Cl62  1  0.399111  0.080755  0.207938  1
  Cl  Cl63  1  0.100889  0.580755  0.792062  1
  Cl  Cl64  1  0.600956  0.766689  0.107397  1
  Cl  Cl65  1  0.899044  0.266689  0.892603  1
  Cl  Cl66  1  0.399044  0.233311  0.892603  1
  Cl  Cl67  1  0.100956  0.733311  0.107397  1
  Cl  Cl68  1  0.401751  0.916525  0.729815  1
  Cl  Cl69  1  0.098249  0.416525  0.270185  1
  Cl  Cl70  1  0.598249  0.083475  0.270185  1
  Cl  Cl71  1  0.901751  0.583475  0.729815  1
  Cl  Cl72  1  0.402745  0.761941  0.043745  1
  Cl  Cl73  1  0.097255  0.261941  0.956255  1
  Cl  Cl74  1  0.597255  0.238059  0.956255  1
  Cl  Cl75  1  0.902745  0.738059  0.043745  1
  O  O76  1  0.297716  0.756141  0.332251  1
  O  O77  1  0.202284  0.256141  0.667749  1
  O  O78  1  0.702284  0.243859  0.667749  1
  O  O79  1  0.797716  0.743859  0.332251  1
  O  O80  1  0.227204  0.718369  0.524709  1
  O  O81  1  0.272796  0.218369  0.475291  1
  O  O82  1  0.772796  0.281631  0.475291  1
  O  O83  1  0.727204  0.781631  0.524709  1
  O  O84  1  0.297836  0.579514  0.725624  1
  O  O85  1  0.202164  0.079514  0.274376  1
  O  O86  1  0.702164  0.420486  0.274376  1
  O  O87  1  0.797836  0.920486  0.725624  1
  O  O88  1  0.148247  0.925150  0.561387  1
  O  O89  1  0.351753  0.425150  0.438613  1
  O  O90  1  0.851753  0.074850  0.438613  1
  O  O91  1  0.648247  0.574850  0.561387  1
