# generated using pymatgen
data_InRe4H8NO20
_symmetry_space_group_name_H-M   'P 1'
_cell_length_a   12.42959135
_cell_length_b   12.42959135
_cell_length_c   6.16033481
_cell_angle_alpha   90.00000000
_cell_angle_beta   90.00000000
_cell_angle_gamma   90.00000000
_symmetry_Int_Tables_number   1
_chemical_formula_structural   InRe4H8NO20
_chemical_formula_sum   'In2 Re8 H16 N2 O40'
_cell_volume   951.73933173
_cell_formula_units_Z   2
loop_
 _symmetry_equiv_pos_site_id
 _symmetry_equiv_pos_as_xyz
  1  'x, y, z'
loop_
 _atom_site_type_symbol
 _atom_site_label
 _atom_site_symmetry_multiplicity
 _atom_site_fract_x
 _atom_site_fract_y
 _atom_site_fract_z
 _atom_site_occupancy
  In  In0  1  0.000000  0.500000  0.250000  1
  In  In1  1  0.500000  0.000000  0.750000  1
  Re  Re2  1  0.274815  0.407264  0.977934  1
  Re  Re3  1  0.225185  0.907264  0.477934  1
  Re  Re4  1  0.592736  0.274815  0.022066  1
  Re  Re5  1  0.907264  0.774815  0.522066  1
  Re  Re6  1  0.725185  0.592736  0.977934  1
  Re  Re7  1  0.774815  0.092736  0.477934  1
  Re  Re8  1  0.407264  0.725185  0.022066  1
  Re  Re9  1  0.092736  0.225185  0.522066  1
  H  H10  1  0.194236  0.513306  0.528392  1
  H  H11  1  0.305764  0.013306  0.028392  1
  H  H12  1  0.486694  0.194236  0.471608  1
  H  H13  1  0.013306  0.694236  0.971608  1
  H  H14  1  0.805764  0.486694  0.528392  1
  H  H15  1  0.694236  0.986694  0.028392  1
  H  H16  1  0.513306  0.805764  0.471608  1
  H  H17  1  0.986694  0.305764  0.971608  1
  H  H18  1  0.172271  0.635051  0.456382  1
  H  H19  1  0.327729  0.135051  0.956382  1
  H  H20  1  0.364949  0.172271  0.543618  1
  H  H21  1  0.135051  0.672271  0.043618  1
  H  H22  1  0.827729  0.364949  0.456382  1
  H  H23  1  0.672271  0.864949  0.956382  1
  H  H24  1  0.635051  0.827729  0.543618  1
  H  H25  1  0.864949  0.327729  0.043618  1
  N  N26  1  0.500000  0.500000  0.500000  1
  N  N27  1  0.000000  0.000000  0.000000  1
  O  O28  1  0.138436  0.431805  0.044373  1
  O  O29  1  0.361564  0.931805  0.544373  1
  O  O30  1  0.568195  0.138436  0.955627  1
  O  O31  1  0.931805  0.638436  0.455627  1
  O  O32  1  0.861564  0.568195  0.044373  1
  O  O33  1  0.638436  0.068195  0.544373  1
  O  O34  1  0.431805  0.861564  0.955627  1
  O  O35  1  0.068195  0.361564  0.455627  1
  O  O36  1  0.301042  0.269263  0.002205  1
  O  O37  1  0.198958  0.769263  0.502205  1
  O  O38  1  0.730737  0.301042  0.997795  1
  O  O39  1  0.769263  0.801042  0.497795  1
  O  O40  1  0.698958  0.730737  0.002205  1
  O  O41  1  0.801042  0.230737  0.502205  1
  O  O42  1  0.269263  0.698958  0.997795  1
  O  O43  1  0.230737  0.198958  0.497795  1
  O  O44  1  0.294762  0.449807  0.709263  1
  O  O45  1  0.205238  0.949807  0.209263  1
  O  O46  1  0.550193  0.294762  0.290737  1
  O  O47  1  0.949807  0.794762  0.790737  1
  O  O48  1  0.705238  0.550193  0.709263  1
  O  O49  1  0.794762  0.050193  0.209263  1
  O  O50  1  0.449807  0.705238  0.290737  1
  O  O51  1  0.050193  0.205238  0.790737  1
  O  O52  1  0.357136  0.479176  0.154961  1
  O  O53  1  0.142864  0.979176  0.654961  1
  O  O54  1  0.520824  0.357136  0.845039  1
  O  O55  1  0.979176  0.857136  0.345039  1
  O  O56  1  0.642864  0.520824  0.154961  1
  O  O57  1  0.857136  0.020824  0.654961  1
  O  O58  1  0.479176  0.642864  0.845039  1
  O  O59  1  0.020824  0.142864  0.345039  1
  O  O60  1  0.145293  0.560039  0.444689  1
  O  O61  1  0.354707  0.060039  0.944689  1
  O  O62  1  0.439961  0.145293  0.555311  1
  O  O63  1  0.060039  0.645293  0.055311  1
  O  O64  1  0.854707  0.439961  0.444689  1
  O  O65  1  0.645293  0.939961  0.944689  1
  O  O66  1  0.560039  0.854707  0.555311  1
  O  O67  1  0.939961  0.354707  0.055311  1
