# generated using pymatgen
data_YH2(CO3)2
_symmetry_space_group_name_H-M   'P 1'
_cell_length_a   7.84601310
_cell_length_b   8.53852335
_cell_length_c   9.62255252
_cell_angle_alpha   90.00000000
_cell_angle_beta   90.00000000
_cell_angle_gamma   117.35148669
_symmetry_Int_Tables_number   1
_chemical_formula_structural   YH2(CO3)2
_chemical_formula_sum   'Y4 H8 C8 O24'
_cell_volume   572.57867470
_cell_formula_units_Z   4
loop_
 _symmetry_equiv_pos_site_id
 _symmetry_equiv_pos_as_xyz
  1  'x, y, z'
loop_
 _atom_site_type_symbol
 _atom_site_label
 _atom_site_symmetry_multiplicity
 _atom_site_fract_x
 _atom_site_fract_y
 _atom_site_fract_z
 _atom_site_occupancy
  Y  Y0  1  0.293409  0.586818  0.250000  1
  Y  Y1  1  0.293035  0.586070  0.750000  1
  Y  Y2  1  0.706591  0.413182  0.750000  1
  Y  Y3  1  0.706965  0.413930  0.250000  1
  H  H4  1  0.002840  0.796782  0.258511  1
  H  H5  1  0.997160  0.203218  0.758511  1
  H  H6  1  0.999555  0.203380  0.231771  1
  H  H7  1  0.203826  0.203380  0.268229  1
  H  H8  1  0.206058  0.203218  0.741489  1
  H  H9  1  0.793942  0.796782  0.241489  1
  H  H10  1  0.796174  0.796620  0.768229  1
  H  H11  1  0.000445  0.796620  0.731771  1
  C  C12  1  0.401862  0.000618  0.740282  1
  C  C13  1  0.598755  0.000618  0.759718  1
  C  C14  1  0.401245  0.999382  0.259718  1
  C  C15  1  0.598138  0.999382  0.240282  1
  C  C16  1  0.082931  0.549417  0.000396  1
  C  C17  1  0.466485  0.549417  0.499604  1
  C  C18  1  0.533515  0.450583  0.999604  1
  C  C19  1  0.917069  0.450583  0.500396  1
  O  O20  1  0.001547  0.497616  0.381829  1
  O  O21  1  0.000110  0.494678  0.619557  1
  O  O22  1  0.253682  0.850772  0.259345  1
  O  O23  1  0.255990  0.851645  0.725485  1
  O  O24  1  0.269623  0.641960  0.999535  1
  O  O25  1  0.137809  0.275619  0.250000  1
  O  O26  1  0.137575  0.275150  0.750000  1
  O  O27  1  0.372337  0.641960  0.500465  1
  O  O28  1  0.595655  0.851645  0.774515  1
  O  O29  1  0.597091  0.850772  0.240655  1
  O  O30  1  0.496069  0.497616  0.118171  1
  O  O31  1  0.494568  0.494678  0.880443  1
  O  O32  1  0.503931  0.502384  0.618171  1
  O  O33  1  0.505432  0.505322  0.380443  1
  O  O34  1  0.402909  0.149228  0.740655  1
  O  O35  1  0.404345  0.148355  0.274515  1
  O  O36  1  0.627663  0.358040  0.000465  1
  O  O37  1  0.862425  0.724850  0.250000  1
  O  O38  1  0.862191  0.724381  0.750000  1
  O  O39  1  0.730377  0.358040  0.499535  1
  O  O40  1  0.744010  0.148355  0.225485  1
  O  O41  1  0.746318  0.149228  0.759345  1
  O  O42  1  0.999890  0.505322  0.119557  1
  O  O43  1  0.998453  0.502384  0.881829  1
