# generated using pymatgen
data_Li4Mn5Cu3O16
_symmetry_space_group_name_H-M   'P 1'
_cell_length_a   5.85468439
_cell_length_b   5.76979830
_cell_length_c   9.43787700
_cell_angle_alpha   89.99159918
_cell_angle_beta   87.80240073
_cell_angle_gamma   119.51279330
_symmetry_Int_Tables_number   1
_chemical_formula_structural   Li4Mn5Cu3O16
_chemical_formula_sum   'Li4 Mn5 Cu3 O16'
_cell_volume   277.17669701
_cell_formula_units_Z   1
loop_
 _symmetry_equiv_pos_site_id
 _symmetry_equiv_pos_as_xyz
  1  'x, y, z'
loop_
 _atom_site_type_symbol
 _atom_site_label
 _atom_site_symmetry_multiplicity
 _atom_site_fract_x
 _atom_site_fract_y
 _atom_site_fract_z
 _atom_site_occupancy
  Li  Li0  1  0.334473  0.666930  0.899656  1
  Li  Li1  1  0.001063  0.000883  0.996682  1
  Li  Li2  1  0.005665  0.002689  0.489488  1
  Li  Li3  1  0.672871  0.336784  0.398580  1
  Mn  Mn4  1  0.327813  0.664006  0.484811  1
  Mn  Mn5  1  0.654323  0.827165  0.215124  1
  Mn  Mn6  1  0.657961  0.329056  0.986364  1
  Mn  Mn7  1  0.829949  0.661787  0.713638  1
  Mn  Mn8  1  0.829827  0.167663  0.713647  1
  Cu  Cu9  1  0.165890  0.827149  0.210161  1
  Cu  Cu10  1  0.165152  0.339126  0.210427  1
  Cu  Cu11  1  0.338933  0.169190  0.712045  1
  O  O12  1  0.154717  0.825757  0.595078  1
  O  O13  1  0.048255  0.525007  0.351020  1
  O  O14  1  0.337479  0.669409  0.111066  1
  O  O15  1  0.994737  0.997159  0.296484  1
  O  O16  1  0.993074  0.996437  0.806424  1
  O  O17  1  0.154510  0.328927  0.595008  1
  O  O18  1  0.501460  0.966224  0.350207  1
  O  O19  1  0.498808  0.533391  0.349427  1
  O  O20  1  0.327772  0.163708  0.092938  1
  O  O21  1  0.675229  0.837237  0.605154  1
  O  O22  1  0.531432  0.492064  0.845397  1
  O  O23  1  0.531662  0.038903  0.845453  1
  O  O24  1  0.679173  0.339308  0.608378  1
  O  O25  1  0.810635  0.658146  0.094931  1
  O  O26  1  0.964835  0.482328  0.834672  1
  O  O27  1  0.812299  0.153869  0.095577  1
