# generated using pymatgen
data_Li4Fe3OF8
_symmetry_space_group_name_H-M   'P 1'
_cell_length_a   2.93386668
_cell_length_b   5.14454419
_cell_length_c   11.66359980
_cell_angle_alpha   77.98410622
_cell_angle_beta   90.13276057
_cell_angle_gamma   73.37668722
_symmetry_Int_Tables_number   1
_chemical_formula_structural   Li4Fe3OF8
_chemical_formula_sum   'Li4 Fe3 O1 F8'
_cell_volume   164.63006559
_cell_formula_units_Z   1
loop_
 _symmetry_equiv_pos_site_id
 _symmetry_equiv_pos_as_xyz
  1  'x, y, z'
loop_
 _atom_site_type_symbol
 _atom_site_label
 _atom_site_symmetry_multiplicity
 _atom_site_fract_x
 _atom_site_fract_y
 _atom_site_fract_z
 _atom_site_occupancy
  Li  Li0  1  0.143141  0.724474  0.560529  1
  Li  Li1  1  0.234947  0.535101  0.876675  1
  Li  Li2  1  0.852255  0.290886  0.447962  1
  Li  Li3  1  0.006940  0.984326  0.992259  1
  Fe  Fe4  1  0.590455  0.834400  0.270165  1
  Fe  Fe5  1  0.771162  0.466953  0.123043  1
  Fe  Fe6  1  0.434500  0.132804  0.702876  1
  O  O7  1  0.139870  0.731827  0.161084  1
  F  F8  1  0.636710  0.729476  0.948128  1
  F  F9  1  0.095290  0.812947  0.724814  1
  F  F10  1  0.199340  0.618270  0.402788  1
  F  F11  1  0.794546  0.417347  0.605775  1
  F  F12  1  0.866521  0.253370  0.830067  1
  F  F13  1  0.924553  0.165761  0.287324  1
  F  F14  1  0.379658  0.246598  0.041708  1
  F  F15  1  0.490891  0.021708  0.525509  1
