# generated using pymatgen
data_Li2Ti2CoO6
_symmetry_space_group_name_H-M   'P 1'
_cell_length_a   5.20032243
_cell_length_b   5.11970611
_cell_length_c   10.41166502
_cell_angle_alpha   90.00000000
_cell_angle_beta   90.00000000
_cell_angle_gamma   60.51150199
_symmetry_Int_Tables_number   1
_chemical_formula_structural   Li2Ti2CoO6
_chemical_formula_sum   'Li4 Ti4 Co2 O12'
_cell_volume   241.29125421
_cell_formula_units_Z   2
loop_
 _symmetry_equiv_pos_site_id
 _symmetry_equiv_pos_as_xyz
  1  'x, y, z'
loop_
 _atom_site_type_symbol
 _atom_site_label
 _atom_site_symmetry_multiplicity
 _atom_site_fract_x
 _atom_site_fract_y
 _atom_site_fract_z
 _atom_site_occupancy
  Li  Li0  1  0.500000  0.167516  0.750000  1
  Li  Li1  1  0.500000  0.332484  0.250000  1
  Li  Li2  1  0.500000  0.667516  0.750000  1
  Li  Li3  1  0.500000  0.832484  0.250000  1
  Ti  Ti4  1  0.323158  0.338421  0.000000  1
  Ti  Ti5  1  0.323158  0.838421  0.500000  1
  Ti  Ti6  1  0.676842  0.161579  0.500000  1
  Ti  Ti7  1  0.676842  0.661579  0.000000  1
  Co  Co8  1  0.000000  0.000000  0.000000  1
  Co  Co9  1  0.000000  0.500000  0.500000  1
  O  O10  1  0.000000  0.154795  0.597178  1
  O  O11  1  1.000000  0.345205  0.097178  1
  O  O12  1  0.000000  0.654795  0.902822  1
  O  O13  1  0.369075  0.995866  0.892171  1
  O  O14  1  1.000000  0.845205  0.402822  1
  O  O15  1  0.369075  0.135060  0.392171  1
  O  O16  1  0.369075  0.495866  0.607829  1
  O  O17  1  0.369075  0.635060  0.107829  1
  O  O18  1  0.630925  0.004134  0.107829  1
  O  O19  1  0.630925  0.364940  0.892171  1
  O  O20  1  0.630925  0.504134  0.392171  1
  O  O21  1  0.630925  0.864940  0.607829  1
