# generated using pymatgen
data_Li3Sn3(PO4)4
_symmetry_space_group_name_H-M   'P 1'
_cell_length_a   8.94404357
_cell_length_b   12.38892209
_cell_length_c   6.45693494
_cell_angle_alpha   90.00000000
_cell_angle_beta   103.54183344
_cell_angle_gamma   90.00000000
_symmetry_Int_Tables_number   1
_chemical_formula_structural   Li3Sn3(PO4)4
_chemical_formula_sum   'Li6 Sn6 P8 O32'
_cell_volume   695.58323231
_cell_formula_units_Z   2
loop_
 _symmetry_equiv_pos_site_id
 _symmetry_equiv_pos_as_xyz
  1  'x, y, z'
loop_
 _atom_site_type_symbol
 _atom_site_label
 _atom_site_symmetry_multiplicity
 _atom_site_fract_x
 _atom_site_fract_y
 _atom_site_fract_z
 _atom_site_occupancy
  Li  Li0  1  0.090351  0.577443  0.596291  1
  Li  Li1  1  0.083465  0.900977  0.089524  1
  Li  Li2  1  0.342351  0.212543  0.129180  1
  Li  Li3  1  0.657649  0.712543  0.370820  1
  Li  Li4  1  0.909649  0.077443  0.903709  1
  Li  Li5  1  0.916535  0.400977  0.410476  1
  Sn  Sn6  1  0.264617  0.929292  0.647539  1
  Sn  Sn7  1  0.282332  0.585061  0.161960  1
  Sn  Sn8  1  0.322133  0.312230  0.614292  1
  Sn  Sn9  1  0.677867  0.812230  0.885708  1
  Sn  Sn10  1  0.735383  0.429292  0.852461  1
  Sn  Sn11  1  0.717668  0.085061  0.338040  1
  P  P12  1  0.088254  0.367745  0.889341  1
  P  P13  1  0.079597  0.125020  0.367857  1
  P  P14  1  0.415670  0.597427  0.701336  1
  P  P15  1  0.401994  0.908731  0.195968  1
  P  P16  1  0.584330  0.097427  0.798664  1
  P  P17  1  0.598006  0.408731  0.304032  1
  P  P18  1  0.911746  0.867745  0.610659  1
  P  P19  1  0.920403  0.625020  0.132143  1
  O  O20  1  0.069611  0.429505  0.678670  1
  O  O21  1  0.074502  0.828864  0.581519  1
  O  O22  1  0.051229  0.050069  0.176875  1
  O  O23  1  0.069127  0.683305  0.104107  1
  O  O24  1  0.141843  0.064458  0.587824  1
  O  O25  1  0.188174  0.266571  0.880768  1
  O  O26  1  0.164711  0.438726  0.085908  1
  O  O27  1  0.306529  0.623961  0.851407  1
  O  O28  1  0.279720  0.908847  0.970912  1
  O  O29  1  0.204664  0.209628  0.350305  1
  O  O30  1  0.290057  0.883646  0.349041  1
  O  O31  1  0.291443  0.568757  0.494971  1
  O  O32  1  0.483701  0.192131  0.832917  1
  O  O33  1  0.513834  0.494714  0.785208  1
  O  O34  1  0.483798  0.317338  0.295575  1
  O  O35  1  0.486166  0.994714  0.714792  1
  O  O36  1  0.470829  0.023010  0.238591  1
  O  O37  1  0.516299  0.692131  0.667083  1
  O  O38  1  0.529171  0.523010  0.261409  1
  O  O39  1  0.516202  0.817338  0.204425  1
  O  O40  1  0.720280  0.408847  0.529088  1
  O  O41  1  0.693471  0.123961  0.648593  1
  O  O42  1  0.811826  0.766571  0.619232  1
  O  O43  1  0.708557  0.068757  0.005029  1
  O  O44  1  0.709943  0.383646  0.150959  1
  O  O45  1  0.858157  0.564458  0.912176  1
  O  O46  1  0.795336  0.709628  0.149695  1
  O  O47  1  0.835289  0.938726  0.414092  1
  O  O48  1  0.925498  0.328864  0.918481  1
  O  O49  1  0.930389  0.929505  0.821330  1
  O  O50  1  0.930873  0.183305  0.395893  1
  O  O51  1  0.948771  0.550069  0.323125  1
