# generated using pymatgen
data_Li2AgF3
_symmetry_space_group_name_H-M   'P 1'
_cell_length_a   12.81001348
_cell_length_b   7.61015030
_cell_length_c   2.94185839
_cell_angle_alpha   90.00000000
_cell_angle_beta   90.00000000
_cell_angle_gamma   90.00000000
_symmetry_Int_Tables_number   1
_chemical_formula_structural   Li2AgF3
_chemical_formula_sum   'Li8 Ag4 F12'
_cell_volume   286.79038335
_cell_formula_units_Z   4
loop_
 _symmetry_equiv_pos_site_id
 _symmetry_equiv_pos_as_xyz
  1  'x, y, z'
loop_
 _atom_site_type_symbol
 _atom_site_label
 _atom_site_symmetry_multiplicity
 _atom_site_fract_x
 _atom_site_fract_y
 _atom_site_fract_z
 _atom_site_occupancy
  Li  Li0  1  0.008921  0.148199  0.750000  1
  Li  Li1  1  0.083814  0.469991  0.250000  1
  Li  Li2  1  0.416186  0.969991  0.750000  1
  Li  Li3  1  0.491079  0.648199  0.250000  1
  Li  Li4  1  0.508921  0.351801  0.750000  1
  Li  Li5  1  0.583814  0.030009  0.250000  1
  Li  Li6  1  0.916186  0.530009  0.750000  1
  Li  Li7  1  0.991079  0.851801  0.250000  1
  Ag  Ag8  1  0.244589  0.663845  0.750000  1
  Ag  Ag9  1  0.255411  0.163845  0.250000  1
  Ag  Ag10  1  0.744589  0.836155  0.750000  1
  Ag  Ag11  1  0.755411  0.336155  0.250000  1
  F  F12  1  0.045873  0.656080  0.750000  1
  F  F13  1  0.087903  0.045881  0.250000  1
  F  F14  1  0.163916  0.374420  0.750000  1
  F  F15  1  0.336084  0.874420  0.250000  1
  F  F16  1  0.412097  0.545881  0.750000  1
  F  F17  1  0.454127  0.156080  0.250000  1
  F  F18  1  0.545873  0.843920  0.750000  1
  F  F19  1  0.587903  0.454119  0.250000  1
  F  F20  1  0.663916  0.125580  0.750000  1
  F  F21  1  0.836084  0.625580  0.250000  1
  F  F22  1  0.912097  0.954119  0.750000  1
  F  F23  1  0.954127  0.343920  0.250000  1
