# generated using pymatgen
data_LiFe2(PO4)2
_symmetry_space_group_name_H-M   'P 1'
_cell_length_a   10.33518950
_cell_length_b   13.89348678
_cell_length_c   5.17604658
_cell_angle_alpha   90.00000000
_cell_angle_beta   90.00000000
_cell_angle_gamma   90.00000000
_symmetry_Int_Tables_number   1
_chemical_formula_structural   LiFe2(PO4)2
_chemical_formula_sum   'Li4 Fe8 P8 O32'
_cell_volume   743.23794203
_cell_formula_units_Z   4
loop_
 _symmetry_equiv_pos_site_id
 _symmetry_equiv_pos_as_xyz
  1  'x, y, z'
loop_
 _atom_site_type_symbol
 _atom_site_label
 _atom_site_symmetry_multiplicity
 _atom_site_fract_x
 _atom_site_fract_y
 _atom_site_fract_z
 _atom_site_occupancy
  Li  Li0  1  0.222625  0.749323  0.552292  1
  Li  Li1  1  0.277375  0.249323  0.552292  1
  Li  Li2  1  0.722625  0.749323  0.447708  1
  Li  Li3  1  0.777375  0.249323  0.447708  1
  Fe  Fe4  1  0.037434  0.753635  0.061586  1
  Fe  Fe5  1  0.223829  -0.000756  0.557688  1
  Fe  Fe6  1  0.276171  0.499244  0.557688  1
  Fe  Fe7  1  0.462566  0.253635  0.061586  1
  Fe  Fe8  1  0.537434  0.753635  0.938414  1
  Fe  Fe9  1  0.723829  -0.000756  0.442312  1
  Fe  Fe10  1  0.776171  0.499244  0.442312  1
  Fe  Fe11  1  0.962566  0.253635  0.938414  1
  P  P12  1  0.029732  0.375660  0.437856  1
  P  P13  1  0.216151  0.128654  0.054914  1
  P  P14  1  0.283849  0.628654  0.054914  1
  P  P15  1  0.470268  0.875660  0.437856  1
  P  P16  1  0.529732  0.375660  0.562144  1
  P  P17  1  0.716151  0.128654  0.945086  1
  P  P18  1  0.783849  0.628654  0.945086  1
  P  P19  1  0.970268  0.875660  0.562144  1
  O  O20  1  0.992226  0.858125  0.856169  1
  O  O21  1  0.033030  0.969886  0.480712  1
  O  O22  1  0.038766  0.787105  0.421850  1
  O  O23  1  0.071709  0.149061  0.992857  1
  O  O24  1  0.176200  0.372432  0.497618  1
  O  O25  1  0.243768  0.535036  0.926513  1
  O  O26  1  0.205502  0.716972  0.936977  1
  O  O27  1  0.244316  0.128902  0.348583  1
  O  O28  1  0.255684  0.628902  0.348583  1
  O  O29  1  0.294498  0.216972  0.936977  1
  O  O30  1  0.256232  0.035036  0.926513  1
  O  O31  1  0.323800  0.872432  0.497618  1
  O  O32  1  0.428291  0.649061  0.992857  1
  O  O33  1  0.461234  0.287105  0.421850  1
  O  O34  1  0.466970  0.469886  0.480712  1
  O  O35  1  0.507774  0.358125  0.856169  1
  O  O36  1  0.492226  0.858125  0.143831  1
  O  O37  1  0.533030  0.969886  0.519288  1
  O  O38  1  0.538766  0.787105  0.578150  1
  O  O39  1  0.571709  0.149061  0.007143  1
  O  O40  1  0.676200  0.372432  0.502382  1
  O  O41  1  0.743768  0.535036  0.073487  1
  O  O42  1  0.705502  0.716972  0.063023  1
  O  O43  1  0.744316  0.128902  0.651417  1
  O  O44  1  0.755684  0.628902  0.651417  1
  O  O45  1  0.794498  0.216972  0.063023  1
  O  O46  1  0.756232  0.035036  0.073487  1
  O  O47  1  0.823800  0.872432  0.502382  1
  O  O48  1  0.928291  0.649061  0.007143  1
  O  O49  1  0.961234  0.287105  0.578150  1
  O  O50  1  0.966970  0.469886  0.519288  1
  O  O51  1  0.007774  0.358125  0.143831  1
