# generated using pymatgen
data_Fe4OF7
_symmetry_space_group_name_H-M   'P 1'
_cell_length_a   9.30339329
_cell_length_b   5.84111588
_cell_length_c   5.84111588
_cell_angle_alpha   72.45604764
_cell_angle_beta   87.90472237
_cell_angle_gamma   87.90472237
_symmetry_Int_Tables_number   1
_chemical_formula_structural   Fe4OF7
_chemical_formula_sum   'Fe8 O2 F14'
_cell_volume   302.34362272
_cell_formula_units_Z   2
loop_
 _symmetry_equiv_pos_site_id
 _symmetry_equiv_pos_as_xyz
  1  'x, y, z'
loop_
 _atom_site_type_symbol
 _atom_site_label
 _atom_site_symmetry_multiplicity
 _atom_site_fract_x
 _atom_site_fract_y
 _atom_site_fract_z
 _atom_site_occupancy
  Fe  Fe0  1  0.620875  0.868225  0.868225  1
  Fe  Fe1  1  0.879125  0.631775  0.631775  1
  Fe  Fe2  1  0.496240  0.481076  0.481076  1
  Fe  Fe3  1  0.250000  0.750000  0.750000  1
  Fe  Fe4  1  0.750000  0.250000  0.250000  1
  Fe  Fe5  1  0.109024  0.364467  0.364467  1
  Fe  Fe6  1  0.390975  0.135533  0.135533  1
  Fe  Fe7  1  0.003760  0.018924  0.018924  1
  O  O8  1  0.962039  0.226201  0.226201  1
  O  O9  1  0.537961  0.273799  0.273799  1
  F  F10  1  0.750000  0.552325  0.947675  1
  F  F11  1  0.494540  0.190679  0.803387  1
  F  F12  1  0.750000  0.947675  0.552325  1
  F  F13  1  0.224454  0.981197  0.981197  1
  F  F14  1  0.475447  0.710956  0.710956  1
  F  F15  1  0.725762  0.476529  0.476529  1
  F  F16  1  0.275546  0.518803  0.518803  1
  F  F17  1  0.024553  0.789044  0.789044  1
  F  F18  1  0.774238  0.023471  0.023471  1
  F  F19  1  0.250000  0.054622  0.445378  1
  F  F20  1  0.494540  0.803387  0.190679  1
  F  F21  1  0.005460  0.309321  0.696613  1
  F  F22  1  0.250000  0.445378  0.054622  1
  F  F23  1  0.005460  0.696613  0.309321  1
