# generated using pymatgen
data_Li2V5Cr2O12
_symmetry_space_group_name_H-M   'P 1'
_cell_length_a   5.09515012
_cell_length_b   9.09637357
_cell_length_c   9.86779455
_cell_angle_alpha   90.00000243
_cell_angle_beta   102.64002297
_cell_angle_gamma   89.99999938
_symmetry_Int_Tables_number   1
_chemical_formula_structural   Li2V5Cr2O12
_chemical_formula_sum   'Li4 V10 Cr4 O24'
_cell_volume   446.26232720
_cell_formula_units_Z   2
loop_
 _symmetry_equiv_pos_site_id
 _symmetry_equiv_pos_as_xyz
  1  'x, y, z'
loop_
 _atom_site_type_symbol
 _atom_site_label
 _atom_site_symmetry_multiplicity
 _atom_site_fract_x
 _atom_site_fract_y
 _atom_site_fract_z
 _atom_site_occupancy
  Li  Li0  1  0.753785  0.079345  0.508357  1
  Li  Li1  1  0.506004  0.419463  0.743613  1
  Li  Li2  1  0.746215  0.579345  0.991643  1
  Li  Li3  1  0.993996  0.919463  0.756387  1
  V  V4  1  0.003274  0.082640  0.248448  1
  V  V5  1  0.495790  0.066261  0.754635  1
  V  V6  1  0.262765  0.261889  0.509611  1
  V  V7  1  0.735765  0.254125  0.990175  1
  V  V8  1  -0.000370  0.427510  0.257465  1
  V  V9  1  0.004210  0.566261  0.745365  1
  V  V10  1  0.237235  0.761888  0.990389  1
  V  V11  1  0.496726  0.582640  0.251552  1
  V  V12  1  0.764235  0.754125  0.509825  1
  V  V13  1  0.500370  0.927510  0.242535  1
  Cr  Cr14  1  0.003615  0.247671  0.754856  1
  Cr  Cr15  1  0.495954  0.257309  0.245664  1
  Cr  Cr16  1  0.004046  0.757309  0.254336  1
  Cr  Cr17  1  0.496385  0.747671  0.745144  1
  O  O18  1  0.143200  0.104010  0.630920  1
  O  O19  1  0.380865  0.102540  0.361150  1
  O  O20  1  0.389805  0.228076  0.865716  1
  O  O21  1  0.843831  0.094180  0.860753  1
  O  O22  1  0.100249  0.261179  0.140547  1
  O  O23  1  0.629206  0.099554  0.136327  1
  O  O24  1  0.616446  0.226965  0.631211  1
  O  O25  1  0.125069  0.404268  0.645943  1
  O  O26  1  0.375359  0.410938  0.364727  1
  O  O27  1  0.892427  0.245729  0.366153  1
  O  O28  1  0.869967  0.403582  0.866439  1
  O  O29  1  0.633334  0.413504  0.134246  1
  O  O30  1  0.356800  0.604009  0.869080  1
  O  O31  1  0.119135  0.602540  0.138850  1
  O  O32  1  0.110195  0.728076  0.634284  1
  O  O33  1  0.656169  0.594180  0.639247  1
  O  O34  1  0.399751  0.761179  0.359453  1
  O  O35  1  0.870794  0.599554  0.363673  1
  O  O36  1  0.883554  0.726965  0.868789  1
  O  O37  1  0.374931  0.904268  0.854057  1
  O  O38  1  0.124641  0.910938  0.135273  1
  O  O39  1  0.607573  0.745729  0.133847  1
  O  O40  1  0.630033  0.903582  0.633561  1
  O  O41  1  0.866666  0.913504  0.365754  1
