# generated using pymatgen
data_Ba5Mn5O14
_symmetry_space_group_name_H-M   'P 1'
_cell_length_a   5.79976072
_cell_length_b   5.77275865
_cell_length_c   23.93085947
_cell_angle_alpha   90.00081104
_cell_angle_beta   90.00081383
_cell_angle_gamma   120.15354592
_symmetry_Int_Tables_number   1
_chemical_formula_structural   Ba5Mn5O14
_chemical_formula_sum   'Ba10 Mn10 O28'
_cell_volume   692.80078338
_cell_formula_units_Z   2
loop_
 _symmetry_equiv_pos_site_id
 _symmetry_equiv_pos_as_xyz
  1  'x, y, z'
loop_
 _atom_site_type_symbol
 _atom_site_label
 _atom_site_symmetry_multiplicity
 _atom_site_fract_x
 _atom_site_fract_y
 _atom_site_fract_z
 _atom_site_occupancy
  Ba  Ba0  1  0.337043  0.668027  0.545986  1
  Ba  Ba1  1  0.331620  0.668709  0.139045  1
  Ba  Ba2  1  0.003122  0.998372  0.249999  1
  Ba  Ba3  1  0.331561  0.668720  0.360928  1
  Ba  Ba4  1  0.004768  0.001596  0.750023  1
  Ba  Ba5  1  0.336950  0.667824  0.954007  1
  Ba  Ba6  1  0.669089  0.332190  0.453989  1
  Ba  Ba7  1  0.669077  0.332074  0.045984  1
  Ba  Ba8  1  0.662889  0.331376  0.639061  1
  Ba  Ba9  1  0.662858  0.331204  0.860933  1
  Mn  Mn10  1  0.345786  0.673394  0.691914  1
  Mn  Mn11  1  0.010568  0.999969  1.000000  1
  Mn  Mn12  1  0.002267  0.998011  0.107366  1
  Mn  Mn13  1  0.002236  0.998022  0.392602  1
  Mn  Mn14  1  0.010627  0.000096  0.499988  1
  Mn  Mn15  1  0.004248  0.002075  0.607390  1
  Mn  Mn16  1  0.004235  0.001916  0.892643  1
  Mn  Mn17  1  0.345733  0.673265  0.808160  1
  Mn  Mn18  1  0.672407  0.326663  0.191857  1
  Mn  Mn19  1  0.672399  0.326632  0.308101  1
  O  O20  1  0.155484  0.846124  0.051253  1
  O  O21  1  0.155476  0.846208  0.448740  1
  O  O22  1  0.154284  0.824155  0.652403  1
  O  O23  1  0.939440  0.494527  0.249998  1
  O  O24  1  0.154177  0.823955  0.847636  1
  O  O25  1  0.153770  0.330442  0.652253  1
  O  O26  1  0.154570  0.293314  0.447729  1
  O  O27  1  0.153753  0.330369  0.847802  1
  O  O28  1  0.154570  0.293251  0.052243  1
  O  O29  1  0.330141  0.175920  0.347593  1
  O  O30  1  0.330167  0.175966  0.152375  1
  O  O31  1  0.309353  0.154007  0.551248  1
  O  O32  1  0.309343  0.153848  0.948745  1
  O  O33  1  0.444912  0.505430  0.750017  1
  O  O34  1  0.712529  0.849223  0.051388  1
  O  O35  1  0.683019  0.841429  0.648487  1
  O  O36  1  0.712534  0.849287  0.448599  1
  O  O37  1  0.682988  0.841323  0.851549  1
  O  O38  1  0.823349  0.669576  0.152208  1
  O  O39  1  0.446175  0.941544  0.750030  1
  O  O40  1  0.504601  0.058447  0.249992  1
  O  O41  1  0.823413  0.669556  0.347774  1
  O  O42  1  0.861328  0.706690  0.947751  1
  O  O43  1  0.861394  0.706868  0.552250  1
  O  O44  1  0.841611  0.158616  0.148455  1
  O  O45  1  0.863243  0.150691  0.948605  1
  O  O46  1  0.841577  0.158546  0.351507  1
  O  O47  1  0.863311  0.150857  0.551393  1
