# generated using pymatgen
data_Li4V3P8O29
_symmetry_space_group_name_H-M   'P 1'
_cell_length_a   9.79595675
_cell_length_b   9.76209502
_cell_length_c   14.12131006
_cell_angle_alpha   89.95872590
_cell_angle_beta   90.39285888
_cell_angle_gamma   59.78774681
_symmetry_Int_Tables_number   1
_chemical_formula_structural   Li4V3P8O29
_chemical_formula_sum   'Li8 V6 P16 O58'
_cell_volume   1166.93695495
_cell_formula_units_Z   2
loop_
 _symmetry_equiv_pos_site_id
 _symmetry_equiv_pos_as_xyz
  1  'x, y, z'
loop_
 _atom_site_type_symbol
 _atom_site_label
 _atom_site_symmetry_multiplicity
 _atom_site_fract_x
 _atom_site_fract_y
 _atom_site_fract_z
 _atom_site_occupancy
  Li  Li0  1  0.905845  0.772473  0.055260  1
  Li  Li1  1  0.776265  0.307694  0.057792  1
  Li  Li2  1  0.320113  0.908671  0.061914  1
  Li  Li3  1  0.672427  0.234016  0.444694  1
  Li  Li4  1  0.329653  0.765258  0.558592  1
  Li  Li5  1  0.224302  0.682091  0.939457  1
  Li  Li6  1  0.091266  0.231513  0.938173  1
  Li  Li7  1  0.999534  0.997320  0.506751  1
  V  V8  1  0.568657  0.431967  0.248181  1
  V  V9  1  0.433179  0.565889  0.752001  1
  V  V10  1  0.569676  0.997428  0.749202  1
  V  V11  1  0.434677  0.004743  0.254796  1
  V  V12  1  0.000564  0.563762  0.259547  1
  V  V13  1  0.996606  0.437605  0.737607  1
  P  P14  1  0.912821  0.767949  0.839915  1
  P  P15  1  0.776616  0.918642  0.341475  1
  P  P16  1  0.917958  0.302579  0.342884  1
  P  P17  1  0.668580  0.667900  0.132701  1
  P  P18  1  0.659745  0.672960  0.628199  1
  P  P19  1  0.775049  0.318658  0.839396  1
  P  P20  1  0.686916  0.224971  0.659256  1
  P  P21  1  0.320187  0.913788  0.845809  1
  P  P22  1  0.684000  0.083973  0.154802  1
  P  P23  1  0.315960  0.773191  0.341692  1
  P  P24  1  0.226603  0.680993  0.161123  1
  P  P25  1  0.337205  0.332273  0.371417  1
  P  P26  1  0.327464  0.331985  0.866911  1
  P  P27  1  0.083652  0.697588  0.656772  1
  P  P28  1  0.224850  0.081381  0.660841  1
  P  P29  1  0.087323  0.232233  0.158321  1
  O  O30  1  0.003055  0.797939  0.573700  1
  O  O31  1  0.913551  0.743649  0.335944  1
  O  O32  1  0.765039  0.991050  0.069941  1
  O  O33  1  0.744532  0.912885  0.835612  1
  O  O34  1  0.906989  0.616071  0.818284  1
  O  O35  1  0.817755  0.665777  0.178469  1
  O  O36  1  0.917399  0.463714  0.330342  1
  O  O37  1  0.001937  0.244159  0.067194  1
  O  O38  1  0.920825  0.341394  0.833044  1
  O  O39  1  0.668298  0.813508  0.677478  1
  O  O40  1  0.617571  0.918912  0.330004  1
  O  O41  1  0.810199  0.518973  0.672238  1
  O  O42  1  0.671103  0.673154  0.027387  1
  O  O43  1  0.666613  0.675305  0.523676  1
  O  O44  1  0.671693  0.513784  0.169199  1
  O  O45  1  0.479629  0.901384  0.824936  1
  O  O46  1  0.518055  0.816613  0.174397  1
  O  O47  1  0.743537  0.339874  0.336324  1
  O  O48  1  0.796272  0.206964  0.750207  1
  O  O49  1  0.773553  0.207175  0.569778  1
  O  O50  1  0.769499  0.247210  0.930684  1
  O  O51  1  0.620720  0.479351  0.819507  1
  O  O52  1  0.508727  0.677483  0.666174  1
  O  O53  1  0.662156  0.252891  0.156667  1
  O  O54  1  0.471549  0.617753  0.328026  1
  O  O55  1  0.345049  0.915399  0.327417  1
  O  O56  1  0.794374  0.999458  0.247302  1
  O  O57  1  0.787578  0.005415  0.424737  1
  O  O58  1  0.205734  0.991592  0.581784  1
  O  O59  1  0.657085  0.083313  0.671498  1
  O  O60  1  0.530738  0.380634  0.671200  1
  O  O61  1  0.335512  0.747834  0.844022  1
  O  O62  1  0.489601  0.324203  0.333436  1
  O  O63  1  0.379287  0.519877  0.179063  1
  O  O64  1  0.238529  0.757854  0.071584  1
  O  O65  1  0.232018  0.790327  0.431731  1
  O  O66  1  0.204308  0.791538  0.251178  1
  O  O67  1  0.258922  0.657302  0.664419  1
  O  O68  1  0.471700  0.184589  0.819369  1
  O  O69  1  0.523800  0.094224  0.176942  1
  O  O70  1  0.328380  0.485365  0.832864  1
  O  O71  1  0.323887  0.322765  0.971879  1
  O  O72  1  0.330730  0.327781  0.475695  1
  O  O73  1  0.188054  0.483666  0.325858  1
  O  O74  1  0.384201  0.076453  0.668692  1
  O  O75  1  0.330181  0.188196  0.322766  1
  O  O76  1  0.079444  0.661506  0.161857  1
  O  O77  1  0.008036  0.790473  0.754986  1
  O  O78  1  0.998751  0.755065  0.930955  1
  O  O79  1  0.081188  0.538576  0.667047  1
  O  O80  1  0.177862  0.336178  0.821251  1
  O  O81  1  0.094069  0.383733  0.180235  1
  O  O82  1  0.255265  0.084310  0.160269  1
  O  O83  1  0.245954  0.001045  0.935929  1
  O  O84  1  0.202091  0.011188  0.759933  1
  O  O85  1  0.087704  0.257467  0.662656  1
  O  O86  1  0.001700  0.205273  0.426291  1
  O  O87  1  0.993903  0.209798  0.244353  1
