# generated using pymatgen
data_Yb2P4O13
_symmetry_space_group_name_H-M   'P 1'
_cell_length_a   6.82152924
_cell_length_b   6.89062673
_cell_length_c   13.13885571
_cell_angle_alpha   75.52266244
_cell_angle_beta   90.00000000
_cell_angle_gamma   60.33116462
_symmetry_Int_Tables_number   1
_chemical_formula_structural   Yb2P4O13
_chemical_formula_sum   'Yb4 P8 O26'
_cell_volume   513.93102082
_cell_formula_units_Z   2
loop_
 _symmetry_equiv_pos_site_id
 _symmetry_equiv_pos_as_xyz
  1  'x, y, z'
loop_
 _atom_site_type_symbol
 _atom_site_label
 _atom_site_symmetry_multiplicity
 _atom_site_fract_x
 _atom_site_fract_y
 _atom_site_fract_z
 _atom_site_occupancy
  Yb  Yb0  1  0.320870  0.354198  0.956050  1
  Yb  Yb1  1  0.675069  0.645802  0.543950  1
  Yb  Yb2  1  0.324931  0.354198  0.456050  1
  Yb  Yb3  1  0.679130  0.645802  0.043950  1
  P  P4  1  0.165929  0.974684  0.866199  1
  P  P5  1  0.859388  0.974684  0.366199  1
  P  P6  1  0.777945  0.462614  0.840380  1
  P  P7  1  0.240558  0.537386  0.659620  1
  P  P8  1  0.759442  0.462614  0.340380  1
  P  P9  1  0.222055  0.537386  0.159620  1
  P  P10  1  0.140612  0.025316  0.633801  1
  P  P11  1  0.834071  0.025316  0.133801  1
  O  O12  1  0.325645  0.996480  0.936651  1
  O  O13  1  0.140016  0.764033  0.901198  1
  O  O14  1  0.677875  0.996480  0.436651  1
  O  O15  1  0.101943  0.808295  0.655697  1
  O  O16  1  0.928622  0.510066  0.903533  1
  O  O17  1  0.577937  0.493602  0.902326  1
  O  O18  1  0.698888  0.607848  0.725300  1
  O  O19  1  0.095951  0.764033  0.401198  1
  O  O20  1  0.089761  0.808295  0.155697  1
  O  O21  1  0.306736  0.392152  0.774700  1
  O  O22  1  0.071540  0.506398  0.597674  1
  O  O23  1  0.438688  0.489934  0.596467  1
  O  O24  1  0.561312  0.510066  0.403533  1
  O  O25  1  0.928460  0.493602  0.402326  1
  O  O26  1  0.693264  0.607848  0.225300  1
  O  O27  1  0.910239  0.191705  0.844303  1
  O  O28  1  0.904049  0.235967  0.598802  1
  O  O29  1  0.301112  0.392152  0.274700  1
  O  O30  1  0.422063  0.506398  0.097674  1
  O  O31  1  0.071378  0.489934  0.096467  1
  O  O32  1  0.242998  0.000000  0.750000  1
  O  O33  1  0.898057  0.191705  0.344303  1
  O  O34  1  0.322125  0.003520  0.563349  1
  O  O35  1  0.859984  0.235967  0.098802  1
  O  O36  1  0.757002  0.000000  0.250000  1
  O  O37  1  0.674355  0.003520  0.063349  1
