# generated using pymatgen
data_Li2FeS2
_symmetry_space_group_name_H-M   'P 1'
_cell_length_a   3.83632091
_cell_length_b   3.78434881
_cell_length_c   6.11733743
_cell_angle_alpha   90.23182194
_cell_angle_beta   90.00000000
_cell_angle_gamma   120.45534763
_symmetry_Int_Tables_number   1
_chemical_formula_structural   Li2FeS2
_chemical_formula_sum   'Li2 Fe1 S2'
_cell_volume   76.55672034
_cell_formula_units_Z   1
loop_
 _symmetry_equiv_pos_site_id
 _symmetry_equiv_pos_as_xyz
  1  'x, y, z'
loop_
 _atom_site_type_symbol
 _atom_site_label
 _atom_site_symmetry_multiplicity
 _atom_site_fract_x
 _atom_site_fract_y
 _atom_site_fract_z
 _atom_site_occupancy
  Li  Li0  1  0.330642  0.661283  0.638673  1
  Li  Li1  1  0.669358  0.338717  0.361327  1
  Fe  Fe2  1  0.000000  0.000000  0.000000  1
  S  S3  1  0.331797  0.663593  0.224147  1
  S  S4  1  0.668203  0.336407  0.775853  1
