# generated using pymatgen
data_Sb2P4H3O16
_symmetry_space_group_name_H-M   'P 1'
_cell_length_a   5.00506103
_cell_length_b   8.10931439
_cell_length_c   7.65471452
_cell_angle_alpha   88.71346942
_cell_angle_beta   102.49542479
_cell_angle_gamma   88.07487614
_symmetry_Int_Tables_number   1
_chemical_formula_structural   Sb2P4H3O16
_chemical_formula_sum   'Sb2 P4 H3 O16'
_cell_volume   303.01558762
_cell_formula_units_Z   1
loop_
 _symmetry_equiv_pos_site_id
 _symmetry_equiv_pos_as_xyz
  1  'x, y, z'
loop_
 _atom_site_type_symbol
 _atom_site_label
 _atom_site_symmetry_multiplicity
 _atom_site_fract_x
 _atom_site_fract_y
 _atom_site_fract_z
 _atom_site_occupancy
  Sb  Sb0  1  0.999234  0.995784  0.496924  1
  Sb  Sb1  1  0.502412  0.501305  0.004019  1
  P  P2  1  0.120582  0.329543  0.255674  1
  P  P3  1  0.383915  0.847926  0.240621  1
  P  P4  1  0.609858  0.152565  0.751409  1
  P  P5  1  0.883131  0.669417  0.748613  1
  H  H6  1  0.939398  0.012826  0.971203  1
  H  H7  1  0.440669  0.445382  0.420830  1
  H  H8  1  0.543033  0.589913  0.568167  1
  O  O9  1  0.117865  0.550179  0.834054  1
  O  O10  1  0.008830  0.162297  0.301320  1
  O  O11  1  0.213811  0.827379  0.396529  1
  O  O12  1  0.267102  0.404902  0.439834  1
  O  O13  1  0.344484  0.072690  0.655383  1
  O  O14  1  0.556689  0.331403  0.800158  1
  O  O15  1  0.231942  0.943044  0.078742  1
  O  O16  1  0.336013  0.306672  0.140453  1
  O  O17  1  0.665273  0.693256  0.861822  1
  O  O18  1  0.737572  0.044898  0.919565  1
  O  O19  1  0.454014  0.662991  0.208632  1
  O  O20  1  0.654406  0.930491  0.336493  1
  O  O21  1  0.737225  0.590556  0.565739  1
  O  O22  1  0.804767  0.164875  0.614374  1
  O  O23  1  0.989176  0.838750  0.701744  1
  O  O24  1  0.887477  0.450856  0.169597  1
