# generated using pymatgen
data_Li5V6O5F19
_symmetry_space_group_name_H-M   'P 1'
_cell_length_a   5.20829001
_cell_length_b   5.40008826
_cell_length_c   16.16101307
_cell_angle_alpha   80.53963135
_cell_angle_beta   89.85611656
_cell_angle_gamma   90.38025903
_symmetry_Int_Tables_number   1
_chemical_formula_structural   Li5V6O5F19
_chemical_formula_sum   'Li5 V6 O5 F19'
_cell_volume   448.33742613
_cell_formula_units_Z   1
loop_
 _symmetry_equiv_pos_site_id
 _symmetry_equiv_pos_as_xyz
  1  'x, y, z'
loop_
 _atom_site_type_symbol
 _atom_site_label
 _atom_site_symmetry_multiplicity
 _atom_site_fract_x
 _atom_site_fract_y
 _atom_site_fract_z
 _atom_site_occupancy
  Li  Li0  1  0.965759  0.046337  0.772919  1
  Li  Li1  1  0.258294  0.502789  0.481978  1
  Li  Li2  1  0.214061  0.695990  0.151045  1
  Li  Li3  1  0.540601  0.502750  0.786075  1
  Li  Li4  1  0.025335  0.627673  0.899982  1
  V  V5  1  0.476259  0.136238  0.664701  1
  V  V6  1  0.000511  0.332190  0.331667  1
  V  V7  1  0.972687  0.039672  0.997027  1
  V  V8  1  0.472503  0.514332  0.006312  1
  V  V9  1  0.021908  0.636158  0.665552  1
  V  V10  1  0.483378  0.807112  0.333736  1
  O  O11  1  0.192403  0.362846  0.695348  1
  O  O12  1  0.290604  0.538368  0.351886  1
  O  O13  1  0.213479  0.696425  0.016435  1
  O  O14  1  0.804880  0.311330  0.972175  1
  O  O15  1  0.298592  0.866196  0.693565  1
  F  F16  1  0.201448  0.033168  0.355589  1
  F  F17  1  0.297782  0.187334  0.028467  1
  F  F18  1  0.705093  0.124946  0.315651  1
  F  F19  1  0.081673  0.381323  0.220970  1
  F  F20  1  0.085693  0.013348  0.881787  1
  F  F21  1  0.416259  0.229896  0.551660  1
  F  F22  1  0.583037  0.474822  0.115329  1
  F  F23  1  0.616783  0.157979  0.775062  1
  F  F24  1  0.934141  0.309673  0.442642  1
  F  F25  1  0.797343  0.635028  0.308498  1
  F  F26  1  0.689233  0.482662  0.647698  1
  F  F27  1  0.376599  0.522910  0.884444  1
  F  F28  1  0.926674  0.924865  0.110508  1
  F  F29  1  0.092001  0.703841  0.552552  1
  F  F30  1  0.407179  0.878235  0.218485  1
  F  F31  1  0.569503  0.774200  0.446875  1
  F  F32  1  0.887566  0.653569  0.781645  1
  F  F33  1  0.716253  0.795903  0.967628  1
  F  F34  1  0.810247  0.974918  0.648214  1
