# generated using pymatgen
data_Li3Fe2(PO4)3
_symmetry_space_group_name_H-M   'P 1'
_cell_length_a   9.05010383
_cell_length_b   8.41317454
_cell_length_c   8.41728415
_cell_angle_alpha   59.80761329
_cell_angle_beta   117.69662449
_cell_angle_gamma   117.68348244
_symmetry_Int_Tables_number   1
_chemical_formula_structural   Li3Fe2(PO4)3
_chemical_formula_sum   'Li6 Fe4 P6 O24'
_cell_volume   467.63482105
_cell_formula_units_Z   2
loop_
 _symmetry_equiv_pos_site_id
 _symmetry_equiv_pos_as_xyz
  1  'x, y, z'
loop_
 _atom_site_type_symbol
 _atom_site_label
 _atom_site_symmetry_multiplicity
 _atom_site_fract_x
 _atom_site_fract_y
 _atom_site_fract_z
 _atom_site_occupancy
  Li  Li0  1  0.851734  0.661642  0.918808  1
  Li  Li1  1  0.858054  0.264868  0.670802  1
  Li  Li2  1  0.619838  0.807702  0.254703  1
  Li  Li3  1  0.135519  0.076742  0.732848  1
  Li  Li4  1  0.135496  0.737663  0.328665  1
  Li  Li5  1  0.136834  0.326125  0.077581  1
  Fe  Fe6  1  0.953239  0.654400  0.642664  1
  Fe  Fe7  1  0.558798  0.856237  0.849554  1
  Fe  Fe8  1  0.438907  0.149386  0.142742  1
  Fe  Fe9  1  0.043851  0.346735  0.346843  1
  P  P10  1  0.755590  0.250167  0.960709  1
  P  P11  1  0.746398  0.953503  0.541743  1
  P  P12  1  0.748546  0.542464  0.249160  1
  P  P13  1  0.246791  0.458719  0.747163  1
  P  P14  1  0.251009  0.041607  0.462179  1
  P  P15  1  0.242188  0.751268  0.039849  1
  O  O16  1  0.804207  0.466407  0.826518  1
  O  O17  1  0.739184  0.122227  0.866552  1
  O  O18  1  0.586256  0.190440  0.002354  1
  O  O19  1  0.898444  0.150082  0.538405  1
  O  O20  1  0.729128  0.858119  0.747505  1
  O  O21  1  0.796945  0.822698  0.507448  1
  O  O22  1  0.804201  0.504158  0.466681  1
  O  O23  1  0.905076  0.552988  0.204510  1
  O  O24  1  0.910763  0.222004  0.153076  1
  O  O25  1  0.413585  0.614105  0.801789  1
  O  O26  1  0.268530  0.254132  0.873140  1
  O  O27  1  0.425383  0.014935  0.615024  1
  O  O28  1  0.575676  0.982121  0.382970  1
  O  O29  1  0.713256  0.740001  0.128631  1
  O  O30  1  0.586348  0.381341  0.200036  1
  O  O31  1  0.092333  0.791494  0.842413  1
  O  O32  1  0.091686  0.455196  0.789522  1
  O  O33  1  0.190123  0.492559  0.530771  1
  O  O34  1  0.190552  0.164777  0.495742  1
  O  O35  1  0.268831  0.139829  0.256507  1
  O  O36  1  0.109998  0.838490  0.476954  1
  O  O37  1  0.418267  0.805094  0.012408  1
  O  O38  1  0.259067  0.877529  0.135515  1
  O  O39  1  0.191451  0.534851  0.167000  1
