# generated using pymatgen
data_CaEuO2
_symmetry_space_group_name_H-M   'P 1'
_cell_length_a   3.50500722
_cell_length_b   6.10847060
_cell_length_c   3.50500745
_cell_angle_alpha   106.67229484
_cell_angle_beta   60.00000218
_cell_angle_gamma   106.67229167
_symmetry_Int_Tables_number   1
_chemical_formula_structural   CaEuO2
_chemical_formula_sum   'Ca1 Eu1 O2'
_cell_volume   61.31938266
_cell_formula_units_Z   1
loop_
 _symmetry_equiv_pos_site_id
 _symmetry_equiv_pos_as_xyz
  1  'x, y, z'
loop_
 _atom_site_type_symbol
 _atom_site_label
 _atom_site_symmetry_multiplicity
 _atom_site_fract_x
 _atom_site_fract_y
 _atom_site_fract_z
 _atom_site_occupancy
  Eu  Eu0  1  0.500000  0.500000  0.500000  1
  Ca  Ca1  1  0.000000  0.000000  0.000000  1
  O  O2  1  0.254129  0.762387  0.254129  1
  O  O3  1  0.745871  0.237613  0.745871  1
