# generated using pymatgen
data_Mg(NO3)2
_symmetry_space_group_name_H-M   'P 1'
_cell_length_a   7.63794835
_cell_length_b   7.63776169
_cell_length_c   7.63758946
_cell_angle_alpha   90.00243064
_cell_angle_beta   89.99540112
_cell_angle_gamma   89.99274732
_symmetry_Int_Tables_number   1
_chemical_formula_structural   Mg(NO3)2
_chemical_formula_sum   'Mg4 N8 O24'
_cell_volume   445.55274696
_cell_formula_units_Z   4
loop_
 _symmetry_equiv_pos_site_id
 _symmetry_equiv_pos_as_xyz
  1  'x, y, z'
loop_
 _atom_site_type_symbol
 _atom_site_label
 _atom_site_symmetry_multiplicity
 _atom_site_fract_x
 _atom_site_fract_y
 _atom_site_fract_z
 _atom_site_occupancy
  Mg  Mg0  1  -0.000003  -0.000001  0.000001  1
  Mg  Mg1  1  0.000001  0.500004  0.500001  1
  Mg  Mg2  1  0.500006  0.000000  0.499999  1
  Mg  Mg3  1  0.499998  0.499998  -0.000003  1
  N  N4  1  0.166315  0.666513  0.833537  1
  N  N5  1  0.166475  0.833617  0.333573  1
  N  N6  1  0.333566  0.333497  0.333647  1
  N  N7  1  0.333397  0.166255  0.833569  1
  N  N8  1  0.666426  0.666556  0.666325  1
  N  N9  1  0.666518  0.833661  0.166431  1
  N  N10  1  0.833558  0.166403  0.666446  1
  N  N11  1  0.833713  0.333510  0.166507  1
  O  O12  1  0.048779  0.717489  0.331886  1
  O  O13  1  0.048858  0.782388  0.831877  1
  O  O14  1  0.168143  0.951175  0.217569  1
  O  O15  1  0.168165  0.548788  0.717548  1
  O  O16  1  0.217602  0.168152  0.951176  1
  O  O17  1  0.217564  0.331877  0.451173  1
  O  O18  1  0.282471  0.831847  0.451224  1
  O  O19  1  0.282530  0.668140  0.951262  1
  O  O20  1  0.331868  0.451249  0.217484  1
  O  O21  1  0.331868  0.048850  0.717581  1
  O  O22  1  0.451171  0.217580  0.331855  1
  O  O23  1  0.451303  0.282579  0.831865  1
  O  O24  1  0.548731  0.717451  0.168122  1
  O  O25  1  0.548845  0.782402  0.668147  1
  O  O26  1  0.668128  0.951147  0.282420  1
  O  O27  1  0.668147  0.548733  0.782540  1
  O  O28  1  0.717522  0.168166  0.548766  1
  O  O29  1  0.717448  0.331863  0.048721  1
  O  O30  1  0.782448  0.668134  0.548835  1
  O  O31  1  0.782418  0.831834  0.048802  1
  O  O32  1  0.831852  0.048830  0.782431  1
  O  O33  1  0.831835  0.451207  0.282439  1
  O  O34  1  0.951139  0.217620  0.168121  1
  O  O35  1  0.951218  0.282505  0.668121  1
