# generated using pymatgen
data_Na6HfH8S5O24
_symmetry_space_group_name_H-M   'P 1'
_cell_length_a   8.63151981
_cell_length_b   11.29002065
_cell_length_c   10.79416117
_cell_angle_alpha   90.00000000
_cell_angle_beta   98.69446285
_cell_angle_gamma   90.00000000
_symmetry_Int_Tables_number   1
_chemical_formula_structural   Na6HfH8S5O24
_chemical_formula_sum   'Na12 Hf2 H16 S10 O48'
_cell_volume   1039.80359463
_cell_formula_units_Z   2
loop_
 _symmetry_equiv_pos_site_id
 _symmetry_equiv_pos_as_xyz
  1  'x, y, z'
loop_
 _atom_site_type_symbol
 _atom_site_label
 _atom_site_symmetry_multiplicity
 _atom_site_fract_x
 _atom_site_fract_y
 _atom_site_fract_z
 _atom_site_occupancy
  Na  Na0  1  0.946073  0.824974  0.506494  1
  Na  Na1  1  0.053927  0.324974  0.493506  1
  Na  Na2  1  0.468809  0.191778  0.020643  1
  Na  Na3  1  0.531191  0.691778  0.979357  1
  Na  Na4  1  0.410418  0.470807  0.467349  1
  Na  Na5  1  0.589582  0.970807  0.532651  1
  Na  Na6  1  0.792897  0.969645  0.049301  1
  Na  Na7  1  0.207103  0.469645  0.950699  1
  Na  Na8  1  0.307122  0.823397  0.729179  1
  Na  Na9  1  0.692878  0.323397  0.270821  1
  Na  Na10  1  0.022656  0.563361  0.226175  1
  Na  Na11  1  0.977344  0.063361  0.773825  1
  Hf  Hf12  1  0.777143  0.502059  0.727017  1
  Hf  Hf13  1  0.222857  0.002059  0.272983  1
  H  H14  1  0.465367  0.157291  0.381709  1
  H  H15  1  0.534633  0.657291  0.618291  1
  H  H16  1  0.547309  0.075267  0.290752  1
  H  H17  1  0.452691  0.575267  0.709248  1
  H  H18  1  0.975826  0.658956  0.971056  1
  H  H19  1  0.024174  0.158956  0.028944  1
  H  H20  1  0.878355  0.230668  0.973089  1
  H  H21  1  0.121645  0.730668  0.026911  1
  H  H22  1  0.512221  0.042685  0.826964  1
  H  H23  1  0.487779  0.542685  0.173036  1
  H  H24  1  0.663689  0.113066  0.841114  1
  H  H25  1  0.336311  0.613066  0.158886  1
  H  H26  1  0.732880  0.756780  0.217683  1
  H  H27  1  0.267120  0.256780  0.782317  1
  H  H28  1  0.581254  0.830754  0.194830  1
  H  H29  1  0.418746  0.330754  0.805170  1
  S  S30  1  0.698344  0.268330  0.618981  1
  S  S31  1  0.301656  0.768330  0.381019  1
  S  S32  1  0.751234  0.801824  0.778037  1
  S  S33  1  0.248766  0.301824  0.221963  1
  S  S34  1  0.775174  0.560115  0.403305  1
  S  S35  1  0.224826  0.060115  0.596695  1
  S  S36  1  0.153303  0.574818  0.678899  1
  S  S37  1  0.846697  0.074818  0.321101  1
  S  S38  1  0.738834  0.447047  0.983781  1
  S  S39  1  0.261166  0.947047  0.016219  1
  O  O40  1  0.611002  0.346732  0.701250  1
  O  O41  1  0.388998  0.846732  0.298750  1
  O  O42  1  0.850646  0.338117  0.629870  1
  O  O43  1  0.149354  0.838117  0.370130  1
  O  O44  1  0.611528  0.267112  0.491043  1
  O  O45  1  0.388472  0.767112  0.508957  1
  O  O46  1  0.727357  0.148199  0.670122  1
  O  O47  1  0.272643  0.648199  0.329878  1
  O  O48  1  0.816880  0.674954  0.799100  1
  O  O49  1  0.183120  0.174954  0.200900  1
  O  O50  1  0.754442  0.833516  0.645817  1
  O  O51  1  0.245558  0.333516  0.354183  1
  O  O52  1  0.853585  0.879276  0.864256  1
  O  O53  1  0.146415  0.379276  0.135744  1
  O  O54  1  0.588011  0.800095  0.805593  1
  O  O55  1  0.411989  0.300094  0.194407  1
  O  O56  1  0.781762  0.566685  0.544910  1
  O  O57  1  0.218238  0.066685  0.455090  1
  O  O58  1  0.881648  0.465293  0.372258  1
  O  O59  1  0.118352  0.965293  0.627742  1
  O  O60  1  0.611234  0.531268  0.348355  1
  O  O61  1  0.388766  0.031268  0.651645  1
  O  O62  1  0.827213  0.675964  0.360529  1
  O  O63  1  0.172787  0.175964  0.639471  1
  O  O64  1  0.030268  0.514916  0.745744  1
  O  O65  1  0.969732  0.014916  0.254256  1
  O  O66  1  0.191872  0.494369  0.580427  1
  O  O67  1  0.808128  0.994369  0.419573  1
  O  O68  1  0.295445  0.591312  0.777288  1
  O  O69  1  0.704555  0.091312  0.222712  1
  O  O70  1  0.097322  0.691020  0.631563  1
  O  O71  1  0.902678  0.191020  0.368437  1
  O  O72  1  0.872241  0.422800  0.907319  1
  O  O73  1  0.127759  0.922800  0.092681  1
  O  O74  1  0.620550  0.504509  0.883802  1
  O  O75  1  0.379450  0.004509  0.116198  1
  O  O76  1  0.786192  0.530843  0.085390  1
  O  O77  1  0.213808  0.030843  0.914610  1
  O  O78  1  0.683387  0.334537  0.029525  1
  O  O79  1  0.316613  0.834537  0.970475  1
  O  O80  1  0.538664  0.577151  0.654692  1
  O  O81  1  0.461336  0.077151  0.345308  1
  O  O82  1  0.929440  0.154053  0.966513  1
  O  O83  1  0.070560  0.654053  0.033487  1
  O  O84  1  0.594527  0.073160  0.891843  1
  O  O85  1  0.405473  0.573160  0.108157  1
  O  O86  1  0.668350  0.804694  0.152745  1
  O  O87  1  0.331650  0.304694  0.847255  1
