# generated using pymatgen
data_Na6U5V2O23
_symmetry_space_group_name_H-M   'P 1'
_cell_length_a   7.10854179
_cell_length_b   12.79931180
_cell_length_c   24.57190668
_cell_angle_alpha   90.00000000
_cell_angle_beta   90.00000000
_cell_angle_gamma   100.57323665
_symmetry_Int_Tables_number   1
_chemical_formula_structural   Na6U5V2O23
_chemical_formula_sum   'Na24 U20 V8 O92'
_cell_volume   2197.70231918
_cell_formula_units_Z   4
loop_
 _symmetry_equiv_pos_site_id
 _symmetry_equiv_pos_as_xyz
  1  'x, y, z'
loop_
 _atom_site_type_symbol
 _atom_site_label
 _atom_site_symmetry_multiplicity
 _atom_site_fract_x
 _atom_site_fract_y
 _atom_site_fract_z
 _atom_site_occupancy
  Na  Na0  1  0.271663  0.022438  0.461576  1
  Na  Na1  1  0.737846  0.475511  0.534072  1
  Na  Na2  1  0.769924  0.114016  0.205527  1
  Na  Na3  1  0.750792  0.376965  0.690582  1
  Na  Na4  1  0.785072  0.076692  0.377548  1
  Na  Na5  1  0.250792  0.376965  0.809418  1
  Na  Na6  1  0.230076  0.885984  0.794473  1
  Na  Na7  1  0.269924  0.114016  0.294473  1
  Na  Na8  1  0.214928  0.923308  0.622452  1
  Na  Na9  1  0.228337  0.977562  0.961576  1
  Na  Na10  1  0.237846  0.475511  0.965928  1
  Na  Na11  1  0.762154  0.524489  0.034072  1
  Na  Na12  1  0.730076  0.885984  0.705527  1
  Na  Na13  1  0.258104  0.573907  0.100041  1
  Na  Na14  1  0.285072  0.076692  0.122452  1
  Na  Na15  1  0.241896  0.426093  0.600041  1
  Na  Na16  1  0.749208  0.623035  0.190582  1
  Na  Na17  1  0.741896  0.426093  0.899959  1
  Na  Na18  1  0.728337  0.977562  0.538424  1
  Na  Na19  1  0.262154  0.524489  0.465928  1
  Na  Na20  1  0.249208  0.623035  0.309418  1
  Na  Na21  1  0.714928  0.923308  0.877548  1
  Na  Na22  1  0.758104  0.573907  0.399959  1
  Na  Na23  1  0.771663  0.022438  0.038424  1
  U  U24  1  0.022716  0.813144  0.073436  1
  U  U25  1  0.527339  0.346397  0.147474  1
  U  U26  1  0.487711  0.708097  0.587811  1
  U  U27  1  0.477284  0.186856  0.573436  1
  U  U28  1  0.537711  0.834235  0.140357  1
  U  U29  1  0.972661  0.653603  0.647474  1
  U  U30  1  0.522716  0.813144  0.426564  1
  U  U31  1  0.472661  0.653603  0.852526  1
  U  U32  1  0.977284  0.186856  0.926564  1
  U  U33  1  0.489438  0.762762  0.992723  1
  U  U34  1  0.010562  0.237238  0.492723  1
  U  U35  1  0.989438  0.762762  0.507277  1
  U  U36  1  0.037711  0.834235  0.359643  1
  U  U37  1  0.027339  0.346397  0.352526  1
  U  U38  1  0.510562  0.237238  0.007277  1
  U  U39  1  0.987711  0.708097  0.912189  1
  U  U40  1  0.462289  0.165765  0.859643  1
  U  U41  1  0.962289  0.165765  0.640357  1
  U  U42  1  0.012289  0.291903  0.087811  1
  U  U43  1  0.512289  0.291903  0.412189  1
  V  V44  1  0.451806  0.108789  0.705095  1
  V  V45  1  0.048194  0.891211  0.205095  1
  V  V46  1  0.950403  0.560991  0.799346  1
  V  V47  1  0.548194  0.891211  0.294905  1
  V  V48  1  0.549597  0.439009  0.299346  1
  V  V49  1  0.049597  0.439009  0.200654  1
  V  V50  1  0.951806  0.108789  0.794905  1
  V  V51  1  0.450404  0.560991  0.700654  1
  O  O52  1  0.929957  0.038833  0.936586  1
  O  O53  1  0.194822  0.289862  0.420810  1
  O  O54  1  0.912929  0.519425  0.615714  1
  O  O55  1  0.974976  0.096742  0.467938  1
  O  O56  1  0.450682  0.619579  0.015815  1
  O  O57  1  0.438295  0.204746  0.487004  1
  O  O58  1  0.924024  0.568459  0.729076  1
  O  O59  1  0.988839  0.687636  0.350422  1
  O  O60  1  0.805179  0.710138  0.579190  1
  O  O61  1  0.836448  0.801817  0.432036  1
  O  O62  1  0.529078  0.787336  0.819269  1
  O  O63  1  0.575976  0.431541  0.229076  1
  O  O64  1  0.011161  0.312364  0.649578  1
  O  O65  1  0.552715  0.021102  0.282021  1
  O  O66  1  0.148631  0.646815  0.827882  1
  O  O67  1  0.070043  0.961167  0.063414  1
  O  O68  1  0.209380  0.817251  0.441555  1
  O  O69  1  0.648631  0.646815  0.672118  1
  O  O70  1  0.549318  0.380421  0.984185  1
  O  O71  1  0.142497  0.171041  0.838902  1
  O  O72  1  0.424024  0.568459  0.770924  1
  O  O73  1  0.941443  0.574821  0.948130  1
  O  O74  1  0.694821  0.289862  0.079190  1
  O  O75  1  0.709380  0.817251  0.058445  1
  O  O76  1  0.726409  0.393125  0.339622  1
  O  O77  1  0.955076  0.433817  0.814273  1
  O  O78  1  0.262227  0.124369  0.661461  1
  O  O79  1  0.762227  0.124369  0.838539  1
  O  O80  1  0.052541  0.823912  0.265667  1
  O  O81  1  0.642497  0.171041  0.661098  1
  O  O82  1  0.820890  0.273640  0.424010  1
  O  O83  1  0.525024  0.903258  0.967938  1
  O  O84  1  0.511161  0.312364  0.850422  1
  O  O85  1  0.773591  0.606875  0.839622  1
  O  O86  1  0.679110  0.726360  0.924010  1
  O  O87  1  0.163552  0.198183  0.567964  1
  O  O88  1  0.087071  0.480575  0.384286  1
  O  O89  1  0.412929  0.519425  0.884286  1
  O  O90  1  0.226409  0.393125  0.160378  1
  O  O91  1  0.663552  0.198183  0.932036  1
  O  O92  1  0.605226  0.981416  0.134103  1
  O  O93  1  0.305179  0.710138  0.920810  1
  O  O94  1  0.531455  0.334213  0.583548  1
  O  O95  1  0.947459  0.176088  0.734333  1
  O  O96  1  0.857503  0.828959  0.161098  1
  O  O97  1  0.025024  0.903258  0.532062  1
  O  O98  1  0.052715  0.021102  0.217979  1
  O  O99  1  0.552541  0.823912  0.234333  1
  O  O100  1  0.441443  0.574821  0.551870  1
  O  O101  1  0.894774  0.018584  0.634103  1
  O  O102  1  0.544924  0.566183  0.314273  1
  O  O103  1  0.025005  0.835333  0.873468  1
  O  O104  1  0.468545  0.665787  0.416452  1
  O  O105  1  0.938295  0.204746  0.012996  1
  O  O106  1  0.357503  0.828959  0.338902  1
  O  O107  1  0.290620  0.182749  0.941555  1
  O  O108  1  0.950682  0.619579  0.484185  1
  O  O109  1  0.470922  0.212664  0.180731  1
  O  O110  1  0.570043  0.961167  0.436586  1
  O  O111  1  0.974995  0.164667  0.126532  1
  O  O112  1  0.429957  0.038833  0.563414  1
  O  O113  1  0.790620  0.182749  0.558445  1
  O  O114  1  0.061705  0.795254  0.987004  1
  O  O115  1  0.737773  0.875631  0.338539  1
  O  O116  1  0.237773  0.875631  0.161461  1
  O  O117  1  0.474995  0.164667  0.373468  1
  O  O118  1  0.044924  0.566183  0.185727  1
  O  O119  1  0.525005  0.835333  0.626532  1
  O  O120  1  0.049318  0.380421  0.515815  1
  O  O121  1  0.447285  0.978898  0.717979  1
  O  O122  1  0.474976  0.096742  0.032062  1
  O  O123  1  0.273591  0.606875  0.660378  1
  O  O124  1  0.351369  0.353185  0.327882  1
  O  O125  1  0.447459  0.176088  0.765667  1
  O  O126  1  0.058557  0.425179  0.051870  1
  O  O127  1  0.031455  0.334213  0.916452  1
  O  O128  1  0.968545  0.665787  0.083548  1
  O  O129  1  0.105226  0.981416  0.365897  1
  O  O130  1  0.587071  0.480575  0.115714  1
  O  O131  1  0.851369  0.353185  0.172118  1
  O  O132  1  0.179110  0.726360  0.575990  1
  O  O133  1  0.336448  0.801817  0.067964  1
  O  O134  1  0.320890  0.273640  0.075990  1
  O  O135  1  0.970922  0.212664  0.319269  1
  O  O136  1  0.488839  0.687636  0.149578  1
  O  O137  1  0.561705  0.795254  0.512996  1
  O  O138  1  0.029078  0.787336  0.680731  1
  O  O139  1  0.947285  0.978898  0.782021  1
  O  O140  1  0.394774  0.018584  0.865897  1
  O  O141  1  0.075976  0.431541  0.270924  1
  O  O142  1  0.455076  0.433817  0.685727  1
  O  O143  1  0.558557  0.425179  0.448130  1
