# generated using pymatgen
data_Ti3Mn2Sb(PO4)6
_symmetry_space_group_name_H-M   'P 1'
_cell_length_a   8.76778652
_cell_length_b   8.76778707
_cell_length_c   8.76778672
_cell_angle_alpha   60.14399831
_cell_angle_beta   60.14399862
_cell_angle_gamma   60.14400089
_symmetry_Int_Tables_number   1
_chemical_formula_structural   Ti3Mn2Sb(PO4)6
_chemical_formula_sum   'Ti3 Mn2 Sb1 P6 O24'
_cell_volume   478.15558960
_cell_formula_units_Z   1
loop_
 _symmetry_equiv_pos_site_id
 _symmetry_equiv_pos_as_xyz
  1  'x, y, z'
loop_
 _atom_site_type_symbol
 _atom_site_label
 _atom_site_symmetry_multiplicity
 _atom_site_fract_x
 _atom_site_fract_y
 _atom_site_fract_z
 _atom_site_occupancy
  Ti  Ti0  1  0.145858  0.145858  0.145858  1
  Ti  Ti1  1  0.352831  0.352831  0.352831  1
  Ti  Ti2  1  0.646243  0.646243  0.646243  1
  Mn  Mn3  1  0.000479  0.000479  0.000479  1
  Mn  Mn4  1  0.499057  0.499057  0.499057  1
  Sb  Sb5  1  0.852177  0.852177  0.852177  1
  P  P6  1  0.051649  0.748088  0.443106  1
  P  P7  1  0.443106  0.051649  0.748088  1
  P  P8  1  0.260874  0.536496  0.957062  1
  P  P9  1  0.536496  0.957062  0.260874  1
  P  P10  1  0.957062  0.260874  0.536496  1
  P  P11  1  0.748088  0.443106  0.051649  1
  O  O12  1  0.111588  0.334872  0.478378  1
  O  O13  1  0.334872  0.478378  0.111588  1
  O  O14  1  0.064747  0.910244  0.253522  1
  O  O15  1  0.478378  0.111588  0.334872  1
  O  O16  1  0.032822  0.806024  0.591126  1
  O  O17  1  0.241411  0.584734  0.421764  1
  O  O18  1  0.253522  0.064747  0.910244  1
  O  O19  1  0.421764  0.241411  0.584734  1
  O  O20  1  0.189740  0.384562  0.999510  1
  O  O21  1  0.584734  0.421764  0.241411  1
  O  O22  1  0.108325  0.729771  0.952262  1
  O  O23  1  0.384562  0.999510  0.189740  1
  O  O24  1  0.591126  0.032822  0.806024  1
  O  O25  1  0.910244  0.253522  0.064747  1
  O  O26  1  0.420823  0.550712  0.764197  1
  O  O27  1  0.806024  0.591126  0.032822  1
  O  O28  1  0.550712  0.764197  0.420823  1
  O  O29  1  0.729771  0.952262  0.108325  1
  O  O30  1  0.764197  0.420823  0.550712  1
  O  O31  1  0.999510  0.189740  0.384562  1
  O  O32  1  0.499362  0.883008  0.692578  1
  O  O33  1  0.952262  0.108325  0.729771  1
  O  O34  1  0.692578  0.499362  0.883008  1
  O  O35  1  0.883008  0.692578  0.499362  1
