# generated using pymatgen
data_Li3VCrP2(O4F)2
_symmetry_space_group_name_H-M   'P 1'
_cell_length_a   5.29097318
_cell_length_b   5.38054453
_cell_length_c   7.50869210
_cell_angle_alpha   73.82089723
_cell_angle_beta   71.73359146
_cell_angle_gamma   97.01602196
_symmetry_Int_Tables_number   1
_chemical_formula_structural   Li3VCrP2(O4F)2
_chemical_formula_sum   'Li3 V1 Cr1 P2 O8 F2'
_cell_volume   189.73659634
_cell_formula_units_Z   1
loop_
 _symmetry_equiv_pos_site_id
 _symmetry_equiv_pos_as_xyz
  1  'x, y, z'
loop_
 _atom_site_type_symbol
 _atom_site_label
 _atom_site_symmetry_multiplicity
 _atom_site_fract_x
 _atom_site_fract_y
 _atom_site_fract_z
 _atom_site_occupancy
  Li  Li0  1  0.239614  0.579665  0.854854  1
  Li  Li1  1  0.506416  0.971190  0.507979  1
  Li  Li2  1  0.743467  0.409837  0.160049  1
  V  V3  1  0.999893  0.000171  0.999282  1
  Cr  Cr4  1  0.006058  0.002465  0.499596  1
  P  P5  1  0.334381  0.639846  0.240395  1
  P  P6  1  0.666943  0.361847  0.757397  1
  O  O7  1  0.128516  0.667808  0.125080  1
  O  O8  1  0.275852  0.788136  0.390896  1
  O  O9  1  0.324847  0.343240  0.338658  1
  O  O10  1  0.631759  0.752346  0.082330  1
  O  O11  1  0.368592  0.250243  0.914268  1
  O  O12  1  0.679244  0.659694  0.657055  1
  O  O13  1  0.728407  0.211150  0.608615  1
  O  O14  1  0.869306  0.333394  0.875938  1
  F  F15  1  0.164309  0.910457  0.750001  1
  F  F16  1  0.839735  0.084930  0.250887  1
