# generated using pymatgen
data_Li4MnFe3(BO3)4
_symmetry_space_group_name_H-M   'P 1'
_cell_length_a   7.89269352
_cell_length_b   5.25326250
_cell_length_c   6.20097961
_cell_angle_alpha   88.82892927
_cell_angle_beta   78.38759651
_cell_angle_gamma   88.46504518
_symmetry_Int_Tables_number   1
_chemical_formula_structural   Li4MnFe3(BO3)4
_chemical_formula_sum   'Li4 Mn1 Fe3 B4 O12'
_cell_volume   251.72479641
_cell_formula_units_Z   1
loop_
 _symmetry_equiv_pos_site_id
 _symmetry_equiv_pos_as_xyz
  1  'x, y, z'
loop_
 _atom_site_type_symbol
 _atom_site_label
 _atom_site_symmetry_multiplicity
 _atom_site_fract_x
 _atom_site_fract_y
 _atom_site_fract_z
 _atom_site_occupancy
  Li  Li0  1  0.804033  0.566023  0.871370  1
  Li  Li1  1  0.696722  0.931352  0.628731  1
  Li  Li2  1  0.303425  0.065610  0.371039  1
  Li  Li3  1  0.197336  0.433004  0.127262  1
  Mn  Mn4  1  0.677226  0.074294  0.089339  1
  Fe  Fe5  1  0.828450  0.430038  0.413106  1
  Fe  Fe6  1  0.324766  0.931799  0.912255  1
  Fe  Fe7  1  0.179482  0.578540  0.587488  1
  B  B8  1  0.496649  0.426900  0.760544  1
  B  B9  1  0.997873  0.926498  0.263059  1
  B  B10  1  0.002046  0.072666  0.736821  1
  B  B11  1  0.500357  0.574891  0.239603  1
  O  O12  1  0.977838  0.332148  0.703855  1
  O  O13  1  0.866411  0.921759  0.836696  1
  O  O14  1  0.836249  0.041805  0.344588  1
  O  O15  1  0.520647  0.164036  0.791795  1
  O  O16  1  0.634013  0.572444  0.661516  1
  O  O17  1  0.334014  0.539985  0.840538  1
  O  O18  1  0.664692  0.465665  0.162969  1
  O  O19  1  0.364457  0.423214  0.341240  1
  O  O20  1  0.472410  0.833602  0.204075  1
  O  O21  1  0.165172  0.957199  0.658230  1
  O  O22  1  0.134382  0.071438  0.158000  1
  O  O23  1  0.021349  0.665088  0.295878  1
