# generated using pymatgen
data_Li4MnSn(WO6)2
_symmetry_space_group_name_H-M   'P 1'
_cell_length_a   5.42290314
_cell_length_b   10.86872109
_cell_length_c   9.56879621
_cell_angle_alpha   28.28358701
_cell_angle_beta   51.45100280
_cell_angle_gamma   56.73620928
_symmetry_Int_Tables_number   1
_chemical_formula_structural   Li4MnSn(WO6)2
_chemical_formula_sum   'Li4 Mn1 Sn1 W2 O12'
_cell_volume   208.99898658
_cell_formula_units_Z   1
loop_
 _symmetry_equiv_pos_site_id
 _symmetry_equiv_pos_as_xyz
  1  'x, y, z'
loop_
 _atom_site_type_symbol
 _atom_site_label
 _atom_site_symmetry_multiplicity
 _atom_site_fract_x
 _atom_site_fract_y
 _atom_site_fract_z
 _atom_site_occupancy
  Li  Li0  1  0.273266  0.002480  0.297926  1
  Li  Li1  1  0.309989  0.498123  0.282807  1
  Li  Li2  1  0.781263  0.002484  0.756006  1
  Li  Li3  1  0.762742  0.497058  0.786707  1
  Mn  Mn4  1  0.001121  0.498347  0.005766  1
  Sn  Sn5  1  0.001670  0.000692  0.000313  1
  W  W6  1  0.502691  0.997410  0.504925  1
  W  W7  1  0.499489  0.504222  0.500221  1
  O  O8  1  0.359036  0.294692  0.138900  1
  O  O9  1  0.239434  0.128146  0.612559  1
  O  O10  1  0.125756  0.338119  0.716159  1
  O  O11  1  0.858042  0.199972  0.236273  1
  O  O12  1  0.393328  0.805546  0.120614  1
  O  O13  1  0.732056  0.379183  0.368209  1
  O  O14  1  0.249161  0.620783  0.625850  1
  O  O15  1  0.605787  0.183268  0.874869  1
  O  O16  1  0.134531  0.806048  0.746786  1
  O  O17  1  0.878172  0.675280  0.252550  1
  O  O18  1  0.728081  0.873888  0.383843  1
  O  O19  1  0.635585  0.694261  0.859914  1
