# generated using pymatgen
data_LiV3P5O19
_symmetry_space_group_name_H-M   'P 1'
_cell_length_a   8.50341004
_cell_length_b   8.50341004
_cell_length_c   6.35293541
_cell_angle_alpha   81.58504830
_cell_angle_beta   98.41495170
_cell_angle_gamma   66.05429075
_symmetry_Int_Tables_number   1
_chemical_formula_structural   LiV3P5O19
_chemical_formula_sum   'Li1 V3 P5 O19'
_cell_volume   404.41427675
_cell_formula_units_Z   1
loop_
 _symmetry_equiv_pos_site_id
 _symmetry_equiv_pos_as_xyz
  1  'x, y, z'
loop_
 _atom_site_type_symbol
 _atom_site_label
 _atom_site_symmetry_multiplicity
 _atom_site_fract_x
 _atom_site_fract_y
 _atom_site_fract_z
 _atom_site_occupancy
  Li  Li0  1  0.904199  0.095801  0.471373  1
  V  V1  1  0.234747  0.765253  0.155670  1
  V  V2  1  0.511598  0.244172  0.820775  1
  V  V3  1  0.755828  0.488402  0.820775  1
  P  P4  1  0.327419  0.672581  0.695705  1
  P  P5  1  0.392261  0.315225  0.272133  1
  P  P6  1  0.684775  0.607739  0.272133  1
  P  P7  1  0.186630  0.183847  0.999721  1
  P  P8  1  0.816153  0.813370  0.999721  1
  O  O9  1  0.219824  0.780176  0.845078  1
  O  O10  1  0.221769  0.778231  0.461263  1
  O  O11  1  0.001981  0.322395  0.884786  1
  O  O12  1  0.677605  0.998019  0.884786  1
  O  O13  1  0.332071  0.486537  0.738000  1
  O  O14  1  0.513463  0.667929  0.738000  1
  O  O15  1  0.483531  0.708371  0.221702  1
  O  O16  1  0.291629  0.516469  0.221702  1
  O  O17  1  0.317376  0.163780  0.856309  1
  O  O18  1  0.836220  0.682624  0.856309  1
  O  O19  1  0.753143  0.755851  0.214602  1
  O  O20  1  0.244149  0.246857  0.214602  1
  O  O21  1  0.480660  0.232174  0.510868  1
  O  O22  1  0.767826  0.519340  0.510868  1
  O  O23  1  0.679878  0.320122  0.810252  1
  O  O24  1  0.986111  0.823906  0.098700  1
  O  O25  1  0.176094  0.013890  0.098700  1
  O  O26  1  0.531480  0.247541  0.136965  1
  O  O27  1  0.752459  0.468520  0.136965  1
