# generated using pymatgen
data_Na7Ti11O24
_symmetry_space_group_name_H-M   'P 1'
_cell_length_a   6.23157848
_cell_length_b   10.62446061
_cell_length_c   8.82675832
_cell_angle_alpha   66.15819299
_cell_angle_beta   92.23672356
_cell_angle_gamma   73.90740550
_symmetry_Int_Tables_number   1
_chemical_formula_structural   Na7Ti11O24
_chemical_formula_sum   'Na7 Ti11 O24'
_cell_volume   505.93470445
_cell_formula_units_Z   1
loop_
 _symmetry_equiv_pos_site_id
 _symmetry_equiv_pos_as_xyz
  1  'x, y, z'
loop_
 _atom_site_type_symbol
 _atom_site_label
 _atom_site_symmetry_multiplicity
 _atom_site_fract_x
 _atom_site_fract_y
 _atom_site_fract_z
 _atom_site_occupancy
  Na  Na0  1  0.657737  0.656716  0.673901  1
  Na  Na1  1  0.583370  0.333312  0.708240  1
  Na  Na2  1  0.509002  0.009790  0.742893  1
  Na  Na3  1  0.185661  0.656903  0.419364  1
  Na  Na4  1  0.346812  0.333348  0.324493  1
  Na  Na5  1  0.819687  0.333501  0.092043  1
  Na  Na6  1  0.981151  0.009624  0.997335  1
  Ti  Ti7  1  0.232986  0.498518  0.878283  1
  Ti  Ti8  1  0.083216  0.833386  0.708396  1
  Ti  Ti9  1  0.083417  0.332986  0.708665  1
  Ti  Ti10  1  0.933670  0.168345  0.537877  1
  Ti  Ti11  1  0.583138  0.833379  0.208188  1
  Ti  Ti12  1  0.768749  0.498049  0.373251  1
  Ti  Ti13  1  0.753330  0.993221  0.378507  1
  Ti  Ti14  1  0.413148  0.673696  0.038075  1
  Ti  Ti15  1  0.254152  0.991452  0.379263  1
  Ti  Ti16  1  0.912803  0.674802  0.037761  1
  Ti  Ti17  1  0.398206  0.168581  0.043705  1
  O  O18  1  0.585590  0.818016  0.987200  1
  O  O19  1  0.096502  0.817994  0.944804  1
  O  O20  1  0.940003  0.674980  0.811311  1
  O  O21  1  0.372156  0.659668  0.816956  1
  O  O22  1  0.500015  0.333383  0.985989  1
  O  O23  1  0.089607  0.333317  0.938427  1
  O  O24  1  0.378791  0.182393  0.823997  1
  O  O25  1  0.070197  0.848781  0.471775  1
  O  O26  1  0.227663  0.484392  0.673031  1
  O  O27  1  0.939105  0.182205  0.743651  1
  O  O28  1  0.787984  0.484271  0.592607  1
  O  O29  1  0.581125  0.848796  0.429545  1
  O  O30  1  0.666482  0.333375  0.430665  1
  O  O31  1  0.076903  0.333213  0.478106  1
  O  O32  1  0.226713  0.991575  0.605466  1
  O  O33  1  0.884992  0.675071  0.263793  1
  O  O34  1  0.794418  0.006960  0.599694  1
  O  O35  1  0.468224  0.659768  0.273312  1
  O  O36  1  0.944180  0.130111  0.319865  1
  O  O37  1  0.741071  0.536779  0.116464  1
  O  O38  1  0.425491  0.130085  0.299966  1
  O  O39  1  0.222421  0.536772  0.096902  1
  O  O40  1  0.281669  0.991558  0.152921  1
  O  O41  1  0.698461  0.006929  0.143311  1
