# generated using pymatgen
data_Li12CrGa11O24
_symmetry_space_group_name_H-M   'P 1'
_cell_length_a   9.86144806
_cell_length_b   8.20110042
_cell_length_c   7.47903118
_cell_angle_alpha   65.45267111
_cell_angle_beta   86.67427533
_cell_angle_gamma   78.88202919
_symmetry_Int_Tables_number   1
_chemical_formula_structural   Li12CrGa11O24
_chemical_formula_sum   'Li12 Cr1 Ga11 O24'
_cell_volume   539.70453138
_cell_formula_units_Z   1
loop_
 _symmetry_equiv_pos_site_id
 _symmetry_equiv_pos_as_xyz
  1  'x, y, z'
loop_
 _atom_site_type_symbol
 _atom_site_label
 _atom_site_symmetry_multiplicity
 _atom_site_fract_x
 _atom_site_fract_y
 _atom_site_fract_z
 _atom_site_occupancy
  Li  Li0  1  0.735246  0.388540  0.850845  1
  Li  Li1  1  0.430530  0.444481  0.990153  1
  Li  Li2  1  0.762475  0.112774  0.655238  1
  Li  Li3  1  0.984734  0.391055  0.097683  1
  Li  Li4  1  0.651468  0.724379  0.430764  1
  Li  Li5  1  0.318089  0.057665  0.764591  1
  Li  Li6  1  0.512510  0.112272  0.405207  1
  Li  Li7  1  0.846259  0.778127  0.071665  1
  Li  Li8  1  0.177751  0.445614  0.738433  1
  Li  Li9  1  0.400514  0.724060  0.179540  1
  Li  Li10  1  0.067265  0.057092  0.515055  1
  Li  Li11  1  0.096022  0.779422  0.320831  1
  Cr  Cr12  1  0.484316  0.389801  0.601358  1
  Ga  Ga13  1  0.902370  0.723895  0.679074  1
  Ga  Ga14  1  0.597010  0.776605  0.820302  1
  Ga  Ga15  1  0.930095  0.443118  0.487284  1
  Ga  Ga16  1  0.818875  0.054902  0.264173  1
  Ga  Ga17  1  0.152623  0.721873  0.928781  1
  Ga  Ga18  1  0.681342  0.446452  0.234131  1
  Ga  Ga19  1  0.014477  0.111409  0.902958  1
  Ga  Ga20  1  0.347782  0.780476  0.566402  1
  Ga  Ga21  1  0.234654  0.391404  0.343328  1
  Ga  Ga22  1  0.570940  0.051865  0.018923  1
  Ga  Ga23  1  0.263720  0.109270  0.153816  1
  O  O24  1  0.979532  0.658788  0.927526  1
  O  O25  1  0.874316  0.263990  0.718294  1
  O  O26  1  0.684249  0.927513  0.886782  1
  O  O27  1  0.728827  0.657306  0.701655  1
  O  O28  1  0.558195  0.299923  0.866975  1
  O  O29  1  0.886781  0.974839  0.521123  1
  O  O30  1  0.782339  0.580226  0.310298  1
  O  O31  1  0.115723  0.246667  0.976705  1
  O  O32  1  0.448847  0.913536  0.643623  1
  O  O33  1  0.942248  0.945859  0.126965  1
  O  O34  1  0.277241  0.611737  0.791914  1
  O  O35  1  0.609475  0.281732  0.459653  1
  O  O36  1  0.468203  0.649931  0.447708  1
  O  O37  1  0.804839  0.307737  0.127520  1
  O  O38  1  0.137531  0.974738  0.792894  1
  O  O39  1  0.646863  0.988652  0.267081  1
  O  O40  1  0.309179  0.327841  0.592506  1
  O  O41  1  0.540797  0.597590  0.050660  1
  O  O42  1  0.206213  0.931920  0.384665  1
  O  O43  1  0.016946  0.595596  0.552375  1
  O  O44  1  0.350177  0.261812  0.219582  1
  O  O45  1  0.395530  0.992132  0.033735  1
  O  O46  1  0.061422  0.325086  0.367371  1
  O  O47  1  0.219862  0.641899  0.185453  1
