# generated using pymatgen
data_Li3CoPCO7
_symmetry_space_group_name_H-M   'P 1'
_cell_length_a   8.44071873
_cell_length_b   4.97759055
_cell_length_c   12.92155032
_cell_angle_alpha   89.94838159
_cell_angle_beta   90.30907298
_cell_angle_gamma   85.05667754
_symmetry_Int_Tables_number   1
_chemical_formula_structural   Li3CoPCO7
_chemical_formula_sum   'Li12 Co4 P4 C4 O28'
_cell_volume   540.86402045
_cell_formula_units_Z   4
loop_
 _symmetry_equiv_pos_site_id
 _symmetry_equiv_pos_as_xyz
  1  'x, y, z'
loop_
 _atom_site_type_symbol
 _atom_site_label
 _atom_site_symmetry_multiplicity
 _atom_site_fract_x
 _atom_site_fract_y
 _atom_site_fract_z
 _atom_site_occupancy
  Li  Li0  1  0.097908  0.764909  0.124817  1
  Li  Li1  1  0.101480  0.768407  0.629464  1
  Li  Li2  1  0.278916  0.247673  0.514991  1
  Li  Li3  1  0.273068  0.251818  0.247701  1
  Li  Li4  1  0.280557  0.235366  0.740086  1
  Li  Li5  1  0.347822  0.778753  0.868800  1
  Li  Li6  1  0.718983  0.754779  0.981618  1
  Li  Li7  1  0.720962  0.752660  0.264013  1
  Li  Li8  1  0.724652  0.749972  0.493253  1
  Li  Li9  1  0.719995  0.750681  0.762925  1
  Li  Li10  1  0.902134  0.233691  0.378280  1
  Li  Li11  1  0.900825  0.234400  0.870980  1
  Co  Co12  1  0.261232  0.246197  0.996588  1
  Co  Co13  1  0.332356  0.791131  0.376328  1
  Co  Co14  1  0.666373  0.206549  0.124496  1
  Co  Co15  1  0.666793  0.208380  0.625617  1
  P  P16  1  0.412723  0.726900  0.123741  1
  P  P17  1  0.411521  0.722635  0.625840  1
  P  P18  1  0.586901  0.280162  0.374144  1
  P  P19  1  0.586227  0.284764  0.876790  1
  C  C20  1  0.037150  0.701595  0.373046  1
  C  C21  1  0.040275  0.704691  0.881452  1
  C  C22  1  0.961653  0.297184  0.624714  1
  C  C23  1  0.962576  0.295225  0.122780  1
  O  O24  1  0.070749  0.953179  0.881885  1
  O  O25  1  0.072810  0.948763  0.373818  1
  O  O26  1  0.111999  0.355596  0.117579  1
  O  O27  1  0.106772  0.361962  0.625071  1
  O  O28  1  0.153983  0.511005  0.370580  1
  O  O29  1  0.156575  0.512571  0.885336  1
  O  O30  1  0.308160  0.826732  0.530421  1
  O  O31  1  0.309922  0.843229  0.031401  1
  O  O32  1  0.310257  0.820605  0.219337  1
  O  O33  1  0.309523  0.823915  0.718385  1
  O  O34  1  0.420354  0.174367  0.374098  1
  O  O35  1  0.419177  0.177969  0.876352  1
  O  O36  1  0.433406  0.407173  0.623627  1
  O  O37  1  0.427890  0.410546  0.116793  1
  O  O38  1  0.567108  0.593918  0.373533  1
  O  O39  1  0.571698  0.594787  0.877002  1
  O  O40  1  0.581273  0.822860  0.126774  1
  O  O41  1  0.579205  0.828002  0.624302  1
  O  O42  1  0.691932  0.174533  0.467522  1
  O  O43  1  0.689926  0.176091  0.280011  1
  O  O44  1  0.687658  0.172447  0.782982  1
  O  O45  1  0.690870  0.172459  0.970402  1
  O  O46  1  0.850571  0.487654  0.125649  1
  O  O47  1  0.843076  0.485812  0.624765  1
  O  O48  1  0.891287  0.639374  0.374723  1
  O  O49  1  0.894439  0.637810  0.874577  1
  O  O50  1  0.929232  0.048753  0.126008  1
  O  O51  1  0.927068  0.049361  0.624604  1
