# generated using pymatgen
data_Li2CuAsO4
_symmetry_space_group_name_H-M   'P 1'
_cell_length_a   5.57832957
_cell_length_b   5.09891106
_cell_length_c   6.87860439
_cell_angle_alpha   90.00000000
_cell_angle_beta   88.35089684
_cell_angle_gamma   90.00000000
_symmetry_Int_Tables_number   1
_chemical_formula_structural   Li2CuAsO4
_chemical_formula_sum   'Li4 Cu2 As2 O8'
_cell_volume   195.56990471
_cell_formula_units_Z   2
loop_
 _symmetry_equiv_pos_site_id
 _symmetry_equiv_pos_as_xyz
  1  'x, y, z'
loop_
 _atom_site_type_symbol
 _atom_site_label
 _atom_site_symmetry_multiplicity
 _atom_site_fract_x
 _atom_site_fract_y
 _atom_site_fract_z
 _atom_site_occupancy
  Li  Li0  1  0.088215  0.967070  0.182638  1
  Li  Li1  1  0.193418  0.485821  0.486125  1
  Li  Li2  1  0.806582  0.985821  0.513875  1
  Li  Li3  1  0.911785  0.467070  0.817362  1
  Cu  Cu4  1  0.334045  0.549371  0.999427  1
  Cu  Cu5  1  0.665955  0.049371  0.000573  1
  As  As6  1  0.276948  0.993247  0.733308  1
  As  As7  1  0.723052  0.493247  0.266692  1
  O  O8  1  0.130199  0.148280  0.925377  1
  O  O9  1  0.154280  0.100482  0.521363  1
  O  O10  1  0.236824  0.652954  0.745368  1
  O  O11  1  0.584688  0.056739  0.734975  1
  O  O12  1  0.415312  0.556739  0.265025  1
  O  O13  1  0.763176  0.152954  0.254632  1
  O  O14  1  0.845720  0.600482  0.478637  1
  O  O15  1  0.869801  0.648280  0.074623  1
