# generated using pymatgen
data_V3FeCu2(PO4)6
_symmetry_space_group_name_H-M   'P 1'
_cell_length_a   8.56377859
_cell_length_b   8.58861424
_cell_length_c   8.58861426
_cell_angle_alpha   60.00000110
_cell_angle_beta   59.90402151
_cell_angle_gamma   59.90402151
_symmetry_Int_Tables_number   1
_chemical_formula_structural   V3FeCu2(PO4)6
_chemical_formula_sum   'V3 Fe1 Cu2 P6 O24'
_cell_volume   446.03102417
_cell_formula_units_Z   1
loop_
 _symmetry_equiv_pos_site_id
 _symmetry_equiv_pos_as_xyz
  1  'x, y, z'
loop_
 _atom_site_type_symbol
 _atom_site_label
 _atom_site_symmetry_multiplicity
 _atom_site_fract_x
 _atom_site_fract_y
 _atom_site_fract_z
 _atom_site_occupancy
  V  V0  1  0.071317  0.642894  0.642894  1
  V  V1  1  0.426776  0.857741  0.857741  1
  V  V2  1  0.928012  0.357329  0.357329  1
  Fe  Fe3  1  0.571282  0.142906  0.142906  1
  Cu  Cu4  1  0.996111  0.001297  0.001297  1
  Cu  Cu5  1  0.498767  0.500411  0.500411  1
  P  P6  1  0.250821  0.249801  0.540369  1
  P  P7  1  0.250821  0.959007  0.249801  1
  P  P8  1  0.250821  0.540369  0.959007  1
  P  P9  1  0.751106  0.458820  0.039957  1
  P  P10  1  0.751106  0.039957  0.750116  1
  P  P11  1  0.751106  0.750116  0.458820  1
  O  O12  1  0.067100  0.123347  0.305006  1
  O  O13  1  0.067100  0.504546  0.123347  1
  O  O14  1  0.067100  0.305006  0.504546  1
  O  O15  1  0.239135  0.082924  0.735417  1
  O  O16  1  0.432178  0.196501  0.380900  1
  O  O17  1  0.255220  0.417630  0.561653  1
  O  O18  1  0.239135  0.942524  0.082924  1
  O  O19  1  0.255220  0.765497  0.417630  1
  O  O20  1  0.567457  0.622774  0.004201  1
  O  O21  1  0.255220  0.561653  0.765497  1
  O  O22  1  0.766503  0.266772  0.053448  1
  O  O23  1  0.567457  0.004201  0.805568  1
  O  O24  1  0.432178  0.990422  0.196501  1
  O  O25  1  0.239135  0.735417  0.942524  1
  O  O26  1  0.740563  0.444528  0.233325  1
  O  O27  1  0.432178  0.380900  0.990422  1
  O  O28  1  0.740563  0.233325  0.581585  1
  O  O29  1  0.766503  0.053448  0.913277  1
  O  O30  1  0.740563  0.581585  0.444528  1
  O  O31  1  0.567457  0.805568  0.622774  1
  O  O32  1  0.766503  0.913277  0.266772  1
  O  O33  1  0.932496  0.689935  0.499901  1
  O  O34  1  0.932496  0.499901  0.877668  1
  O  O35  1  0.932496  0.877668  0.689935  1
