# generated using pymatgen
data_Li2Ni3OF6
_symmetry_space_group_name_H-M   'P 1'
_cell_length_a   6.50667301
_cell_length_b   6.05904201
_cell_length_c   7.97491522
_cell_angle_alpha   101.38354900
_cell_angle_beta   114.96044073
_cell_angle_gamma   101.20807525
_symmetry_Int_Tables_number   1
_chemical_formula_structural   Li2Ni3OF6
_chemical_formula_sum   'Li4 Ni6 O2 F12'
_cell_volume   265.44498349
_cell_formula_units_Z   2
loop_
 _symmetry_equiv_pos_site_id
 _symmetry_equiv_pos_as_xyz
  1  'x, y, z'
loop_
 _atom_site_type_symbol
 _atom_site_label
 _atom_site_symmetry_multiplicity
 _atom_site_fract_x
 _atom_site_fract_y
 _atom_site_fract_z
 _atom_site_occupancy
  Li  Li0  1  0.316494  0.680580  0.471461  1
  Li  Li1  1  0.372735  0.880034  0.062596  1
  Li  Li2  1  0.627265  0.119966  0.937404  1
  Li  Li3  1  0.683506  0.319420  0.528539  1
  Ni  Ni4  1  0.227317  0.217660  0.655718  1
  Ni  Ni5  1  0.058389  0.074419  0.220530  1
  Ni  Ni6  1  0.656905  0.646216  0.930607  1
  Ni  Ni7  1  0.343095  0.353783  0.069393  1
  Ni  Ni8  1  0.941611  0.925581  0.779470  1
  Ni  Ni9  1  0.772683  0.782340  0.344282  1
  O  O10  1  0.281740  0.070985  0.864747  1
  O  O11  1  0.718260  0.929015  0.135253  1
  F  F12  1  0.141109  0.909046  0.434151  1
  F  F13  1  0.302023  0.531486  0.865652  1
  F  F14  1  0.154800  0.366656  0.442923  1
  F  F15  1  0.987522  0.222154  0.001239  1
  F  F16  1  0.596047  0.822743  0.728183  1
  F  F17  1  0.420275  0.664279  0.270084  1
  F  F18  1  0.579725  0.335721  0.729916  1
  F  F19  1  0.403953  0.177257  0.271817  1
  F  F20  1  0.012478  0.777846  0.998761  1
  F  F21  1  0.845200  0.633344  0.557077  1
  F  F22  1  0.697977  0.468514  0.134348  1
  F  F23  1  0.858891  0.090954  0.565849  1
