# generated using pymatgen
data_Li2Cr3P9O28
_symmetry_space_group_name_H-M   'P 1'
_cell_length_a   7.07105725
_cell_length_b   9.23014408
_cell_length_c   9.04343681
_cell_angle_alpha   68.35423455
_cell_angle_beta   99.27593570
_cell_angle_gamma   70.16389817
_symmetry_Int_Tables_number   1
_chemical_formula_structural   Li2Cr3P9O28
_chemical_formula_sum   'Li2 Cr3 P9 O28'
_cell_volume   487.60078153
_cell_formula_units_Z   1
loop_
 _symmetry_equiv_pos_site_id
 _symmetry_equiv_pos_as_xyz
  1  'x, y, z'
loop_
 _atom_site_type_symbol
 _atom_site_label
 _atom_site_symmetry_multiplicity
 _atom_site_fract_x
 _atom_site_fract_y
 _atom_site_fract_z
 _atom_site_occupancy
  Li  Li0  1  0.954801  0.528360  0.956658  1
  Li  Li1  1  0.545199  0.971640  0.043342  1
  Cr  Cr2  1  0.750000  0.750000  0.500000  1
  Cr  Cr3  1  0.492621  0.506590  0.987430  1
  Cr  Cr4  1  0.007379  0.993410  0.012570  1
  P  P5  1  0.556664  0.302508  0.753514  1
  P  P6  1  0.039517  0.818730  0.761263  1
  P  P7  1  0.936756  0.332269  0.700260  1
  P  P8  1  0.405513  0.854912  0.679000  1
  P  P9  1  0.250000  0.250000  0.500000  1
  P  P10  1  0.563244  0.167731  0.299740  1
  P  P11  1  0.094487  0.645088  0.321000  1
  P  P12  1  0.943336  0.197492  0.246486  1
  P  P13  1  0.460483  0.681270  0.238737  1
  O  O14  1  0.673495  0.125559  0.910477  1
  O  O15  1  0.172403  0.634532  0.908033  1
  O  O16  1  0.536792  0.723459  0.862983  1
  O  O17  1  0.061794  0.195424  0.881436  1
  O  O18  1  0.985091  0.961493  0.812664  1
  O  O19  1  0.479460  0.454068  0.791055  1
  O  O20  1  0.893024  0.507875  0.693656  1
  O  O21  1  0.368942  0.040542  0.663994  1
  O  O22  1  0.839010  0.830199  0.659339  1
  O  O23  1  0.362055  0.313690  0.631851  1
  O  O24  1  0.711059  0.326131  0.643209  1
  O  O25  1  0.175682  0.857026  0.638331  1
  O  O26  1  0.480711  0.816319  0.546473  1
  O  O27  1  0.028646  0.296290  0.563989  1
  O  O28  1  0.019289  0.683681  0.453527  1
  O  O29  1  0.471354  0.203710  0.436011  1
  O  O30  1  0.788941  0.173869  0.356791  1
  O  O31  1  0.324318  0.642974  0.361669  1
  O  O32  1  0.660990  0.669801  0.340661  1
  O  O33  1  0.137945  0.186310  0.368149  1
  O  O34  1  0.606976  0.992125  0.306344  1
  O  O35  1  0.131058  0.459458  0.336006  1
  O  O36  1  0.514909  0.538507  0.187336  1
  O  O37  1  0.020540  0.045932  0.208945  1
  O  O38  1  0.963208  0.776541  0.137017  1
  O  O39  1  0.438206  0.304576  0.118564  1
  O  O40  1  0.826505  0.374441  0.089523  1
  O  O41  1  0.327597  0.865468  0.091967  1
