# generated using pymatgen
data_Li3Fe3OF7
_symmetry_space_group_name_H-M   'P 1'
_cell_length_a   6.18517741
_cell_length_b   6.18517741
_cell_length_c   10.74862682
_cell_angle_alpha   107.09455668
_cell_angle_beta   72.90544332
_cell_angle_gamma   121.15985977
_symmetry_Int_Tables_number   1
_chemical_formula_structural   Li3Fe3OF7
_chemical_formula_sum   'Li6 Fe6 O2 F14'
_cell_volume   331.23598114
_cell_formula_units_Z   2
loop_
 _symmetry_equiv_pos_site_id
 _symmetry_equiv_pos_as_xyz
  1  'x, y, z'
loop_
 _atom_site_type_symbol
 _atom_site_label
 _atom_site_symmetry_multiplicity
 _atom_site_fract_x
 _atom_site_fract_y
 _atom_site_fract_z
 _atom_site_occupancy
  Li  Li0  1  0.992349  0.995231  0.000296  1
  Li  Li1  1  0.563318  0.943294  0.310242  1
  Li  Li2  1  0.643501  0.384125  0.129370  1
  Li  Li3  1  0.115875  0.856499  0.629370  1
  Li  Li4  1  0.504769  0.507651  0.500296  1
  Li  Li5  1  0.556706  0.936682  0.810242  1
  Fe  Fe6  1  0.303436  0.690813  0.067141  1
  Fe  Fe7  1  0.060278  0.924466  0.305713  1
  Fe  Fe8  1  0.060266  0.446099  0.308090  1
  Fe  Fe9  1  0.053901  0.439734  0.808090  1
  Fe  Fe10  1  0.575534  0.439721  0.805713  1
  Fe  Fe11  1  0.809187  0.196564  0.567141  1
  O  O12  1  0.973333  0.588464  0.189041  1
  O  O13  1  0.911536  0.526667  0.689041  1
  F  F14  1  0.205304  0.820175  0.430543  1
  F  F15  1  0.436507  0.579736  0.198454  1
  F  F16  1  0.697348  0.846633  0.442124  1
  F  F17  1  0.179003  0.293961  0.424940  1
  F  F18  1  0.449530  0.061105  0.194280  1
  F  F19  1  0.931193  0.068361  0.196623  1
  F  F20  1  0.699257  0.302160  0.428146  1
  F  F21  1  0.197840  0.800743  0.928146  1
  F  F22  1  0.431639  0.568807  0.696623  1
  F  F23  1  0.206039  0.320997  0.924940  1
  F  F24  1  0.653367  0.802652  0.942124  1
  F  F25  1  0.438895  0.050470  0.694280  1
  F  F26  1  0.920264  0.063493  0.698454  1
  F  F27  1  0.679825  0.294696  0.930543  1
