# generated using pymatgen
data_Mn2O3F
_symmetry_space_group_name_H-M   'P 1'
_cell_length_a   4.58693996
_cell_length_b   4.58693996
_cell_length_c   15.15738540
_cell_angle_alpha   90.00000000
_cell_angle_beta   90.00000000
_cell_angle_gamma   92.89729866
_symmetry_Int_Tables_number   1
_chemical_formula_structural   Mn2O3F
_chemical_formula_sum   'Mn10 O15 F5'
_cell_volume   318.50401279
_cell_formula_units_Z   5
loop_
 _symmetry_equiv_pos_site_id
 _symmetry_equiv_pos_as_xyz
  1  'x, y, z'
loop_
 _atom_site_type_symbol
 _atom_site_label
 _atom_site_symmetry_multiplicity
 _atom_site_fract_x
 _atom_site_fract_y
 _atom_site_fract_z
 _atom_site_occupancy
  Mn  Mn0  1  0.998542  0.001458  0.399572  1
  Mn  Mn1  1  0.988044  0.011956  0.200000  1
  Mn  Mn2  1  0.998542  0.001458  0.000428  1
  Mn  Mn3  1  0.016105  0.983895  0.599478  1
  Mn  Mn4  1  0.016105  0.983895  0.800522  1
  Mn  Mn5  1  0.480722  0.519278  0.499938  1
  Mn  Mn6  1  0.520073  0.479926  0.099975  1
  Mn  Mn7  1  0.520073  0.479926  0.300025  1
  Mn  Mn8  1  0.480722  0.519278  0.900062  1
  Mn  Mn9  1  0.485315  0.514685  0.700000  1
  O  O10  1  0.190434  0.809566  0.899935  1
  O  O11  1  0.190434  0.809566  0.500065  1
  O  O12  1  0.195567  0.804433  0.700000  1
  O  O13  1  0.307848  0.309261  0.000195  1
  O  O14  1  0.315844  0.294208  0.200000  1
  O  O15  1  0.307848  0.309261  0.399805  1
  O  O16  1  0.299489  0.311714  0.600098  1
  O  O17  1  0.299489  0.311714  0.799902  1
  O  O18  1  0.690739  0.692152  0.000195  1
  O  O19  1  0.705792  0.684156  0.200000  1
  O  O20  1  0.690739  0.692152  0.399805  1
  O  O21  1  0.688286  0.700511  0.600098  1
  O  O22  1  0.688286  0.700511  0.799902  1
  O  O23  1  0.809133  0.190867  0.099483  1
  O  O24  1  0.809133  0.190867  0.300517  1
  F  F25  1  0.209087  0.790913  0.105112  1
  F  F26  1  0.209087  0.790913  0.294889  1
  F  F27  1  0.789486  0.210514  0.504882  1
  F  F28  1  0.789486  0.210514  0.895118  1
  F  F29  1  0.809545  0.190455  0.700000  1
