# generated using pymatgen
data_Rb10Al24Cd7(SiO4)24
_symmetry_space_group_name_H-M   'P 1'
_cell_length_a   17.83688891
_cell_length_b   17.82631059
_cell_length_c   17.82216722
_cell_angle_alpha   60.03464132
_cell_angle_beta   60.06538802
_cell_angle_gamma   60.10388915
_symmetry_Int_Tables_number   1
_chemical_formula_structural   Rb10Al24Cd7(SiO4)24
_chemical_formula_sum   'Rb10 Al24 Cd7 Si24 O96'
_cell_volume   4013.23203240
_cell_formula_units_Z   1
loop_
 _symmetry_equiv_pos_site_id
 _symmetry_equiv_pos_as_xyz
  1  'x, y, z'
loop_
 _atom_site_type_symbol
 _atom_site_label
 _atom_site_symmetry_multiplicity
 _atom_site_fract_x
 _atom_site_fract_y
 _atom_site_fract_z
 _atom_site_occupancy
  Rb  Rb0  1  0.727034  0.259299  0.259145  1
  Rb  Rb1  1  0.411120  0.845267  0.410252  1
  Rb  Rb2  1  0.412294  0.409284  0.843874  1
  Rb  Rb3  1  0.842359  0.408604  0.408587  1
  Rb  Rb4  1  0.749240  0.249496  0.749473  1
  Rb  Rb5  1  0.748977  0.749697  0.249478  1
  Rb  Rb6  1  0.412490  0.838318  0.839209  1
  Rb  Rb7  1  0.836455  0.844771  0.409529  1
  Rb  Rb8  1  0.836368  0.410545  0.844783  1
  Rb  Rb9  1  0.749671  0.750448  0.750615  1
  Al  Al10  1  0.036105  0.212027  0.392582  1
  Al  Al11  1  0.211440  0.391986  0.035097  1
  Al  Al12  1  0.392777  0.036679  0.211304  1
  Al  Al13  1  0.031038  0.861384  0.210964  1
  Al  Al14  1  0.210955  0.031191  0.860944  1
  Al  Al15  1  0.030474  0.397905  0.860880  1
  Al  Al16  1  0.139205  0.601803  0.785705  1
  Al  Al17  1  0.210965  0.862092  0.398117  1
  Al  Al18  1  0.397551  0.862728  0.029932  1
  Al  Al19  1  0.140659  0.972959  0.601098  1
  Al  Al20  1  0.398403  0.210418  0.860561  1
  Al  Al21  1  0.862809  0.210292  0.033457  1
  Al  Al22  1  0.139867  0.783854  0.973588  1
  Al  Al23  1  0.603831  0.784773  0.139977  1
  Al  Al24  1  0.861410  0.033837  0.394667  1
  Al  Al25  1  0.603161  0.142001  0.970587  1
  Al  Al26  1  0.785829  0.140294  0.603511  1
  Al  Al27  1  0.861207  0.395008  0.210764  1
  Al  Al28  1  0.969568  0.603081  0.141319  1
  Al  Al29  1  0.783897  0.970055  0.141746  1
  Al  Al30  1  0.970398  0.140459  0.784447  1
  Al  Al31  1  0.604573  0.971090  0.784142  1
  Al  Al32  1  0.785259  0.603709  0.970171  1
  Al  Al33  1  0.970262  0.785843  0.604130  1
  Cd  Cd34  1  0.992503  0.001039  0.001818  1
  Cd  Cd35  1  0.997224  0.497988  0.005922  1
  Cd  Cd36  1  0.997514  0.007254  0.497634  1
  Cd  Cd37  1  0.505468  0.001167  0.000499  1
  Cd  Cd38  1  0.222906  0.224542  0.832498  1
  Cd  Cd39  1  0.219892  0.843238  0.220782  1
  Cd  Cd40  1  0.145863  0.783920  0.784799  1
  Si  Si41  1  0.036170  0.395842  0.210672  1
  Si  Si42  1  0.210795  0.035820  0.395100  1
  Si  Si43  1  0.395551  0.210865  0.035181  1
  Si  Si44  1  0.035139  0.211204  0.858080  1
  Si  Si45  1  0.210763  0.861417  0.033634  1
  Si  Si46  1  0.034001  0.859157  0.396397  1
  Si  Si47  1  0.211941  0.395309  0.859033  1
  Si  Si48  1  0.143533  0.789127  0.602996  1
  Si  Si49  1  0.396608  0.034249  0.857246  1
  Si  Si50  1  0.144734  0.600793  0.964635  1
  Si  Si51  1  0.396013  0.859838  0.211283  1
  Si  Si52  1  0.858744  0.035151  0.210279  1
  Si  Si53  1  0.143273  0.963538  0.789851  1
  Si  Si54  1  0.602369  0.145121  0.789089  1
  Si  Si55  1  0.858763  0.396173  0.035090  1
  Si  Si56  1  0.600155  0.963324  0.147004  1
  Si  Si57  1  0.858183  0.211144  0.396019  1
  Si  Si58  1  0.789081  0.601257  0.145663  1
  Si  Si59  1  0.963790  0.145878  0.600459  1
  Si  Si60  1  0.789630  0.146253  0.963003  1
  Si  Si61  1  0.963202  0.789672  0.144753  1
  Si  Si62  1  0.601941  0.789796  0.962602  1
  Si  Si63  1  0.789933  0.963036  0.600773  1
  Si  Si64  1  0.963112  0.602287  0.789779  1
  O  O65  1  0.016388  0.321459  0.313005  1
  O  O66  1  0.030726  0.041583  0.589608  1
  O  O67  1  0.041854  0.590921  0.028988  1
  O  O68  1  0.998506  0.495089  0.222944  1
  O  O69  1  0.148744  0.141427  0.367389  1
  O  O70  1  0.141812  0.367885  0.147257  1
  O  O71  1  0.225448  0.993519  0.494621  1
  O  O72  1  0.030972  0.839468  0.041804  1
  O  O73  1  0.042041  0.029035  0.839456  1
  O  O74  1  0.312617  0.013662  0.320762  1
  O  O75  1  0.321113  0.313246  0.012673  1
  O  O76  1  0.004853  0.219291  0.782169  1
  O  O77  1  0.366146  0.148982  0.141248  1
  O  O78  1  0.024739  0.312297  0.844944  1
  O  O79  1  0.024663  0.846347  0.317862  1
  O  O80  1  0.220955  0.786650  0.999764  1
  O  O81  1  0.494155  0.224583  0.996206  1
  O  O82  1  0.590299  0.030973  0.042823  1
  O  O83  1  0.003773  0.782243  0.493942  1
  O  O84  1  0.150955  0.846958  0.145294  1
  O  O85  1  0.147785  0.150925  0.842742  1
  O  O86  1  0.312039  0.849924  0.020546  1
  O  O87  1  0.030318  0.587330  0.839862  1
  O  O88  1  0.150314  0.360592  0.842937  1
  O  O89  1  0.145643  0.845380  0.359990  1
  O  O90  1  0.042306  0.838889  0.589537  1
  O  O91  1  0.319032  0.021588  0.845774  1
  O  O92  1  0.155778  0.689691  0.681760  1
  O  O93  1  0.159373  0.400920  0.963501  1
  O  O94  1  0.156977  0.973203  0.405939  1
  O  O95  1  0.358082  0.847582  0.149025  1
  O  O96  1  0.359462  0.146097  0.842247  1
  O  O97  1  0.222168  0.493940  0.783688  1
  O  O98  1  0.224668  0.785507  0.504814  1
  O  O99  1  0.836692  0.042481  0.031031  1
  O  O100  1  0.785131  0.997023  0.223833  1
  O  O101  1  0.494066  0.001804  0.781778  1
  O  O102  1  0.312004  0.316908  0.843329  1
  O  O103  1  0.317212  0.844603  0.311958  1
  O  O104  1  0.150469  0.642112  0.853789  1
  O  O105  1  0.150013  0.852990  0.643052  1
  O  O106  1  0.224937  0.502140  0.982122  1
  O  O107  1  0.402550  0.964212  0.158931  1
  O  O108  1  0.404909  0.157456  0.972652  1
  O  O109  1  0.158485  0.679778  0.971715  1
  O  O110  1  0.156427  0.971757  0.690312  1
  O  O111  1  0.842658  0.142975  0.148836  1
  O  O112  1  0.493090  0.782148  0.220379  1
  O  O113  1  0.503067  0.224446  0.781464  1
  O  O114  1  0.150118  0.853344  0.854288  1
  O  O115  1  0.849463  0.018410  0.312479  1
  O  O116  1  0.850012  0.319752  0.018033  1
  O  O117  1  0.587681  0.838379  0.030275  1
  O  O118  1  0.588351  0.042480  0.838111  1
  O  O119  1  0.785292  0.494207  0.995974  1
  O  O120  1  0.841829  0.148572  0.366553  1
  O  O121  1  0.841310  0.366528  0.142979  1
  O  O122  1  0.678935  0.157631  0.688062  1
  O  O123  1  0.687683  0.677907  0.158607  1
  O  O124  1  0.500345  0.988052  0.225985  1
  O  O125  1  0.223925  0.983744  0.788012  1
  O  O126  1  0.157773  0.965988  0.974894  1
  O  O127  1  0.783504  0.223086  0.494791  1
  O  O128  1  0.783957  0.501869  0.224961  1
  O  O129  1  0.631451  0.857049  0.154704  1
  O  O130  1  0.632841  0.154058  0.855792  1
  O  O131  1  0.837814  0.030082  0.588881  1
  O  O132  1  0.837348  0.589504  0.042075  1
  O  O133  1  0.843774  0.313388  0.320094  1
  O  O134  1  0.677082  0.973290  0.161275  1
  O  O135  1  0.963983  0.160375  0.402464  1
  O  O136  1  0.857669  0.152619  0.634280  1
  O  O137  1  0.855120  0.634317  0.153120  1
  O  O138  1  0.973106  0.404642  0.158698  1
  O  O139  1  0.688303  0.160626  0.973923  1
  O  O140  1  0.857546  0.855682  0.153462  1
  O  O141  1  0.856520  0.154270  0.856730  1
  O  O142  1  0.989691  0.224429  0.501248  1
  O  O143  1  0.401562  0.976530  0.962783  1
  O  O144  1  0.501625  0.784480  0.988582  1
  O  O145  1  0.787736  0.224875  0.987107  1
  O  O146  1  0.977149  0.156492  0.677701  1
  O  O147  1  0.977229  0.689168  0.154392  1
  O  O148  1  0.631357  0.856318  0.856249  1
  O  O149  1  0.991629  0.783111  0.223028  1
  O  O150  1  0.678427  0.688726  0.973329  1
  O  O151  1  0.688534  0.973760  0.677325  1
  O  O152  1  0.964853  0.973813  0.157832  1
  O  O153  1  0.977351  0.158377  0.963488  1
  O  O154  1  0.785785  0.986866  0.500926  1
  O  O155  1  0.857010  0.633671  0.854991  1
  O  O156  1  0.855812  0.856343  0.632593  1
  O  O157  1  0.990435  0.502980  0.782344  1
  O  O158  1  0.964938  0.402945  0.973760  1
  O  O159  1  0.975223  0.963742  0.402299  1
  O  O160  1  0.976862  0.678908  0.688612  1
