# generated using pymatgen
data_Li4CrFe3O8
_symmetry_space_group_name_H-M   'P 1'
_cell_length_a   5.19167276
_cell_length_b   5.96698400
_cell_length_c   5.96527502
_cell_angle_alpha   119.99065862
_cell_angle_beta   90.00006151
_cell_angle_gamma   73.28167937
_symmetry_Int_Tables_number   1
_chemical_formula_structural   Li4CrFe3O8
_chemical_formula_sum   'Li4 Cr1 Fe3 O8'
_cell_volume   150.96708861
_cell_formula_units_Z   1
loop_
 _symmetry_equiv_pos_site_id
 _symmetry_equiv_pos_as_xyz
  1  'x, y, z'
loop_
 _atom_site_type_symbol
 _atom_site_label
 _atom_site_symmetry_multiplicity
 _atom_site_fract_x
 _atom_site_fract_y
 _atom_site_fract_z
 _atom_site_occupancy
  Li  Li0  1  0.002269  0.998307  0.499153  1
  Li  Li1  1  0.997731  0.001693  0.000847  1
  Li  Li2  1  1.000000  0.500000  0.498546  1
  Li  Li3  1  0.000000  0.500000  0.001454  1
  Cr  Cr4  1  0.500000  0.500000  0.250000  1
  Fe  Fe5  1  0.500000  0.000000  0.750000  1
  Fe  Fe6  1  0.500000  0.000000  0.250000  1
  Fe  Fe7  1  0.500000  0.500000  0.750000  1
  O  O8  1  0.271161  0.242858  0.621428  1
  O  O9  1  0.728259  0.258005  0.880042  1
  O  O10  1  0.272954  0.243783  0.121892  1
  O  O11  1  0.728260  0.258005  0.377965  1
  O  O12  1  0.271740  0.741995  0.619959  1
  O  O13  1  0.728839  0.757141  0.878571  1
  O  O14  1  0.271740  0.741995  0.122035  1
  O  O15  1  0.727046  0.756217  0.378108  1
