# generated using pymatgen
data_Li2NiSn3(PO4)6
_symmetry_space_group_name_H-M   'P 1'
_cell_length_a   8.88043927
_cell_length_b   8.88043992
_cell_length_c   8.88043966
_cell_angle_alpha   59.23452435
_cell_angle_beta   59.23452440
_cell_angle_gamma   59.23452211
_symmetry_Int_Tables_number   1
_chemical_formula_structural   Li2NiSn3(PO4)6
_chemical_formula_sum   'Li2 Ni1 Sn3 P6 O24'
_cell_volume   486.57401106
_cell_formula_units_Z   1
loop_
 _symmetry_equiv_pos_site_id
 _symmetry_equiv_pos_as_xyz
  1  'x, y, z'
loop_
 _atom_site_type_symbol
 _atom_site_label
 _atom_site_symmetry_multiplicity
 _atom_site_fract_x
 _atom_site_fract_y
 _atom_site_fract_z
 _atom_site_occupancy
  Li  Li0  1  0.982441  0.982441  0.982441  1
  Li  Li1  1  0.500970  0.500970  0.500970  1
  Ni  Ni2  1  0.853884  0.853884  0.853884  1
  Sn  Sn3  1  0.144059  0.144059  0.144059  1
  Sn  Sn4  1  0.356304  0.356304  0.356304  1
  Sn  Sn5  1  0.645594  0.645594  0.645594  1
  P  P6  1  0.043252  0.751249  0.461219  1
  P  P7  1  0.461219  0.043252  0.751249  1
  P  P8  1  0.751249  0.461219  0.043252  1
  P  P9  1  0.246238  0.549258  0.954612  1
  P  P10  1  0.549258  0.954612  0.246238  1
  P  P11  1  0.954612  0.246238  0.549258  1
  O  O12  1  0.113109  0.299355  0.515008  1
  O  O13  1  0.299355  0.515008  0.113109  1
  O  O14  1  0.062209  0.914834  0.271478  1
  O  O15  1  0.515008  0.113109  0.299355  1
  O  O16  1  0.234581  0.586691  0.439729  1
  O  O17  1  0.009112  0.799005  0.619352  1
  O  O18  1  0.271478  0.062209  0.914834  1
  O  O19  1  0.439729  0.234581  0.586691  1
  O  O20  1  0.586691  0.439729  0.234581  1
  O  O21  1  0.202207  0.386113  0.987719  1
  O  O22  1  0.082852  0.734999  0.934968  1
  O  O23  1  0.386113  0.987719  0.202207  1
  O  O24  1  0.619352  0.009112  0.799005  1
  O  O25  1  0.914834  0.271478  0.062209  1
  O  O26  1  0.799005  0.619352  0.009112  1
  O  O27  1  0.412644  0.566211  0.765378  1
  O  O28  1  0.566211  0.765378  0.412644  1
  O  O29  1  0.734999  0.934968  0.082852  1
  O  O30  1  0.987719  0.202207  0.386113  1
  O  O31  1  0.765378  0.412644  0.566211  1
  O  O32  1  0.485927  0.889109  0.698334  1
  O  O33  1  0.934968  0.082852  0.734999  1
  O  O34  1  0.698334  0.485927  0.889109  1
  O  O35  1  0.889109  0.698334  0.485927  1
