# generated using pymatgen
data_Li2AgF5
_symmetry_space_group_name_H-M   'P 1'
_cell_length_a   4.47297194
_cell_length_b   5.59822320
_cell_length_c   9.76911529
_cell_angle_alpha   89.98222074
_cell_angle_beta   90.00016283
_cell_angle_gamma   113.53732752
_symmetry_Int_Tables_number   1
_chemical_formula_structural   Li2AgF5
_chemical_formula_sum   'Li4 Ag2 F10'
_cell_volume   224.27261406
_cell_formula_units_Z   2
loop_
 _symmetry_equiv_pos_site_id
 _symmetry_equiv_pos_as_xyz
  1  'x, y, z'
loop_
 _atom_site_type_symbol
 _atom_site_label
 _atom_site_symmetry_multiplicity
 _atom_site_fract_x
 _atom_site_fract_y
 _atom_site_fract_z
 _atom_site_occupancy
  Li  Li0  1  0.138649  0.278618  0.920411  1
  Li  Li1  1  0.138628  0.278563  0.579624  1
  Li  Li2  1  0.861020  0.721216  0.420422  1
  Li  Li3  1  0.860986  0.721166  0.079540  1
  Ag  Ag4  1  0.190349  0.381128  0.249974  1
  Ag  Ag5  1  0.809759  0.618917  0.750016  1
  F  F6  1  0.314267  0.630540  0.409912  1
  F  F7  1  0.314274  0.630590  0.090001  1
  F  F8  1  0.057489  0.113024  0.394293  1
  F  F9  1  0.057527  0.113143  0.105785  1
  F  F10  1  0.219695  0.438208  0.750001  1
  F  F11  1  0.780353  0.561718  0.249996  1
  F  F12  1  0.942555  0.886986  0.894226  1
  F  F13  1  0.942570  0.886991  0.605719  1
  F  F14  1  0.685949  0.369588  0.590019  1
  F  F15  1  0.685929  0.369605  0.910060  1
