# generated using pymatgen
data_BaRe2(H2O3)4
_symmetry_space_group_name_H-M   'P 1'
_cell_length_a   7.49871423
_cell_length_b   12.65177343
_cell_length_c   12.49110542
_cell_angle_alpha   90.00000000
_cell_angle_beta   91.52282454
_cell_angle_gamma   90.00000000
_symmetry_Int_Tables_number   1
_chemical_formula_structural   BaRe2(H2O3)4
_chemical_formula_sum   'Ba4 Re8 H32 O48'
_cell_volume   1184.63802977
_cell_formula_units_Z   4
loop_
 _symmetry_equiv_pos_site_id
 _symmetry_equiv_pos_as_xyz
  1  'x, y, z'
loop_
 _atom_site_type_symbol
 _atom_site_label
 _atom_site_symmetry_multiplicity
 _atom_site_fract_x
 _atom_site_fract_y
 _atom_site_fract_z
 _atom_site_occupancy
  Ba  Ba0  1  0.248060  0.750186  0.069642  1
  Ba  Ba1  1  0.748060  0.749814  0.569642  1
  Ba  Ba2  1  0.751940  0.249814  0.930358  1
  Ba  Ba3  1  0.251940  0.250186  0.430358  1
  Re  Re4  1  0.244492  0.885894  0.408063  1
  Re  Re5  1  0.744492  0.614106  0.908063  1
  Re  Re6  1  0.755508  0.114106  0.591937  1
  Re  Re7  1  0.255508  0.385894  0.091937  1
  Re  Re8  1  0.251312  0.572519  0.537638  1
  Re  Re9  1  0.751312  0.927481  0.037638  1
  Re  Re10  1  0.748688  0.427481  0.462362  1
  Re  Re11  1  0.248688  0.072519  0.962362  1
  H  H12  1  0.529417  0.593623  0.218344  1
  H  H13  1  0.029417  0.906377  0.718344  1
  H  H14  1  0.470583  0.406377  0.781656  1
  H  H15  1  0.970583  0.093623  0.281656  1
  H  H16  1  0.406009  0.645978  0.301895  1
  H  H17  1  0.906009  0.854022  0.801895  1
  H  H18  1  0.593991  0.354022  0.698105  1
  H  H19  1  0.093991  0.145978  0.198105  1
  H  H20  1  0.092301  0.613231  0.285465  1
  H  H21  1  0.592301  0.886769  0.785465  1
  H  H22  1  0.907699  0.386769  0.714535  1
  H  H23  1  0.407699  0.113231  0.214535  1
  H  H24  1  0.949359  0.698321  0.257767  1
  H  H25  1  0.449359  0.801679  0.757767  1
  H  H26  1  0.050641  0.301679  0.742233  1
  H  H27  1  0.550641  0.198321  0.242233  1
  H  H28  1  0.163963  0.775700  0.800610  1
  H  H29  1  0.663963  0.724300  0.300610  1
  H  H30  1  0.836037  0.224300  0.199390  1
  H  H31  1  0.336037  0.275700  0.699390  1
  H  H32  1  0.253760  0.665462  0.813581  1
  H  H33  1  0.753760  0.834538  0.313581  1
  H  H34  1  0.746240  0.334538  0.186419  1
  H  H35  1  0.246240  0.165462  0.686419  1
  H  H36  1  0.286484  0.508231  0.896458  1
  H  H37  1  0.786484  0.991769  0.396458  1
  H  H38  1  0.713516  0.491769  0.103542  1
  H  H39  1  0.213516  0.008231  0.603542  1
  H  H40  1  0.168704  0.457445  0.805527  1
  H  H41  1  0.668704  0.042555  0.305527  1
  H  H42  1  0.831296  0.542555  0.194473  1
  H  H43  1  0.331296  0.957445  0.694473  1
  O  O44  1  0.221443  0.861723  0.270390  1
  O  O45  1  0.721443  0.638277  0.770390  1
  O  O46  1  0.778557  0.138277  0.729610  1
  O  O47  1  0.278557  0.361723  0.229610  1
  O  O48  1  0.085774  0.812544  0.476677  1
  O  O49  1  0.585774  0.687456  0.976677  1
  O  O50  1  0.914226  0.187456  0.523323  1
  O  O51  1  0.414226  0.312544  0.023323  1
  O  O52  1  0.212324  0.020766  0.437666  1
  O  O53  1  0.712324  0.479234  0.937666  1
  O  O54  1  0.787676  0.979234  0.562334  1
  O  O55  1  0.287676  0.520766  0.062334  1
  O  O56  1  0.457699  0.847365  0.454211  1
  O  O57  1  0.957699  0.652635  0.954211  1
  O  O58  1  0.542301  0.152635  0.545789  1
  O  O59  1  0.042301  0.347365  0.045789  1
  O  O60  1  0.039917  0.597833  0.590026  1
  O  O61  1  0.539917  0.902167  0.090026  1
  O  O62  1  0.960083  0.402167  0.409974  1
  O  O63  1  0.460083  0.097833  0.909974  1
  O  O64  1  0.412157  0.650318  0.603383  1
  O  O65  1  0.912157  0.849682  0.103383  1
  O  O66  1  0.587843  0.349682  0.396617  1
  O  O67  1  0.087843  0.150318  0.896617  1
  O  O68  1  0.305704  0.438462  0.555058  1
  O  O69  1  0.805704  0.061538  0.055058  1
  O  O70  1  0.694296  0.561538  0.444942  1
  O  O71  1  0.194296  0.938462  0.944942  1
  O  O72  1  0.248534  0.602024  0.399986  1
  O  O73  1  0.748534  0.897976  0.899986  1
  O  O74  1  0.751466  0.397976  0.600014  1
  O  O75  1  0.251466  0.102024  0.100014  1
  O  O76  1  0.473663  0.661821  0.236980  1
  O  O77  1  0.973663  0.838179  0.736980  1
  O  O78  1  0.526337  0.338179  0.763020  1
  O  O79  1  0.026337  0.161821  0.263020  1
  O  O80  1  0.020519  0.641278  0.224392  1
  O  O81  1  0.520519  0.858722  0.724392  1
  O  O82  1  0.979481  0.358722  0.775608  1
  O  O83  1  0.479481  0.141278  0.275608  1
  O  O84  1  0.268332  0.739647  0.835458  1
  O  O85  1  0.768332  0.760353  0.335458  1
  O  O86  1  0.731668  0.260353  0.164542  1
  O  O87  1  0.231668  0.239647  0.664542  1
  O  O88  1  0.275240  0.503175  0.818239  1
  O  O89  1  0.775240  0.996825  0.318239  1
  O  O90  1  0.724760  0.496825  0.181761  1
  O  O91  1  0.224760  0.003175  0.681761  1
