# generated using pymatgen
data_TeH12(Cl2O3)2
_symmetry_space_group_name_H-M   'P 1'
_cell_length_a   6.87104855
_cell_length_b   8.80503880
_cell_length_c   18.66455865
_cell_angle_alpha   90.00000000
_cell_angle_beta   90.00000000
_cell_angle_gamma   90.00000000
_symmetry_Int_Tables_number   1
_chemical_formula_structural   TeH12(Cl2O3)2
_chemical_formula_sum   'Te4 H48 Cl16 O24'
_cell_volume   1129.20298146
_cell_formula_units_Z   4
loop_
 _symmetry_equiv_pos_site_id
 _symmetry_equiv_pos_as_xyz
  1  'x, y, z'
loop_
 _atom_site_type_symbol
 _atom_site_label
 _atom_site_symmetry_multiplicity
 _atom_site_fract_x
 _atom_site_fract_y
 _atom_site_fract_z
 _atom_site_occupancy
  Te  Te0  1  0.236246  0.590424  0.557254  1
  Te  Te1  1  0.263754  0.409576  0.057254  1
  Te  Te2  1  0.736246  0.909576  0.442746  1
  Te  Te3  1  0.763754  0.090424  0.942746  1
  H  H4  1  0.050501  0.178940  0.444294  1
  H  H5  1  0.073603  0.701265  0.806704  1
  H  H6  1  0.004388  0.078752  0.196567  1
  H  H7  1  0.216341  0.615530  0.348808  1
  H  H8  1  0.241895  0.147893  0.241262  1
  H  H9  1  0.217465  0.262955  0.645121  1
  H  H10  1  0.211732  0.456404  0.303098  1
  H  H11  1  0.236564  0.274089  0.728501  1
  H  H12  1  0.240252  0.015368  0.699711  1
  H  H13  1  0.247685  0.265746  0.358963  1
  H  H14  1  0.264964  0.683415  0.016204  1
  H  H15  1  0.258953  0.111846  0.458032  1
  H  H16  1  0.241047  0.888154  0.958032  1
  H  H17  1  0.235036  0.316585  0.516204  1
  H  H18  1  0.252315  0.734254  0.858963  1
  H  H19  1  0.259748  0.984632  0.199711  1
  H  H20  1  0.263436  0.725911  0.228501  1
  H  H21  1  0.288268  0.543596  0.803098  1
  H  H22  1  0.282535  0.737045  0.145121  1
  H  H23  1  0.258105  0.852107  0.741262  1
  H  H24  1  0.283659  0.384470  0.848808  1
  H  H25  1  0.495612  0.921248  0.696567  1
  H  H26  1  0.426397  0.298735  0.306704  1
  H  H27  1  0.449499  0.821060  0.944294  1
  H  H28  1  0.550501  0.321060  0.555706  1
  H  H29  1  0.573603  0.798735  0.193296  1
  H  H30  1  0.504388  0.421248  0.803433  1
  H  H31  1  0.716341  0.884470  0.651192  1
  H  H32  1  0.741895  0.352107  0.758738  1
  H  H33  1  0.717465  0.237045  0.354879  1
  H  H34  1  0.711732  0.043596  0.696902  1
  H  H35  1  0.736564  0.225911  0.271499  1
  H  H36  1  0.740252  0.484632  0.300289  1
  H  H37  1  0.747685  0.234254  0.641037  1
  H  H38  1  0.764964  0.816585  0.983796  1
  H  H39  1  0.758953  0.388154  0.541968  1
  H  H40  1  0.741047  0.611846  0.041968  1
  H  H41  1  0.735036  0.183415  0.483796  1
  H  H42  1  0.752315  0.765746  0.141037  1
  H  H43  1  0.759748  0.515368  0.800289  1
  H  H44  1  0.763436  0.774089  0.771499  1
  H  H45  1  0.788268  0.956404  0.196902  1
  H  H46  1  0.782535  0.762955  0.854879  1
  H  H47  1  0.758105  0.647893  0.258738  1
  H  H48  1  0.783659  0.115530  0.151192  1
  H  H49  1  0.995612  0.578752  0.303433  1
  H  H50  1  0.926397  0.201265  0.693296  1
  H  H51  1  0.949499  0.678940  0.055706  1
  Cl  Cl52  1  0.985703  0.405429  0.142436  1
  Cl  Cl53  1  0.004857  0.559150  0.658471  1
  Cl  Cl54  1  0.045964  0.032941  0.027526  1
  Cl  Cl55  1  0.047537  0.419140  0.943579  1
  Cl  Cl56  1  0.452463  0.580860  0.443579  1
  Cl  Cl57  1  0.454036  0.967059  0.527526  1
  Cl  Cl58  1  0.495143  0.440850  0.158471  1
  Cl  Cl59  1  0.514297  0.594571  0.642436  1
  Cl  Cl60  1  0.485703  0.094571  0.857564  1
  Cl  Cl61  1  0.504857  0.940850  0.341529  1
  Cl  Cl62  1  0.545964  0.467059  0.972474  1
  Cl  Cl63  1  0.547537  0.080860  0.056421  1
  Cl  Cl64  1  0.952463  0.919140  0.556421  1
  Cl  Cl65  1  0.954036  0.532941  0.472474  1
  Cl  Cl66  1  0.995143  0.059150  0.841529  1
  Cl  Cl67  1  0.014297  0.905429  0.357564  1
  O  O68  1  0.162827  0.572048  0.304070  1
  O  O69  1  0.189990  0.207144  0.445857  1
  O  O70  1  0.195628  0.086041  0.200061  1
  O  O71  1  0.182109  0.210441  0.690465  1
  O  O72  1  0.219775  0.699140  0.809473  1
  O  O73  1  0.217182  0.631741  0.061733  1
  O  O74  1  0.282818  0.368259  0.561733  1
  O  O75  1  0.280225  0.300860  0.309473  1
  O  O76  1  0.317891  0.789559  0.190465  1
  O  O77  1  0.304372  0.913959  0.700061  1
  O  O78  1  0.310010  0.792856  0.945857  1
  O  O79  1  0.337173  0.427952  0.804070  1
  O  O80  1  0.662827  0.927952  0.695930  1
  O  O81  1  0.689990  0.292856  0.554143  1
  O  O82  1  0.695628  0.413959  0.799939  1
  O  O83  1  0.682109  0.289559  0.309535  1
  O  O84  1  0.719775  0.800860  0.190527  1
  O  O85  1  0.717182  0.868259  0.938267  1
  O  O86  1  0.782818  0.131741  0.438267  1
  O  O87  1  0.780225  0.199140  0.690527  1
  O  O88  1  0.817891  0.710441  0.809535  1
  O  O89  1  0.804372  0.586041  0.299939  1
  O  O90  1  0.810010  0.707144  0.054143  1
  O  O91  1  0.837173  0.072048  0.195930  1
