# generated using pymatgen
data_Li2Fe2Si8O19
_symmetry_space_group_name_H-M   'P 1'
_cell_length_a   4.91303275
_cell_length_b   7.18151818
_cell_length_c   12.44376756
_cell_angle_alpha   72.60159867
_cell_angle_beta   90.11791085
_cell_angle_gamma   70.12351377
_symmetry_Int_Tables_number   1
_chemical_formula_structural   Li2Fe2Si8O19
_chemical_formula_sum   'Li2 Fe2 Si8 O19'
_cell_volume   391.36726232
_cell_formula_units_Z   1
loop_
 _symmetry_equiv_pos_site_id
 _symmetry_equiv_pos_as_xyz
  1  'x, y, z'
loop_
 _atom_site_type_symbol
 _atom_site_label
 _atom_site_symmetry_multiplicity
 _atom_site_fract_x
 _atom_site_fract_y
 _atom_site_fract_z
 _atom_site_occupancy
  Li  Li0  1  0.730036  0.604535  0.394434  1
  Li  Li1  1  0.335686  0.399375  0.604149  1
  Fe  Fe2  1  0.768762  0.676230  0.587629  1
  Fe  Fe3  1  0.458467  0.312687  0.413809  1
  Si  Si4  1  0.455009  0.767338  0.921986  1
  Si  Si5  1  0.877291  0.967457  0.175886  1
  Si  Si6  1  0.119498  0.849058  0.430595  1
  Si  Si7  1  0.305372  0.445096  0.829326  1
  Si  Si8  1  0.751489  0.553641  0.170995  1
  Si  Si9  1  0.970306  0.154204  0.570304  1
  Si  Si10  1  0.846700  0.032659  0.824637  1
  Si  Si11  1  0.220753  0.232671  0.078026  1
  O  O12  1  0.156838  0.972988  0.897840  1
  O  O13  1  0.722934  0.846691  0.881813  1
  O  O14  1  0.963773  0.971790  0.300594  1
  O  O15  1  0.456125  0.819862  0.455181  1
  O  O16  1  0.422945  0.624034  0.846182  1
  O  O17  1  0.072563  0.625220  0.469246  1
  O  O18  1  0.093242  0.525136  0.712687  1
  O  O19  1  0.858951  0.741742  0.184517  1
  O  O20  1  0.156522  0.362911  0.943000  1
  O  O21  1  0.519653  0.636955  0.056964  1
  O  O22  1  0.602101  0.257530  0.816802  1
  O  O23  1  0.621605  0.471161  0.287689  1
  O  O24  1  0.699818  0.378637  0.531828  1
  O  O25  1  0.048169  0.376860  0.153286  1
  O  O26  1  0.277802  0.182592  0.546330  1
  O  O27  1  0.935687  0.029691  0.699705  1
  O  O28  1  0.907537  0.004152  0.499216  1
  O  O29  1  0.567199  0.152073  0.118796  1
  O  O30  1  0.125379  0.028098  0.101975  1
