# generated using pymatgen
data_Na11Ti8(PO4)12
_symmetry_space_group_name_H-M   'P 1'
_cell_length_a   12.59910258
_cell_length_b   8.88197611
_cell_length_c   9.08770430
_cell_angle_alpha   90.25334512
_cell_angle_beta   89.82029114
_cell_angle_gamma   90.12154088
_symmetry_Int_Tables_number   1
_chemical_formula_structural   Na11Ti8(PO4)12
_chemical_formula_sum   'Na11 Ti8 P12 O48'
_cell_volume   1016.94169490
_cell_formula_units_Z   1
loop_
 _symmetry_equiv_pos_site_id
 _symmetry_equiv_pos_as_xyz
  1  'x, y, z'
loop_
 _atom_site_type_symbol
 _atom_site_label
 _atom_site_symmetry_multiplicity
 _atom_site_fract_x
 _atom_site_fract_y
 _atom_site_fract_z
 _atom_site_occupancy
  Na  Na0  1  0.170191  0.285654  0.204230  1
  Na  Na1  1  0.172917  0.724892  0.712624  1
  Na  Na2  1  0.308796  0.434746  0.531075  1
  Na  Na3  1  0.314499  0.167441  0.723966  1
  Na  Na4  1  0.325221  0.786218  0.213598  1
  Na  Na5  1  0.670340  0.226451  0.788785  1
  Na  Na6  1  0.675507  0.829008  0.283168  1
  Na  Na7  1  0.691297  0.563620  0.464147  1
  Na  Na8  1  0.808764  0.938213  0.966529  1
  Na  Na9  1  0.829161  0.275864  0.283797  1
  Na  Na10  1  0.826759  0.672436  0.784831  1
  Ti  Ti11  1  0.103339  0.240543  0.534663  1
  Ti  Ti12  1  0.106540  0.750604  0.038730  1
  Ti  Ti13  1  0.395127  0.759672  0.541467  1
  Ti  Ti14  1  0.392586  0.256026  0.035639  1
  Ti  Ti15  1  0.604234  0.239716  0.460123  1
  Ti  Ti16  1  0.600643  0.739991  0.964524  1
  Ti  Ti17  1  0.899174  0.261307  0.958483  1
  Ti  Ti18  1  0.898580  0.759060  0.463057  1
  P  P19  1  0.000332  0.030316  0.245841  1
  P  P20  1  0.000861  0.968237  0.750039  1
  P  P21  1  0.145970  0.610206  0.389835  1
  P  P22  1  0.150767  0.393991  0.885875  1
  P  P23  1  0.351432  0.110284  0.389583  1
  P  P24  1  0.352549  0.887384  0.897114  1
  P  P25  1  0.499080  0.466166  0.748603  1
  P  P26  1  0.498336  0.531401  0.250601  1
  P  P27  1  0.644144  0.115816  0.103963  1
  P  P28  1  0.650616  0.888943  0.613993  1
  P  P29  1  0.854875  0.386755  0.604391  1
  P  P30  1  0.851367  0.612923  0.113937  1
  O  O31  1  0.041834  0.680068  0.447410  1
  O  O32  1  0.043389  0.327829  0.942622  1
  O  O33  1  0.064054  0.865626  0.853938  1
  O  O34  1  0.066493  0.136315  0.345946  1
  O  O35  1  0.080309  0.058839  0.655435  1
  O  O36  1  0.078674  0.931255  0.158271  1
  O  O37  1  0.144088  0.436136  0.407672  1
  O  O38  1  0.145831  0.566592  0.904784  1
  O  O39  1  0.169697  0.353175  0.720277  1
  O  O40  1  0.165928  0.647980  0.225666  1
  O  O41  1  0.238772  0.323672  0.981491  1
  O  O42  1  0.238035  0.671643  0.488641  1
  O  O43  1  0.260402  0.816877  0.985609  1
  O  O44  1  0.264049  0.185734  0.487109  1
  O  O45  1  0.335144  0.864837  0.727896  1
  O  O46  1  0.334280  0.151949  0.226648  1
  O  O47  1  0.358109  0.058743  0.928713  1
  O  O48  1  0.350544  0.938068  0.410329  1
  O  O49  1  0.423754  0.570743  0.663511  1
  O  O50  1  0.421197  0.439902  0.152394  1
  O  O51  1  0.430392  0.629535  0.356671  1
  O  O52  1  0.430579  0.353949  0.838243  1
  O  O53  1  0.458333  0.174642  0.449175  1
  O  O54  1  0.456401  0.813222  0.947853  1
  O  O55  1  0.542151  0.189894  0.050584  1
  O  O56  1  0.543590  0.823256  0.557417  1
  O  O57  1  0.568663  0.372197  0.640876  1
  O  O58  1  0.569109  0.641442  0.160194  1
  O  O59  1  0.573699  0.428252  0.337936  1
  O  O60  1  0.578071  0.557080  0.846590  1
  O  O61  1  0.650938  0.061746  0.594452  1
  O  O62  1  0.640839  0.942452  0.076475  1
  O  O63  1  0.664581  0.140283  0.271586  1
  O  O64  1  0.671297  0.847647  0.777552  1
  O  O65  1  0.739508  0.177330  0.011503  1
  O  O66  1  0.736656  0.813095  0.514498  1
  O  O67  1  0.761759  0.322973  0.509331  1
  O  O68  1  0.765095  0.689056  0.016188  1
  O  O69  1  0.834793  0.361304  0.771365  1
  O  O70  1  0.828367  0.650821  0.278456  1
  O  O71  1  0.851483  0.439752  0.092575  1
  O  O72  1  0.857115  0.558833  0.576769  1
  O  O73  1  0.924272  0.072741  0.836503  1
  O  O74  1  0.920546  0.936420  0.338184  1
  O  O75  1  0.933808  0.129938  0.141503  1
  O  O76  1  0.929714  0.861042  0.655662  1
  O  O77  1  0.958636  0.314231  0.551394  1
  O  O78  1  0.958611  0.678498  0.060390  1
