# generated using pymatgen
data_Li3V3P8O29
_symmetry_space_group_name_H-M   'P 1'
_cell_length_a   9.77728898
_cell_length_b   9.73952643
_cell_length_c   14.26358485
_cell_angle_alpha   90.38597814
_cell_angle_beta   90.48461630
_cell_angle_gamma   60.17934955
_symmetry_Int_Tables_number   1
_chemical_formula_structural   Li3V3P8O29
_chemical_formula_sum   'Li6 V6 P16 O58'
_cell_volume   1178.36619324
_cell_formula_units_Z   2
loop_
 _symmetry_equiv_pos_site_id
 _symmetry_equiv_pos_as_xyz
  1  'x, y, z'
loop_
 _atom_site_type_symbol
 _atom_site_label
 _atom_site_symmetry_multiplicity
 _atom_site_fract_x
 _atom_site_fract_y
 _atom_site_fract_z
 _atom_site_occupancy
  Li  Li0  1  0.915757  0.310616  0.562228  1
  Li  Li1  1  0.323101  0.909052  0.056682  1
  Li  Li2  1  0.685285  0.224626  0.444022  1
  Li  Li3  1  0.317520  0.773420  0.560393  1
  Li  Li4  1  0.083902  0.693051  0.440699  1
  Li  Li5  1  0.943424  0.014620  0.992532  1
  V  V6  1  0.569101  0.435272  0.241087  1
  V  V7  1  0.433905  0.562285  0.758433  1
  V  V8  1  0.568135  0.998604  0.748387  1
  V  V9  1  0.434975  0.002751  0.253623  1
  V  V10  1  0.995917  0.564898  0.241785  1
  V  V11  1  0.004515  0.435833  0.757140  1
  P  P12  1  0.916488  0.783643  0.838654  1
  P  P13  1  0.775242  0.912243  0.339556  1
  P  P14  1  0.910896  0.319049  0.342453  1
  P  P15  1  0.661908  0.671390  0.129103  1
  P  P16  1  0.665842  0.661770  0.633761  1
  P  P17  1  0.780593  0.304920  0.840729  1
  P  P18  1  0.680165  0.230249  0.659307  1
  P  P19  1  0.314574  0.916062  0.843705  1
  P  P20  1  0.692229  0.079938  0.156301  1
  P  P21  1  0.323312  0.766760  0.342191  1
  P  P22  1  0.222432  0.692739  0.161411  1
  P  P23  1  0.333774  0.341270  0.365729  1
  P  P24  1  0.337709  0.327859  0.869980  1
  P  P25  1  0.090715  0.681224  0.657410  1
  P  P26  1  0.225472  0.087372  0.662463  1
  P  P27  1  0.084813  0.217606  0.160977  1
  O  O28  1  0.017681  0.747537  0.565007  1
  O  O29  1  0.918485  0.741760  0.337596  1
  O  O30  1  0.782839  0.008930  0.070543  1
  O  O31  1  0.741177  0.915352  0.829103  1
  O  O32  1  0.920866  0.620136  0.829158  1
  O  O33  1  0.811033  0.672516  0.173487  1
  O  O34  1  0.903746  0.478195  0.317668  1
  O  O35  1  0.001636  0.203414  0.078160  1
  O  O36  1  0.912411  0.349482  0.831228  1
  O  O37  1  0.659002  0.814641  0.677883  1
  O  O38  1  0.620699  0.904420  0.322325  1
  O  O39  1  0.819623  0.516612  0.673794  1
  O  O40  1  0.659822  0.668017  0.025415  1
  O  O41  1  0.657644  0.664082  0.529583  1
  O  O42  1  0.669980  0.517877  0.173987  1
  O  O43  1  0.471471  0.914301  0.827077  1
  O  O44  1  0.511330  0.815626  0.171425  1
  O  O45  1  0.743178  0.338666  0.333079  1
  O  O46  1  0.798202  0.208972  0.744112  1
  O  O47  1  0.752990  0.242367  0.569774  1
  O  O48  1  0.801500  0.205667  0.922658  1
  O  O49  1  0.618505  0.461659  0.831589  1
  O  O50  1  0.520149  0.657828  0.677482  1
  O  O51  1  0.651980  0.256386  0.169580  1
  O  O52  1  0.481277  0.616875  0.320149  1
  O  O53  1  0.345168  0.913293  0.333047  1
  O  O54  1  0.798375  0.992961  0.247344  1
  O  O55  1  0.767264  0.005404  0.423966  1
  O  O56  1  0.227646  0.992366  0.580146  1
  O  O57  1  0.656879  0.085006  0.664327  1
  O  O58  1  0.521751  0.381118  0.680213  1
  O  O59  1  0.345421  0.743163  0.830113  1
  O  O60  1  0.481762  0.340838  0.324447  1
  O  O61  1  0.382228  0.533728  0.170502  1
  O  O62  1  0.213807  0.793547  0.081899  1
  O  O63  1  0.251827  0.757128  0.432592  1
  O  O64  1  0.202259  0.785736  0.259539  1
  O  O65  1  0.259959  0.658239  0.665340  1
  O  O66  1  0.482668  0.185359  0.823055  1
  O  O67  1  0.536161  0.077499  0.171210  1
  O  O68  1  0.331315  0.481176  0.826227  1
  O  O69  1  0.334383  0.330431  0.973482  1
  O  O70  1  0.336620  0.337101  0.469749  1
  O  O71  1  0.181141  0.485299  0.323928  1
  O  O72  1  0.380119  0.092759  0.676797  1
  O  O73  1  0.341079  0.186635  0.319964  1
  O  O74  1  0.086079  0.654810  0.165241  1
  O  O75  1  0.994277  0.798906  0.741985  1
  O  O76  1  0.994802  0.804971  0.921748  1
  O  O77  1  0.096013  0.522937  0.680651  1
  O  O78  1  0.187379  0.328589  0.825158  1
  O  O79  1  0.083121  0.380333  0.172236  1
  O  O80  1  0.260653  0.082211  0.165644  1
  O  O81  1  0.238559  0.981678  0.935117  1
  O  O82  1  0.199974  0.012708  0.758341  1
  O  O83  1  0.081893  0.258297  0.662627  1
  O  O84  1  0.982161  0.256010  0.435597  1
  O  O85  1  0.011923  0.200185  0.259056  1
