# generated using pymatgen
data_Cr(Bi7O12)2
_symmetry_space_group_name_H-M   'P 1'
_cell_length_a   8.75502986
_cell_length_b   8.78258839
_cell_length_c   10.60825263
_cell_angle_alpha   65.80455890
_cell_angle_beta   65.88693611
_cell_angle_gamma   90.56933325
_symmetry_Int_Tables_number   1
_chemical_formula_structural   Cr(Bi7O12)2
_chemical_formula_sum   'Cr1 Bi14 O24'
_cell_volume   663.51712085
_cell_formula_units_Z   1
loop_
 _symmetry_equiv_pos_site_id
 _symmetry_equiv_pos_as_xyz
  1  'x, y, z'
loop_
 _atom_site_type_symbol
 _atom_site_label
 _atom_site_symmetry_multiplicity
 _atom_site_fract_x
 _atom_site_fract_y
 _atom_site_fract_z
 _atom_site_occupancy
  Cr  Cr0  1  0.994170  0.994170  0.011660  1
  Bi  Bi1  1  0.443151  0.216275  0.999395  1
  Bi  Bi2  1  0.938920  0.125028  0.336209  1
  Bi  Bi3  1  0.462969  0.060549  0.661944  1
  Bi  Bi4  1  0.792002  0.435408  0.003628  1
  Bi  Bi5  1  0.340022  0.340022  0.319955  1
  Bi  Bi6  1  0.204369  0.560963  0.003628  1
  Bi  Bi7  1  0.875086  0.277507  0.661944  1
  Bi  Bi8  1  0.724871  0.538763  0.336209  1
  Bi  Bi9  1  0.557453  0.784329  0.999395  1
  Bi  Bi10  1  0.277308  0.464205  0.663271  1
  Bi  Bi11  1  0.124454  0.721366  0.337714  1
  Bi  Bi12  1  0.658841  0.658841  0.682319  1
  Bi  Bi13  1  0.537833  0.940920  0.337714  1
  Bi  Bi14  1  0.059421  0.872523  0.663271  1
  O  O15  1  0.904217  0.162166  0.042343  1
  O  O16  1  0.334214  0.007921  0.493318  1
  O  O17  1  0.543350  0.238879  0.157980  1
  O  O18  1  0.235339  0.294140  0.159880  1
  O  O19  1  0.006169  0.173522  0.493569  1
  O  O20  1  0.095020  0.095020  0.809962  1
  O  O21  1  0.617950  0.117950  0.764100  1
  O  O22  1  0.881477  0.381477  0.237046  1
  O  O23  1  0.500262  0.332910  0.493569  1
  O  O24  1  0.604780  0.545980  0.159880  1
  O  O25  1  0.298669  0.603141  0.157980  1
  O  O26  1  0.827889  0.499502  0.507804  1
  O  O27  1  0.172468  0.498761  0.493318  1
  O  O28  1  0.703020  0.393966  0.843740  1
  O  O29  1  0.053440  0.795491  0.042343  1
  O  O30  1  0.396948  0.454336  0.840398  1
  O  O31  1  0.500286  0.667178  0.505989  1
  O  O32  1  0.382379  0.882379  0.235241  1
  O  O33  1  0.118562  0.618562  0.762874  1
  O  O34  1  0.883111  0.883111  0.233779  1
  O  O35  1  0.993726  0.826833  0.505989  1
  O  O36  1  0.762655  0.705266  0.840398  1
  O  O37  1  0.453240  0.762295  0.843740  1
  O  O38  1  0.664306  0.992694  0.507804  1
