# generated using pymatgen
data_LiMn2(BO3)2
_symmetry_space_group_name_H-M   'P 1'
_cell_length_a   5.77968643
_cell_length_b   5.29549754
_cell_length_c   13.42474034
_cell_angle_alpha   89.00607640
_cell_angle_beta   82.49698991
_cell_angle_gamma   113.72458143
_symmetry_Int_Tables_number   1
_chemical_formula_structural   LiMn2(BO3)2
_chemical_formula_sum   'Li3 Mn6 B6 O18'
_cell_volume   371.83053992
_cell_formula_units_Z   3
loop_
 _symmetry_equiv_pos_site_id
 _symmetry_equiv_pos_as_xyz
  1  'x, y, z'
loop_
 _atom_site_type_symbol
 _atom_site_label
 _atom_site_symmetry_multiplicity
 _atom_site_fract_x
 _atom_site_fract_y
 _atom_site_fract_z
 _atom_site_occupancy
  Li  Li0  1  0.981314  0.090306  0.689165  1
  Li  Li1  1  0.355335  0.583680  0.981311  1
  Li  Li2  1  0.020965  0.919026  0.314061  1
  Mn  Mn3  1  0.941098  0.560653  0.801982  1
  Mn  Mn4  1  0.379912  0.101359  0.869180  1
  Mn  Mn5  1  0.704744  0.756928  0.544152  1
  Mn  Mn6  1  0.289744  0.229818  0.463578  1
  Mn  Mn7  1  0.626145  0.902689  0.129180  1
  Mn  Mn8  1  0.053967  0.434541  0.203331  1
  B  B9  1  0.839667  0.342409  0.418698  1
  B  B10  1  0.829546  0.990312  0.907742  1
  B  B11  1  0.496160  0.674406  0.760681  1
  B  B12  1  0.500936  0.327034  0.241586  1
  B  B13  1  0.165469  0.001990  0.086565  1
  B  B14  1  0.165276  0.660677  0.583607  1
  O  O15  1  0.896239  0.113133  0.431805  1
  O  O16  1  0.736082  0.188313  0.887382  1
  O  O17  1  0.030099  0.992348  0.832369  1
  O  O18  1  0.948141  0.532402  0.336555  1
  O  O19  1  0.723309  0.797406  0.985123  1
  O  O20  1  0.674648  0.393685  0.493174  1
  O  O21  1  0.558336  0.454543  0.776281  1
  O  O22  1  0.705191  0.315891  0.174258  1
  O  O23  1  0.615062  0.866786  0.679933  1
  O  O24  1  0.382013  0.138068  0.320495  1
  O  O25  1  0.325212  0.712172  0.838183  1
  O  O26  1  0.414244  0.528590  0.216396  1
  O  O27  1  0.360038  0.653392  0.510938  1
  O  O28  1  0.256793  0.193519  0.005383  1
  O  O29  1  0.068501  0.470962  0.663086  1
  O  O30  1  0.008157  0.039420  0.169297  1
  O  O31  1  0.230600  0.777266  0.092945  1
  O  O32  1  0.071452  0.867372  0.568674  1
