# generated using pymatgen
data_Cs2MgH12(SeO7)2
_symmetry_space_group_name_H-M   'P 1'
_cell_length_a   9.58411292
_cell_length_b   13.10914780
_cell_length_c   6.57584869
_cell_angle_alpha   90.00000000
_cell_angle_beta   105.86616580
_cell_angle_gamma   90.00000000
_symmetry_Int_Tables_number   1
_chemical_formula_structural   Cs2MgH12(SeO7)2
_chemical_formula_sum   'Cs4 Mg2 H24 Se4 O28'
_cell_volume   794.71138862
_cell_formula_units_Z   2
loop_
 _symmetry_equiv_pos_site_id
 _symmetry_equiv_pos_as_xyz
  1  'x, y, z'
loop_
 _atom_site_type_symbol
 _atom_site_label
 _atom_site_symmetry_multiplicity
 _atom_site_fract_x
 _atom_site_fract_y
 _atom_site_fract_z
 _atom_site_occupancy
  Cs  Cs0  1  0.129673  0.351531  0.350191  1
  Cs  Cs1  1  0.370327  0.851531  0.649809  1
  Cs  Cs2  1  0.629673  0.148469  0.350191  1
  Cs  Cs3  1  0.870327  0.648469  0.649809  1
  Mg  Mg4  1  0.000000  0.000000  0.000000  1
  Mg  Mg5  1  0.500000  0.500000  0.000000  1
  H  H6  1  0.095751  0.056211  0.667381  1
  H  H7  1  0.026328  0.866221  0.318979  1
  H  H8  1  0.231845  0.406394  0.935167  1
  H  H9  1  0.269887  0.630804  0.911063  1
  H  H10  1  0.203299  0.094485  0.310830  1
  H  H11  1  0.146527  0.821526  0.006218  1
  H  H12  1  0.353473  0.321526  0.993782  1
  H  H13  1  0.296701  0.594485  0.689170  1
  H  H14  1  0.230113  0.130804  0.088937  1
  H  H15  1  0.268155  0.906394  0.064833  1
  H  H16  1  0.473672  0.366221  0.681021  1
  H  H17  1  0.404249  0.556211  0.332619  1
  H  H18  1  0.595751  0.443789  0.667381  1
  H  H19  1  0.526328  0.633779  0.318979  1
  H  H20  1  0.731845  0.093606  0.935167  1
  H  H21  1  0.769887  0.869196  0.911063  1
  H  H22  1  0.703299  0.405515  0.310830  1
  H  H23  1  0.646527  0.678474  0.006218  1
  H  H24  1  0.853473  0.178474  0.993782  1
  H  H25  1  0.796701  0.905515  0.689170  1
  H  H26  1  0.730113  0.369196  0.088937  1
  H  H27  1  0.768155  0.593606  0.064833  1
  H  H28  1  0.973672  0.133779  0.681021  1
  H  H29  1  0.904249  0.943789  0.332619  1
  Se  Se30  1  0.102135  0.646729  0.257933  1
  Se  Se31  1  0.397865  0.146729  0.742067  1
  Se  Se32  1  0.602135  0.853271  0.257933  1
  Se  Se33  1  0.897865  0.353271  0.742067  1
  O  O34  1  0.005857  0.061729  0.713413  1
  O  O35  1  0.048648  0.424360  0.804398  1
  O  O36  1  0.165142  0.895167  0.985038  1
  O  O37  1  0.081022  0.746576  0.406125  1
  O  O38  1  0.156277  0.106672  0.158209  1
  O  O39  1  0.142057  0.688952  0.037992  1
  O  O40  1  0.261160  0.074520  0.597051  1
  O  O41  1  0.238840  0.574520  0.402949  1
  O  O42  1  0.357943  0.188952  0.962008  1
  O  O43  1  0.343723  0.606672  0.841791  1
  O  O44  1  0.418978  0.246576  0.593875  1
  O  O45  1  0.334858  0.395167  0.014962  1
  O  O46  1  0.505857  0.438271  0.713413  1
  O  O47  1  0.548648  0.075640  0.804398  1
  O  O48  1  0.451352  0.924360  0.195602  1
  O  O49  1  0.494143  0.561729  0.286587  1
  O  O50  1  0.665142  0.604833  0.985038  1
  O  O51  1  0.581022  0.753424  0.406125  1
  O  O52  1  0.656277  0.393328  0.158209  1
  O  O53  1  0.642057  0.811048  0.037992  1
  O  O54  1  0.761160  0.425480  0.597051  1
  O  O55  1  0.738840  0.925480  0.402949  1
  O  O56  1  0.857943  0.311048  0.962008  1
  O  O57  1  0.843723  0.893328  0.841791  1
  O  O58  1  0.918978  0.253424  0.593875  1
  O  O59  1  0.834858  0.104833  0.014962  1
  O  O60  1  0.951352  0.575640  0.195602  1
  O  O61  1  0.994143  0.938271  0.286587  1
