# generated using pymatgen
data_Sr6Bi2O11
_symmetry_space_group_name_H-M   'P 1'
_cell_length_a   8.85599111
_cell_length_b   8.58263287
_cell_length_c   8.61755815
_cell_angle_alpha   90.00000000
_cell_angle_beta   90.12502703
_cell_angle_gamma   90.00000000
_symmetry_Int_Tables_number   1
_chemical_formula_structural   Sr6Bi2O11
_chemical_formula_sum   'Sr12 Bi4 O22'
_cell_volume   654.99939039
_cell_formula_units_Z   2
loop_
 _symmetry_equiv_pos_site_id
 _symmetry_equiv_pos_as_xyz
  1  'x, y, z'
loop_
 _atom_site_type_symbol
 _atom_site_label
 _atom_site_symmetry_multiplicity
 _atom_site_fract_x
 _atom_site_fract_y
 _atom_site_fract_z
 _atom_site_occupancy
  Sr  Sr0  1  0.501138  0.000000  0.999427  1
  Sr  Sr1  1  0.783407  0.236666  0.267775  1
  Sr  Sr2  1  0.783407  0.763334  0.267775  1
  Sr  Sr3  1  0.921656  0.500000  0.001093  1
  Sr  Sr4  1  0.784152  0.233567  0.736520  1
  Sr  Sr5  1  0.784152  0.766433  0.736520  1
  Sr  Sr6  1  0.216605  0.737159  0.232066  1
  Sr  Sr7  1  0.498671  0.500000  0.500237  1
  Sr  Sr8  1  0.216605  0.262841  0.232066  1
  Sr  Sr9  1  0.216032  0.732918  0.763235  1
  Sr  Sr10  1  0.078477  0.000000  0.499495  1
  Sr  Sr11  1  0.216032  0.267082  0.763235  1
  Bi  Bi12  1  0.536178  0.500000  0.998895  1
  Bi  Bi13  1  0.000647  0.000000  0.999372  1
  Bi  Bi14  1  0.463762  0.000000  0.500851  1
  Bi  Bi15  1  0.999217  0.500000  0.500727  1
  O  O16  1  0.983973  0.000000  0.246376  1
  O  O17  1  0.016590  0.500000  0.253930  1
  O  O18  1  0.618855  0.730734  0.999983  1
  O  O19  1  0.618855  0.269266  0.999983  1
  O  O20  1  0.765990  0.500000  0.495027  1
  O  O21  1  0.610786  0.500000  0.231850  1
  O  O22  1  0.008528  0.500000  0.747666  1
  O  O23  1  0.701457  0.000000  0.502395  1
  O  O24  1  0.990176  0.000000  0.752543  1
  O  O25  1  0.388827  0.000000  0.267980  1
  O  O26  1  0.233904  0.000000  0.004606  1
  O  O27  1  0.015138  0.752615  0.000529  1
  O  O28  1  0.381623  0.230899  0.499634  1
  O  O29  1  0.381623  0.769101  0.499634  1
  O  O30  1  0.015138  0.247385  0.000529  1
  O  O31  1  0.767662  0.000000  0.991229  1
  O  O32  1  0.385375  0.000000  0.732455  1
  O  O33  1  0.232118  0.500000  0.510496  1
  O  O34  1  0.613260  0.500000  0.766966  1
  O  O35  1  0.984975  0.747400  0.499907  1
  O  O36  1  0.984975  0.252600  0.499907  1
  O  O37  1  0.298430  0.500000  0.997087  1
