# generated using pymatgen
data_CsCoH18N6(ClO2)4
_symmetry_space_group_name_H-M   'P 1'
_cell_length_a   10.26838294
_cell_length_b   10.25017097
_cell_length_c   10.28508830
_cell_angle_alpha   46.32349636
_cell_angle_beta   46.29990973
_cell_angle_gamma   46.39145287
_symmetry_Int_Tables_number   1
_chemical_formula_structural   CsCoH18N6(ClO2)4
_chemical_formula_sum   'Cs1 Co1 H18 N6 Cl4 O8'
_cell_volume   517.13468292
_cell_formula_units_Z   1
loop_
 _symmetry_equiv_pos_site_id
 _symmetry_equiv_pos_as_xyz
  1  'x, y, z'
loop_
 _atom_site_type_symbol
 _atom_site_label
 _atom_site_symmetry_multiplicity
 _atom_site_fract_x
 _atom_site_fract_y
 _atom_site_fract_z
 _atom_site_occupancy
  Cs  Cs0  1  0.503151  0.503148  0.502821  1
  Co  Co1  1  0.953953  0.953421  0.953238  1
  H  H2  1  0.203005  0.613497  0.007233  1
  H  H3  1  0.212218  0.011648  0.608571  1
  H  H4  1  0.607998  0.013154  0.215346  1
  H  H5  1  0.610656  0.204770  0.006184  1
  H  H6  1  0.014524  0.610079  0.215208  1
  H  H7  1  0.012444  0.212662  0.608363  1
  H  H8  1  0.495281  0.796175  0.796687  1
  H  H9  1  0.295044  0.795496  0.006357  1
  H  H10  1  0.296234  0.006784  0.796997  1
  H  H11  1  0.424249  0.911113  0.914110  1
  H  H12  1  0.796593  0.796255  0.494455  1
  H  H13  1  0.796474  0.495041  0.796657  1
  H  H14  1  0.795588  0.295127  0.006560  1
  H  H15  1  0.796872  0.007360  0.295346  1
  H  H16  1  0.007294  0.796793  0.294670  1
  H  H17  1  0.006931  0.295668  0.796955  1
  H  H18  1  0.911051  0.424867  0.913555  1
  H  H19  1  0.913269  0.912791  0.423281  1
  N  N20  1  0.091465  0.694708  0.089219  1
  N  N21  1  0.090346  0.090084  0.693275  1
  N  N22  1  0.692891  0.091811  0.088708  1
  N  N23  1  0.376064  0.879941  0.881380  1
  N  N24  1  0.880083  0.376110  0.881153  1
  N  N25  1  0.881263  0.880924  0.375113  1
  Cl  Cl26  1  0.184064  0.184157  0.184287  1
  Cl  Cl27  1  0.383077  0.380200  0.389388  1
  Cl  Cl28  1  0.641900  0.640657  0.639618  1
  Cl  Cl29  1  0.810001  0.809893  0.809729  1
  O  O30  1  0.130147  0.129606  0.131246  1
  O  O31  1  0.988361  0.692422  0.692590  1
  O  O32  1  0.692780  0.988291  0.692806  1
  O  O33  1  0.692478  0.692336  0.988316  1
  O  O34  1  0.300420  0.300590  0.004119  1
  O  O35  1  0.300309  0.004556  0.299987  1
  O  O36  1  0.004472  0.300610  0.300134  1
  O  O37  1  0.862452  0.862655  0.861737  1
