# generated using pymatgen
data_Ba2LaI7
_symmetry_space_group_name_H-M   'P 1'
_cell_length_a   8.43631345
_cell_length_b   15.43934925
_cell_length_c   14.97362540
_cell_angle_alpha   90.00000000
_cell_angle_beta   99.90325069
_cell_angle_gamma   90.00000000
_symmetry_Int_Tables_number   1
_chemical_formula_structural   Ba2LaI7
_chemical_formula_sum   'Ba8 La4 I28'
_cell_volume   1921.27172960
_cell_formula_units_Z   4
loop_
 _symmetry_equiv_pos_site_id
 _symmetry_equiv_pos_as_xyz
  1  'x, y, z'
loop_
 _atom_site_type_symbol
 _atom_site_label
 _atom_site_symmetry_multiplicity
 _atom_site_fract_x
 _atom_site_fract_y
 _atom_site_fract_z
 _atom_site_occupancy
  Ba  Ba0  1  0.215080  0.454067  0.750651  1
  Ba  Ba1  1  0.255606  0.866794  0.638858  1
  Ba  Ba2  1  0.242024  0.209317  0.137810  1
  Ba  Ba3  1  0.320735  0.636597  0.241292  1
  Ba  Ba4  1  0.679265  0.136597  0.758708  1
  Ba  Ba5  1  0.757976  0.709317  0.862190  1
  Ba  Ba6  1  0.744394  0.366794  0.361142  1
  Ba  Ba7  1  0.784920  0.954067  0.249349  1
  La  La8  1  0.178507  0.153680  0.550041  1
  La  La9  1  0.193558  0.926022  0.048246  1
  La  La10  1  0.806442  0.426022  0.951754  1
  La  La11  1  0.821493  0.653680  0.449959  1
  I  I12  1  0.050261  0.290812  0.887556  1
  I  I13  1  0.072423  0.573725  0.989170  1
  I  I14  1  0.046335  0.490487  0.509700  1
  I  I15  1  0.117194  0.839502  0.857911  1
  I  I16  1  0.118488  0.760285  0.398581  1
  I  I17  1  0.109922  0.237902  0.357746  1
  I  I18  1  0.214495  0.077027  0.748337  1
  I  I19  1  0.206284  0.998546  0.250311  1
  I  I20  1  0.385777  0.660094  0.717239  1
  I  I21  1  0.381996  0.413766  0.211441  1
  I  I22  1  0.419017  0.307186  0.620515  1
  I  I23  1  0.521355  0.292751  0.892715  1
  I  I24  1  0.488207  0.039822  0.542525  1
  I  I25  1  0.536459  0.558566  0.973916  1
  I  I26  1  0.463541  0.058566  0.026084  1
  I  I27  1  0.511793  0.539823  0.457475  1
  I  I28  1  0.478645  0.792751  0.107285  1
  I  I29  1  0.580983  0.807186  0.379485  1
  I  I30  1  0.618004  0.913766  0.788559  1
  I  I31  1  0.614223  0.160094  0.282761  1
  I  I32  1  0.793716  0.498546  0.749689  1
  I  I33  1  0.785505  0.577027  0.251663  1
  I  I34  1  0.890078  0.737902  0.642254  1
  I  I35  1  0.881512  0.260285  0.601419  1
  I  I36  1  0.882806  0.339502  0.142089  1
  I  I37  1  0.953665  0.990487  0.490300  1
  I  I38  1  0.927577  0.073725  0.010830  1
  I  I39  1  0.949739  0.790812  0.112444  1
