# generated using pymatgen
data_Fe10OF19
_symmetry_space_group_name_H-M   'P 1'
_cell_length_a   17.41728531
_cell_length_b   6.80343439
_cell_length_c   3.27023003
_cell_angle_alpha   90.00000000
_cell_angle_beta   90.00000000
_cell_angle_gamma   78.73734363
_symmetry_Int_Tables_number   1
_chemical_formula_structural   Fe10OF19
_chemical_formula_sum   'Fe10 O1 F19'
_cell_volume   380.05094346
_cell_formula_units_Z   1
loop_
 _symmetry_equiv_pos_site_id
 _symmetry_equiv_pos_as_xyz
  1  'x, y, z'
loop_
 _atom_site_type_symbol
 _atom_site_label
 _atom_site_symmetry_multiplicity
 _atom_site_fract_x
 _atom_site_fract_y
 _atom_site_fract_z
 _atom_site_occupancy
  Fe  Fe0  1  0.000000  0.011981  0.000000  1
  Fe  Fe1  1  0.000000  0.471715  0.500000  1
  Fe  Fe2  1  0.199636  0.401122  0.000000  1
  Fe  Fe3  1  0.200073  0.899831  0.500000  1
  Fe  Fe4  1  0.400198  0.299917  0.500000  1
  Fe  Fe5  1  0.400018  0.800098  0.000000  1
  Fe  Fe6  1  0.599982  0.200115  0.000000  1
  Fe  Fe7  1  0.799927  0.099904  0.500000  1
  Fe  Fe8  1  0.599802  0.700114  0.500000  1
  Fe  Fe9  1  0.800364  0.600760  0.000000  1
  O  O10  1  0.000000  0.314240  0.000000  1
  F  F11  1  0.000000  0.693887  0.000000  1
  F  F12  1  0.200310  0.102560  0.000000  1
  F  F13  1  0.117513  0.448643  0.500000  1
  F  F14  1  0.081223  0.952910  0.500000  1
  F  F15  1  0.280429  0.359176  0.500000  1
  F  F16  1  0.202289  0.697562  0.000000  1
  F  F17  1  0.400225  0.099104  0.000000  1
  F  F18  1  0.400119  0.500943  0.000000  1
  F  F19  1  0.319805  0.841261  0.500000  1
  F  F20  1  0.519592  0.240248  0.500000  1
  F  F21  1  0.480408  0.759840  0.500000  1
  F  F22  1  0.680195  0.161066  0.500000  1
  F  F23  1  0.599775  0.499329  0.000000  1
  F  F24  1  0.599881  0.901062  0.000000  1
  F  F25  1  0.799690  0.302871  0.000000  1
  F  F26  1  0.719571  0.639605  0.500000  1
  F  F27  1  0.918777  0.034132  0.500000  1
  F  F28  1  0.882487  0.566156  0.500000  1
  F  F29  1  0.797711  0.899851  0.000000  1
