# generated using pymatgen
data_Na3Mg4CrSi8(O11F)2
_symmetry_space_group_name_H-M   'P 1'
_cell_length_a   16.02317466
_cell_length_b   8.68441326
_cell_length_c   8.14976502
_cell_angle_alpha   63.74811746
_cell_angle_beta   79.61155838
_cell_angle_gamma   70.31969578
_symmetry_Int_Tables_number   1
_chemical_formula_structural   Na3Mg4CrSi8(O11F)2
_chemical_formula_sum   'Na6 Mg8 Cr2 Si16 O44 F4'
_cell_volume   957.01425969
_cell_formula_units_Z   2
loop_
 _symmetry_equiv_pos_site_id
 _symmetry_equiv_pos_as_xyz
  1  'x, y, z'
loop_
 _atom_site_type_symbol
 _atom_site_label
 _atom_site_symmetry_multiplicity
 _atom_site_fract_x
 _atom_site_fract_y
 _atom_site_fract_z
 _atom_site_occupancy
  Na  Na0  1  0.026207  0.468741  0.127949  1
  Na  Na1  1  0.224394  0.078565  0.625107  1
  Na  Na2  1  0.275606  0.921435  0.374893  1
  Na  Na3  1  0.473793  0.531259  0.872051  1
  Na  Na4  1  0.787136  0.290504  0.534881  1
  Na  Na5  1  0.712864  0.709496  0.465119  1
  Mg  Mg6  1  0.831161  0.030194  0.036466  1
  Mg  Mg7  1  0.226123  0.739734  0.972302  1
  Mg  Mg8  1  0.273877  0.260265  0.027698  1
  Mg  Mg9  1  0.668839  0.969806  0.963534  1
  Mg  Mg10  1  0.518648  0.237001  0.554084  1
  Mg  Mg11  1  0.837257  0.773238  0.719542  1
  Mg  Mg12  1  0.662743  0.226762  0.280458  1
  Mg  Mg13  1  0.981352  0.762999  0.445916  1
  Cr  Cr14  1  -0.000018  0.107166  0.476027  1
  Cr  Cr15  1  0.500018  0.892834  0.523973  1
  Si  Si16  1  0.923576  0.398467  0.708970  1
  Si  Si17  1  0.857080  0.278836  0.141086  1
  Si  Si18  1  0.390276  0.874553  0.921264  1
  Si  Si19  1  0.378585  0.563775  0.309419  1
  Si  Si20  1  0.121415  0.436225  0.690581  1
  Si  Si21  1  0.109724  0.125447  0.078736  1
  Si  Si22  1  0.642920  0.721164  0.858914  1
  Si  Si23  1  0.576424  0.601533  0.291030  1
  Si  Si24  1  0.292971  0.524827  0.683803  1
  Si  Si25  1  0.392163  0.213213  0.326039  1
  Si  Si26  1  0.058888  0.818151  0.073011  1
  Si  Si27  1  0.854432  0.639741  0.188675  1
  Si  Si28  1  0.645568  0.360259  0.811325  1
  Si  Si29  1  0.441112  0.181849  0.926989  1
  Si  Si30  1  0.107837  0.786787  0.673961  1
  Si  Si31  1  0.207029  0.475173  0.316197  1
  O  O32  1  0.164532  0.368590  0.514057  1
  O  O33  1  0.193855  0.130504  0.151088  1
  O  O34  1  0.995288  0.866105  0.625466  1
  O  O35  1  0.107579  0.236492  0.855016  1
  O  O36  1  0.374267  0.015893  0.472881  1
  O  O37  1  0.959539  0.869055  0.153663  1
  O  O38  1  0.236121  0.378557  0.757460  1
  O  O39  1  0.274048  0.323854  0.242800  1
  O  O40  1  0.375324  0.341583  0.452557  1
  O  O41  1  0.933315  0.249732  0.628641  1
  O  O42  1  0.382813  0.401247  0.814995  1
  O  O43  1  0.117187  0.598753  0.185005  1
  O  O44  1  0.263879  0.621443  0.242540  1
  O  O45  1  0.566685  0.750268  0.371360  1
  O  O46  1  0.124676  0.658417  0.547443  1
  O  O47  1  0.225952  0.676146  0.757200  1
  O  O48  1  0.540461  0.130945  0.846337  1
  O  O49  1  0.125733  0.984107  0.527119  1
  O  O50  1  0.392421  0.763508  0.144984  1
  O  O51  1  0.504712  0.133895  0.374534  1
  O  O52  1  0.306145  0.869496  0.848912  1
  O  O53  1  0.335468  0.631410  0.485943  1
  O  O54  1  0.494283  0.500036  0.363048  1
  O  O55  1  0.620875  0.877277  0.619701  1
  O  O56  1  0.478692  0.811730  0.797279  1
  O  O57  1  0.731649  0.172699  0.843921  1
  O  O58  1  0.855958  0.948458  0.445494  1
  O  O59  1  0.412070  0.161584  0.133340  1
  O  O60  1  0.839893  0.581262  0.643812  1
  O  O61  1  0.774863  0.210708  0.138696  1
  O  O62  1  0.836119  0.463327  0.167134  1
  O  O63  1  0.380448  0.082263  0.890463  1
  O  O64  1  0.909499  0.287342  0.941549  1
  O  O65  1  0.590501  0.712658  0.058451  1
  O  O66  1  0.660107  0.418738  0.356188  1
  O  O67  1  0.119552  0.917737  0.109536  1
  O  O68  1  0.663881  0.536673  0.832866  1
  O  O69  1  0.725137  0.789292  0.861304  1
  O  O70  1  0.087930  0.838416  0.866660  1
  O  O71  1  0.644042  0.051542  0.554506  1
  O  O72  1  0.768351  0.827301  0.156079  1
  O  O73  1  0.021308  0.188270  0.202721  1
  O  O74  1  0.879125  0.122723  0.380299  1
  O  O75  1  0.005717  0.499964  0.636952  1
  F  F76  1  0.087963  0.538001  0.862249  1
  F  F77  1  0.412037  0.461999  0.137751  1
  F  F78  1  0.604496  0.269288  0.056481  1
  F  F79  1  0.895504  0.730712  0.943519  1
