# generated using pymatgen
data_NaLi2CoPCO7
_symmetry_space_group_name_H-M   'P 1'
_cell_length_a   5.08343692
_cell_length_b   6.56375351
_cell_length_c   8.55594412
_cell_angle_alpha   89.99993500
_cell_angle_beta   84.97116873
_cell_angle_gamma   89.97971278
_symmetry_Int_Tables_number   1
_chemical_formula_structural   NaLi2CoPCO7
_chemical_formula_sum   'Na2 Li4 Co2 P2 C2 O14'
_cell_volume   284.38236752
_cell_formula_units_Z   2
loop_
 _symmetry_equiv_pos_site_id
 _symmetry_equiv_pos_as_xyz
  1  'x, y, z'
loop_
 _atom_site_type_symbol
 _atom_site_label
 _atom_site_symmetry_multiplicity
 _atom_site_fract_x
 _atom_site_fract_y
 _atom_site_fract_z
 _atom_site_occupancy
  Na  Na0  1  0.266980  0.481509  0.266912  1
  Na  Na1  1  0.733067  0.981470  0.733015  1
  Li  Li2  1  0.774770  0.226828  0.105451  1
  Li  Li3  1  0.245567  0.991672  0.259384  1
  Li  Li4  1  0.754317  0.491663  0.740586  1
  Li  Li5  1  0.225271  0.726853  0.894476  1
  Co  Co6  1  0.783224  0.753274  0.337395  1
  Co  Co7  1  0.216732  0.253233  0.662777  1
  P  P8  1  0.726693  0.251848  0.412930  1
  P  P9  1  0.273260  0.751735  0.587161  1
  C  C10  1  0.699836  0.740202  0.043156  1
  C  C11  1  0.300009  0.240248  0.956425  1
  O  O12  1  0.375865  0.209552  0.094977  1
  O  O13  1  0.947139  0.749591  0.070085  1
  O  O14  1  0.521926  0.762493  0.163174  1
  O  O15  1  0.835634  0.067889  0.310118  1
  O  O16  1  0.798569  0.438449  0.303572  1
  O  O17  1  0.151611  0.764296  0.428076  1
  O  O18  1  0.421560  0.234698  0.442390  1
  O  O19  1  0.578351  0.734595  0.557581  1
  O  O20  1  0.848238  0.264400  0.571864  1
  O  O21  1  0.201330  0.938480  0.696352  1
  O  O22  1  0.164397  0.567958  0.689885  1
  O  O23  1  0.478186  0.262301  0.837017  1
  O  O24  1  0.053261  0.249467  0.929851  1
  O  O25  1  0.624201  0.709536  0.905388  1
