# generated using pymatgen
data_VO2F
_symmetry_space_group_name_H-M   'P 1'
_cell_length_a   5.18094476
_cell_length_b   11.58635404
_cell_length_c   5.31798720
_cell_angle_alpha   79.12302241
_cell_angle_beta   89.05426765
_cell_angle_gamma   102.18778076
_symmetry_Int_Tables_number   1
_chemical_formula_structural   VO2F
_chemical_formula_sum   'V6 O12 F6'
_cell_volume   305.90023906
_cell_formula_units_Z   6
loop_
 _symmetry_equiv_pos_site_id
 _symmetry_equiv_pos_as_xyz
  1  'x, y, z'
loop_
 _atom_site_type_symbol
 _atom_site_label
 _atom_site_symmetry_multiplicity
 _atom_site_fract_x
 _atom_site_fract_y
 _atom_site_fract_z
 _atom_site_occupancy
  V  V0  1  0.877352  0.678837  0.184479  1
  V  V1  1  0.630983  0.345124  0.346956  1
  V  V2  1  0.538997  0.011748  0.462627  1
  V  V3  1  0.360160  0.685154  0.636553  1
  V  V4  1  0.029596  0.018909  0.967602  1
  V  V5  1  0.161130  0.352257  0.851947  1
  O  O6  1  0.998267  0.161803  0.910357  1
  O  O7  1  0.969238  0.355162  0.106685  1
  O  O8  1  0.665470  0.159060  0.415990  1
  O  O9  1  0.660253  0.493276  0.256320  1
  O  O10  1  0.631313  0.692509  0.440486  1
  O  O11  1  0.296907  0.021727  0.783044  1
  O  O12  1  0.693668  0.967458  0.229131  1
  O  O13  1  0.363945  0.303019  0.554751  1
  O  O14  1  0.318853  0.495418  0.754212  1
  O  O15  1  0.333070  0.828976  0.593017  1
  O  O16  1  0.105656  0.638030  0.398482  1
  O  O17  1  0.992294  0.825680  0.089706  1
  F  F18  1  0.885723  0.358866  0.609424  1
  F  F19  1  0.773256  0.963508  0.728279  1
  F  F20  1  0.445699  0.298849  0.050867  1
  F  F21  1  0.215306  0.026610  0.285450  1
  F  F22  1  0.539859  0.685469  0.950483  1
  F  F23  1  0.013005  0.632551  0.893154  1
