# generated using pymatgen
data_Na5Ca2Ce3Ti8Nb2O30
_symmetry_space_group_name_H-M   'P 1'
_cell_length_a   3.94628810
_cell_length_b   3.94601481
_cell_length_c   39.09871600
_cell_angle_alpha   90.02670832
_cell_angle_beta   90.00361026
_cell_angle_gamma   90.00024013
_symmetry_Int_Tables_number   1
_chemical_formula_structural   Na5Ca2Ce3Ti8Nb2O30
_chemical_formula_sum   'Na5 Ca2 Ce3 Ti8 Nb2 O30'
_cell_volume   608.84948901
_cell_formula_units_Z   1
loop_
 _symmetry_equiv_pos_site_id
 _symmetry_equiv_pos_as_xyz
  1  'x, y, z'
loop_
 _atom_site_type_symbol
 _atom_site_label
 _atom_site_symmetry_multiplicity
 _atom_site_fract_x
 _atom_site_fract_y
 _atom_site_fract_z
 _atom_site_occupancy
  Na  Na0  1  0.999993  0.999981  0.000321  1
  Na  Na1  1  0.000012  0.000033  0.200250  1
  Na  Na2  1  0.000002  0.000024  0.400680  1
  Na  Na3  1  0.000004  0.999984  0.602897  1
  Na  Na4  1  0.000004  0.000019  0.901502  1
  Ca  Ca5  1  0.000004  0.000071  0.694119  1
  Ca  Ca6  1  0.999996  0.000055  0.793224  1
  Ce  Ce7  1  0.000081  0.999988  0.100387  1
  Ce  Ce8  1  0.999991  0.999994  0.300259  1
  Ce  Ce9  1  0.999998  0.999969  0.500615  1
  Ti  Ti10  1  0.500030  0.499926  0.151263  1
  Ti  Ti11  1  0.500022  0.500044  0.050712  1
  Ti  Ti12  1  0.499987  0.499979  0.351347  1
  Ti  Ti13  1  0.500011  0.500017  0.249500  1
  Ti  Ti14  1  0.499997  0.499940  0.449709  1
  Ti  Ti15  1  0.499985  0.499928  0.649278  1
  Ti  Ti16  1  0.500000  0.500029  0.551504  1
  Ti  Ti17  1  0.499992  0.499986  0.747796  1
  Nb  Nb18  1  0.499999  0.500008  0.848990  1
  Nb  Nb19  1  0.499998  0.500010  0.951138  1
  O  O20  1  0.999991  0.500226  0.056198  1
  O  O21  1  0.999978  0.499808  0.144784  1
  O  O22  1  0.000012  0.500082  0.543978  1
  O  O23  1  -0.000001  0.500011  0.950499  1
  O  O24  1  0.500005  0.500044  0.002603  1
  O  O25  1  0.499942  0.500032  0.100774  1
  O  O26  1  0.500005  -0.000005  0.056164  1
  O  O27  1  0.499997  0.499988  0.200055  1
  O  O28  1  0.499965  0.000049  0.144820  1
  O  O29  1  0.500004  0.499994  0.299943  1
  O  O30  1  0.500022  0.999888  0.255087  1
  O  O31  1  0.500001  0.499995  0.399727  1
  O  O32  1  0.499976  0.000103  0.344519  1
  O  O33  1  0.499995  0.999887  0.454808  1
  O  O34  1  0.500005  0.000121  0.543979  1
  O  O35  1  0.500000  0.499999  0.499694  1
  O  O36  1  0.499999  0.499998  0.599165  1
  O  O37  1  0.500002  0.999946  0.653187  1
  O  O38  1  0.499994  0.999962  0.751408  1
  O  O39  1  0.500006  0.500026  0.700259  1
  O  O40  1  0.499997  0.000017  0.847373  1
  O  O41  1  0.500005  0.499997  0.798721  1
  O  O42  1  0.499997  0.500000  0.899886  1
  O  O43  1  0.500001  0.000017  0.950496  1
  O  O44  1  0.999993  0.500023  0.255089  1
  O  O45  1  0.000008  0.499976  0.344516  1
  O  O46  1  0.999989  0.499954  0.454811  1
  O  O47  1  0.000002  0.499959  0.653187  1
  O  O48  1  -0.000001  0.499929  0.751406  1
  O  O49  1  -0.000000  0.499987  0.847373  1
