# generated using pymatgen
data_TiMnO3
_symmetry_space_group_name_H-M   'P 1'
_cell_length_a   10.32890362
_cell_length_b   3.26167056
_cell_length_c   6.69416168
_cell_angle_alpha   116.59581396
_cell_angle_beta   145.41564939
_cell_angle_gamma   63.39799041
_symmetry_Int_Tables_number   1
_chemical_formula_structural   TiMnO3
_chemical_formula_sum   'Ti2 Mn2 O6'
_cell_volume   113.06335102
_cell_formula_units_Z   2
loop_
 _symmetry_equiv_pos_site_id
 _symmetry_equiv_pos_as_xyz
  1  'x, y, z'
loop_
 _atom_site_type_symbol
 _atom_site_label
 _atom_site_symmetry_multiplicity
 _atom_site_fract_x
 _atom_site_fract_y
 _atom_site_fract_z
 _atom_site_occupancy
  Ti  Ti0  1  0.256570  0.307173  0.682310  1
  Ti  Ti1  1  0.743430  0.692827  0.317690  1
  Mn  Mn2  1  0.780874  0.756357  0.896020  1
  Mn  Mn3  1  0.219126  0.243643  0.103980  1
  O  O4  1  0.209694  0.631191  0.424683  1
  O  O5  1  0.418902  0.907224  0.048312  1
  O  O6  1  0.899243  0.373949  0.209017  1
  O  O7  1  0.790306  0.368809  0.575317  1
  O  O8  1  0.581098  0.092776  0.951688  1
  O  O9  1  0.100757  0.626051  0.790983  1
