# generated using pymatgen
data_Li7Mn8(BO3)8
_symmetry_space_group_name_H-M   'P 1'
_cell_length_a   5.22784407
_cell_length_b   9.11563239
_cell_length_c   11.53350335
_cell_angle_alpha   68.60300172
_cell_angle_beta   77.79748147
_cell_angle_gamma   89.28174962
_symmetry_Int_Tables_number   1
_chemical_formula_structural   Li7Mn8(BO3)8
_chemical_formula_sum   'Li7 Mn8 B8 O24'
_cell_volume   498.92397545
_cell_formula_units_Z   1
loop_
 _symmetry_equiv_pos_site_id
 _symmetry_equiv_pos_as_xyz
  1  'x, y, z'
loop_
 _atom_site_type_symbol
 _atom_site_label
 _atom_site_symmetry_multiplicity
 _atom_site_fract_x
 _atom_site_fract_y
 _atom_site_fract_z
 _atom_site_occupancy
  Li  Li0  1  0.979748  0.007087  0.837580  1
  Li  Li1  1  0.793089  0.780394  0.580878  1
  Li  Li2  1  0.476130  0.508841  0.836928  1
  Li  Li3  1  0.529929  0.537256  0.097936  1
  Li  Li4  1  0.291432  0.292100  0.573837  1
  Li  Li5  1  0.273034  0.249941  0.334383  1
  Li  Li6  1  0.040173  0.044819  0.078216  1
  Mn  Mn7  1  0.969302  0.657189  0.873366  1
  Mn  Mn8  1  0.764897  0.436148  0.618453  1
  Mn  Mn9  1  0.749302  0.047703  0.363021  1
  Mn  Mn10  1  0.476745  0.154362  0.866693  1
  Mn  Mn11  1  0.542477  0.860796  0.124067  1
  Mn  Mn12  1  0.270228  0.944125  0.618301  1
  Mn  Mn13  1  0.217114  0.591531  0.369836  1
  Mn  Mn14  1  0.024668  0.352420  0.119501  1
  B  B15  1  0.969412  0.317391  0.873162  1
  B  B16  1  0.760104  0.104866  0.624409  1
  B  B17  1  0.740440  0.381534  0.375240  1
  B  B18  1  0.465837  0.812813  0.879279  1
  B  B19  1  0.528343  0.187195  0.124219  1
  B  B20  1  0.264124  0.614233  0.622454  1
  B  B21  1  0.236339  0.889426  0.378038  1
  B  B22  1  0.030112  0.690611  0.128175  1
  O  O23  1  0.973903  0.856985  0.397326  1
  O  O24  1  0.739777  0.353493  0.827539  1
  O  O25  1  0.893719  0.279375  0.329909  1
  O  O26  1  0.598274  0.922773  0.908345  1
  O  O27  1  0.868745  0.479800  0.417812  1
  O  O28  1  0.559991  0.664172  0.901849  1
  O  O29  1  0.935613  0.833348  0.114829  1
  O  O30  1  0.676163  0.991401  0.583607  1
  O  O31  1  0.916065  0.583778  0.089648  1
  O  O32  1  0.582789  0.209148  0.656007  1
  O  O33  1  0.773871  0.150876  0.153004  1
  O  O34  1  0.512993  0.605519  0.644270  1
  O  O35  1  0.472820  0.385328  0.385898  1
  O  O36  1  0.238582  0.850670  0.832541  1
  O  O37  1  0.412608  0.792198  0.334702  1
  O  O38  1  0.093495  0.426197  0.906886  1
  O  O39  1  0.338050  0.012093  0.404522  1
  O  O40  1  0.073153  0.173851  0.886681  1
  O  O41  1  0.411327  0.317053  0.140756  1
  O  O42  1  0.174494  0.516714  0.565313  1
  O  O43  1  0.404168  0.089282  0.081108  1
  O  O44  1  0.092619  0.715085  0.659476  1
  O  O45  1  0.261789  0.650644  0.178820  1
  O  O46  1  0.015452  0.115491  0.638145  1
