# generated using pymatgen
data_ZnH20S2(NO7)2
_symmetry_space_group_name_H-M   'P 1'
_cell_length_a   9.34712626
_cell_length_b   13.34090440
_cell_length_c   6.21011274
_cell_angle_alpha   90.00000000
_cell_angle_beta   100.46540585
_cell_angle_gamma   90.00000000
_symmetry_Int_Tables_number   1
_chemical_formula_structural   ZnH20S2(NO7)2
_chemical_formula_sum   'Zn2 H40 S4 N4 O28'
_cell_volume   761.51332289
_cell_formula_units_Z   2
loop_
 _symmetry_equiv_pos_site_id
 _symmetry_equiv_pos_as_xyz
  1  'x, y, z'
loop_
 _atom_site_type_symbol
 _atom_site_label
 _atom_site_symmetry_multiplicity
 _atom_site_fract_x
 _atom_site_fract_y
 _atom_site_fract_z
 _atom_site_occupancy
  Zn  Zn0  1  0.000000  0.000000  0.000000  1
  Zn  Zn1  1  0.500000  0.500000  0.000000  1
  H  H2  1  0.147097  0.863663  0.942576  1
  H  H3  1  0.034332  0.841789  0.335368  1
  H  H4  1  0.055652  0.063768  0.617400  1
  H  H5  1  0.119054  0.336103  0.495896  1
  H  H6  1  0.093660  0.348454  0.222289  1
  H  H7  1  0.226013  0.631797  0.888810  1
  H  H8  1  0.228749  0.510170  0.227598  1
  H  H9  1  0.186963  0.249128  0.335287  1
  H  H10  1  0.262040  0.364884  0.374881  1
  H  H11  1  0.270054  0.583535  0.682718  1
  H  H12  1  0.229946  0.083535  0.317282  1
  H  H13  1  0.237960  0.864884  0.625119  1
  H  H14  1  0.313037  0.749128  0.664713  1
  H  H15  1  0.271251  0.010170  0.772402  1
  H  H16  1  0.273987  0.131797  0.111190  1
  H  H17  1  0.406340  0.848453  0.777711  1
  H  H18  1  0.380946  0.836103  0.504104  1
  H  H19  1  0.444348  0.563768  0.382600  1
  H  H20  1  0.465668  0.341789  0.664633  1
  H  H21  1  0.352903  0.363663  0.057424  1
  H  H22  1  0.647097  0.636337  0.942576  1
  H  H23  1  0.534332  0.658211  0.335368  1
  H  H24  1  0.555652  0.436232  0.617400  1
  H  H25  1  0.619054  0.163897  0.495896  1
  H  H26  1  0.593660  0.151547  0.222289  1
  H  H27  1  0.726013  0.868203  0.888810  1
  H  H28  1  0.728749  0.989830  0.227598  1
  H  H29  1  0.686963  0.250872  0.335287  1
  H  H30  1  0.762040  0.135116  0.374881  1
  H  H31  1  0.770054  0.916465  0.682718  1
  H  H32  1  0.729946  0.416465  0.317282  1
  H  H33  1  0.737960  0.635116  0.625119  1
  H  H34  1  0.813037  0.750872  0.664713  1
  H  H35  1  0.771251  0.489830  0.772402  1
  H  H36  1  0.773987  0.368203  0.111190  1
  H  H37  1  0.906340  0.651547  0.777711  1
  H  H38  1  0.880946  0.663897  0.504104  1
  H  H39  1  0.944348  0.936232  0.382600  1
  H  H40  1  0.965668  0.158211  0.664633  1
  H  H41  1  0.852903  0.136337  0.057424  1
  S  S42  1  0.062253  0.629286  0.238956  1
  S  S43  1  0.437747  0.129286  0.761044  1
  S  S44  1  0.562253  0.870714  0.238956  1
  S  S45  1  0.937747  0.370714  0.761044  1
  N  N46  1  0.166001  0.324832  0.359930  1
  N  N47  1  0.333999  0.824832  0.640070  1
  N  N48  1  0.666001  0.175168  0.359930  1
  N  N49  1  0.833999  0.675168  0.640070  1
  O  O50  1  0.066756  0.428789  0.741255  1
  O  O51  1  0.032168  0.915917  0.329451  1
  O  O52  1  0.141904  0.929552  0.873508  1
  O  O53  1  0.082544  0.716256  0.387096  1
  O  O54  1  0.073364  0.654212  0.011925  1
  O  O55  1  0.192223  0.126877  0.192903  1
  O  O56  1  0.204292  0.561928  0.334492  1
  O  O57  1  0.295708  0.061928  0.665508  1
  O  O58  1  0.307777  0.626877  0.807097  1
  O  O59  1  0.426636  0.154212  0.988075  1
  O  O60  1  0.417456  0.216256  0.612904  1
  O  O61  1  0.358096  0.429552  0.126492  1
  O  O62  1  0.467832  0.415917  0.670549  1
  O  O63  1  0.566756  0.071211  0.741255  1
  O  O64  1  0.433244  0.928789  0.258745  1
  O  O65  1  0.532168  0.584083  0.329451  1
  O  O66  1  0.641904  0.570448  0.873508  1
  O  O67  1  0.582544  0.783744  0.387096  1
  O  O68  1  0.573364  0.845788  0.011925  1
  O  O69  1  0.692223  0.373123  0.192903  1
  O  O70  1  0.704292  0.938072  0.334492  1
  O  O71  1  0.795708  0.438072  0.665508  1
  O  O72  1  0.807777  0.873123  0.807097  1
  O  O73  1  0.926636  0.345788  0.988075  1
  O  O74  1  0.917456  0.283744  0.612904  1
  O  O75  1  0.858096  0.070448  0.126492  1
  O  O76  1  0.967832  0.084083  0.670549  1
  O  O77  1  0.933244  0.571211  0.258745  1
