# generated using pymatgen
data_Li4Mn3Sn5O16
_symmetry_space_group_name_H-M   'P 1'
_cell_length_a   6.25153648
_cell_length_b   6.11102907
_cell_length_c   9.92474173
_cell_angle_alpha   89.98091524
_cell_angle_beta   91.72089987
_cell_angle_gamma   119.25444597
_symmetry_Int_Tables_number   1
_chemical_formula_structural   Li4Mn3Sn5O16
_chemical_formula_sum   'Li4 Mn3 Sn5 O16'
_cell_volume   330.60562492
_cell_formula_units_Z   1
loop_
 _symmetry_equiv_pos_site_id
 _symmetry_equiv_pos_as_xyz
  1  'x, y, z'
loop_
 _atom_site_type_symbol
 _atom_site_label
 _atom_site_symmetry_multiplicity
 _atom_site_fract_x
 _atom_site_fract_y
 _atom_site_fract_z
 _atom_site_occupancy
  Li  Li0  1  0.327871  0.663956  0.894547  1
  Li  Li1  1  0.978424  0.989315  0.986755  1
  Li  Li2  1  0.995040  0.997479  0.495622  1
  Li  Li3  1  0.664047  0.332046  0.401170  1
  Mn  Mn4  1  0.662102  0.831048  0.213650  1
  Mn  Mn5  1  0.831582  0.661203  0.712268  1
  Mn  Mn6  1  0.831629  0.170433  0.712295  1
  Sn  Sn7  1  0.171603  0.832127  0.214494  1
  Sn  Sn8  1  0.346130  0.673069  0.492920  1
  Sn  Sn9  1  0.171674  0.339423  0.214554  1
  Sn  Sn10  1  0.339989  0.169983  0.715625  1
  Sn  Sn11  1  0.672565  0.336374  0.986122  1
  O  O12  1  0.176503  0.844611  0.594354  1
  O  O13  1  0.033055  0.516689  0.342936  1
  O  O14  1  0.322632  0.661307  0.101198  1
  O  O15  1  0.007246  0.003592  0.311739  1
  O  O16  1  0.993459  0.996806  0.802181  1
  O  O17  1  0.176647  0.332041  0.594491  1
  O  O18  1  0.474883  0.966720  0.348238  1
  O  O19  1  0.474941  0.507962  0.348319  1
  O  O20  1  0.322560  0.161280  0.096811  1
  O  O21  1  0.687388  0.843574  0.599960  1
  O  O22  1  0.507058  0.477522  0.848598  1
  O  O23  1  0.507258  0.029617  0.848629  1
  O  O24  1  0.674436  0.337197  0.611217  1
  O  O25  1  0.846645  0.674683  0.092470  1
  O  O26  1  0.955935  0.478100  0.834253  1
  O  O27  1  0.846699  0.172136  0.092424  1
