# generated using pymatgen
data_Ba2In2O5
_symmetry_space_group_name_H-M   'P 1'
_cell_length_a   8.16536780
_cell_length_b   9.66237573
_cell_length_c   8.69514316
_cell_angle_alpha   90.00000000
_cell_angle_beta   90.00000000
_cell_angle_gamma   114.99467931
_symmetry_Int_Tables_number   1
_chemical_formula_structural   Ba2In2O5
_chemical_formula_sum   'Ba8 In8 O20'
_cell_volume   621.77166304
_cell_formula_units_Z   4
loop_
 _symmetry_equiv_pos_site_id
 _symmetry_equiv_pos_as_xyz
  1  'x, y, z'
loop_
 _atom_site_type_symbol
 _atom_site_label
 _atom_site_symmetry_multiplicity
 _atom_site_fract_x
 _atom_site_fract_y
 _atom_site_fract_z
 _atom_site_occupancy
  Ba  Ba0  1  0.872325  0.244652  0.252685  1
  Ba  Ba1  1  0.638374  0.776748  0.254858  1
  Ba  Ba2  1  0.368106  0.236212  0.256901  1
  Ba  Ba3  1  0.868106  0.236212  0.743099  1
  Ba  Ba4  1  0.633018  0.766037  0.743190  1
  Ba  Ba5  1  0.133018  0.766037  0.256810  1
  Ba  Ba6  1  0.372325  0.244652  0.747315  1
  Ba  Ba7  1  0.138374  0.776748  0.745142  1
  In  In8  1  0.995430  0.990861  0.000000  1
  In  In9  1  0.755924  0.511848  0.000000  1
  In  In10  1  0.749182  0.498365  0.500000  1
  In  In11  1  0.002442  0.004885  0.500000  1
  In  In12  1  0.255924  0.511848  0.000000  1
  In  In13  1  0.495430  0.990861  0.000000  1
  In  In14  1  0.502442  0.004885  0.500000  1
  In  In15  1  0.249182  0.498365  0.500000  1
  O  O16  1  0.874813  0.749625  0.000000  1
  O  O17  1  0.762337  0.490332  0.255197  1
  O  O18  1  0.505117  0.008774  0.245744  1
  O  O19  1  0.738860  0.977720  0.500868  1
  O  O20  1  0.281308  0.062618  0.000028  1
  O  O21  1  0.465264  0.430528  0.013410  1
  O  O22  1  0.630084  0.260168  0.500000  1
  O  O23  1  0.867111  0.734222  0.500000  1
  O  O24  1  0.374813  0.749625  0.000000  1
  O  O25  1  0.238860  0.977720  0.499132  1
  O  O26  1  0.781308  0.062618  0.999973  1
  O  O27  1  0.003658  0.008774  0.245744  1
  O  O28  1  0.503658  0.008774  0.754256  1
  O  O29  1  0.727996  0.490332  0.744803  1
  O  O30  1  0.227996  0.490332  0.255197  1
  O  O31  1  0.130084  0.260168  0.500000  1
  O  O32  1  0.367111  0.734222  0.500000  1
  O  O33  1  0.262337  0.490332  0.744803  1
  O  O34  1  0.005117  0.008774  0.754256  1
  O  O35  1  0.965264  0.430528  0.986590  1
