# generated using pymatgen
data_BaYBr5
_symmetry_space_group_name_H-M   'P 1'
_cell_length_a   14.53561219
_cell_length_b   9.87375520
_cell_length_c   15.84512556
_cell_angle_alpha   90.00000000
_cell_angle_beta   89.35914622
_cell_angle_gamma   90.00000000
_symmetry_Int_Tables_number   1
_chemical_formula_structural   BaYBr5
_chemical_formula_sum   'Ba8 Y8 Br40'
_cell_volume   2273.96722850
_cell_formula_units_Z   8
loop_
 _symmetry_equiv_pos_site_id
 _symmetry_equiv_pos_as_xyz
  1  'x, y, z'
loop_
 _atom_site_type_symbol
 _atom_site_label
 _atom_site_symmetry_multiplicity
 _atom_site_fract_x
 _atom_site_fract_y
 _atom_site_fract_z
 _atom_site_occupancy
  Ba  Ba0  1  0.038945  0.252046  0.800338  1
  Ba  Ba1  1  0.109269  0.235553  0.409707  1
  Ba  Ba2  1  0.390731  0.735553  0.090293  1
  Ba  Ba3  1  0.461055  0.752046  0.699662  1
  Ba  Ba4  1  0.538945  0.247954  0.300338  1
  Ba  Ba5  1  0.609269  0.264447  0.909707  1
  Ba  Ba6  1  0.890731  0.764447  0.590293  1
  Ba  Ba7  1  0.961055  0.747954  0.199662  1
  Y  Y8  1  0.068069  0.749250  0.823737  1
  Y  Y9  1  0.291806  0.737857  0.373179  1
  Y  Y10  1  0.431931  0.249250  0.676263  1
  Y  Y11  1  0.208194  0.237857  0.126821  1
  Y  Y12  1  0.791806  0.762143  0.873179  1
  Y  Y13  1  0.568069  0.750750  0.323737  1
  Y  Y14  1  0.708194  0.262143  0.626821  1
  Y  Y15  1  0.931931  0.250750  0.176263  1
  Br  Br16  1  0.074321  0.235489  0.608069  1
  Br  Br17  1  0.956372  0.775180  0.980986  1
  Br  Br18  1  0.099409  0.725244  0.654658  1
  Br  Br19  1  0.161023  0.520351  0.866166  1
  Br  Br20  1  0.085164  0.432047  0.206947  1
  Br  Br21  1  0.079971  0.063258  0.222792  1
  Br  Br22  1  0.167178  0.980178  0.846491  1
  Br  Br23  1  0.195938  0.532338  0.443497  1
  Br  Br24  1  0.186674  0.930812  0.445781  1
  Br  Br25  1  0.201884  0.745511  0.218193  1
  Br  Br26  1  0.332823  0.480178  0.653509  1
  Br  Br27  1  0.298116  0.245511  0.281807  1
  Br  Br28  1  0.313326  0.430812  0.054219  1
  Br  Br29  1  0.304062  0.032338  0.056503  1
  Br  Br30  1  0.338977  0.020351  0.633834  1
  Br  Br31  1  0.400591  0.225244  0.845342  1
  Br  Br32  1  0.420029  0.563258  0.277208  1
  Br  Br33  1  0.414836  0.932048  0.293053  1
  Br  Br34  1  0.425679  0.735489  0.891931  1
  Br  Br35  1  0.543628  0.275180  0.519014  1
  Br  Br36  1  0.456372  0.724820  0.480986  1
  Br  Br37  1  0.574321  0.264511  0.108069  1
  Br  Br38  1  0.585164  0.067952  0.706947  1
  Br  Br39  1  0.579971  0.436742  0.722792  1
  Br  Br40  1  0.599409  0.774756  0.154658  1
  Br  Br41  1  0.661022  0.979649  0.366166  1
  Br  Br42  1  0.695938  0.967662  0.943497  1
  Br  Br43  1  0.686674  0.569188  0.945781  1
  Br  Br44  1  0.701884  0.754489  0.718193  1
  Br  Br45  1  0.667177  0.519822  0.346491  1
  Br  Br46  1  0.798116  0.254489  0.781807  1
  Br  Br47  1  0.813326  0.069188  0.554219  1
  Br  Br48  1  0.804062  0.467662  0.556503  1
  Br  Br49  1  0.832823  0.019822  0.153509  1
  Br  Br50  1  0.920029  0.936742  0.777208  1
  Br  Br51  1  0.914836  0.567952  0.793053  1
  Br  Br52  1  0.838978  0.479649  0.133834  1
  Br  Br53  1  0.900591  0.274756  0.345342  1
  Br  Br54  1  0.043628  0.224820  0.019014  1
  Br  Br55  1  0.925679  0.764511  0.391931  1
