# generated using pymatgen
data_Li3Fe8(BO3)8
_symmetry_space_group_name_H-M   'P 1'
_cell_length_a   5.29551562
_cell_length_b   9.05317878
_cell_length_c   10.17373907
_cell_angle_alpha   89.93282140
_cell_angle_beta   90.98711956
_cell_angle_gamma   90.00095576
_symmetry_Int_Tables_number   1
_chemical_formula_structural   Li3Fe8(BO3)8
_chemical_formula_sum   'Li3 Fe8 B8 O24'
_cell_volume   487.66904511
_cell_formula_units_Z   1
loop_
 _symmetry_equiv_pos_site_id
 _symmetry_equiv_pos_as_xyz
  1  'x, y, z'
loop_
 _atom_site_type_symbol
 _atom_site_label
 _atom_site_symmetry_multiplicity
 _atom_site_fract_x
 _atom_site_fract_y
 _atom_site_fract_z
 _atom_site_occupancy
  Li  Li0  1  0.344238  0.006829  0.846500  1
  Li  Li1  1  0.657952  0.000462  0.108603  1
  Li  Li2  1  0.850216  0.494567  0.349208  1
  Fe  Fe3  1  0.157669  0.165573  0.121912  1
  Fe  Fe4  1  0.840655  0.159879  0.370642  1
  Fe  Fe5  1  0.332246  0.342227  0.869060  1
  Fe  Fe6  1  0.658149  0.334501  0.619945  1
  Fe  Fe7  1  0.339397  0.666413  0.373544  1
  Fe  Fe8  1  0.156123  0.829834  0.620720  1
  Fe  Fe9  1  0.655059  0.665995  0.123650  1
  Fe  Fe10  1  0.846715  0.833072  0.872389  1
  B  B11  1  0.159989  0.169777  0.625858  1
  B  B12  1  0.325179  0.329614  0.373636  1
  B  B13  1  0.823203  0.169571  0.870440  1
  B  B14  1  0.652909  0.330539  0.126056  1
  B  B15  1  0.343219  0.669681  0.872926  1
  B  B16  1  0.666619  0.668094  0.619970  1
  B  B17  1  0.171461  0.834079  0.119558  1
  B  B18  1  0.839311  0.831338  0.367002  1
  O  O19  1  0.251880  0.032157  0.650950  1
  O  O20  1  0.081164  0.183494  0.900582  1
  O  O21  1  0.700392  0.039170  0.893805  1
  O  O22  1  0.196106  0.202108  0.333738  1
  O  O23  1  0.300694  0.294350  0.662456  1
  O  O24  1  0.778592  0.201419  0.169547  1
  O  O25  1  0.919461  0.190741  0.568485  1
  O  O26  1  0.425847  0.313564  0.058414  1
  O  O27  1  0.209691  0.462087  0.373363  1
  O  O28  1  0.584186  0.315283  0.414274  1
  O  O29  1  0.693184  0.292570  0.819293  1
  O  O30  1  0.224712  0.537109  0.860944  1
  O  O31  1  0.754180  0.465114  0.155495  1
  O  O32  1  0.301601  0.709817  0.163940  1
  O  O33  1  0.421153  0.694443  0.578339  1
  O  O34  1  0.765601  0.529246  0.608629  1
  O  O35  1  0.581426  0.681867  0.931952  1
  O  O36  1  0.072141  0.820718  0.429531  1
  O  O37  1  0.227071  0.799465  0.825751  1
  O  O38  1  0.721965  0.700638  0.323556  1
  O  O39  1  0.810526  0.784966  0.668291  1
  O  O40  1  0.295215  0.964732  0.100926  1
  O  O41  1  0.911339  0.823375  0.089743  1
  O  O42  1  0.726156  0.965151  0.344976  1
