# generated using pymatgen
data_H6C(N3O2)2
_symmetry_space_group_name_H-M   'P 1'
_cell_length_a   9.43968087
_cell_length_b   8.49394661
_cell_length_c   10.52610255
_cell_angle_alpha   62.53349294
_cell_angle_beta   77.42212185
_cell_angle_gamma   67.88987266
_symmetry_Int_Tables_number   1
_chemical_formula_structural   H6C(N3O2)2
_chemical_formula_sum   'H24 C4 N24 O16'
_cell_volume   692.78005599
_cell_formula_units_Z   4
loop_
 _symmetry_equiv_pos_site_id
 _symmetry_equiv_pos_as_xyz
  1  'x, y, z'
loop_
 _atom_site_type_symbol
 _atom_site_label
 _atom_site_symmetry_multiplicity
 _atom_site_fract_x
 _atom_site_fract_y
 _atom_site_fract_z
 _atom_site_occupancy
  H  H0  1  0.989175  0.223562  0.420270  1
  H  H1  1  0.010825  0.776438  0.579730  1
  H  H2  1  0.272625  0.189798  0.886016  1
  H  H3  1  0.727375  0.810202  0.113984  1
  H  H4  1  0.241278  0.181331  0.115060  1
  H  H5  1  0.758722  0.818669  0.884940  1
  H  H6  1  0.788296  0.460191  0.642304  1
  H  H7  1  0.211704  0.539809  0.357696  1
  H  H8  1  0.138466  0.068770  0.535758  1
  H  H9  1  0.861534  0.931230  0.464242  1
  H  H10  1  0.818567  0.479569  0.467207  1
  H  H11  1  0.181433  0.520431  0.532793  1
  H  H12  1  0.346484  0.982992  0.863685  1
  H  H13  1  0.653516  0.017008  0.136315  1
  H  H14  1  0.430957  0.689972  0.229216  1
  H  H15  1  0.569043  0.310028  0.770784  1
  H  H16  1  0.093968  0.034741  0.776482  1
  H  H17  1  0.906032  0.965259  0.223518  1
  H  H18  1  0.432046  0.691561  0.064812  1
  H  H19  1  0.567954  0.308439  0.935188  1
  H  H20  1  0.320651  0.972742  0.261009  1
  H  H21  1  0.679349  0.027258  0.738991  1
  H  H22  1  0.960701  0.219311  0.813830  1
  H  H23  1  0.039299  0.780689  0.186170  1
  C  C24  1  0.967150  0.248791  0.608851  1
  C  C25  1  0.032850  0.751209  0.391149  1
  C  C26  1  0.336527  0.951036  0.070637  1
  C  C27  1  0.663473  0.048964  0.929363  1
  N  N28  1  0.815288  0.526132  0.034380  1
  N  N29  1  0.184712  0.473868  0.965620  1
  N  N30  1  0.514255  0.668212  0.635348  1
  N  N31  1  0.485745  0.331788  0.364652  1
  N  N32  1  0.844476  0.426871  0.177180  1
  N  N33  1  0.155524  0.573129  0.822820  1
  N  N34  1  0.449379  0.760063  0.722863  1
  N  N35  1  0.550621  0.239937  0.277137  1
  N  N36  1  0.847604  0.425939  0.953268  1
  N  N37  1  0.152396  0.574061  0.046732  1
  N  N38  1  0.456733  0.755223  0.501854  1
  N  N39  1  0.543267  0.244777  0.498146  1
  N  N40  1  0.304287  0.046813  0.931856  1
  N  N41  1  0.695713  0.953187  0.068144  1
  N  N42  1  0.017613  0.166098  0.740909  1
  N  N43  1  0.982387  0.833902  0.259091  1
  N  N44  1  0.301416  0.042095  0.154065  1
  N  N45  1  0.698584  0.957905  0.845935  1
  N  N46  1  0.039363  0.178235  0.512969  1
  N  N47  1  0.960637  0.821765  0.487031  1
  N  N48  1  0.402359  0.764773  0.125411  1
  N  N49  1  0.597641  0.235227  0.874589  1
  N  N50  1  0.844859  0.403015  0.571778  1
  N  N51  1  0.155141  0.596985  0.428222  1
  O  O52  1  0.475499  0.656005  0.852542  1
  O  O53  1  0.524501  0.343995  0.147458  1
  O  O54  1  0.836840  0.531014  0.822043  1
  O  O55  1  0.163160  0.468986  0.177957  1
  O  O56  1  0.540737  0.692012  0.415416  1
  O  O57  1  0.459263  0.307988  0.584584  1
  O  O58  1  0.910631  0.255292  0.238676  1
  O  O59  1  0.089369  0.744708  0.761324  1
  O  O60  1  0.380556  0.932130  0.678477  1
  O  O61  1  0.619444  0.067870  0.321523  1
  O  O62  1  0.801189  0.531841  0.241829  1
  O  O63  1  0.198811  0.468159  0.758171  1
  O  O64  1  0.879378  0.252822  0.001714  1
  O  O65  1  0.120622  0.747178  0.998286  1
  O  O66  1  0.327182  0.875883  0.470957  1
  O  O67  1  0.672818  0.124117  0.529043  1
