# generated using pymatgen
data_Na3(NiO2)5
_symmetry_space_group_name_H-M   'P 1'
_cell_length_a   7.16270505
_cell_length_b   4.90058143
_cell_length_c   6.40358927
_cell_angle_alpha   74.46761296
_cell_angle_beta   110.15262631
_cell_angle_gamma   81.98939799
_symmetry_Int_Tables_number   1
_chemical_formula_structural   Na3(NiO2)5
_chemical_formula_sum   'Na3 Ni5 O10'
_cell_volume   196.52892319
_cell_formula_units_Z   1
loop_
 _symmetry_equiv_pos_site_id
 _symmetry_equiv_pos_as_xyz
  1  'x, y, z'
loop_
 _atom_site_type_symbol
 _atom_site_label
 _atom_site_symmetry_multiplicity
 _atom_site_fract_x
 _atom_site_fract_y
 _atom_site_fract_z
 _atom_site_occupancy
  Na  Na0  1  0.195087  0.404232  0.698660  1
  Na  Na1  1  0.800000  0.600000  0.300000  1
  Na  Na2  1  0.404913  0.795768  0.901340  1
  Ni  Ni3  1  0.002114  0.003916  0.000379  1
  Ni  Ni4  1  0.203804  0.399711  0.199260  1
  Ni  Ni5  1  0.396195  0.800289  0.400740  1
  Ni  Ni6  1  0.597886  0.196084  0.599621  1
  Ni  Ni7  1  0.800000  0.600000  0.800000  1
  O  O8  1  0.288660  0.097261  0.100255  1
  O  O9  1  0.311340  0.102739  0.499745  1
  O  O10  1  0.132476  0.705767  0.308912  1
  O  O11  1  0.467524  0.494233  0.291088  1
  O  O12  1  0.091942  0.694962  0.900699  1
  O  O13  1  0.944058  0.318109  0.113591  1
  O  O14  1  0.508058  0.505038  0.699301  1
  O  O15  1  0.655942  0.881891  0.486409  1
  O  O16  1  0.883349  0.297661  0.695631  1
  O  O17  1  0.716651  0.902339  0.904369  1
