# generated using pymatgen
data_Sr2LaCl7
_symmetry_space_group_name_H-M   'P 1'
_cell_length_a   6.90341674
_cell_length_b   15.48724423
_cell_length_c   10.42071074
_cell_angle_alpha   90.00000000
_cell_angle_beta   90.91360980
_cell_angle_gamma   90.00000000
_symmetry_Int_Tables_number   1
_chemical_formula_structural   Sr2LaCl7
_chemical_formula_sum   'Sr8 La4 Cl28'
_cell_volume   1113.98762158
_cell_formula_units_Z   4
loop_
 _symmetry_equiv_pos_site_id
 _symmetry_equiv_pos_as_xyz
  1  'x, y, z'
loop_
 _atom_site_type_symbol
 _atom_site_label
 _atom_site_symmetry_multiplicity
 _atom_site_fract_x
 _atom_site_fract_y
 _atom_site_fract_z
 _atom_site_occupancy
  Sr  Sr0  1  0.276066  0.562632  0.675669  1
  Sr  Sr1  1  0.278227  0.221244  0.552664  1
  Sr  Sr2  1  0.276066  0.937368  0.175669  1
  Sr  Sr3  1  0.278227  0.278756  0.052664  1
  Sr  Sr4  1  0.721773  0.721244  0.947336  1
  Sr  Sr5  1  0.723934  0.062632  0.824331  1
  Sr  Sr6  1  0.721773  0.778756  0.447336  1
  Sr  Sr7  1  0.723934  0.437368  0.324331  1
  La  La8  1  0.218255  0.873129  0.717241  1
  La  La9  1  0.218255  0.626871  0.217241  1
  La  La10  1  0.781745  0.373129  0.782759  1
  La  La11  1  0.781745  0.126871  0.282759  1
  Cl  Cl12  1  0.006375  0.219236  0.791802  1
  Cl  Cl13  1  0.005795  0.397706  0.561003  1
  Cl  Cl14  1  0.006375  0.280764  0.291802  1
  Cl  Cl15  1  0.005795  0.102294  0.061003  1
  Cl  Cl16  1  0.155661  0.428194  0.876821  1
  Cl  Cl17  1  0.155661  0.071806  0.376821  1
  Cl  Cl18  1  0.297423  0.644819  0.954025  1
  Cl  Cl19  1  0.297423  0.855181  0.454025  1
  Cl  Cl20  1  0.313577  0.047643  0.708923  1
  Cl  Cl21  1  0.313577  0.452357  0.208923  1
  Cl  Cl22  1  0.500187  0.896827  0.925789  1
  Cl  Cl23  1  0.502766  0.739050  0.691465  1
  Cl  Cl24  1  0.500187  0.603173  0.425789  1
  Cl  Cl25  1  0.502766  0.760950  0.191465  1
  Cl  Cl26  1  0.497234  0.239050  0.808535  1
  Cl  Cl27  1  0.499813  0.396826  0.574211  1
  Cl  Cl28  1  0.497234  0.260950  0.308535  1
  Cl  Cl29  1  0.499813  0.103174  0.074211  1
  Cl  Cl30  1  0.686423  0.547643  0.791077  1
  Cl  Cl31  1  0.686423  0.952357  0.291077  1
  Cl  Cl32  1  0.702577  0.144819  0.545975  1
  Cl  Cl33  1  0.702577  0.355181  0.045975  1
  Cl  Cl34  1  0.844339  0.928194  0.623179  1
  Cl  Cl35  1  0.844339  0.571806  0.123179  1
  Cl  Cl36  1  0.994205  0.897706  0.938997  1
  Cl  Cl37  1  0.993625  0.719236  0.708198  1
  Cl  Cl38  1  0.994205  0.602294  0.438997  1
  Cl  Cl39  1  0.993625  0.780764  0.208198  1
