# generated using pymatgen
data_Li4MnF8
_symmetry_space_group_name_H-M   'P 1'
_cell_length_a   5.12984229
_cell_length_b   5.20322965
_cell_length_c   6.06180076
_cell_angle_alpha   90.00000000
_cell_angle_beta   90.00000000
_cell_angle_gamma   111.86399171
_symmetry_Int_Tables_number   1
_chemical_formula_structural   Li4MnF8
_chemical_formula_sum   'Li4 Mn1 F8'
_cell_volume   150.16185500
_cell_formula_units_Z   1
loop_
 _symmetry_equiv_pos_site_id
 _symmetry_equiv_pos_as_xyz
  1  'x, y, z'
loop_
 _atom_site_type_symbol
 _atom_site_label
 _atom_site_symmetry_multiplicity
 _atom_site_fract_x
 _atom_site_fract_y
 _atom_site_fract_z
 _atom_site_occupancy
  Li  Li0  1  0.000000  0.500000  0.809338  1
  Li  Li1  1  0.500000  0.500000  0.009465  1
  Li  Li2  1  0.500000  0.000000  0.209025  1
  Li  Li3  1  0.500000  0.000000  0.766278  1
  Mn  Mn4  1  0.500000  0.500000  0.496395  1
  F  F5  1  0.293168  0.724490  0.509247  1
  F  F6  1  0.295296  0.739515  0.981061  1
  F  F7  1  0.290092  0.271551  0.278658  1
  F  F8  1  0.268955  0.282048  0.717800  1
  F  F9  1  0.709908  0.728449  0.278658  1
  F  F10  1  0.731045  0.717952  0.717800  1
  F  F11  1  0.704704  0.260485  0.981061  1
  F  F12  1  0.706832  0.275510  0.509247  1
