# generated using pymatgen
data_TaSb3O8
_symmetry_space_group_name_H-M   'P 1'
_cell_length_a   5.57879795
_cell_length_b   4.96108963
_cell_length_c   23.91264098
_cell_angle_alpha   89.99589693
_cell_angle_beta   89.95712977
_cell_angle_gamma   90.02807904
_symmetry_Int_Tables_number   1
_chemical_formula_structural   TaSb3O8
_chemical_formula_sum   'Ta4 Sb12 O32'
_cell_volume   661.82790524
_cell_formula_units_Z   4
loop_
 _symmetry_equiv_pos_site_id
 _symmetry_equiv_pos_as_xyz
  1  'x, y, z'
loop_
 _atom_site_type_symbol
 _atom_site_label
 _atom_site_symmetry_multiplicity
 _atom_site_fract_x
 _atom_site_fract_y
 _atom_site_fract_z
 _atom_site_occupancy
  Ta  Ta0  1  0.129321  0.003051  0.427683  1
  Ta  Ta1  1  0.365428  0.497432  0.177787  1
  Ta  Ta2  1  0.629648  0.497515  0.427629  1
  Ta  Ta3  1  0.634524  0.502637  0.927730  1
  Sb  Sb4  1  0.982226  0.548184  0.302227  1
  Sb  Sb5  1  0.981740  0.543012  0.802114  1
  Sb  Sb6  1  0.134270  0.002203  0.926883  1
  Sb  Sb7  1  0.366170  0.499401  0.677862  1
  Sb  Sb8  1  0.516983  0.046613  0.052273  1
  Sb  Sb9  1  0.514675  0.044945  0.552499  1
  Sb  Sb10  1  0.479881  0.951686  0.302443  1
  Sb  Sb11  1  0.483887  0.956512  0.802325  1
  Sb  Sb12  1  0.865855  0.997259  0.177041  1
  Sb  Sb13  1  0.866132  0.000480  0.677747  1
  Sb  Sb14  1  0.016955  0.453941  0.051951  1
  Sb  Sb15  1  0.014902  0.455408  0.552554  1
  O  O16  1  0.081054  0.710393  0.149385  1
  O  O17  1  0.078077  0.704686  0.648272  1
  O  O18  1  0.143903  0.210252  0.706488  1
  O  O19  1  0.137439  0.215127  0.203785  1
  O  O20  1  0.154935  0.834762  0.349141  1
  O  O21  1  0.156166  0.836968  0.847739  1
  O  O22  1  0.178470  0.162532  0.505022  1
  O  O23  1  0.179665  0.158778  0.004776  1
  O  O24  1  0.319889  0.658106  0.254397  1
  O  O25  1  0.320927  0.657036  0.755167  1
  O  O26  1  0.342135  0.338835  0.598767  1
  O  O27  1  0.343868  0.335558  0.098600  1
  O  O28  1  0.362655  0.716300  0.952108  1
  O  O29  1  0.368291  0.720294  0.452372  1
  O  O30  1  0.423538  0.211541  0.400825  1
  O  O31  1  0.421434  0.208907  0.900326  1
  O  O32  1  0.577572  0.795519  0.648290  1
  O  O33  1  0.578885  0.790608  0.150583  1
  O  O34  1  0.644104  0.289755  0.706326  1
  O  O35  1  0.636973  0.283344  0.202128  1
  O  O36  1  0.654857  0.665155  0.348707  1
  O  O37  1  0.656266  0.665562  0.848733  1
  O  O38  1  0.678449  0.337608  0.504912  1
  O  O39  1  0.678598  0.341863  0.004568  1
  O  O40  1  0.819442  0.843047  0.255228  1
  O  O41  1  0.820547  0.841191  0.754592  1
  O  O42  1  0.843993  0.161865  0.098108  1
  O  O43  1  0.842174  0.161385  0.598732  1
  O  O44  1  0.868039  0.780366  0.452433  1
  O  O45  1  0.862605  0.784320  0.953790  1
  O  O46  1  0.918875  0.289094  0.899314  1
  O  O47  1  0.923576  0.288962  0.400837  1
