# generated using pymatgen
data_Li3V4(OF3)3
_symmetry_space_group_name_H-M   'P 1'
_cell_length_a   5.19496870
_cell_length_b   5.54465851
_cell_length_c   17.27893711
_cell_angle_alpha   91.37268683
_cell_angle_beta   97.57609749
_cell_angle_gamma   62.54598008
_symmetry_Int_Tables_number   1
_chemical_formula_structural   Li3V4(OF3)3
_chemical_formula_sum   'Li6 V8 O6 F18'
_cell_volume   437.41754075
_cell_formula_units_Z   2
loop_
 _symmetry_equiv_pos_site_id
 _symmetry_equiv_pos_as_xyz
  1  'x, y, z'
loop_
 _atom_site_type_symbol
 _atom_site_label
 _atom_site_symmetry_multiplicity
 _atom_site_fract_x
 _atom_site_fract_y
 _atom_site_fract_z
 _atom_site_occupancy
  Li  Li0  1  0.180527  0.330112  0.704696  1
  Li  Li1  1  0.301857  0.412921  0.045357  1
  Li  Li2  1  0.681244  0.069995  0.445197  1
  Li  Li3  1  0.430339  0.724316  0.567950  1
  Li  Li4  1  0.573989  0.816163  0.939882  1
  Li  Li5  1  0.821106  0.662972  0.301389  1
  V  V6  1  0.000071  0.009090  0.000289  1
  V  V7  1  0.241062  0.373279  0.875432  1
  V  V8  1  0.481569  0.720886  0.755120  1
  V  V9  1  0.496176  0.247331  0.249697  1
  V  V10  1  0.744857  0.091382  0.623467  1
  V  V11  1  0.280538  0.882575  0.370681  1
  V  V12  1  0.970848  0.521465  0.496370  1
  V  V13  1  0.759871  0.639437  0.119969  1
  O  O14  1  0.194058  0.196690  0.963020  1
  O  O15  1  0.336544  0.049406  0.289330  1
  O  O16  1  0.303866  0.521870  0.782465  1
  O  O17  1  0.695204  0.674636  0.406360  1
  O  O18  1  0.745694  0.814210  0.560036  1
  O  O19  1  0.844222  0.773371  0.034769  1
  F  F20  1  0.226768  0.080871  0.802505  1
  F  F21  1  0.267738  0.193987  0.445145  1
  F  F22  1  0.279507  0.664186  0.942808  1
  F  F23  1  0.296051  0.347018  0.598086  1
  F  F24  1  0.206774  0.394548  0.150752  1
  F  F25  1  0.198351  0.897680  0.652180  1
  F  F26  1  0.180737  0.745754  0.471113  1
  F  F27  1  0.683963  0.121319  0.908015  1
  F  F28  1  0.238530  0.574607  0.310684  1
  F  F29  1  0.750849  0.424392  0.681924  1
  F  F30  1  0.320931  0.848006  0.091538  1
  F  F31  1  0.770364  0.294316  0.529553  1
  F  F32  1  0.824763  0.095816  0.348396  1
  F  F33  1  0.784363  0.609660  0.850313  1
  F  F34  1  0.694127  0.473873  0.220127  1
  F  F35  1  0.659805  0.964090  0.716453  1
  F  F36  1  0.724338  0.331381  0.062552  1
  F  F37  1  0.768503  0.913461  0.197105  1
