# generated using pymatgen
data_Ba5Nb5O14
_symmetry_space_group_name_H-M   'P 1'
_cell_length_a   4.14074273
_cell_length_b   9.31474883
_cell_length_c   9.29845629
_cell_angle_alpha   89.86659712
_cell_angle_beta   90.00000000
_cell_angle_gamma   90.00000000
_symmetry_Int_Tables_number   1
_chemical_formula_structural   Ba5Nb5O14
_chemical_formula_sum   'Ba5 Nb5 O14'
_cell_volume   358.64028700
_cell_formula_units_Z   1
loop_
 _symmetry_equiv_pos_site_id
 _symmetry_equiv_pos_as_xyz
  1  'x, y, z'
loop_
 _atom_site_type_symbol
 _atom_site_label
 _atom_site_symmetry_multiplicity
 _atom_site_fract_x
 _atom_site_fract_y
 _atom_site_fract_z
 _atom_site_occupancy
  Ba  Ba0  1  0.500000  0.500551  0.499300  1
  Ba  Ba1  1  0.500000  0.099448  0.300700  1
  Ba  Ba2  1  0.500000  0.300000  0.900000  1
  Ba  Ba3  1  0.500000  0.899693  0.700827  1
  Ba  Ba4  1  0.500000  0.700307  0.099173  1
  Nb  Nb5  1  0.000000  0.199851  0.599548  1
  Nb  Nb6  1  0.000000  0.598472  0.799232  1
  Nb  Nb7  1  0.000000  0.800000  0.400000  1
  Nb  Nb8  1  0.000000  0.400149  0.200452  1
  Nb  Nb9  1  0.000000  0.001528  0.000768  1
  O  O10  1  0.500000  0.604147  0.802219  1
  O  O11  1  0.500000  0.199734  0.599968  1
  O  O12  1  0.500000  0.800000  0.400000  1
  O  O13  1  0.500000  0.995853  0.997781  1
  O  O14  1  0.500000  0.400266  0.200032  1
  O  O15  1  0.000000  0.096856  0.800105  1
  O  O16  1  0.000000  0.397695  0.700432  1
  O  O17  1  0.000000  0.702079  0.602505  1
  O  O18  1  0.000000  0.599106  0.303669  1
  O  O19  1  0.000000  0.000894  0.496331  1
  O  O20  1  0.000000  0.300000  0.400000  1
  O  O21  1  0.000000  0.897921  0.197495  1
  O  O22  1  0.000000  0.503144  0.999895  1
  O  O23  1  0.000000  0.202305  0.099568  1
