# generated using pymatgen
data_Li3V3(PO4)4
_symmetry_space_group_name_H-M   'P 1'
_cell_length_a   8.72359732
_cell_length_b   11.28740163
_cell_length_c   6.18860456
_cell_angle_alpha   89.99999221
_cell_angle_beta   100.84398626
_cell_angle_gamma   89.99998655
_symmetry_Int_Tables_number   1
_chemical_formula_structural   Li3V3(PO4)4
_chemical_formula_sum   'Li6 V6 P8 O32'
_cell_volume   598.49027077
_cell_formula_units_Z   2
loop_
 _symmetry_equiv_pos_site_id
 _symmetry_equiv_pos_as_xyz
  1  'x, y, z'
loop_
 _atom_site_type_symbol
 _atom_site_label
 _atom_site_symmetry_multiplicity
 _atom_site_fract_x
 _atom_site_fract_y
 _atom_site_fract_z
 _atom_site_occupancy
  Li  Li0  1  0.064803  0.610026  0.599741  1
  Li  Li1  1  0.071905  0.889227  0.088848  1
  Li  Li2  1  0.346725  0.193029  0.158829  1
  Li  Li3  1  0.653275  0.693029  0.341171  1
  Li  Li4  1  0.935197  0.110026  0.900259  1
  Li  Li5  1  0.928095  0.389227  0.411152  1
  V  V6  1  0.263204  0.909811  0.652477  1
  V  V7  1  0.274577  0.588824  0.170758  1
  V  V8  1  0.336639  0.310171  0.636452  1
  V  V9  1  0.663361  0.810171  0.863548  1
  V  V10  1  0.736796  0.409811  0.847523  1
  V  V11  1  0.725422  0.088825  0.329242  1
  P  P12  1  0.102451  0.367301  0.884997  1
  P  P13  1  0.085253  0.131132  0.381557  1
  P  P14  1  0.398679  0.591805  0.706956  1
  P  P15  1  0.411405  0.909541  0.184931  1
  P  P16  1  0.601321  0.091805  0.793045  1
  P  P17  1  0.588595  0.409541  0.315069  1
  P  P18  1  0.897549  0.867301  0.615003  1
  P  P19  1  0.914747  0.631132  0.118443  1
  O  O20  1  0.105446  0.430405  0.663340  1
  O  O21  1  0.059412  0.813632  0.600542  1
  O  O22  1  0.079778  0.062417  0.169048  1
  O  O23  1  0.072654  0.688432  0.097533  1
  O  O24  1  0.147918  0.053799  0.589783  1
  O  O25  1  0.226503  0.267093  0.886903  1
  O  O26  1  0.157017  0.446635  0.089013  1
  O  O27  1  0.300270  0.628437  0.878173  1
  O  O28  1  0.279424  0.910573  0.973793  1
  O  O29  1  0.205599  0.234266  0.385805  1
  O  O30  1  0.325247  0.866535  0.372090  1
  O  O31  1  0.281953  0.603529  0.486401  1
  O  O32  1  0.468568  0.180960  0.785883  1
  O  O33  1  0.465593  0.462089  0.739954  1
  O  O34  1  0.467893  0.316564  0.354964  1
  O  O35  1  0.534407  0.962089  0.760046  1
  O  O36  1  0.484761  0.033769  0.238548  1
  O  O37  1  0.531432  0.680960  0.714117  1
  O  O38  1  0.515239  0.533769  0.261452  1
  O  O39  1  0.532107  0.816564  0.145036  1
  O  O40  1  0.720576  0.410573  0.526207  1
  O  O41  1  0.699731  0.128437  0.621827  1
  O  O42  1  0.773497  0.767094  0.613097  1
  O  O43  1  0.718048  0.103529  0.013599  1
  O  O44  1  0.674753  0.366535  0.127910  1
  O  O45  1  0.852082  0.553798  0.910217  1
  O  O46  1  0.794401  0.734266  0.114196  1
  O  O47  1  0.842983  0.946636  0.410986  1
  O  O48  1  0.940588  0.313632  0.899458  1
  O  O49  1  0.894554  0.930405  0.836659  1
  O  O50  1  0.927347  0.188433  0.402467  1
  O  O51  1  0.920222  0.562417  0.330952  1
