# generated using pymatgen
data_LiVCrP2(O4F)2
_symmetry_space_group_name_H-M   'P 1'
_cell_length_a   5.16329543
_cell_length_b   24.55040814
_cell_length_c   7.32732282
_cell_angle_alpha   97.15341295
_cell_angle_beta   106.07198636
_cell_angle_gamma   91.39611784
_symmetry_Int_Tables_number   1
_chemical_formula_structural   LiVCrP2(O4F)2
_chemical_formula_sum   'Li5 V5 Cr5 P10 O40 F10'
_cell_volume   883.88059221
_cell_formula_units_Z   5
loop_
 _symmetry_equiv_pos_site_id
 _symmetry_equiv_pos_as_xyz
  1  'x, y, z'
loop_
 _atom_site_type_symbol
 _atom_site_label
 _atom_site_symmetry_multiplicity
 _atom_site_fract_x
 _atom_site_fract_y
 _atom_site_fract_z
 _atom_site_occupancy
  Li  Li0  1  0.011556  0.912839  0.269374  1
  Li  Li1  1  0.211657  0.713336  0.468697  1
  Li  Li2  1  0.411631  0.513348  0.668668  1
  Li  Li3  1  0.610290  0.313522  0.867364  1
  Li  Li4  1  0.991136  0.088227  0.732729  1
  V  V5  1  -0.000027  0.000347  0.000297  1
  V  V6  1  0.199604  0.799146  0.194123  1
  V  V7  1  0.399222  0.599173  0.393930  1
  V  V8  1  0.599418  0.399212  0.594114  1
  V  V9  1  0.799481  0.200447  0.800260  1
  Cr  Cr10  1  0.003139  0.499856  0.002221  1
  Cr  Cr11  1  0.204722  0.299871  0.203098  1
  Cr  Cr12  1  0.394159  0.100945  0.396166  1
  Cr  Cr13  1  0.605025  0.899943  0.603260  1
  Cr  Cr14  1  0.803140  0.699844  0.802134  1
  P  P15  1  0.183658  0.377280  0.865729  1
  P  P16  1  0.012208  0.423377  0.333238  1
  P  P17  1  0.211307  0.224141  0.535897  1
  P  P18  1  0.415590  0.022439  0.731461  1
  P  P19  1  0.611897  0.823414  0.933165  1
  P  P20  1  0.387743  0.176156  0.063435  1
  P  P21  1  0.583751  0.977891  0.268226  1
  P  P22  1  0.783943  0.777204  0.465556  1
  P  P23  1  0.983552  0.577232  0.665365  1
  P  P24  1  0.811591  0.623419  0.132927  1
  O  O25  1  0.017760  0.636905  0.756869  1
  O  O26  1  0.093532  0.156109  0.940867  1
  O  O27  1  0.115945  0.535965  0.800988  1
  O  O28  1  0.034781  0.227792  0.682333  1
  O  O29  1  0.218035  0.437007  0.957103  1
  O  O30  1  0.154629  0.570579  0.515479  1
  O  O31  1  0.250302  0.027771  0.885691  1
  O  O32  1  0.093165  0.264033  0.396746  1
  O  O33  1  0.106120  0.642639  0.257559  1
  O  O34  1  0.188618  0.164212  0.446161  1
  O  O35  1  0.379917  0.963399  0.631649  1
  O  O36  1  0.354257  0.370691  0.715519  1
  O  O37  1  0.282223  0.064344  0.599899  1
  O  O38  1  0.492940  0.864401  0.798242  1
  O  O39  1  0.306520  0.442732  0.457925  1
  O  O40  1  0.282083  0.959069  0.165106  1
  O  O41  1  0.587194  0.764265  0.835487  1
  O  O42  1  0.564519  0.172170  0.917276  1
  O  O43  1  0.692567  0.664331  0.997955  1
  O  O44  1  0.505721  0.243929  0.658879  1
  O  O45  1  0.482157  0.758351  0.364461  1
  O  O46  1  0.316266  0.336083  0.001300  1
  O  O47  1  0.440626  0.826396  0.083803  1
  O  O48  1  0.409293  0.235944  0.153194  1
  O  O49  1  0.717410  0.040881  0.834854  1
  O  O50  1  0.681847  0.558324  0.564250  1
  O  O51  1  0.506194  0.136063  0.202760  1
  O  O52  1  0.717129  0.935780  0.400171  1
  O  O53  1  0.640496  0.626378  0.283693  1
  O  O54  1  0.618296  0.036770  0.367495  1
  O  O55  1  0.818931  0.836892  0.557436  1
  O  O56  1  0.881828  0.358467  0.764801  1
  O  O57  1  0.916068  0.735898  0.600905  1
  O  O58  1  0.749942  0.972064  0.114662  1
  O  O59  1  0.840591  0.426348  0.483690  1
  O  O60  1  0.786832  0.564206  0.035331  1
  O  O61  1  0.954675  0.770560  0.315448  1
  O  O62  1  0.892826  0.464222  0.197924  1
  O  O63  1  0.906348  0.842706  0.057956  1
  O  O64  1  0.988575  0.364191  0.236137  1
  F  F65  1  0.077788  0.063601  0.195995  1
  F  F66  1  0.279676  0.864934  0.396483  1
  F  F67  1  0.120239  0.735707  0.001271  1
  F  F68  1  0.478092  0.665072  0.596397  1
  F  F69  1  0.320234  0.535705  0.201280  1
  F  F70  1  0.678098  0.465073  0.796529  1
  F  F71  1  0.521680  0.335627  0.401505  1
  F  F72  1  0.877974  0.265715  0.998874  1
  F  F73  1  0.719429  0.134638  0.601082  1
  F  F74  1  0.920373  0.936541  0.803902  1
