# generated using pymatgen
data_Ba8Bi4O17
_symmetry_space_group_name_H-M   'P 1'
_cell_length_a   6.39804725
_cell_length_b   11.06123534
_cell_length_c   8.96228124
_cell_angle_alpha   66.10128223
_cell_angle_beta   90.00000000
_cell_angle_gamma   73.81317741
_symmetry_Int_Tables_number   1
_chemical_formula_structural   Ba8Bi4O17
_chemical_formula_sum   'Ba8 Bi4 O17'
_cell_volume   552.26971767
_cell_formula_units_Z   1
loop_
 _symmetry_equiv_pos_site_id
 _symmetry_equiv_pos_as_xyz
  1  'x, y, z'
loop_
 _atom_site_type_symbol
 _atom_site_label
 _atom_site_symmetry_multiplicity
 _atom_site_fract_x
 _atom_site_fract_y
 _atom_site_fract_z
 _atom_site_occupancy
  Ba  Ba0  1  0.171273  0.622395  0.961047  1
  Ba  Ba1  1  0.458507  0.004231  0.758963  1
  Ba  Ba2  1  0.171273  0.622395  0.416558  1
  Ba  Ba3  1  0.831244  0.293914  0.587410  1
  Ba  Ba4  1  0.986880  0.950928  0.524535  1
  Ba  Ba5  1  0.657464  0.667523  0.166238  1
  Ba  Ba6  1  0.458507  0.004231  0.236806  1
  Ba  Ba7  1  0.831244  0.293914  0.118675  1
  Bi  Bi8  1  0.326809  0.330026  0.834987  1
  Bi  Bi9  1  0.682599  0.666470  0.666766  1
  Bi  Bi10  1  0.322689  0.313584  0.343208  1
  Bi  Bi11  1  0.985248  0.006129  0.996935  1
  O  O12  1  0.739601  0.726248  0.854165  1
  O  O13  1  0.033890  0.557470  0.721265  1
  O  O14  1  0.402754  0.844079  0.577960  1
  O  O15  1  0.548553  0.503318  0.748341  1
  O  O16  1  0.654655  0.164793  0.917603  1
  O  O17  1  0.130186  0.186464  0.906768  1
  O  O18  1  0.998278  0.025658  0.753396  1
  O  O19  1  0.739601  0.726248  0.419589  1
  O  O20  1  0.318768  0.327891  0.579739  1
  O  O21  1  0.307482  0.865840  0.067079  1
  O  O22  1  0.624722  0.150893  0.424553  1
  O  O23  1  0.029113  0.486692  0.256655  1
  O  O24  1  0.492145  0.467757  0.266121  1
  O  O25  1  0.840388  0.850656  0.074672  1
  O  O26  1  0.129013  0.176636  0.411682  1
  O  O27  1  0.318768  0.327891  0.092371  1
  O  O28  1  0.998278  0.025658  0.220947  1
