# generated using pymatgen
data_Na7Mn11O24
_symmetry_space_group_name_H-M   'P 1'
_cell_length_a   6.06182745
_cell_length_b   10.52027658
_cell_length_c   8.75783799
_cell_angle_alpha   113.49211016
_cell_angle_beta   89.98129801
_cell_angle_gamma   74.85057465
_symmetry_Int_Tables_number   1
_chemical_formula_structural   Na7Mn11O24
_chemical_formula_sum   'Na7 Mn11 O24'
_cell_volume   490.95627303
_cell_formula_units_Z   1
loop_
 _symmetry_equiv_pos_site_id
 _symmetry_equiv_pos_as_xyz
  1  'x, y, z'
loop_
 _atom_site_type_symbol
 _atom_site_label
 _atom_site_symmetry_multiplicity
 _atom_site_fract_x
 _atom_site_fract_y
 _atom_site_fract_z
 _atom_site_occupancy
  Na  Na0  1  0.333383  0.833367  0.166641  1
  Na  Na1  1  0.912723  0.679008  0.204262  1
  Na  Na2  1  0.753983  0.987643  0.129072  1
  Na  Na3  1  0.414258  0.670890  0.448254  1
  Na  Na4  1  0.588572  0.314781  0.519712  1
  Na  Na5  1  0.078053  0.351861  0.813651  1
  Na  Na6  1  0.252292  0.995818  0.885049  1
  Mn  Mn7  1  0.501917  0.483838  0.979787  1
  Mn  Mn8  1  0.333317  0.333377  0.166713  1
  Mn  Mn9  1  0.833297  0.333342  0.166670  1
  Mn  Mn10  1  0.989638  0.505941  0.492880  1
  Mn  Mn11  1  0.164761  0.182829  0.353526  1
  Mn  Mn12  1  0.833303  0.833311  0.666649  1
  Mn  Mn13  1  0.489962  0.017469  0.514970  1
  Mn  Mn14  1  0.672210  0.649327  0.820418  1
  Mn  Mn15  1  0.994513  0.017285  0.512853  1
  Mn  Mn16  1  0.176732  0.649246  0.818415  1
  Mn  Mn17  1  0.677010  0.160691  0.840467  1
  O  O18  1  0.661155  0.624929  0.023618  1
  O  O19  1  0.207578  0.617521  0.016814  1
  O  O20  1  0.484160  0.482263  0.200009  1
  O  O21  1  0.300816  0.889388  0.451856  1
  O  O22  1  0.690247  0.177937  0.068536  1
  O  O23  1  0.182529  0.184466  0.133331  1
  O  O24  1  0.976433  0.488715  0.264804  1
  O  O25  1  0.802919  0.884199  0.436615  1
  O  O26  1  0.873424  0.338826  0.401639  1
  O  O27  1  0.279887  0.357835  0.407452  1
  O  O28  1  0.459155  0.049240  0.316611  1
  O  O29  1  0.005598  0.041709  0.309648  1
  O  O30  1  0.703483  0.664830  0.600049  1
  O  O31  1  0.120865  0.670380  0.598805  1
  O  O32  1  0.863651  0.782459  0.896665  1
  O  O33  1  0.175094  0.160082  0.573465  1
  O  O34  1  0.987186  0.514295  0.719400  1
  O  O35  1  0.365977  0.777299  0.881437  1
  O  O36  1  0.679562  0.152383  0.613980  1
  O  O37  1  0.491528  0.506551  0.759886  1
  O  O38  1  0.545775  0.996279  0.734545  1
  O  O39  1  0.963165  0.001755  0.733201  1
  O  O40  1  0.793174  0.327827  0.931683  1
  O  O41  1  0.386719  0.308800  0.925965  1
