# generated using pymatgen
data_Li3MgPCO7
_symmetry_space_group_name_H-M   'P 1'
_cell_length_a   8.39248691
_cell_length_b   6.47029557
_cell_length_c   4.95614417
_cell_angle_alpha   90.00000000
_cell_angle_beta   86.86917923
_cell_angle_gamma   90.00000000
_symmetry_Int_Tables_number   1
_chemical_formula_structural   Li3MgPCO7
_chemical_formula_sum   'Li6 Mg2 P2 C2 O14'
_cell_volume   268.72620971
_cell_formula_units_Z   2
loop_
 _symmetry_equiv_pos_site_id
 _symmetry_equiv_pos_as_xyz
  1  'x, y, z'
loop_
 _atom_site_type_symbol
 _atom_site_label
 _atom_site_symmetry_multiplicity
 _atom_site_fract_x
 _atom_site_fract_y
 _atom_site_fract_z
 _atom_site_occupancy
  Li  Li0  1  0.089060  0.250000  0.744395  1
  Li  Li1  1  0.266526  0.019027  0.233843  1
  Li  Li2  1  0.266526  0.480973  0.233843  1
  Li  Li3  1  0.733474  0.519027  0.766157  1
  Li  Li4  1  0.733474  0.980973  0.766157  1
  Li  Li5  1  0.910940  0.750000  0.255605  1
  Mg  Mg6  1  0.344410  0.750000  0.788963  1
  Mg  Mg7  1  0.655590  0.250000  0.211037  1
  P  P8  1  0.413891  0.250000  0.712724  1
  P  P9  1  0.586109  0.750000  0.287276  1
  C  C10  1  0.044181  0.750000  0.724386  1
  C  C11  1  0.955819  0.250000  0.275614  1
  O  O12  1  0.085034  0.750000  0.972492  1
  O  O13  1  0.105530  0.250000  0.335473  1
  O  O14  1  0.154353  0.750000  0.529916  1
  O  O15  1  0.312609  0.061307  0.812959  1
  O  O16  1  0.312609  0.438693  0.812959  1
  O  O17  1  0.433041  0.250000  0.397962  1
  O  O18  1  0.416850  0.750000  0.176940  1
  O  O19  1  0.583150  0.250000  0.823060  1
  O  O20  1  0.566959  0.750000  0.602038  1
  O  O21  1  0.687391  0.561307  0.187041  1
  O  O22  1  0.687391  0.938693  0.187041  1
  O  O23  1  0.845647  0.250000  0.470084  1
  O  O24  1  0.894470  0.750000  0.664527  1
  O  O25  1  0.914966  0.250000  0.027508  1
