# generated using pymatgen
data_KV2H2C8N2(OF)5
_symmetry_space_group_name_H-M   'P 1'
_cell_length_a   11.82623445
_cell_length_b   17.08588669
_cell_length_c   8.57384005
_cell_angle_alpha   90.00000000
_cell_angle_beta   90.00000000
_cell_angle_gamma   90.00000000
_symmetry_Int_Tables_number   1
_chemical_formula_structural   KV2H2C8N2(OF)5
_chemical_formula_sum   'K4 V8 H8 C32 N8 O20 F20'
_cell_volume   1732.44471131
_cell_formula_units_Z   4
loop_
 _symmetry_equiv_pos_site_id
 _symmetry_equiv_pos_as_xyz
  1  'x, y, z'
loop_
 _atom_site_type_symbol
 _atom_site_label
 _atom_site_symmetry_multiplicity
 _atom_site_fract_x
 _atom_site_fract_y
 _atom_site_fract_z
 _atom_site_occupancy
  K  K0  1  0.498409  0.250000  0.181363  1
  K  K1  1  0.998409  0.250000  0.318637  1
  K  K2  1  0.501591  0.750000  0.818637  1
  K  K3  1  0.001591  0.750000  0.681363  1
  V  V4  1  0.785568  0.338107  0.023194  1
  V  V5  1  0.285568  0.161893  0.476806  1
  V  V6  1  0.214432  0.838107  0.976806  1
  V  V7  1  0.714432  0.661893  0.523194  1
  V  V8  1  0.214432  0.661893  0.976806  1
  V  V9  1  0.714432  0.838107  0.523194  1
  V  V10  1  0.785568  0.161893  0.023194  1
  V  V11  1  0.285568  0.338107  0.476806  1
  H  H12  1  0.064093  0.250000  0.680770  1
  H  H13  1  0.564093  0.250000  0.819230  1
  H  H14  1  0.935907  0.750000  0.319230  1
  H  H15  1  0.435907  0.750000  0.180770  1
  H  H16  1  0.948191  0.250000  0.762395  1
  H  H17  1  0.448191  0.250000  0.737605  1
  H  H18  1  0.051809  0.750000  0.237605  1
  H  H19  1  0.551809  0.750000  0.262395  1
  C  C20  1  0.638025  0.122189  0.408955  1
  C  C21  1  0.138025  0.377811  0.091045  1
  C  C22  1  0.361975  0.622189  0.591045  1
  C  C23  1  0.861975  0.877811  0.908955  1
  C  C24  1  0.361975  0.877811  0.591045  1
  C  C25  1  0.861975  0.622189  0.908955  1
  C  C26  1  0.638025  0.377811  0.408955  1
  C  C27  1  0.138025  0.122189  0.091045  1
  C  C28  1  0.687775  0.082172  0.518068  1
  C  C29  1  0.187775  0.417828  0.981932  1
  C  C30  1  0.312225  0.582172  0.481932  1
  C  C31  1  0.812225  0.917828  0.018068  1
  C  C32  1  0.312225  0.917828  0.481932  1
  C  C33  1  0.812225  0.582172  0.018068  1
  C  C34  1  0.687775  0.417828  0.518068  1
  C  C35  1  0.187775  0.082172  0.981932  1
  C  C36  1  0.670579  0.068930  0.691600  1
  C  C37  1  0.170579  0.431070  0.808400  1
  C  C38  1  0.329421  0.568930  0.308400  1
  C  C39  1  0.829421  0.931070  0.191600  1
  C  C40  1  0.329421  0.931070  0.308400  1
  C  C41  1  0.829421  0.568930  0.191600  1
  C  C42  1  0.670579  0.431070  0.691600  1
  C  C43  1  0.170579  0.068930  0.808400  1
  C  C44  1  0.809665  0.070570  0.573477  1
  C  C45  1  0.309665  0.429430  0.926523  1
  C  C46  1  0.190335  0.570570  0.426523  1
  C  C47  1  0.690335  0.929430  0.073477  1
  C  C48  1  0.190335  0.929430  0.426523  1
  C  C49  1  0.690335  0.570570  0.073477  1
  C  C50  1  0.809665  0.429430  0.573477  1
  C  C51  1  0.309665  0.070570  0.926523  1
  N  N52  1  0.779134  0.095478  0.719967  1
  N  N53  1  0.279134  0.404522  0.780033  1
  N  N54  1  0.220866  0.595478  0.280033  1
  N  N55  1  0.720866  0.904522  0.219967  1
  N  N56  1  0.220866  0.904522  0.280033  1
  N  N57  1  0.720866  0.595478  0.219967  1
  N  N58  1  0.779134  0.404522  0.719967  1
  N  N59  1  0.279134  0.095478  0.780033  1
  O  O60  1  0.840787  0.109171  0.845679  1
  O  O61  1  0.340787  0.390829  0.654321  1
  O  O62  1  0.159213  0.609171  0.154321  1
  O  O63  1  0.659213  0.890829  0.345679  1
  O  O64  1  0.159213  0.890829  0.154321  1
  O  O65  1  0.659213  0.609171  0.345679  1
  O  O66  1  0.840787  0.390829  0.845679  1
  O  O67  1  0.340787  0.109171  0.654321  1
  O  O68  1  0.662624  0.123362  0.041969  1
  O  O69  1  0.162624  0.376638  0.458031  1
  O  O70  1  0.337376  0.623362  0.958031  1
  O  O71  1  0.837376  0.876638  0.541969  1
  O  O72  1  0.337376  0.876638  0.958031  1
  O  O73  1  0.837376  0.623362  0.541969  1
  O  O74  1  0.662624  0.376638  0.041969  1
  O  O75  1  0.162624  0.123362  0.458031  1
  O  O76  1  0.983145  0.250000  0.658943  1
  O  O77  1  0.483145  0.250000  0.841057  1
  O  O78  1  0.016855  0.750000  0.341057  1
  O  O79  1  0.516855  0.750000  0.158943  1
  F  F80  1  0.720561  0.250000  0.887150  1
  F  F81  1  0.220561  0.250000  0.612850  1
  F  F82  1  0.279439  0.750000  0.112850  1
  F  F83  1  0.779439  0.750000  0.387150  1
  F  F84  1  0.753436  0.250000  0.171975  1
  F  F85  1  0.253436  0.250000  0.328025  1
  F  F86  1  0.246564  0.750000  0.828025  1
  F  F87  1  0.746564  0.750000  0.671975  1
  F  F88  1  0.909546  0.250000  0.986628  1
  F  F89  1  0.409546  0.250000  0.513372  1
  F  F90  1  0.090454  0.750000  0.013372  1
  F  F91  1  0.590454  0.750000  0.486628  1
  F  F92  1  0.872770  0.118358  0.167984  1
  F  F93  1  0.372770  0.381642  0.332016  1
  F  F94  1  0.127230  0.618358  0.832016  1
  F  F95  1  0.627230  0.881642  0.667984  1
  F  F96  1  0.127230  0.881642  0.832016  1
  F  F97  1  0.627230  0.618358  0.667984  1
  F  F98  1  0.872770  0.381642  0.167984  1
  F  F99  1  0.372770  0.118358  0.332016  1
