# generated using pymatgen
data_Li2CuF4
_symmetry_space_group_name_H-M   'P 1'
_cell_length_a   3.17777416
_cell_length_b   9.18157485
_cell_length_c   5.28409874
_cell_angle_alpha   90.00000000
_cell_angle_beta   105.58262161
_cell_angle_gamma   90.00000000
_symmetry_Int_Tables_number   1
_chemical_formula_structural   Li2CuF4
_chemical_formula_sum   'Li4 Cu2 F8'
_cell_volume   148.50719165
_cell_formula_units_Z   2
loop_
 _symmetry_equiv_pos_site_id
 _symmetry_equiv_pos_as_xyz
  1  'x, y, z'
loop_
 _atom_site_type_symbol
 _atom_site_label
 _atom_site_symmetry_multiplicity
 _atom_site_fract_x
 _atom_site_fract_y
 _atom_site_fract_z
 _atom_site_occupancy
  Li  Li0  1  0.603228  0.331707  0.933722  1
  Li  Li1  1  0.396772  0.831707  0.566278  1
  Li  Li2  1  0.603228  0.168293  0.433722  1
  Li  Li3  1  0.396772  0.668293  0.066278  1
  Cu  Cu4  1  0.000000  0.500000  0.500000  1
  Cu  Cu5  1  0.000000  0.000000  0.000000  1
  F  F6  1  0.990047  0.318289  0.691030  1
  F  F7  1  0.990047  0.181711  0.191030  1
  F  F8  1  0.499739  0.562304  0.767630  1
  F  F9  1  0.500261  0.062304  0.732370  1
  F  F10  1  0.499739  0.937696  0.267630  1
  F  F11  1  0.500261  0.437696  0.232370  1
  F  F12  1  0.009953  0.818289  0.808970  1
  F  F13  1  0.009953  0.681711  0.308970  1
