# generated using pymatgen
data_AsH12C4I3
_symmetry_space_group_name_H-M   'P 1'
_cell_length_a   15.27624370
_cell_length_b   15.27624370
_cell_length_c   14.06105296
_cell_angle_alpha   90.00000000
_cell_angle_beta   90.00000000
_cell_angle_gamma   90.00000000
_symmetry_Int_Tables_number   1
_chemical_formula_structural   AsH12C4I3
_chemical_formula_sum   'As10 H120 C40 I30'
_cell_volume   3281.33824200
_cell_formula_units_Z   10
loop_
 _symmetry_equiv_pos_site_id
 _symmetry_equiv_pos_as_xyz
  1  'x, y, z'
loop_
 _atom_site_type_symbol
 _atom_site_label
 _atom_site_symmetry_multiplicity
 _atom_site_fract_x
 _atom_site_fract_y
 _atom_site_fract_z
 _atom_site_occupancy
  As  As0  1  0.500000  0.500000  0.250000  1
  As  As1  1  0.500000  0.500000  0.750000  1
  As  As2  1  0.703317  0.077519  0.248696  1
  As  As3  1  0.296683  0.922481  0.248696  1
  As  As4  1  0.077519  0.296683  0.748696  1
  As  As5  1  0.922481  0.703317  0.748696  1
  As  As6  1  0.296683  0.922481  0.751304  1
  As  As7  1  0.703317  0.077519  0.751304  1
  As  As8  1  0.922481  0.703317  0.251304  1
  As  As9  1  0.077519  0.296683  0.251304  1
  H  H10  1  0.519871  0.354677  0.332959  1
  H  H11  1  0.480129  0.645323  0.332959  1
  H  H12  1  0.354677  0.480129  0.832959  1
  H  H13  1  0.645323  0.519871  0.832959  1
  H  H14  1  0.480129  0.645323  0.667041  1
  H  H15  1  0.519871  0.354677  0.667041  1
  H  H16  1  0.645323  0.519871  0.167041  1
  H  H17  1  0.354677  0.480129  0.167041  1
  H  H18  1  0.624265  0.402321  0.303835  1
  H  H19  1  0.375735  0.597679  0.303835  1
  H  H20  1  0.402321  0.375735  0.803835  1
  H  H21  1  0.597679  0.624265  0.803835  1
  H  H22  1  0.375735  0.597679  0.696165  1
  H  H23  1  0.624265  0.402321  0.696165  1
  H  H24  1  0.597679  0.624265  0.196165  1
  H  H25  1  0.402321  0.375735  0.196165  1
  H  H26  1  0.563614  0.442751  0.403432  1
  H  H27  1  0.436386  0.557249  0.403432  1
  H  H28  1  0.442751  0.436386  0.903432  1
  H  H29  1  0.557249  0.563614  0.903432  1
  H  H30  1  0.436386  0.557249  0.596568  1
  H  H31  1  0.563614  0.442751  0.596568  1
  H  H32  1  0.557249  0.563614  0.096568  1
  H  H33  1  0.442751  0.436386  0.096568  1
  H  H34  1  0.846917  0.032006  0.175658  1
  H  H35  1  0.153083  0.967994  0.175658  1
  H  H36  1  0.032006  0.153083  0.675658  1
  H  H37  1  0.967994  0.846917  0.675658  1
  H  H38  1  0.153083  0.967994  0.824342  1
  H  H39  1  0.846917  0.032006  0.824342  1
  H  H40  1  0.967994  0.846917  0.324342  1
  H  H41  1  0.032006  0.153083  0.324342  1
  H  H42  1  0.856122  0.040462  0.303233  1
  H  H43  1  0.143878  0.959538  0.303233  1
  H  H44  1  0.040462  0.143878  0.803233  1
  H  H45  1  0.959538  0.856122  0.803233  1
  H  H46  1  0.143878  0.959538  0.696767  1
  H  H47  1  0.856122  0.040462  0.696767  1
  H  H48  1  0.959538  0.856122  0.196767  1
  H  H49  1  0.040462  0.143878  0.196767  1
  H  H50  1  0.804227  0.946894  0.250909  1
  H  H51  1  0.195773  0.053106  0.250909  1
  H  H52  1  0.946894  0.195773  0.750909  1
  H  H53  1  0.053106  0.804227  0.750909  1
  H  H54  1  0.195773  0.053106  0.749091  1
  H  H55  1  0.804227  0.946894  0.749091  1
  H  H56  1  0.053106  0.804227  0.249091  1
  H  H57  1  0.946894  0.195773  0.249091  1
  H  H58  1  0.761719  0.225783  0.297449  1
  H  H59  1  0.238281  0.774217  0.297449  1
  H  H60  1  0.225783  0.238281  0.797449  1
  H  H61  1  0.774217  0.761719  0.797449  1
  H  H62  1  0.238281  0.774217  0.702551  1
  H  H63  1  0.761719  0.225783  0.702551  1
  H  H64  1  0.774217  0.761719  0.202551  1
  H  H65  1  0.225783  0.238281  0.202551  1
  H  H66  1  0.752646  0.217186  0.170130  1
  H  H67  1  0.247354  0.782814  0.170130  1
  H  H68  1  0.217186  0.247354  0.670130  1
  H  H69  1  0.782814  0.752646  0.670130  1
  H  H70  1  0.247354  0.782814  0.829870  1
  H  H71  1  0.752646  0.217186  0.829870  1
  H  H72  1  0.782814  0.752646  0.329870  1
  H  H73  1  0.217186  0.247354  0.329870  1
  H  H74  1  0.656638  0.235345  0.240435  1
  H  H75  1  0.343362  0.764655  0.240435  1
  H  H76  1  0.235345  0.343362  0.740435  1
  H  H77  1  0.764655  0.656638  0.740435  1
  H  H78  1  0.343362  0.764655  0.759565  1
  H  H79  1  0.656638  0.235345  0.759565  1
  H  H80  1  0.764655  0.656638  0.259565  1
  H  H81  1  0.235345  0.343362  0.259565  1
  H  H82  1  0.585973  0.083126  0.373789  1
  H  H83  1  0.414027  0.916874  0.373789  1
  H  H84  1  0.083126  0.414027  0.873789  1
  H  H85  1  0.916874  0.585973  0.873789  1
  H  H86  1  0.414027  0.916874  0.626211  1
  H  H87  1  0.585973  0.083126  0.626211  1
  H  H88  1  0.916874  0.585973  0.126211  1
  H  H89  1  0.083126  0.414027  0.126211  1
  H  H90  1  0.640782  0.978685  0.374728  1
  H  H91  1  0.359218  0.021315  0.374728  1
  H  H92  1  0.978685  0.359218  0.874728  1
  H  H93  1  0.021315  0.640782  0.874728  1
  H  H94  1  0.359218  0.021315  0.625272  1
  H  H95  1  0.640782  0.978685  0.625272  1
  H  H96  1  0.021315  0.640782  0.125272  1
  H  H97  1  0.978685  0.359218  0.125272  1
  H  H98  1  0.693099  0.073017  0.426059  1
  H  H99  1  0.306901  0.926983  0.426059  1
  H  H100  1  0.073017  0.306901  0.926059  1
  H  H101  1  0.926983  0.693099  0.926059  1
  H  H102  1  0.306901  0.926983  0.573941  1
  H  H103  1  0.693099  0.073017  0.573941  1
  H  H104  1  0.926983  0.693099  0.073941  1
  H  H105  1  0.073017  0.306901  0.073941  1
  H  H106  1  0.619745  0.968156  0.148455  1
  H  H107  1  0.380255  0.031844  0.148455  1
  H  H108  1  0.968156  0.380255  0.648455  1
  H  H109  1  0.031844  0.619745  0.648455  1
  H  H110  1  0.380255  0.031844  0.851545  1
  H  H111  1  0.619745  0.968156  0.851545  1
  H  H112  1  0.031844  0.619745  0.351545  1
  H  H113  1  0.968156  0.380255  0.351545  1
  H  H114  1  0.567407  0.074005  0.147406  1
  H  H115  1  0.432593  0.925995  0.147406  1
  H  H116  1  0.074005  0.432593  0.647406  1
  H  H117  1  0.925995  0.567407  0.647406  1
  H  H118  1  0.432593  0.925995  0.852594  1
  H  H119  1  0.567407  0.074005  0.852594  1
  H  H120  1  0.925995  0.567407  0.352594  1
  H  H121  1  0.074005  0.432593  0.352594  1
  H  H122  1  0.663775  0.055235  0.077189  1
  H  H123  1  0.336225  0.944765  0.077189  1
  H  H124  1  0.055235  0.336225  0.577189  1
  H  H125  1  0.944765  0.663775  0.577189  1
  H  H126  1  0.336225  0.944765  0.922811  1
  H  H127  1  0.663775  0.055235  0.922811  1
  H  H128  1  0.944765  0.663775  0.422811  1
  H  H129  1  0.055235  0.336225  0.422811  1
  C  C130  1  0.558562  0.415214  0.331642  1
  C  C131  1  0.441438  0.584786  0.331642  1
  C  C132  1  0.415214  0.441438  0.831642  1
  C  C133  1  0.584786  0.558562  0.831642  1
  C  C134  1  0.441438  0.584786  0.668358  1
  C  C135  1  0.558562  0.415214  0.668358  1
  C  C136  1  0.584786  0.558562  0.168358  1
  C  C137  1  0.415214  0.441438  0.168358  1
  C  C138  1  0.815577  0.017579  0.243942  1
  C  C139  1  0.184423  0.982421  0.243942  1
  C  C140  1  0.017579  0.184423  0.743942  1
  C  C141  1  0.982421  0.815577  0.743942  1
  C  C142  1  0.184423  0.982421  0.756058  1
  C  C143  1  0.815577  0.017579  0.756058  1
  C  C144  1  0.982421  0.815577  0.256058  1
  C  C145  1  0.017579  0.184423  0.256058  1
  C  C146  1  0.720744  0.203031  0.238076  1
  C  C147  1  0.279256  0.796969  0.238076  1
  C  C148  1  0.203031  0.279256  0.738076  1
  C  C149  1  0.796969  0.720744  0.738076  1
  C  C150  1  0.279256  0.796969  0.761924  1
  C  C151  1  0.720744  0.203031  0.761924  1
  C  C152  1  0.796969  0.720744  0.261924  1
  C  C153  1  0.203031  0.279256  0.261924  1
  C  C154  1  0.649437  0.049621  0.369664  1
  C  C155  1  0.350563  0.950379  0.369664  1
  C  C156  1  0.049621  0.350563  0.869664  1
  C  C157  1  0.950379  0.649437  0.869664  1
  C  C158  1  0.350563  0.950379  0.630336  1
  C  C159  1  0.649437  0.049621  0.630336  1
  C  C160  1  0.950379  0.649437  0.130336  1
  C  C161  1  0.049621  0.350563  0.130336  1
  C  C162  1  0.630074  0.038913  0.143720  1
  C  C163  1  0.369926  0.961087  0.143720  1
  C  C164  1  0.038913  0.369926  0.643720  1
  C  C165  1  0.961087  0.630074  0.643720  1
  C  C166  1  0.369926  0.961087  0.856280  1
  C  C167  1  0.630074  0.038913  0.856280  1
  C  C168  1  0.961087  0.630074  0.356280  1
  C  C169  1  0.038913  0.369926  0.356280  1
  I  I170  1  0.000000  0.000000  0.500000  1
  I  I171  1  0.000000  0.000000  0.000000  1
  I  I172  1  0.562243  0.809886  0.500000  1
  I  I173  1  0.437757  0.190114  0.500000  1
  I  I174  1  0.809886  0.437757  0.000000  1
  I  I175  1  0.190114  0.562243  0.000000  1
  I  I176  1  0.784940  0.403584  0.500000  1
  I  I177  1  0.215060  0.596416  0.500000  1
  I  I178  1  0.403584  0.215060  0.000000  1
  I  I179  1  0.596416  0.784940  0.000000  1
  I  I180  1  0.845296  0.880450  0.500000  1
  I  I181  1  0.154704  0.119550  0.500000  1
  I  I182  1  0.880450  0.154704  0.000000  1
  I  I183  1  0.119550  0.845296  0.000000  1
  I  I184  1  0.563794  0.810396  0.287774  1
  I  I185  1  0.436206  0.189604  0.287774  1
  I  I186  1  0.810396  0.436206  0.787774  1
  I  I187  1  0.189604  0.563794  0.787774  1
  I  I188  1  0.436206  0.189604  0.712226  1
  I  I189  1  0.563794  0.810396  0.712226  1
  I  I190  1  0.189604  0.563794  0.212226  1
  I  I191  1  0.810396  0.436206  0.212226  1
  I  I192  1  0.714651  0.584321  0.500000  1
  I  I193  1  0.285349  0.415679  0.500000  1
  I  I194  1  0.584321  0.285349  0.000000  1
  I  I195  1  0.415679  0.714651  0.000000  1
  I  I196  1  0.852170  0.218130  0.500000  1
  I  I197  1  0.147830  0.781870  0.500000  1
  I  I198  1  0.218130  0.147830  0.000000  1
  I  I199  1  0.781870  0.852170  0.000000  1
