# generated using pymatgen
data_LiAg2F6
_symmetry_space_group_name_H-M   'P 1'
_cell_length_a   9.28536928
_cell_length_b   9.28637452
_cell_length_c   4.82296159
_cell_angle_alpha   90.00006360
_cell_angle_beta   90.00553345
_cell_angle_gamma   60.00033834
_symmetry_Int_Tables_number   1
_chemical_formula_structural   LiAg2F6
_chemical_formula_sum   'Li3 Ag6 F18'
_cell_volume   360.15652558
_cell_formula_units_Z   3
loop_
 _symmetry_equiv_pos_site_id
 _symmetry_equiv_pos_as_xyz
  1  'x, y, z'
loop_
 _atom_site_type_symbol
 _atom_site_label
 _atom_site_symmetry_multiplicity
 _atom_site_fract_x
 _atom_site_fract_y
 _atom_site_fract_z
 _atom_site_occupancy
  Li  Li0  1  0.331483  0.334427  0.485373  1
  Li  Li1  1  0.998548  0.001609  0.000003  1
  Li  Li2  1  0.665510  0.668247  0.514501  1
  Ag  Ag3  1  0.303324  0.001313  0.500049  1
  Ag  Ag4  1  0.635635  0.001465  0.000101  1
  Ag  Ag5  1  0.361374  0.638495  0.999955  1
  Ag  Ag6  1  0.693253  0.306745  0.500159  1
  Ag  Ag7  1  0.998814  0.364361  0.000364  1
  Ag  Ag8  1  0.998793  0.696146  0.500088  1
  F  F9  1  0.100067  0.114962  0.761920  1
  F  F10  1  0.197153  0.258490  0.257811  1
  F  F11  1  0.112669  0.480851  0.727671  1
  F  F12  1  0.405310  0.115610  0.727949  1
  F  F13  1  0.112684  0.785889  0.760958  1
  F  F14  1  0.255694  0.545623  0.256811  1
  F  F15  1  0.543446  0.199994  0.258117  1
  F  F16  1  0.214520  0.886843  0.238501  1
  F  F17  1  0.477546  0.408692  0.728078  1
  F  F18  1  0.454352  0.744519  0.742719  1
  F  F19  1  0.782538  0.103332  0.762026  1
  F  F20  1  0.591664  0.522405  0.271876  1
  F  F21  1  0.519341  0.887987  0.272143  1
  F  F22  1  0.896720  0.216960  0.238519  1
  F  F23  1  0.799811  0.457008  0.741499  1
  F  F24  1  0.741459  0.802920  0.742526  1
  F  F25  1  0.884103  0.595104  0.272226  1
  F  F26  1  0.884818  0.899834  0.238307  1
