# generated using pymatgen
data_Co3(OF2)2
_symmetry_space_group_name_H-M   'P 1'
_cell_length_a   4.67976574
_cell_length_b   4.67976574
_cell_length_c   9.38380474
_cell_angle_alpha   89.72566814
_cell_angle_beta   89.72566814
_cell_angle_gamma   89.82001880
_symmetry_Int_Tables_number   1
_chemical_formula_structural   Co3(OF2)2
_chemical_formula_sum   'Co6 O4 F8'
_cell_volume   205.50155942
_cell_formula_units_Z   2
loop_
 _symmetry_equiv_pos_site_id
 _symmetry_equiv_pos_as_xyz
  1  'x, y, z'
loop_
 _atom_site_type_symbol
 _atom_site_label
 _atom_site_symmetry_multiplicity
 _atom_site_fract_x
 _atom_site_fract_y
 _atom_site_fract_z
 _atom_site_occupancy
  Co  Co0  1  0.970015  0.956045  0.993669  1
  Co  Co1  1  0.043955  0.029985  0.339665  1
  Co  Co2  1  0.017187  0.982813  0.666667  1
  Co  Co3  1  0.508115  0.491885  0.166667  1
  Co  Co4  1  0.473900  0.524717  0.838884  1
  Co  Co5  1  0.475282  0.526100  0.494450  1
  O  O6  1  0.195618  0.794697  0.832530  1
  O  O7  1  0.205303  0.804382  0.500804  1
  O  O8  1  0.311291  0.304226  0.333609  1
  O  O9  1  0.695774  0.688709  0.999724  1
  F  F10  1  0.198191  0.801809  0.166667  1
  F  F11  1  0.286977  0.280311  0.996373  1
  F  F12  1  0.306166  0.310079  0.666002  1
  F  F13  1  0.689921  0.693834  0.667331  1
  F  F14  1  0.719689  0.713023  0.336961  1
  F  F15  1  0.814750  0.185250  0.166667  1
  F  F16  1  0.788079  0.200216  0.832441  1
  F  F17  1  0.799784  0.211921  0.500892  1
