# generated using pymatgen
data_Fe2P2H4NO8
_symmetry_space_group_name_H-M   'P 1'
_cell_length_a   12.93737777
_cell_length_b   12.93737777
_cell_length_c   10.40176890
_cell_angle_alpha   66.44870382
_cell_angle_beta   113.55129618
_cell_angle_gamma   105.07234491
_symmetry_Int_Tables_number   1
_chemical_formula_structural   Fe2P2H4NO8
_chemical_formula_sum   'Fe16 P16 H32 N8 O64'
_cell_volume   1452.56611602
_cell_formula_units_Z   8
loop_
 _symmetry_equiv_pos_site_id
 _symmetry_equiv_pos_as_xyz
  1  'x, y, z'
loop_
 _atom_site_type_symbol
 _atom_site_label
 _atom_site_symmetry_multiplicity
 _atom_site_fract_x
 _atom_site_fract_y
 _atom_site_fract_z
 _atom_site_occupancy
  Fe  Fe0  1  0.137859  0.988931  0.590172  1
  Fe  Fe1  1  0.988931  0.137859  0.909828  1
  Fe  Fe2  1  0.862141  0.011069  0.409828  1
  Fe  Fe3  1  0.011069  0.862141  0.090172  1
  Fe  Fe4  1  0.348076  0.009872  0.902137  1
  Fe  Fe5  1  0.009872  0.348076  0.597863  1
  Fe  Fe6  1  0.651924  0.990128  0.097863  1
  Fe  Fe7  1  0.990128  0.651924  0.402137  1
  Fe  Fe8  1  0.301357  0.301357  0.750000  1
  Fe  Fe9  1  0.698643  0.698643  0.250000  1
  Fe  Fe10  1  0.190870  0.190870  0.250000  1
  Fe  Fe11  1  0.809130  0.809130  0.750000  1
  Fe  Fe12  1  0.190915  0.691937  0.749803  1
  Fe  Fe13  1  0.691937  0.190915  0.750197  1
  Fe  Fe14  1  0.809085  0.308063  0.250197  1
  Fe  Fe15  1  0.308063  0.809085  0.249803  1
  P  P16  1  0.183572  0.893757  0.422809  1
  P  P17  1  0.893757  0.183572  0.077191  1
  P  P18  1  0.816428  0.106243  0.577191  1
  P  P19  1  0.106243  0.816428  0.922809  1
  P  P20  1  0.246098  0.075722  0.045342  1
  P  P21  1  0.075722  0.246098  0.454658  1
  P  P22  1  0.753902  0.924278  0.954658  1
  P  P23  1  0.924278  0.753902  0.545342  1
  P  P24  1  0.589741  0.241476  0.967774  1
  P  P25  1  0.241476  0.589741  0.532226  1
  P  P26  1  0.410259  0.758524  0.032226  1
  P  P27  1  0.758524  0.410259  0.467774  1
  P  P28  1  0.381312  0.187559  0.578739  1
  P  P29  1  0.187559  0.381312  0.921261  1
  P  P30  1  0.618688  0.812441  0.421261  1
  P  P31  1  0.812441  0.618688  0.078739  1
  H  H32  1  0.438539  0.120013  0.277942  1
  H  H33  1  0.120013  0.438539  0.222058  1
  H  H34  1  0.561461  0.879987  0.722058  1
  H  H35  1  0.879987  0.561461  0.777942  1
  H  H36  1  0.562273  0.160025  0.243171  1
  H  H37  1  0.160025  0.562273  0.256829  1
  H  H38  1  0.437727  0.839975  0.756829  1
  H  H39  1  0.839975  0.437727  0.743171  1
  H  H40  1  0.633684  0.131949  0.492391  1
  H  H41  1  0.131949  0.633684  0.007609  1
  H  H42  1  0.366316  0.868051  0.507609  1
  H  H43  1  0.868051  0.366316  0.992391  1
  H  H44  1  0.494407  0.938491  0.304440  1
  H  H45  1  0.938491  0.494407  0.195560  1
  H  H46  1  0.505593  0.061509  0.695560  1
  H  H47  1  0.061509  0.505593  0.804440  1
  H  H48  1  0.554268  0.697705  0.877005  1
  H  H49  1  0.697705  0.554268  0.622995  1
  H  H50  1  0.445732  0.302295  0.122995  1
  H  H51  1  0.302295  0.445732  0.377005  1
  H  H52  1  0.508946  0.386166  0.921757  1
  H  H53  1  0.386166  0.508946  0.578243  1
  H  H54  1  0.491054  0.613834  0.078243  1
  H  H55  1  0.613834  0.491054  0.421757  1
  H  H56  1  0.558483  0.713887  0.709654  1
  H  H57  1  0.713887  0.558483  0.790346  1
  H  H58  1  0.441517  0.286113  0.290346  1
  H  H59  1  0.286113  0.441517  0.209654  1
  H  H60  1  0.427590  0.667992  0.741038  1
  H  H61  1  0.667992  0.427590  0.758962  1
  H  H62  1  0.572410  0.332008  0.258962  1
  H  H63  1  0.332008  0.572410  0.241038  1
  N  N64  1  0.518317  0.165479  0.303401  1
  N  N65  1  0.165479  0.518317  0.196599  1
  N  N66  1  0.481683  0.834521  0.696599  1
  N  N67  1  0.834521  0.481683  0.803401  1
  N  N68  1  0.507619  0.717975  0.764247  1
  N  N69  1  0.717975  0.507619  0.735753  1
  N  N70  1  0.492381  0.282025  0.235753  1
  N  N71  1  0.282025  0.492381  0.264247  1
  O  O72  1  0.203702  0.853506  0.591621  1
  O  O73  1  0.853506  0.203702  0.908379  1
  O  O74  1  0.796298  0.146494  0.408379  1
  O  O75  1  0.146494  0.796298  0.091621  1
  O  O76  1  0.160807  0.016547  0.365201  1
  O  O77  1  0.016547  0.160807  0.134799  1
  O  O78  1  0.839193  0.983453  0.634799  1
  O  O79  1  0.983453  0.839193  0.865201  1
  O  O80  1  0.092517  0.819689  0.335048  1
  O  O81  1  0.819689  0.092517  0.164952  1
  O  O82  1  0.907483  0.180311  0.664952  1
  O  O83  1  0.180311  0.907483  0.835048  1
  O  O84  1  0.302306  0.886266  0.409549  1
  O  O85  1  0.886266  0.302306  0.090451  1
  O  O86  1  0.697694  0.113734  0.590451  1
  O  O87  1  0.113734  0.697694  0.909549  1
  O  O88  1  0.321295  0.976115  0.118912  1
  O  O89  1  0.976115  0.321295  0.381088  1
  O  O90  1  0.678705  0.023885  0.881088  1
  O  O91  1  0.023885  0.678705  0.618912  1
  O  O92  1  0.277216  0.139724  0.899024  1
  O  O93  1  0.139724  0.277216  0.600976  1
  O  O94  1  0.722784  0.860276  0.100976  1
  O  O95  1  0.860276  0.722784  0.399024  1
  O  O96  1  0.115799  0.033968  0.004936  1
  O  O97  1  0.033968  0.115799  0.495064  1
  O  O98  1  0.884201  0.966032  0.995064  1
  O  O99  1  0.966032  0.884201  0.504936  1
  O  O100  1  0.280504  0.147341  0.145917  1
  O  O101  1  0.147341  0.280504  0.354083  1
  O  O102  1  0.719496  0.852659  0.854083  1
  O  O103  1  0.852659  0.719496  0.645917  1
  O  O104  1  0.541647  0.114842  0.000311  1
  O  O105  1  0.114842  0.541647  0.499689  1
  O  O106  1  0.458353  0.885158  0.999689  1
  O  O107  1  0.885158  0.458353  0.500311  1
  O  O108  1  0.657217  0.271074  0.108942  1
  O  O109  1  0.271074  0.657217  0.391058  1
  O  O110  1  0.342783  0.728926  0.891058  1
  O  O111  1  0.728926  0.342783  0.608942  1
  O  O112  1  0.480366  0.314410  0.902375  1
  O  O113  1  0.314410  0.480366  0.597625  1
  O  O114  1  0.519634  0.685590  0.097625  1
  O  O115  1  0.685590  0.519634  0.402375  1
  O  O116  1  0.645648  0.286000  0.849084  1
  O  O117  1  0.286000  0.645648  0.650916  1
  O  O118  1  0.354352  0.714001  0.150916  1
  O  O119  1  0.714001  0.354352  0.349084  1
  O  O120  1  0.310329  0.081957  0.657610  1
  O  O121  1  0.081957  0.310329  0.842390  1
  O  O122  1  0.689671  0.918043  0.342390  1
  O  O123  1  0.918043  0.689671  0.157610  1
  O  O124  1  0.509036  0.144121  0.654230  1
  O  O125  1  0.144121  0.509036  0.845770  1
  O  O126  1  0.490964  0.855879  0.345770  1
  O  O127  1  0.855879  0.490964  0.154230  1
  O  O128  1  0.390444  0.290863  0.619828  1
  O  O129  1  0.290863  0.390444  0.880172  1
  O  O130  1  0.609556  0.709137  0.380172  1
  O  O131  1  0.709137  0.609556  0.119828  1
  O  O132  1  0.355972  0.216702  0.411835  1
  O  O133  1  0.216702  0.355972  0.088165  1
  O  O134  1  0.644028  0.783298  0.588165  1
  O  O135  1  0.783298  0.644028  0.911835  1
