# generated using pymatgen
data_GaH15N4(OF3)2
_symmetry_space_group_name_H-M   'P 1'
_cell_length_a   11.82530656
_cell_length_b   8.82517924
_cell_length_c   11.82530656
_cell_angle_alpha   111.78595246
_cell_angle_beta   143.00232391
_cell_angle_gamma   84.18283375
_symmetry_Int_Tables_number   1
_chemical_formula_structural   GaH15N4(OF3)2
_chemical_formula_sum   'Ga2 H30 N8 O4 F12'
_cell_volume   646.23482482
_cell_formula_units_Z   2
loop_
 _symmetry_equiv_pos_site_id
 _symmetry_equiv_pos_as_xyz
  1  'x, y, z'
loop_
 _atom_site_type_symbol
 _atom_site_label
 _atom_site_symmetry_multiplicity
 _atom_site_fract_x
 _atom_site_fract_y
 _atom_site_fract_z
 _atom_site_occupancy
  Ga  Ga0  1  0.000000  0.000000  0.500000  1
  Ga  Ga1  1  0.500000  0.500000  0.500000  1
  H  H2  1  0.941284  0.213251  0.076529  1
  H  H3  1  0.863278  0.286749  0.228033  1
  H  H4  1  0.058716  0.786749  0.923471  1
  H  H5  1  0.136722  0.713251  0.771967  1
  H  H6  1  0.050052  0.170319  0.833241  1
  H  H7  1  0.662923  0.329681  0.379734  1
  H  H8  1  0.949948  0.829681  0.166759  1
  H  H9  1  0.337077  0.670319  0.620267  1
  H  H10  1  0.713424  0.282104  0.783090  1
  H  H11  1  0.500986  0.217896  0.931320  1
  H  H12  1  0.286576  0.717896  0.216910  1
  H  H13  1  0.499014  0.782104  0.068680  1
  H  H14  1  0.776981  0.847217  0.781190  1
  H  H15  1  0.933974  0.652783  0.429764  1
  H  H16  1  0.223019  0.152783  0.218810  1
  H  H17  1  0.066026  0.347217  0.570236  1
  H  H18  1  0.696250  0.862451  0.355164  1
  H  H19  1  0.492713  0.637549  0.333799  1
  H  H20  1  0.303750  0.137549  0.644836  1
  H  H21  1  0.507287  0.362451  0.666201  1
  H  H22  1  0.500000  0.000000  0.500000  1
  H  H23  1  0.500000  0.500000  0.000000  1
  H  H24  1  0.070479  0.380946  0.713451  1
  H  H25  1  0.332505  0.119054  0.189532  1
  H  H26  1  0.929521  0.619054  0.286549  1
  H  H27  1  0.667495  0.880946  0.810468  1
  H  H28  1  0.035998  0.690955  0.889825  1
  H  H29  1  0.198869  0.809045  0.845042  1
  H  H30  1  0.964002  0.309045  0.110175  1
  H  H31  1  0.801131  0.190955  0.154958  1
  N  N32  1  0.786820  0.093539  0.668504  1
  N  N33  1  0.574965  0.406461  0.193282  1
  N  N34  1  0.213180  0.906461  0.331496  1
  N  N35  1  0.425035  0.593539  0.806718  1
  N  N36  1  0.678993  0.122545  0.655757  1
  N  N37  1  0.533212  0.377455  0.056448  1
  N  N38  1  0.321007  0.877455  0.344243  1
  N  N39  1  0.466788  0.622545  0.943552  1
  O  O40  1  -0.010180  0.373382  0.578715  1
  O  O41  1  0.205333  0.126618  0.116438  1
  O  O42  1  0.010180  0.626618  0.421285  1
  O  O43  1  0.794667  0.873382  0.883562  1
  F  F44  1  0.193685  0.182276  0.549612  1
  F  F45  1  0.367336  0.317724  0.511409  1
  F  F46  1  0.806315  0.817724  0.450388  1
  F  F47  1  0.632664  0.682276  0.488591  1
  F  F48  1  0.550247  0.905734  0.186571  1
  F  F49  1  0.280838  0.594266  0.144513  1
  F  F50  1  0.449753  0.094266  0.813429  1
  F  F51  1  0.719163  0.405734  0.855487  1
  F  F52  1  0.141922  0.198743  0.852520  1
  F  F53  1  0.653777  0.301257  0.443179  1
  F  F54  1  0.858078  0.801257  0.147480  1
  F  F55  1  0.346223  0.698743  0.556821  1
