# generated using pymatgen
data_Mg16Si8HO32
_symmetry_space_group_name_H-M   'P 1'
_cell_length_a   8.40443493
_cell_length_b   11.65746335
_cell_length_c   5.77818652
_cell_angle_alpha   90.00000330
_cell_angle_beta   90.18215366
_cell_angle_gamma   90.00007142
_symmetry_Int_Tables_number   1
_chemical_formula_structural   Mg16Si8HO32
_chemical_formula_sum   'Mg16 Si8 H1 O32'
_cell_volume   566.11145097
_cell_formula_units_Z   1
loop_
 _symmetry_equiv_pos_site_id
 _symmetry_equiv_pos_as_xyz
  1  'x, y, z'
loop_
 _atom_site_type_symbol
 _atom_site_label
 _atom_site_symmetry_multiplicity
 _atom_site_fract_x
 _atom_site_fract_y
 _atom_site_fract_z
 _atom_site_occupancy
  Mg  Mg0  1  0.782833  0.000007  0.250061  1
  Mg  Mg1  1  0.217258  0.000008  0.749743  1
  Mg  Mg2  1  0.249111  0.751758  0.751648  1
  Mg  Mg3  1  0.249112  0.248257  0.751649  1
  Mg  Mg4  1  0.999337  0.377297  0.999371  1
  Mg  Mg5  1  0.998918  0.622867  0.500591  1
  Mg  Mg6  1  0.999336  0.622712  0.999371  1
  Mg  Mg7  1  0.998917  0.377142  0.500591  1
  Mg  Mg8  1  0.274794  0.500007  0.756322  1
  Mg  Mg9  1  0.728457  0.500007  0.241440  1
  Mg  Mg10  1  0.751138  0.248601  0.248069  1
  Mg  Mg11  1  0.751139  0.751413  0.248068  1
  Mg  Mg12  1  0.500743  0.879481  0.500477  1
  Mg  Mg13  1  0.500634  0.120679  0.999577  1
  Mg  Mg14  1  0.500741  0.120533  0.500476  1
  Mg  Mg15  1  0.500635  0.879338  0.999578  1
  Si  Si16  1  0.133394  0.130080  0.250136  1
  Si  Si17  1  0.133395  0.869932  0.250136  1
  Si  Si18  1  0.866700  0.869784  0.749863  1
  Si  Si19  1  0.866699  0.130227  0.749864  1
  Si  Si20  1  0.634551  0.633977  0.745548  1
  Si  Si21  1  0.634551  0.366037  0.745548  1
  Si  Si22  1  0.360771  0.359843  0.254097  1
  Si  Si23  1  0.360771  0.640169  0.254096  1
  H  H24  1  0.493052  0.500002  0.466600  1
  O  O25  1  0.035131  0.000006  0.249643  1
  O  O26  1  0.965073  0.000006  0.750342  1
  O  O27  1  0.537474  0.000007  0.249951  1
  O  O28  1  0.462918  0.000008  0.750108  1
  O  O29  1  0.006984  0.240292  0.248839  1
  O  O30  1  0.006986  0.759719  0.248839  1
  O  O31  1  0.993542  0.759877  0.751016  1
  O  O32  1  0.993543  0.240135  0.751016  1
  O  O33  1  0.260595  0.374542  0.012823  1
  O  O34  1  0.255460  0.628555  0.492997  1
  O  O35  1  0.742893  0.627956  0.506661  1
  O  O36  1  0.739588  0.373998  0.986369  1
  O  O37  1  0.739588  0.626013  0.986368  1
  O  O38  1  0.742893  0.372058  0.506660  1
  O  O39  1  0.255460  0.371459  0.492998  1
  O  O40  1  0.260594  0.625469  0.012823  1
  O  O41  1  0.532030  0.500006  0.725695  1
  O  O42  1  0.468527  0.500004  0.286164  1
  O  O43  1  0.032501  0.500004  0.750864  1
  O  O44  1  0.967651  0.500004  0.248906  1
  O  O45  1  0.505139  0.741199  0.748330  1
  O  O46  1  0.505140  0.258814  0.748329  1
  O  O47  1  0.494802  0.256915  0.251333  1
  O  O48  1  0.494803  0.743096  0.251332  1
  O  O49  1  0.758130  0.872387  0.511049  1
  O  O50  1  0.757418  0.127641  0.987466  1
  O  O51  1  0.242946  0.127751  0.012618  1
  O  O52  1  0.242379  0.872468  0.488684  1
  O  O53  1  0.242379  0.127548  0.488684  1
  O  O54  1  0.242946  0.872261  0.012619  1
  O  O55  1  0.757419  0.872371  0.987465  1
  O  O56  1  0.758130  0.127625  0.511048  1
