# generated using pymatgen
data_Li2CuPO4
_symmetry_space_group_name_H-M   'P 1'
_cell_length_a   6.18804832
_cell_length_b   5.42859936
_cell_length_c   10.08805748
_cell_angle_alpha   90.03076271
_cell_angle_beta   89.96715672
_cell_angle_gamma   89.66267095
_symmetry_Int_Tables_number   1
_chemical_formula_structural   Li2CuPO4
_chemical_formula_sum   'Li8 Cu4 P4 O16'
_cell_volume   338.87643842
_cell_formula_units_Z   4
loop_
 _symmetry_equiv_pos_site_id
 _symmetry_equiv_pos_as_xyz
  1  'x, y, z'
loop_
 _atom_site_type_symbol
 _atom_site_label
 _atom_site_symmetry_multiplicity
 _atom_site_fract_x
 _atom_site_fract_y
 _atom_site_fract_z
 _atom_site_occupancy
  Li  Li0  1  0.999503  0.152285  0.747006  1
  Li  Li1  1  0.999225  0.156026  0.245757  1
  Li  Li2  1  0.245632  0.329062  0.494990  1
  Li  Li3  1  0.247264  0.326380  0.998467  1
  Li  Li4  1  0.254087  0.672630  0.244957  1
  Li  Li5  1  0.500016  0.846226  0.997407  1
  Li  Li6  1  0.500792  0.846238  0.494827  1
  Li  Li7  1  0.746228  0.674911  0.244710  1
  Cu  Cu8  1  0.255322  0.659635  0.753231  1
  Cu  Cu9  1  0.743752  0.659052  0.749430  1
  Cu  Cu10  1  0.757192  0.340431  0.496219  1
  Cu  Cu11  1  0.756048  0.332128  0.999147  1
  P  P12  1  0.004178  0.828202  0.006151  1
  P  P13  1  0.004673  0.829906  0.492320  1
  P  P14  1  0.495081  0.171743  0.249504  1
  P  P15  1  0.494757  0.170909  0.748171  1
  O  O16  1  0.000264  0.839603  0.647651  1
  O  O17  1  0.013593  0.099935  0.438924  1
  O  O18  1  0.001309  0.828103  0.159858  1
  O  O19  1  0.013681  0.095416  0.948537  1
  O  O20  1  0.207972  0.683357  0.443157  1
  O  O21  1  0.209214  0.680541  0.958320  1
  O  O22  1  0.291466  0.312395  0.195241  1
  O  O23  1  0.288854  0.303862  0.691526  1
  O  O24  1  0.486846  0.165152  0.902532  1
  O  O25  1  0.498056  0.905695  0.688484  1
  O  O26  1  0.488179  0.170978  0.404641  1
  O  O27  1  0.498530  0.900645  0.197653  1
  O  O28  1  0.709301  0.299004  0.702680  1
  O  O29  1  0.705424  0.311638  0.205482  1
  O  O30  1  0.793144  0.704712  0.439532  1
  O  O31  1  0.790416  0.703200  0.956082  1
