# generated using pymatgen
data_V2CuH6(NO3)2
_symmetry_space_group_name_H-M   'P 1'
_cell_length_a   5.64553854
_cell_length_b   5.71378914
_cell_length_c   11.60449168
_cell_angle_alpha   90.00000000
_cell_angle_beta   91.35339877
_cell_angle_gamma   90.00000000
_symmetry_Int_Tables_number   1
_chemical_formula_structural   V2CuH6(NO3)2
_chemical_formula_sum   'V4 Cu2 H12 N4 O12'
_cell_volume   374.22649809
_cell_formula_units_Z   2
loop_
 _symmetry_equiv_pos_site_id
 _symmetry_equiv_pos_as_xyz
  1  'x, y, z'
loop_
 _atom_site_type_symbol
 _atom_site_label
 _atom_site_symmetry_multiplicity
 _atom_site_fract_x
 _atom_site_fract_y
 _atom_site_fract_z
 _atom_site_occupancy
  V  V0  1  0.003011  0.949650  0.500615  1
  V  V1  1  0.003011  0.050350  0.000615  1
  V  V2  1  0.468975  0.951717  0.322501  1
  V  V3  1  0.468975  0.048283  0.822501  1
  Cu  Cu4  1  0.238661  0.498941  0.160520  1
  Cu  Cu5  1  0.238661  0.501059  0.660520  1
  H  H6  1  0.847595  0.335266  0.239874  1
  H  H7  1  0.847595  0.664734  0.739874  1
  H  H8  1  0.054870  0.361327  0.342550  1
  H  H9  1  0.054870  0.638673  0.842550  1
  H  H10  1  0.906389  0.596220  0.296297  1
  H  H11  1  0.906389  0.403780  0.796297  1
  H  H12  1  0.442607  0.493353  0.467633  1
  H  H13  1  0.442607  0.506647  0.967633  1
  H  H14  1  0.535287  0.265970  0.544592  1
  H  H15  1  0.535287  0.734030  0.044592  1
  H  H16  1  0.652473  0.526301  0.567793  1
  H  H17  1  0.652473  0.473699  0.067793  1
  N  N18  1  0.980404  0.441394  0.271436  1
  N  N19  1  0.980404  0.558606  0.771436  1
  N  N20  1  0.496864  0.440837  0.548610  1
  N  N21  1  0.496864  0.559163  0.048610  1
  O  O22  1  0.239938  0.069312  0.414080  1
  O  O23  1  0.239938  0.930688  0.914080  1
  O  O24  1  0.054555  0.663060  0.537845  1
  O  O25  1  0.054555  0.336940  0.037845  1
  O  O26  1  0.974456  0.116705  0.615391  1
  O  O27  1  0.974456  0.883295  0.115391  1
  O  O28  1  0.411811  0.665491  0.286790  1
  O  O29  1  0.411811  0.334509  0.786790  1
  O  O30  1  0.740053  0.969049  0.408557  1
  O  O31  1  0.740053  0.030951  0.908557  1
  O  O32  1  0.484639  0.120473  0.206973  1
  O  O33  1  0.484639  0.879527  0.706973  1
