# generated using pymatgen
data_Li4Ti3Mn2V3O16
_symmetry_space_group_name_H-M   'P 1'
_cell_length_a   5.95277697
_cell_length_b   5.94386816
_cell_length_c   9.95267272
_cell_angle_alpha   90.16535646
_cell_angle_beta   90.11498048
_cell_angle_gamma   120.08081057
_symmetry_Int_Tables_number   1
_chemical_formula_structural   Li4Ti3Mn2V3O16
_chemical_formula_sum   'Li4 Ti3 Mn2 V3 O16'
_cell_volume   304.71907705
_cell_formula_units_Z   1
loop_
 _symmetry_equiv_pos_site_id
 _symmetry_equiv_pos_as_xyz
  1  'x, y, z'
loop_
 _atom_site_type_symbol
 _atom_site_label
 _atom_site_symmetry_multiplicity
 _atom_site_fract_x
 _atom_site_fract_y
 _atom_site_fract_z
 _atom_site_occupancy
  Li  Li0  1  0.340805  0.672087  0.892946  1
  Li  Li1  1  0.993389  0.995940  0.997003  1
  Li  Li2  1  0.998328  0.002083  0.498384  1
  Li  Li3  1  0.668154  0.334587  0.392653  1
  Ti  Ti4  1  0.171876  0.833564  0.218352  1
  Ti  Ti5  1  0.171235  0.338134  0.217986  1
  Ti  Ti6  1  0.342980  0.171434  0.719825  1
  Mn  Mn7  1  0.336635  0.665881  0.497667  1
  Mn  Mn8  1  0.664300  0.329124  0.997085  1
  V  V9  1  0.663142  0.830790  0.210541  1
  V  V10  1  0.839943  0.177828  0.714605  1
  V  V11  1  0.835828  0.666710  0.711718  1
  O  O12  1  0.142977  0.832090  0.608516  1
  O  O13  1  0.028898  0.515087  0.324160  1
  O  O14  1  0.323817  0.661602  0.105531  1
  O  O15  1  0.997927  0.998872  0.315670  1
  O  O16  1  0.005384  0.003026  0.814744  1
  O  O17  1  0.162562  0.312721  0.606984  1
  O  O18  1  0.482575  0.965182  0.325449  1
  O  O19  1  0.482066  0.517185  0.325599  1
  O  O20  1  0.306398  0.153069  0.107741  1
  O  O21  1  0.691805  0.856216  0.610583  1
  O  O22  1  0.533406  0.496416  0.823492  1
  O  O23  1  0.509753  0.032407  0.827034  1
  O  O24  1  0.663030  0.330960  0.604670  1
  O  O25  1  0.834946  0.687897  0.107096  1
  O  O26  1  0.971042  0.471860  0.824468  1
  O  O27  1  0.836801  0.147551  0.107342  1
