# generated using pymatgen
data_Sr2Ti6N2O11
_symmetry_space_group_name_H-M   'P 1'
_cell_length_a   3.85000240
_cell_length_b   7.85387062
_cell_length_c   9.32314881
_cell_angle_alpha   81.28341064
_cell_angle_beta   90.02329756
_cell_angle_gamma   75.79692564
_symmetry_Int_Tables_number   1
_chemical_formula_structural   Sr2Ti6N2O11
_chemical_formula_sum   'Sr2 Ti6 N2 O11'
_cell_volume   269.92623817
_cell_formula_units_Z   1
loop_
 _symmetry_equiv_pos_site_id
 _symmetry_equiv_pos_as_xyz
  1  'x, y, z'
loop_
 _atom_site_type_symbol
 _atom_site_label
 _atom_site_symmetry_multiplicity
 _atom_site_fract_x
 _atom_site_fract_y
 _atom_site_fract_z
 _atom_site_occupancy
  Sr  Sr0  1  0.556628  0.889547  0.761702  1
  Sr  Sr1  1  0.453322  0.088666  0.228295  1
  Ti  Ti2  1  0.124761  0.755658  0.086349  1
  Ti  Ti3  1  0.166873  0.668315  0.442016  1
  Ti  Ti4  1  0.244495  0.515327  0.757591  1
  Ti  Ti5  1  0.768685  0.463213  0.232394  1
  Ti  Ti6  1  0.835380  0.334743  0.565971  1
  Ti  Ti7  1  0.890070  0.224134  0.890741  1
  N  N8  1  0.295349  0.413707  0.580341  1
  N  N9  1  0.934459  0.135410  0.714464  1
  O  O10  1  0.068929  0.863418  0.294500  1
  O  O11  1  0.125014  0.754671  0.616645  1
  O  O12  1  0.156925  0.689771  0.904378  1
  O  O13  1  0.641480  0.718874  0.113090  1
  O  O14  1  0.698067  0.606243  0.425989  1
  O  O15  1  0.758778  0.487540  0.768201  1
  O  O16  1  0.241004  0.519724  0.238818  1
  O  O17  1  0.361782  0.282732  0.891875  1
  O  O18  1  0.840735  0.322149  0.099369  1
  O  O19  1  0.873718  0.255432  0.384018  1
  O  O20  1  0.003820  0.000202  0.011907  1
