# generated using pymatgen
data_KW5O13
_symmetry_space_group_name_H-M   'P 1'
_cell_length_a   7.49956663
_cell_length_b   7.50825299
_cell_length_c   39.21430644
_cell_angle_alpha   90.17074979
_cell_angle_beta   90.06077347
_cell_angle_gamma   119.84068593
_symmetry_Int_Tables_number   1
_chemical_formula_structural   KW5O13
_chemical_formula_sum   'K6 W30 O78'
_cell_volume   1915.32025010
_cell_formula_units_Z   6
loop_
 _symmetry_equiv_pos_site_id
 _symmetry_equiv_pos_as_xyz
  1  'x, y, z'
loop_
 _atom_site_type_symbol
 _atom_site_label
 _atom_site_symmetry_multiplicity
 _atom_site_fract_x
 _atom_site_fract_y
 _atom_site_fract_z
 _atom_site_occupancy
  K  K0  1  0.000034  0.995309  0.188890  1
  K  K1  1  0.999631  0.999725  0.313795  1
  K  K2  1  0.998480  0.996398  0.582629  1
  K  K3  1  0.000124  0.998694  0.697911  1
  K  K4  1  0.000256  0.000704  0.804094  1
  K  K5  1  0.999483  0.999858  0.916328  1
  W  W6  1  0.997298  0.498710  0.136592  1
  W  W7  1  0.999651  0.501407  0.345492  1
  W  W8  1  0.997298  0.496019  0.536781  1
  W  W9  1  0.999591  0.500141  0.753024  1
  W  W10  1  -0.000262  0.501198  0.944876  1
  W  W11  1  0.496051  0.004906  0.050760  1
  W  W12  1  0.500477  0.999652  0.251516  1
  W  W13  1  0.496305  0.005032  0.450768  1
  W  W14  1  0.500241  0.999244  0.650889  1
  W  W15  1  0.499819  0.001139  0.850679  1
  W  W16  1  0.500773  0.995237  0.150175  1
  W  W17  1  0.500064  0.000924  0.350625  1
  W  W18  1  0.498592  0.996113  0.550080  1
  W  W19  1  0.499961  0.998937  0.750822  1
  W  W20  1  0.500098  0.000799  0.950222  1
  W  W21  1  0.496217  0.493473  0.152812  1
  W  W22  1  0.499165  0.500287  0.347207  1
  W  W23  1  0.497935  0.496109  0.554806  1
  W  W24  1  0.499089  0.498496  0.751445  1
  W  W25  1  0.499448  0.500353  0.946273  1
  W  W26  1  0.505500  0.509526  0.044949  1
  W  W27  1  0.501295  0.500002  0.250484  1
  W  W28  1  0.505823  0.510045  0.446025  1
  W  W29  1  0.500834  0.499670  0.653581  1
  W  W30  1  0.501205  0.501746  0.848915  1
  W  W31  1  0.002109  0.499151  0.062348  1
  W  W32  1  0.000871  0.498828  0.254273  1
  W  W33  1  0.002241  0.499883  0.462075  1
  W  W34  1  0.000592  0.498913  0.650525  1
  W  W35  1  0.000556  0.499758  0.851018  1
  O  O36  1  0.211694  0.789201  0.147154  1
  O  O37  1  0.203098  0.784268  0.348352  1
  O  O38  1  0.188272  0.770266  0.548067  1
  O  O39  1  0.212902  0.797493  0.750364  1
  O  O40  1  0.201948  0.783052  0.947540  1
  O  O41  1  0.205987  0.777475  0.053293  1
  O  O42  1  0.217318  0.796974  0.249262  1
  O  O43  1  0.206811  0.778320  0.454022  1
  O  O44  1  0.201383  0.781242  0.651075  1
  O  O45  1  0.213935  0.797098  0.849398  1
  O  O46  1  0.239372  0.438601  0.060622  1
  O  O47  1  0.202877  0.417107  0.250332  1
  O  O48  1  0.238389  0.439372  0.461369  1
  O  O49  1  0.215725  0.415908  0.649892  1
  O  O50  1  0.208054  0.420859  0.849874  1
  O  O51  1  0.497798  0.999277  0.099357  1
  O  O52  1  0.500345  0.001139  0.299306  1
  O  O53  1  0.497714  0.999484  0.500779  1
  O  O54  1  0.501903  0.996363  0.197950  1
  O  O55  1  0.499860  0.000153  0.701134  1
  O  O56  1  0.498484  0.003646  0.403451  1
  O  O57  1  0.500159  0.995175  0.598217  1
  O  O58  1  0.500952  0.001269  0.899015  1
  O  O59  1  0.499499  0.999482  0.799807  1
  O  O60  1  0.227548  0.427555  0.140440  1
  O  O61  1  0.216572  0.420600  0.349337  1
  O  O62  1  0.228843  0.430414  0.541064  1
  O  O63  1  0.200162  0.416223  0.750857  1
  O  O64  1  0.216434  0.419451  0.946300  1
  O  O65  1  0.576665  0.781207  0.147917  1
  O  O66  1  0.573375  0.788431  0.350762  1
  O  O67  1  0.585785  0.779707  0.548607  1
  O  O68  1  0.578169  0.785839  0.750247  1
  O  O69  1  0.574581  0.788084  0.949741  1
  O  O70  1  0.576995  0.789730  0.050339  1
  O  O71  1  0.577578  0.785898  0.248821  1
  O  O72  1  0.577103  0.791531  0.451648  1
  O  O73  1  0.576471  0.787183  0.650319  1
  O  O74  1  0.578721  0.787831  0.849459  1
  O  O75  1  0.499124  0.500331  0.998848  1
  O  O76  1  0.506455  0.503087  0.198574  1
  O  O77  1  0.498531  0.499119  0.300447  1
  O  O78  1  0.505181  0.502984  0.600770  1
  O  O79  1  0.497970  0.497248  0.700059  1
  O  O80  1  0.499418  0.501166  0.400704  1
  O  O81  1  0.500859  0.500557  0.801344  1
  O  O82  1  0.500131  0.501598  0.898399  1
  O  O83  1  0.418398  0.209527  0.149245  1
  O  O84  1  0.425397  0.213302  0.350507  1
  O  O85  1  0.409633  0.211557  0.550046  1
  O  O86  1  0.420628  0.212377  0.750412  1
  O  O87  1  0.424570  0.213657  0.949250  1
  O  O88  1  0.427369  0.220462  0.051440  1
  O  O89  1  0.424170  0.213092  0.248114  1
  O  O90  1  0.428689  0.220601  0.452640  1
  O  O91  1  0.425548  0.211743  0.649458  1
  O  O92  1  0.422203  0.213928  0.849408  1
  O  O93  1  0.798987  0.581085  0.251279  1
  O  O94  1  0.769429  0.568523  0.059050  1
  O  O95  1  0.771187  0.570032  0.459965  1
  O  O96  1  0.786097  0.582740  0.650941  1
  O  O97  1  0.793086  0.579336  0.850305  1
  O  O98  1  0.497846  0.003140  0.002629  1
  O  O99  1  0.763374  0.563676  0.138265  1
  O  O100  1  0.782359  0.581913  0.349415  1
  O  O101  1  0.763644  0.558847  0.539377  1
  O  O102  1  0.798722  0.583558  0.750954  1
  O  O103  1  0.782786  0.582497  0.946521  1
  O  O104  1  0.785863  0.205936  0.147024  1
  O  O105  1  0.796318  0.218729  0.348858  1
  O  O106  1  0.807600  0.222174  0.548342  1
  O  O107  1  0.786179  0.202345  0.750826  1
  O  O108  1  0.797746  0.219555  0.948143  1
  O  O109  1  0.794005  0.224453  0.054031  1
  O  O110  1  0.783994  0.200905  0.249498  1
  O  O111  1  0.793863  0.225191  0.454764  1
  O  O112  1  0.799629  0.216936  0.651509  1
  O  O113  1  0.786685  0.202804  0.849470  1
