# generated using pymatgen
data_Zr2N2O
_symmetry_space_group_name_H-M   'P 1'
_cell_length_a   8.88670853
_cell_length_b   8.88360740
_cell_length_c   8.85381926
_cell_angle_alpha   109.26607492
_cell_angle_beta   109.42624828
_cell_angle_gamma   109.68513464
_symmetry_Int_Tables_number   1
_chemical_formula_structural   Zr2N2O
_chemical_formula_sum   'Zr16 N16 O8'
_cell_volume   538.30511925
_cell_formula_units_Z   8
loop_
 _symmetry_equiv_pos_site_id
 _symmetry_equiv_pos_as_xyz
  1  'x, y, z'
loop_
 _atom_site_type_symbol
 _atom_site_label
 _atom_site_symmetry_multiplicity
 _atom_site_fract_x
 _atom_site_fract_y
 _atom_site_fract_z
 _atom_site_occupancy
  Zr  Zr0  1  0.498876  0.998144  0.987233  1
  Zr  Zr1  1  0.758767  0.294839  0.546986  1
  Zr  Zr2  1  0.720657  0.471360  0.249860  1
  Zr  Zr3  1  0.208238  0.958592  0.243655  1
  Zr  Zr4  1  0.245710  0.211145  0.952096  1
  Zr  Zr5  1  0.027860  0.742371  0.774598  1
  Zr  Zr6  1  0.532239  0.747309  0.289819  1
  Zr  Zr7  1  0.963886  0.250452  0.216653  1
  Zr  Zr8  1  0.503117  0.507838  0.512266  1
  Zr  Zr9  1  0.999688  0.999370  0.498897  1
  Zr  Zr10  1  0.470017  0.257910  0.724610  1
  Zr  Zr11  1  0.999120  0.508207  0.999467  1
  Zr  Zr12  1  0.758192  0.789501  0.040059  1
  Zr  Zr13  1  0.284323  0.533718  0.744823  1
  Zr  Zr14  1  0.781650  0.031485  0.753167  1
  Zr  Zr15  1  0.248188  0.705880  0.462067  1
  N  N16  1  0.726837  0.993128  0.958013  1
  N  N17  1  0.509992  0.237907  0.970376  1
  N  N18  1  0.015463  0.047133  0.276163  1
  N  N19  1  0.767798  0.728147  0.262937  1
  N  N20  1  0.726818  0.256849  0.768764  1
  N  N21  1  0.767636  0.537780  0.527392  1
  N  N22  1  0.274724  0.741246  0.227019  1
  N  N23  1  0.956613  0.728309  0.987770  1
  N  N24  1  0.538844  0.770414  0.542535  1
  N  N25  1  0.989145  0.958518  0.730502  1
  N  N26  1  0.226532  0.270666  0.738291  1
  N  N27  1  0.547539  0.533008  0.773217  1
  N  N28  1  0.229259  0.455092  0.466560  1
  N  N29  1  0.963777  0.506457  0.237335  1
  N  N30  1  0.033339  0.484930  0.758752  1
  N  N31  1  0.265119  0.779717  0.729937  1
  O  O32  1  0.278405  0.014831  0.053087  1
  O  O33  1  0.760845  0.034420  0.482185  1
  O  O34  1  0.737499  0.219140  0.275356  1
  O  O35  1  0.051349  0.274890  0.017825  1
  O  O36  1  0.444364  0.463807  0.222819  1
  O  O37  1  0.237101  0.966545  0.509187  1
  O  O38  1  0.461049  0.224428  0.452106  1
  O  O39  1  0.489423  0.764518  0.035618  1
