# generated using pymatgen
data_Fe4O7F
_symmetry_space_group_name_H-M   'P 1'
_cell_length_a   4.61568172
_cell_length_b   4.61568172
_cell_length_c   12.05722855
_cell_angle_alpha   90.00000000
_cell_angle_beta   90.00000000
_cell_angle_gamma   91.84961283
_symmetry_Int_Tables_number   1
_chemical_formula_structural   Fe4O7F
_chemical_formula_sum   'Fe8 O14 F2'
_cell_volume   256.73960476
_cell_formula_units_Z   2
loop_
 _symmetry_equiv_pos_site_id
 _symmetry_equiv_pos_as_xyz
  1  'x, y, z'
loop_
 _atom_site_type_symbol
 _atom_site_label
 _atom_site_symmetry_multiplicity
 _atom_site_fract_x
 _atom_site_fract_y
 _atom_site_fract_z
 _atom_site_occupancy
  Fe  Fe0  1  0.005114  0.994886  0.004199  1
  Fe  Fe1  1  0.994886  0.005114  0.245801  1
  Fe  Fe2  1  0.994886  0.005114  0.504199  1
  Fe  Fe3  1  0.005114  0.994886  0.745801  1
  Fe  Fe4  1  0.500000  0.500000  0.125000  1
  Fe  Fe5  1  0.500000  0.500000  0.625000  1
  Fe  Fe6  1  0.477793  0.522207  0.875000  1
  Fe  Fe7  1  0.522207  0.477793  0.375000  1
  O  O8  1  0.195378  0.804622  0.128282  1
  O  O9  1  0.195378  0.804622  0.621718  1
  O  O10  1  0.178609  0.821391  0.875000  1
  O  O11  1  0.302848  0.311680  -0.000107  1
  O  O12  1  0.311680  0.302848  0.250107  1
  O  O13  1  0.311680  0.302848  0.499893  1
  O  O14  1  0.302848  0.311680  0.750107  1
  O  O15  1  0.688320  0.697152  -0.000107  1
  O  O16  1  0.697152  0.688320  0.250107  1
  O  O17  1  0.697152  0.688320  0.499893  1
  O  O18  1  0.688320  0.697152  0.750107  1
  O  O19  1  0.804622  0.195378  0.121718  1
  O  O20  1  0.821391  0.178609  0.375000  1
  O  O21  1  0.804622  0.195378  0.628282  1
  F  F22  1  0.204029  0.795971  0.375000  1
  F  F23  1  0.795971  0.204029  0.875000  1
