# generated using pymatgen
data_Li3MnPCO7
_symmetry_space_group_name_H-M   'P 1'
_cell_length_a   5.28065769
_cell_length_b   6.71092898
_cell_length_c   8.33001354
_cell_angle_alpha   90.11385525
_cell_angle_beta   90.10536013
_cell_angle_gamma   90.00523318
_symmetry_Int_Tables_number   1
_chemical_formula_structural   Li3MnPCO7
_chemical_formula_sum   'Li6 Mn2 P2 C2 O14'
_cell_volume   295.19892525
_cell_formula_units_Z   2
loop_
 _symmetry_equiv_pos_site_id
 _symmetry_equiv_pos_as_xyz
  1  'x, y, z'
loop_
 _atom_site_type_symbol
 _atom_site_label
 _atom_site_symmetry_multiplicity
 _atom_site_fract_x
 _atom_site_fract_y
 _atom_site_fract_z
 _atom_site_occupancy
  Li  Li0  1  0.400199  0.274715  0.033371  1
  Li  Li1  1  0.400781  0.725815  0.034266  1
  Li  Li2  1  0.466548  0.000489  0.396423  1
  Li  Li3  1  0.899044  0.225407  0.599587  1
  Li  Li4  1  0.900031  0.774033  0.598849  1
  Li  Li5  1  0.965740  0.499431  0.236239  1
  Mn  Mn6  1  0.476738  0.499935  0.642382  1
  Mn  Mn7  1  0.977281  0.000098  0.990353  1
  P  P8  1  0.032631  0.500116  0.907352  1
  P  P9  1  0.531431  0.999906  0.725470  1
  C  C10  1  0.491333  0.499872  0.326491  1
  C  C11  1  0.989172  0.000089  0.306275  1
  O  O12  1  0.996776  0.999951  0.460468  1
  O  O13  1  0.201644  0.999388  0.224106  1
  O  O14  1  0.275262  0.498948  0.401491  1
  O  O15  1  0.322951  0.501100  0.869689  1
  O  O16  1  0.384405  0.001102  0.887049  1
  O  O17  1  0.481090  0.816103  0.616418  1
  O  O18  1  0.483790  0.183740  0.616404  1
  O  O19  1  0.501111  0.500040  0.172399  1
  O  O20  1  0.702833  0.500589  0.410148  1
  O  O21  1  0.774046  0.000981  0.229815  1
  O  O22  1  0.821933  0.998872  0.763190  1
  O  O23  1  0.884762  0.498988  0.745793  1
  O  O24  1  0.983066  0.683971  0.016393  1
  O  O25  1  0.985432  0.316308  0.016431  1
