# generated using pymatgen
data_LiVFe(P2O7)2
_symmetry_space_group_name_H-M   'P 1'
_cell_length_a   4.87691192
_cell_length_b   8.10118371
_cell_length_c   7.00919931
_cell_angle_alpha   89.87036379
_cell_angle_beta   108.37120291
_cell_angle_gamma   90.32290083
_symmetry_Int_Tables_number   1
_chemical_formula_structural   LiVFe(P2O7)2
_chemical_formula_sum   'Li1 V1 Fe1 P4 O14'
_cell_volume   262.80696220
_cell_formula_units_Z   1
loop_
 _symmetry_equiv_pos_site_id
 _symmetry_equiv_pos_as_xyz
  1  'x, y, z'
loop_
 _atom_site_type_symbol
 _atom_site_label
 _atom_site_symmetry_multiplicity
 _atom_site_fract_x
 _atom_site_fract_y
 _atom_site_fract_z
 _atom_site_occupancy
  Li  Li0  1  0.825646  0.361129  0.328153  1
  V  V1  1  0.217805  0.507013  0.727800  1
  Fe  Fe2  1  0.792259  0.994796  0.275462  1
  P  P3  1  0.400182  0.178911  0.521539  1
  P  P4  1  0.215829  0.781076  0.084170  1
  P  P5  1  0.782595  0.284976  0.910817  1
  P  P6  1  0.600397  0.680902  0.477377  1
  O  O7  1  0.045614  0.337289  0.847668  1
  O  O8  1  0.135405  0.679580  0.889551  1
  O  O9  1  0.181992  0.039927  0.473134  1
  O  O10  1  0.249672  0.348160  0.518263  1
  O  O11  1  0.400336  0.664380  0.609097  1
  O  O12  1  0.592449  0.436912  0.911593  1
  O  O13  1  0.600489  0.150949  0.753257  1
  O  O14  1  0.403202  0.645694  0.249746  1
  O  O15  1  0.406007  0.931018  0.086111  1
  O  O16  1  0.601461  0.185817  0.392937  1
  O  O17  1  0.732267  0.851163  0.491533  1
  O  O18  1  0.823322  0.539944  0.520154  1
  O  O19  1  0.872103  0.201012  0.115248  1
  O  O20  1  0.945773  0.821032  0.138800  1
