# generated using pymatgen
data_BaY3F11
_symmetry_space_group_name_H-M   'P 1'
_cell_length_a   8.45650693
_cell_length_b   8.63145966
_cell_length_c   7.73761936
_cell_angle_alpha   60.53573027
_cell_angle_beta   61.09750595
_cell_angle_gamma   77.40909583
_symmetry_Int_Tables_number   1
_chemical_formula_structural   BaY3F11
_chemical_formula_sum   'Ba2 Y6 F22'
_cell_volume   430.34307550
_cell_formula_units_Z   2
loop_
 _symmetry_equiv_pos_site_id
 _symmetry_equiv_pos_as_xyz
  1  'x, y, z'
loop_
 _atom_site_type_symbol
 _atom_site_label
 _atom_site_symmetry_multiplicity
 _atom_site_fract_x
 _atom_site_fract_y
 _atom_site_fract_z
 _atom_site_occupancy
  Ba  Ba0  1  0.247055  0.662663  0.779250  1
  Ba  Ba1  1  0.752945  0.337337  0.220750  1
  Y  Y2  1  0.250791  0.210216  0.267962  1
  Y  Y3  1  0.266124  0.712595  0.250586  1
  Y  Y4  1  0.250109  0.159991  0.782977  1
  Y  Y5  1  0.749891  0.840009  0.217023  1
  Y  Y6  1  0.733876  0.287405  0.749414  1
  Y  Y7  1  0.749209  0.789784  0.732038  1
  F  F8  1  0.047168  0.830882  0.124854  1
  F  F9  1  0.950231  0.226927  0.466380  1
  F  F10  1  0.196760  0.501261  0.205525  1
  F  F11  1  0.276739  0.022384  0.128360  1
  F  F12  1  0.877126  0.688221  0.983592  1
  F  F13  1  0.234190  0.468114  0.579795  1
  F  F14  1  0.401250  0.258312  0.409028  1
  F  F15  1  0.190839  0.006993  0.618611  1
  F  F16  1  0.605298  0.109921  0.141922  1
  F  F17  1  0.459735  0.767226  0.338860  1
  F  F18  1  0.540945  0.620622  0.075522  1
  F  F19  1  0.459055  0.379378  0.924478  1
  F  F20  1  0.540265  0.232774  0.661140  1
  F  F21  1  0.394702  0.890079  0.858078  1
  F  F22  1  0.809161  0.993007  0.381389  1
  F  F23  1  0.598750  0.741688  0.590972  1
  F  F24  1  0.765810  0.531886  0.420205  1
  F  F25  1  0.122874  0.311779  0.016408  1
  F  F26  1  0.723261  0.977616  0.871640  1
  F  F27  1  0.803240  0.498739  0.794474  1
  F  F28  1  0.049769  0.773073  0.533620  1
  F  F29  1  0.952832  0.169118  0.875146  1
