# generated using pymatgen
data_Fe3OF5
_symmetry_space_group_name_H-M   'P 1'
_cell_length_a   4.83578775
_cell_length_b   14.45084106
_cell_length_c   3.17908018
_cell_angle_alpha   89.99974361
_cell_angle_beta   90.00002487
_cell_angle_gamma   90.00586132
_symmetry_Int_Tables_number   1
_chemical_formula_structural   Fe3OF5
_chemical_formula_sum   'Fe6 O2 F10'
_cell_volume   222.15793708
_cell_formula_units_Z   2
loop_
 _symmetry_equiv_pos_site_id
 _symmetry_equiv_pos_as_xyz
  1  'x, y, z'
loop_
 _atom_site_type_symbol
 _atom_site_label
 _atom_site_symmetry_multiplicity
 _atom_site_fract_x
 _atom_site_fract_y
 _atom_site_fract_z
 _atom_site_occupancy
  Fe  Fe0  1  0.015646  0.004281  0.000002  1
  Fe  Fe1  1  0.989427  0.333848  0.999999  1
  Fe  Fe2  1  0.032215  0.656981  0.999997  1
  Fe  Fe3  1  0.467899  0.156780  0.499999  1
  Fe  Fe4  1  0.484331  0.504236  0.499999  1
  Fe  Fe5  1  0.510469  0.834086  0.500000  1
  O  O6  1  0.191204  0.604480  0.499999  1
  O  O7  1  0.309033  0.104625  0.000001  1
  F  F8  1  0.206527  0.266696  0.500000  1
  F  F9  1  0.204330  0.929540  0.500002  1
  F  F10  1  0.293288  0.766586  0.000001  1
  F  F11  1  0.295864  0.429602  0.000003  1
  F  F12  1  0.689242  0.230939  0.999998  1
  F  F13  1  0.708236  0.570776  0.999999  1
  F  F14  1  0.711029  0.902385  0.999998  1
  F  F15  1  0.791605  0.070870  0.500004  1
  F  F16  1  0.788759  0.402451  0.499999  1
  F  F17  1  0.810896  0.730838  0.500000  1
