# generated using pymatgen
data_Mn3(O2F)2
_symmetry_space_group_name_H-M   'P 1'
_cell_length_a   4.67607567
_cell_length_b   13.95335610
_cell_length_c   3.03833495
_cell_angle_alpha   89.99994471
_cell_angle_beta   90.00006460
_cell_angle_gamma   90.00337697
_symmetry_Int_Tables_number   1
_chemical_formula_structural   Mn3(O2F)2
_chemical_formula_sum   'Mn6 O8 F4'
_cell_volume   198.24208513
_cell_formula_units_Z   2
loop_
 _symmetry_equiv_pos_site_id
 _symmetry_equiv_pos_as_xyz
  1  'x, y, z'
loop_
 _atom_site_type_symbol
 _atom_site_label
 _atom_site_symmetry_multiplicity
 _atom_site_fract_x
 _atom_site_fract_y
 _atom_site_fract_z
 _atom_site_occupancy
  Mn  Mn0  1  0.924627  0.007102  -0.000000  1
  Mn  Mn1  1  0.999998  0.333331  0.000004  1
  Mn  Mn2  1  0.075388  0.659572  -0.000001  1
  Mn  Mn3  1  0.424519  0.159624  0.499992  1
  Mn  Mn4  1  0.575461  0.507085  0.499998  1
  Mn  Mn5  1  0.499996  0.833328  0.500003  1
  O  O6  1  0.178664  0.268161  0.500000  1
  O  O7  1  0.261215  0.600237  0.500001  1
  O  O8  1  0.238811  0.100255  0.999998  1
  O  O9  1  0.321329  0.768155  0.000001  1
  O  O10  1  0.761210  0.566410  0.000000  1
  O  O11  1  0.678675  0.898501  0.000002  1
  O  O12  1  0.738772  0.066426  0.500001  1
  O  O13  1  0.821328  0.398499  0.500000  1
  F  F14  1  0.146522  0.941636  0.500000  1
  F  F15  1  0.353519  0.441641  0.000000  1
  F  F16  1  0.646477  0.225015  -0.000001  1
  F  F17  1  0.853489  0.725017  0.500001  1
