# generated using pymatgen
data_LiTi(PO3)4
_symmetry_space_group_name_H-M   'P 1'
_cell_length_a   7.32659398
_cell_length_b   7.72005239
_cell_length_c   8.44121850
_cell_angle_alpha   90.00000000
_cell_angle_beta   90.00000000
_cell_angle_gamma   94.43843378
_symmetry_Int_Tables_number   1
_chemical_formula_structural   LiTi(PO3)4
_chemical_formula_sum   'Li2 Ti2 P8 O24'
_cell_volume   476.01773840
_cell_formula_units_Z   2
loop_
 _symmetry_equiv_pos_site_id
 _symmetry_equiv_pos_as_xyz
  1  'x, y, z'
loop_
 _atom_site_type_symbol
 _atom_site_label
 _atom_site_symmetry_multiplicity
 _atom_site_fract_x
 _atom_site_fract_y
 _atom_site_fract_z
 _atom_site_occupancy
  Li  Li0  1  0.251990  0.868373  0.695507  1
  Li  Li1  1  0.748010  0.131627  0.195507  1
  Ti  Ti2  1  0.247240  0.318045  0.504322  1
  Ti  Ti3  1  0.752760  0.681955  0.004322  1
  P  P4  1  0.078278  0.966651  0.280746  1
  P  P5  1  0.070545  0.379752  0.884418  1
  P  P6  1  0.355711  0.810170  0.068027  1
  P  P7  1  0.372800  0.443950  0.130925  1
  P  P8  1  0.627200  0.556050  0.630925  1
  P  P9  1  0.644289  0.189830  0.568027  1
  P  P10  1  0.929455  0.620248  0.384418  1
  P  P11  1  0.921722  0.033349  0.780746  1
  O  O12  1  0.061988  0.798837  0.397626  1
  O  O13  1  0.042952  0.476462  0.430507  1
  O  O14  1  0.276159  0.806226  0.906581  1
  O  O15  1  0.084272  0.039468  0.675406  1
  O  O16  1  0.169103  0.389829  0.728295  1
  O  O17  1  0.264805  0.943836  0.184053  1
  O  O18  1  0.117222  0.125645  0.379650  1
  O  O19  1  0.216000  0.343945  0.022190  1
  O  O20  1  0.294940  0.630511  0.160800  1
  O  O21  1  0.373055  0.348588  0.285089  1
  O  O22  1  0.561640  0.848697  0.085026  1
  O  O23  1  0.447555  0.535442  0.544503  1
  O  O24  1  0.552445  0.464558  0.044503  1
  O  O25  1  0.438360  0.151303  0.585026  1
  O  O26  1  0.626945  0.651412  0.785089  1
  O  O27  1  0.705060  0.369489  0.660800  1
  O  O28  1  0.784000  0.656055  0.522190  1
  O  O29  1  0.882778  0.874355  0.879650  1
  O  O30  1  0.735195  0.056164  0.684053  1
  O  O31  1  0.830897  0.610171  0.228295  1
  O  O32  1  0.915728  0.960532  0.175406  1
  O  O33  1  0.723841  0.193774  0.406581  1
  O  O34  1  0.957048  0.523538  0.930507  1
  O  O35  1  0.938012  0.201163  0.897626  1
