# generated using pymatgen
data_VH24C8S2N2O9
_symmetry_space_group_name_H-M   'P 1'
_cell_length_a   13.36198382
_cell_length_b   9.39929515
_cell_length_c   14.50538444
_cell_angle_alpha   90.00000000
_cell_angle_beta   95.13035239
_cell_angle_gamma   90.00000000
_symmetry_Int_Tables_number   1
_chemical_formula_structural   VH24C8S2N2O9
_chemical_formula_sum   'V4 H96 C32 S8 N8 O36'
_cell_volume   1814.47973451
_cell_formula_units_Z   4
loop_
 _symmetry_equiv_pos_site_id
 _symmetry_equiv_pos_as_xyz
  1  'x, y, z'
loop_
 _atom_site_type_symbol
 _atom_site_label
 _atom_site_symmetry_multiplicity
 _atom_site_fract_x
 _atom_site_fract_y
 _atom_site_fract_z
 _atom_site_occupancy
  V  V0  1  0.351845  0.059538  0.058681  1
  V  V1  1  0.851845  0.440462  0.558681  1
  V  V2  1  0.648155  0.940462  0.941319  1
  V  V3  1  0.148155  0.559538  0.441319  1
  H  H4  1  0.073167  0.447873  0.106855  1
  H  H5  1  0.573167  0.052127  0.606855  1
  H  H6  1  0.926833  0.552127  0.893145  1
  H  H7  1  0.426833  0.947873  0.393145  1
  H  H8  1  0.982244  0.587075  0.117073  1
  H  H9  1  0.482244  0.912925  0.617073  1
  H  H10  1  0.017756  0.412925  0.882927  1
  H  H11  1  0.517756  0.087075  0.382927  1
  H  H12  1  0.061600  0.530961  0.217013  1
  H  H13  1  0.561600  0.969039  0.717013  1
  H  H14  1  0.938400  0.469039  0.782987  1
  H  H15  1  0.438400  0.030961  0.282987  1
  H  H16  1  0.291526  0.685853  0.135507  1
  H  H17  1  0.791526  0.814147  0.635507  1
  H  H18  1  0.708474  0.314147  0.864493  1
  H  H19  1  0.208474  0.185853  0.364493  1
  H  H20  1  0.250881  0.503557  0.123443  1
  H  H21  1  0.750881  0.996443  0.623443  1
  H  H22  1  0.749119  0.496443  0.876557  1
  H  H23  1  0.249119  0.003557  0.376557  1
  H  H24  1  0.240942  0.596610  0.230467  1
  H  H25  1  0.740942  0.903390  0.730467  1
  H  H26  1  0.759058  0.403390  0.769533  1
  H  H27  1  0.259058  0.096610  0.269533  1
  H  H28  1  0.186818  0.757849  0.002920  1
  H  H29  1  0.686818  0.742151  0.502920  1
  H  H30  1  0.813182  0.242151  0.997080  1
  H  H31  1  0.313182  0.257849  0.497080  1
  H  H32  1  0.054297  0.719117  0.993076  1
  H  H33  1  0.554297  0.780883  0.493076  1
  H  H34  1  0.945703  0.280883  0.006924  1
  H  H35  1  0.445703  0.219117  0.506924  1
  H  H36  1  0.144246  0.578337  0.984463  1
  H  H37  1  0.644246  0.921663  0.484463  1
  H  H38  1  0.855754  0.421663  0.015537  1
  H  H39  1  0.355754  0.078337  0.515537  1
  H  H40  1  0.113555  0.775245  0.242198  1
  H  H41  1  0.613555  0.724755  0.742198  1
  H  H42  1  0.886445  0.224755  0.757802  1
  H  H43  1  0.386445  0.275245  0.257802  1
  H  H44  1  0.035434  0.829041  0.140950  1
  H  H45  1  0.535434  0.670959  0.640950  1
  H  H46  1  0.964566  0.170959  0.859050  1
  H  H47  1  0.464566  0.329041  0.359050  1
  H  H48  1  0.166203  0.873921  0.151919  1
  H  H49  1  0.666203  0.626079  0.651919  1
  H  H50  1  0.833797  0.126079  0.848081  1
  H  H51  1  0.333797  0.373921  0.348081  1
  H  H52  1  0.373412  0.591306  0.741698  1
  H  H53  1  0.873412  0.908694  0.241698  1
  H  H54  1  0.626588  0.408694  0.258302  1
  H  H55  1  0.126588  0.091306  0.758302  1
  H  H56  1  0.289017  0.463833  0.683607  1
  H  H57  1  0.789017  0.036167  0.183607  1
  H  H58  1  0.710983  0.536167  0.316393  1
  H  H59  1  0.210983  0.963833  0.816393  1
  H  H60  1  0.418514  0.466785  0.660688  1
  H  H61  1  0.918514  0.033215  0.160688  1
  H  H62  1  0.581486  0.533215  0.339312  1
  H  H63  1  0.081486  0.966785  0.839312  1
  H  H64  1  0.548079  0.400401  0.786550  1
  H  H65  1  0.048079  0.099599  0.286550  1
  H  H66  1  0.451921  0.599599  0.213450  1
  H  H67  1  0.951921  0.900401  0.713450  1
  H  H68  1  0.509983  0.339315  0.895604  1
  H  H69  1  0.009983  0.160685  0.395604  1
  H  H70  1  0.490017  0.660685  0.104396  1
  H  H71  1  0.990017  0.839315  0.604396  1
  H  H72  1  0.492356  0.522412  0.862687  1
  H  H73  1  0.992356  0.977588  0.362687  1
  H  H74  1  0.507644  0.477588  0.137313  1
  H  H75  1  0.007644  0.022412  0.637313  1
  H  H76  1  0.447231  0.225612  0.701121  1
  H  H77  1  0.947231  0.274388  0.201121  1
  H  H78  1  0.552769  0.774388  0.298879  1
  H  H79  1  0.052769  0.725612  0.798879  1
  H  H80  1  0.315324  0.211050  0.715118  1
  H  H81  1  0.815324  0.288950  0.215118  1
  H  H82  1  0.684676  0.788950  0.284882  1
  H  H83  1  0.184676  0.711050  0.784882  1
  H  H84  1  0.406441  0.153580  0.806370  1
  H  H85  1  0.906441  0.346420  0.306370  1
  H  H86  1  0.593559  0.846420  0.193630  1
  H  H87  1  0.093559  0.653580  0.693630  1
  H  H88  1  0.332601  0.312969  0.915491  1
  H  H89  1  0.832601  0.187031  0.415491  1
  H  H90  1  0.667399  0.687031  0.084509  1
  H  H91  1  0.167399  0.812969  0.584509  1
  H  H92  1  0.239486  0.361983  0.824103  1
  H  H93  1  0.739486  0.138017  0.324103  1
  H  H94  1  0.760514  0.638017  0.175897  1
  H  H95  1  0.260514  0.861983  0.675897  1
  H  H96  1  0.313554  0.496885  0.887138  1
  H  H97  1  0.813554  0.003115  0.387138  1
  H  H98  1  0.686446  0.503115  0.112862  1
  H  H99  1  0.186446  0.996885  0.612862  1
  C  C100  1  0.056712  0.547150  0.142004  1
  C  C101  1  0.556712  0.952850  0.642004  1
  C  C102  1  0.943288  0.452850  0.857996  1
  C  C103  1  0.443288  0.047150  0.357996  1
  C  C104  1  0.236989  0.606803  0.155024  1
  C  C105  1  0.736989  0.893197  0.655024  1
  C  C106  1  0.763011  0.393197  0.844976  1
  C  C107  1  0.263011  0.106803  0.344976  1
  C  C108  1  0.129280  0.680118  0.017423  1
  C  C109  1  0.629280  0.819882  0.517423  1
  C  C110  1  0.870720  0.319881  0.982577  1
  C  C111  1  0.370720  0.180118  0.482577  1
  C  C112  1  0.110632  0.794071  0.167494  1
  C  C113  1  0.610632  0.705929  0.667494  1
  C  C114  1  0.889368  0.205929  0.832506  1
  C  C115  1  0.389368  0.294071  0.332506  1
  C  C116  1  0.365940  0.483242  0.713436  1
  C  C117  1  0.865940  0.016758  0.213436  1
  C  C118  1  0.634060  0.516758  0.286564  1
  C  C119  1  0.134060  0.983242  0.786564  1
  C  C120  1  0.492915  0.412462  0.837514  1
  C  C121  1  0.992915  0.087538  0.337514  1
  C  C122  1  0.507085  0.587538  0.162486  1
  C  C123  1  0.007085  0.912462  0.662486  1
  C  C124  1  0.389966  0.230834  0.750558  1
  C  C125  1  0.889966  0.269166  0.250558  1
  C  C126  1  0.610034  0.769166  0.249442  1
  C  C127  1  0.110034  0.730834  0.749442  1
  C  C128  1  0.313051  0.388411  0.859322  1
  C  C129  1  0.813051  0.111589  0.359322  1
  C  C130  1  0.686949  0.611589  0.140678  1
  C  C131  1  0.186949  0.888411  0.640678  1
  S  S132  1  0.417308  0.838212  0.903077  1
  S  S133  1  0.917308  0.661788  0.403077  1
  S  S134  1  0.582692  0.161788  0.096923  1
  S  S135  1  0.082692  0.338212  0.596923  1
  S  S136  1  0.169794  0.180031  0.052945  1
  S  S137  1  0.669794  0.319969  0.552945  1
  S  S138  1  0.830206  0.819969  0.947055  1
  S  S139  1  0.330206  0.680031  0.447055  1
  N  N140  1  0.133395  0.656732  0.120388  1
  N  N141  1  0.633395  0.843268  0.620388  1
  N  N142  1  0.866605  0.343268  0.879612  1
  N  N143  1  0.366605  0.156732  0.379612  1
  N  N144  1  0.390668  0.378569  0.790546  1
  N  N145  1  0.890668  0.121431  0.290546  1
  N  N146  1  0.609332  0.621431  0.209454  1
  N  N147  1  0.109332  0.878569  0.709454  1
  O  O148  1  0.367831  0.940158  0.140053  1
  O  O149  1  0.867831  0.559842  0.640053  1
  O  O150  1  0.632169  0.059842  0.859947  1
  O  O151  1  0.132169  0.440158  0.359947  1
  O  O152  1  0.396317  0.986663  0.940109  1
  O  O153  1  0.896317  0.513337  0.440109  1
  O  O154  1  0.603683  0.013337  0.059891  1
  O  O155  1  0.103683  0.486663  0.559891  1
  O  O156  1  0.529476  0.810453  0.927489  1
  O  O157  1  0.029476  0.689547  0.427489  1
  O  O158  1  0.470524  0.189547  0.072511  1
  O  O159  1  0.970524  0.310453  0.572511  1
  O  O160  1  0.396306  0.842049  0.802639  1
  O  O161  1  0.896306  0.657951  0.302639  1
  O  O162  1  0.603694  0.157951  0.197361  1
  O  O163  1  0.103694  0.342049  0.697361  1
  O  O164  1  0.361362  0.729461  0.949252  1
  O  O165  1  0.861362  0.770539  0.449252  1
  O  O166  1  0.638638  0.270539  0.050748  1
  O  O167  1  0.138638  0.229461  0.550748  1
  O  O168  1  0.205979  0.046039  0.004035  1
  O  O169  1  0.705979  0.453961  0.504035  1
  O  O170  1  0.794021  0.953961  0.995965  1
  O  O171  1  0.294021  0.546039  0.495965  1
  O  O172  1  0.098536  0.144906  0.120099  1
  O  O173  1  0.598536  0.355094  0.620099  1
  O  O174  1  0.901464  0.855094  0.879901  1
  O  O175  1  0.401464  0.644906  0.379901  1
  O  O176  1  0.272556  0.226542  0.102082  1
  O  O177  1  0.772556  0.273458  0.602082  1
  O  O178  1  0.727444  0.773458  0.897918  1
  O  O179  1  0.227444  0.726542  0.397918  1
  O  O180  1  0.133072  0.287198  0.985498  1
  O  O181  1  0.633072  0.212802  0.485498  1
  O  O182  1  0.866928  0.712802  0.014502  1
  O  O183  1  0.366928  0.787198  0.514502  1
