# generated using pymatgen
data_Na2NiH6C4N4O3
_symmetry_space_group_name_H-M   'P 1'
_cell_length_a   7.29887575
_cell_length_b   8.86728956
_cell_length_c   15.15036215
_cell_angle_alpha   89.32423068
_cell_angle_beta   87.40411643
_cell_angle_gamma   83.64062843
_symmetry_Int_Tables_number   1
_chemical_formula_structural   Na2NiH6C4N4O3
_chemical_formula_sum   'Na8 Ni4 H24 C16 N16 O12'
_cell_volume   973.49398133
_cell_formula_units_Z   4
loop_
 _symmetry_equiv_pos_site_id
 _symmetry_equiv_pos_as_xyz
  1  'x, y, z'
loop_
 _atom_site_type_symbol
 _atom_site_label
 _atom_site_symmetry_multiplicity
 _atom_site_fract_x
 _atom_site_fract_y
 _atom_site_fract_z
 _atom_site_occupancy
  Na  Na0  1  0.813467  0.924254  0.311088  1
  Na  Na1  1  0.186533  0.075746  0.688912  1
  Na  Na2  1  0.739718  0.568018  0.192814  1
  Na  Na3  1  0.260282  0.431982  0.807186  1
  Na  Na4  1  0.953509  0.757940  0.756777  1
  Na  Na5  1  0.046491  0.242060  0.243223  1
  Na  Na6  1  0.500000  0.000000  0.500000  1
  Na  Na7  1  0.500000  0.500000  0.000000  1
  Ni  Ni8  1  0.750267  0.488395  0.517131  1
  Ni  Ni9  1  0.249733  0.511605  0.482869  1
  Ni  Ni10  1  0.745717  0.012173  0.986827  1
  Ni  Ni11  1  0.254283  0.987827  0.013173  1
  H  H12  1  0.430208  0.398846  0.187356  1
  H  H13  1  0.569792  0.601154  0.812644  1
  H  H14  1  0.591345  0.287192  0.148239  1
  H  H15  1  0.408655  0.712808  0.851761  1
  H  H16  1  0.958761  0.362901  0.065770  1
  H  H17  1  0.041239  0.637099  0.934230  1
  H  H18  1  0.083176  0.477977  0.098986  1
  H  H19  1  0.916824  0.522023  0.901014  1
  H  H20  1  0.469122  0.107508  0.309034  1
  H  H21  1  0.530878  0.892492  0.690966  1
  H  H22  1  0.599141  0.210424  0.352042  1
  H  H23  1  0.400859  0.789576  0.647958  1
  H  H24  1  0.136959  0.006076  0.384590  1
  H  H25  1  0.863041  0.993924  0.615410  1
  H  H26  1  0.999390  0.133904  0.423393  1
  H  H27  1  0.000610  0.866096  0.576607  1
  H  H28  1  0.075271  0.638448  0.272093  1
  H  H29  1  0.924729  0.361552  0.727907  1
  H  H30  1  0.061820  0.730456  0.185691  1
  H  H31  1  0.938180  0.269544  0.814309  1
  H  H32  1  0.484751  0.769300  0.317721  1
  H  H33  1  0.515249  0.230700  0.682279  1
  H  H34  1  0.487854  0.850406  0.227660  1
  H  H35  1  0.512146  0.149594  0.772340  1
  C  C36  1  0.770686  0.686867  0.482674  1
  C  C37  1  0.229314  0.313133  0.517326  1
  C  C38  1  0.739152  0.542909  0.635117  1
  C  C39  1  0.260848  0.457091  0.364883  1
  C  C40  1  0.767473  0.433562  0.399395  1
  C  C41  1  0.232527  0.566438  0.600605  1
  C  C42  1  0.723205  0.290308  0.550396  1
  C  C43  1  0.276795  0.709692  0.449604  1
  C  C44  1  0.712708  0.816634  0.023214  1
  C  C45  1  0.287292  0.183366  0.976786  1
  C  C46  1  0.691572  0.966253  0.872210  1
  C  C47  1  0.308428  0.033747  0.127790  1
  C  C48  1  0.776706  0.211024  0.955163  1
  C  C49  1  0.223294  0.788976  0.044837  1
  C  C50  1  0.802850  0.053303  0.101143  1
  C  C51  1  0.197150  0.946697  0.898857  1
  N  N52  1  0.777481  0.812776  0.459074  1
  N  N53  1  0.222519  0.187224  0.540926  1
  N  N54  1  0.736783  0.573375  0.710504  1
  N  N55  1  0.263217  0.426625  0.289496  1
  N  N56  1  0.783421  0.397896  0.324773  1
  N  N57  1  0.216579  0.602104  0.675227  1
  N  N58  1  0.702971  0.165432  0.572424  1
  N  N59  1  0.297029  0.834568  0.427576  1
  N  N60  1  0.690460  0.694084  0.048378  1
  N  N61  1  0.309540  0.305916  0.951622  1
  N  N62  1  0.659567  0.936087  0.799504  1
  N  N63  1  0.340433  0.063913  0.200496  1
  N  N64  1  0.796615  0.338097  0.937816  1
  N  N65  1  0.203385  0.661903  0.062184  1
  N  N66  1  0.838709  0.080818  0.173589  1
  N  N67  1  0.161291  0.919182  0.826411  1
  O  O68  1  0.535595  0.392153  0.143855  1
  O  O69  1  0.464405  0.607847  0.856145  1
  O  O70  1  0.994437  0.408174  0.119969  1
  O  O71  1  0.005563  0.591826  0.880031  1
  O  O72  1  0.557265  0.109498  0.356289  1
  O  O73  1  0.442735  0.890502  0.643711  1
  O  O74  1  0.032108  0.079448  0.368411  1
  O  O75  1  0.967892  0.920552  0.631589  1
  O  O76  1  0.992191  0.713078  0.240955  1
  O  O77  1  0.007809  0.286922  0.759045  1
  O  O78  1  0.562286  0.776702  0.263715  1
  O  O79  1  0.437714  0.223298  0.736285  1
