# generated using pymatgen
data_LiFe2F5
_symmetry_space_group_name_H-M   'P 1'
_cell_length_a   8.94423888
_cell_length_b   6.91209707
_cell_length_c   6.34362292
_cell_angle_alpha   90.00000000
_cell_angle_beta   95.70732967
_cell_angle_gamma   90.00000000
_symmetry_Int_Tables_number   1
_chemical_formula_structural   LiFe2F5
_chemical_formula_sum   'Li4 Fe8 F20'
_cell_volume   390.24052198
_cell_formula_units_Z   4
loop_
 _symmetry_equiv_pos_site_id
 _symmetry_equiv_pos_as_xyz
  1  'x, y, z'
loop_
 _atom_site_type_symbol
 _atom_site_label
 _atom_site_symmetry_multiplicity
 _atom_site_fract_x
 _atom_site_fract_y
 _atom_site_fract_z
 _atom_site_occupancy
  Li  Li0  1  0.197146  0.889290  0.000402  1
  Li  Li1  1  0.197146  0.610710  0.500402  1
  Li  Li2  1  0.802854  0.389290  0.499598  1
  Li  Li3  1  0.802854  0.110710  -0.000402  1
  Fe  Fe4  1  0.144690  0.364711  0.017572  1
  Fe  Fe5  1  0.144690  0.135289  0.517572  1
  Fe  Fe6  1  0.472766  0.361270  0.765822  1
  Fe  Fe7  1  0.527234  0.861270  0.734178  1
  Fe  Fe8  1  0.472766  0.138730  0.265822  1
  Fe  Fe9  1  0.527234  0.638730  0.234178  1
  Fe  Fe10  1  0.855310  0.864711  0.482428  1
  Fe  Fe11  1  0.855310  0.635289  0.982428  1
  F  F12  1  0.091791  0.660660  0.017443  1
  F  F13  1  0.134173  0.108293  0.835458  1
  F  F14  1  0.091791  0.839340  0.517443  1
  F  F15  1  0.134173  0.391707  0.335458  1
  F  F16  1  0.250040  0.431389  0.730770  1
  F  F17  1  0.250040  0.068611  0.230770  1
  F  F18  1  0.415034  0.670796  0.516998  1
  F  F19  1  0.392059  0.090600  0.616827  1
  F  F20  1  0.415034  0.829204  0.016998  1
  F  F21  1  0.392059  0.409400  0.116827  1
  F  F22  1  0.607941  0.590600  0.883173  1
  F  F23  1  0.584966  0.170796  0.983002  1
  F  F24  1  0.607941  0.909400  0.383173  1
  F  F25  1  0.584966  0.329204  0.483002  1
  F  F26  1  0.749960  0.931389  0.769230  1
  F  F27  1  0.749960  0.568611  0.269230  1
  F  F28  1  0.865827  0.608293  0.664542  1
  F  F29  1  0.908209  0.160660  0.482557  1
  F  F30  1  0.865827  0.891707  0.164542  1
  F  F31  1  0.908209  0.339340  0.982557  1
