# generated using pymatgen
data_Fe2O3
_symmetry_space_group_name_H-M   'P 1'
_cell_length_a   8.47629187
_cell_length_b   8.45637823
_cell_length_c   25.29079095
_cell_angle_alpha   89.99913364
_cell_angle_beta   90.06765391
_cell_angle_gamma   90.00874698
_symmetry_Int_Tables_number   1
_chemical_formula_structural   Fe2O3
_chemical_formula_sum   'Fe64 O96'
_cell_volume   1812.81049128
_cell_formula_units_Z   32
loop_
 _symmetry_equiv_pos_site_id
 _symmetry_equiv_pos_as_xyz
  1  'x, y, z'
loop_
 _atom_site_type_symbol
 _atom_site_label
 _atom_site_symmetry_multiplicity
 _atom_site_fract_x
 _atom_site_fract_y
 _atom_site_fract_z
 _atom_site_occupancy
  Fe  Fe0  1  0.988969  0.616553  0.207565  1
  Fe  Fe1  1  0.000586  0.125169  0.374749  1
  Fe  Fe2  1  0.002230  0.620684  0.540291  1
  Fe  Fe3  1  0.009912  0.624469  0.872888  1
  Fe  Fe4  1  0.001429  0.885792  0.121552  1
  Fe  Fe5  1  0.008571  0.863568  0.458628  1
  Fe  Fe6  1  0.003874  0.874171  0.791255  1
  Fe  Fe7  1  0.123928  0.751591  0.331728  1
  Fe  Fe8  1  0.128925  0.742185  0.667615  1
  Fe  Fe9  1  0.119668  0.749450  0.999550  1
  Fe  Fe10  1  0.125235  0.250948  0.168437  1
  Fe  Fe11  1  0.130330  0.252427  0.501191  1
  Fe  Fe12  1  0.123855  0.240525  0.834526  1
  Fe  Fe13  1  0.243089  0.365120  0.041127  1
  Fe  Fe14  1  0.250558  0.383686  0.376753  1
  Fe  Fe15  1  0.238824  0.375971  0.711284  1
  Fe  Fe16  1  0.251946  0.625241  0.124204  1
  Fe  Fe17  1  0.251927  0.126190  0.292014  1
  Fe  Fe18  1  0.241954  0.122590  0.626844  1
  Fe  Fe19  1  0.248396  0.120089  0.960440  1
  Fe  Fe20  1  0.256779  0.874583  0.211462  1
  Fe  Fe21  1  0.251866  0.872128  0.541188  1
  Fe  Fe22  1  0.255936  0.868203  0.875285  1
  Fe  Fe23  1  0.376468  0.491421  0.249493  1
  Fe  Fe24  1  0.364811  0.499260  0.582893  1
  Fe  Fe25  1  0.379673  0.500778  0.920044  1
  Fe  Fe26  1  0.387260  0.997392  0.082044  1
  Fe  Fe27  1  0.372516  -0.000093  0.418163  1
  Fe  Fe28  1  0.372017  0.000219  0.751467  1
  Fe  Fe29  1  0.502600  0.626826  0.041178  1
  Fe  Fe30  1  0.493333  0.631549  0.374829  1
  Fe  Fe31  1  0.498271  0.625585  0.708183  1
  Fe  Fe32  1  0.498837  0.873851  0.625151  1
  Fe  Fe33  1  0.502903  0.377045  0.124919  1
  Fe  Fe34  1  0.499406  0.384442  0.462255  1
  Fe  Fe35  1  0.489905  0.381774  0.792024  1
  Fe  Fe36  1  0.509944  0.129274  0.211858  1
  Fe  Fe37  1  0.498414  0.125087  0.541690  1
  Fe  Fe38  1  0.504377  0.114383  0.878151  1
  Fe  Fe39  1  0.624339  0.250084  0.001932  1
  Fe  Fe40  1  0.626145  0.256753  0.333329  1
  Fe  Fe41  1  0.620391  0.251551  0.666521  1
  Fe  Fe42  1  0.624497  0.756253  0.165797  1
  Fe  Fe43  1  0.628028  0.753537  0.498826  1
  Fe  Fe44  1  0.626161  0.747299  0.832213  1
  Fe  Fe45  1  0.742793  0.619844  0.289357  1
  Fe  Fe46  1  0.746572  0.615688  0.621409  1
  Fe  Fe47  1  0.748642  0.628785  0.959115  1
  Fe  Fe48  1  0.748399  0.875159  0.039959  1
  Fe  Fe49  1  0.739835  0.878727  0.372256  1
  Fe  Fe50  1  0.762378  0.878458  0.708239  1
  Fe  Fe51  1  0.749593  0.376219  0.876633  1
  Fe  Fe52  1  0.752844  0.132437  0.124050  1
  Fe  Fe53  1  0.750936  0.130385  0.461696  1
  Fe  Fe54  1  0.757392  0.127475  0.789513  1
  Fe  Fe55  1  0.870442  0.496787  0.080964  1
  Fe  Fe56  1  0.869376  0.499546  0.417171  1
  Fe  Fe57  1  0.873975  0.507818  0.748973  1
  Fe  Fe58  1  0.879071  0.998158  0.248290  1
  Fe  Fe59  1  0.873331  0.997007  0.582050  1
  Fe  Fe60  1  0.881250  0.998988  0.919545  1
  Fe  Fe61  1  0.999103  0.372949  0.291421  1
  Fe  Fe62  1  0.990217  0.366827  0.623854  1
  Fe  Fe63  1  0.997675  0.374618  0.958657  1
  O  O64  1  0.007578  0.625711  0.127759  1
  O  O65  1  0.986433  0.630472  0.463754  1
  O  O66  1  0.985026  0.641443  0.796324  1
  O  O67  1  0.011315  0.390375  0.035336  1
  O  O68  1  0.008756  0.367776  0.371314  1
  O  O69  1  0.010253  0.398866  0.704320  1
  O  O70  1  0.012479  0.138591  0.293950  1
  O  O71  1  0.008224  0.136298  0.618244  1
  O  O72  1  0.006074  0.149315  0.953938  1
  O  O73  1  0.012142  0.862164  0.203712  1
  O  O74  1  0.015261  0.866604  0.539470  1
  O  O75  1  0.007181  0.865976  0.870650  1
  O  O76  1  0.235342  0.360726  0.294388  1
  O  O77  1  0.239771  0.363685  0.628452  1
  O  O78  1  0.234716  0.368222  0.960731  1
  O  O79  1  0.244708  0.634077  0.205406  1
  O  O80  1  0.242802  0.646924  0.546189  1
  O  O81  1  0.242269  0.635674  0.881858  1
  O  O82  1  0.240661  0.867276  0.125586  1
  O  O83  1  0.239342  0.887470  0.464540  1
  O  O84  1  0.230601  0.891209  0.795864  1
  O  O85  1  0.268281  0.131286  0.036569  1
  O  O86  1  0.242175  0.131670  0.369919  1
  O  O87  1  0.270023  0.138203  0.703650  1
  O  O88  1  0.234559  0.896352  0.288882  1
  O  O89  1  0.257290  0.882255  0.621123  1
  O  O90  1  0.228406  0.890755  0.955448  1
  O  O91  1  0.266020  0.618853  0.043734  1
  O  O92  1  0.260491  0.616507  0.369392  1
  O  O93  1  0.271583  0.610864  0.703262  1
  O  O94  1  0.261014  0.381992  0.121545  1
  O  O95  1  0.261645  0.358948  0.453177  1
  O  O96  1  0.256541  0.355835  0.788703  1
  O  O97  1  0.255683  0.116928  0.213290  1
  O  O98  1  0.263421  0.108902  0.544376  1
  O  O99  1  0.260638  0.116988  0.881195  1
  O  O100  1  0.491807  0.391334  0.046179  1
  O  O101  1  0.489767  0.382034  0.378096  1
  O  O102  1  0.492250  0.389939  0.710471  1
  O  O103  1  0.483440  0.148374  0.288296  1
  O  O104  1  0.491320  0.114839  0.619570  1
  O  O105  1  0.491251  0.149153  0.953899  1
  O  O106  1  0.484745  0.890062  0.202159  1
  O  O107  1  0.485962  0.884462  0.543744  1
  O  O108  1  0.489445  0.882198  0.869942  1
  O  O109  1  0.495444  0.612205  0.120997  1
  O  O110  1  0.517155  0.613278  0.454635  1
  O  O111  1  0.515111  0.613810  0.785074  1
  O  O112  1  0.487022  0.365366  0.200749  1
  O  O113  1  0.480757  0.357137  0.539549  1
  O  O114  1  0.509099  0.372867  0.871530  1
  O  O115  1  0.507488  0.631873  0.627993  1
  O  O116  1  0.512807  0.604294  0.294873  1
  O  O117  1  0.519231  0.612075  0.964867  1
  O  O118  1  0.518272  0.853821  0.046071  1
  O  O119  1  0.507777  0.865545  0.379613  1
  O  O120  1  0.504155  0.859908  0.705909  1
  O  O121  1  0.504175  0.142416  0.127710  1
  O  O122  1  0.509246  0.130881  0.462625  1
  O  O123  1  0.511279  0.135425  0.795771  1
  O  O124  1  0.737547  0.635528  0.037708  1
  O  O125  1  0.743608  0.636787  0.371577  1
  O  O126  1  0.733049  0.636223  0.704304  1
  O  O127  1  0.733241  0.365652  0.119811  1
  O  O128  1  0.737237  0.359530  0.453173  1
  O  O129  1  0.746258  0.366462  0.795009  1
  O  O130  1  0.739232  0.108974  0.204005  1
  O  O131  1  0.729224  0.109467  0.539131  1
  O  O132  1  0.741269  0.133560  0.874126  1
  O  O133  1  0.740823  0.867455  0.628569  1
  O  O134  1  0.770485  0.866316  0.295964  1
  O  O135  1  0.766101  0.858379  0.963467  1
  O  O136  1  0.731563  0.104803  0.044992  1
  O  O137  1  0.758004  0.116909  0.376411  1
  O  O138  1  0.732897  0.111489  0.711477  1
  O  O139  1  0.760792  0.383240  0.629527  1
  O  O140  1  0.762610  0.388156  0.957099  1
  O  O141  1  0.772301  0.384690  0.296448  1
  O  O142  1  0.758196  0.641065  0.211440  1
  O  O143  1  0.759274  0.644076  0.545737  1
  O  O144  1  0.755460  0.617748  0.880646  1
  O  O145  1  0.758566  0.882853  0.119367  1
  O  O146  1  0.763763  0.886872  0.454476  1
  O  O147  1  0.763962  0.882762  0.789300  1
  O  O148  1  0.993122  0.608901  0.289332  1
  O  O149  1  0.991014  0.618295  0.619984  1
  O  O150  1  0.985012  0.611350  0.955370  1
  O  O151  1  0.980598  0.856892  0.045291  1
  O  O152  1  0.996137  0.883738  0.379091  1
  O  O153  1  0.994603  0.856334  0.713723  1
  O  O154  1  0.989384  0.119166  0.128949  1
  O  O155  1  0.991474  0.120011  0.456024  1
  O  O156  1  0.987132  0.106653  0.796396  1
  O  O157  1  0.013555  0.385004  0.214791  1
  O  O158  1  0.020043  0.390678  0.545366  1
  O  O159  1  0.991842  0.384009  0.878864  1
