# generated using pymatgen
data_Ba2YCl7
_symmetry_space_group_name_H-M   'P 1'
_cell_length_a   7.17174317
_cell_length_b   13.87961732
_cell_length_c   12.48632881
_cell_angle_alpha   90.00000000
_cell_angle_beta   95.19223642
_cell_angle_gamma   90.00000000
_symmetry_Int_Tables_number   1
_chemical_formula_structural   Ba2YCl7
_chemical_formula_sum   'Ba8 Y4 Cl28'
_cell_volume   1237.80225145
_cell_formula_units_Z   4
loop_
 _symmetry_equiv_pos_site_id
 _symmetry_equiv_pos_as_xyz
  1  'x, y, z'
loop_
 _atom_site_type_symbol
 _atom_site_label
 _atom_site_symmetry_multiplicity
 _atom_site_fract_x
 _atom_site_fract_y
 _atom_site_fract_z
 _atom_site_occupancy
  Ba  Ba0  1  0.238310  0.458102  0.738754  1
  Ba  Ba1  1  0.268662  0.860855  0.620976  1
  Ba  Ba2  1  0.255790  0.217546  0.122047  1
  Ba  Ba3  1  0.293402  0.627164  0.227009  1
  Ba  Ba4  1  0.706598  0.127164  0.772991  1
  Ba  Ba5  1  0.744210  0.717546  0.877953  1
  Ba  Ba6  1  0.731338  0.360855  0.379024  1
  Ba  Ba7  1  0.761690  0.958102  0.261246  1
  Y  Y8  1  0.189600  0.155068  0.544716  1
  Y  Y9  1  0.208035  0.923761  0.040982  1
  Y  Y10  1  0.791965  0.423761  0.959018  1
  Y  Y11  1  0.810400  0.655068  0.455284  1
  Cl  Cl12  1  0.035162  0.296801  0.889966  1
  Cl  Cl13  1  0.054123  0.561192  0.981958  1
  Cl  Cl14  1  0.037623  0.504722  0.500907  1
  Cl  Cl15  1  0.113837  0.850096  0.853153  1
  Cl  Cl16  1  0.085228  0.765942  0.392940  1
  Cl  Cl17  1  0.105271  0.227730  0.354374  1
  Cl  Cl18  1  0.207545  0.086360  0.743002  1
  Cl  Cl19  1  0.230659  0.988516  0.241799  1
  Cl  Cl20  1  0.384884  0.665336  0.729125  1
  Cl  Cl21  1  0.378796  0.412134  0.225922  1
  Cl  Cl22  1  0.432664  0.295369  0.604001  1
  Cl  Cl23  1  0.520305  0.296223  0.905526  1
  Cl  Cl24  1  0.482442  0.044580  0.528301  1
  Cl  Cl25  1  0.531182  0.549450  0.991258  1
  Cl  Cl26  1  0.468818  0.049450  0.008742  1
  Cl  Cl27  1  0.517558  0.544579  0.471699  1
  Cl  Cl28  1  0.479695  0.796223  0.094474  1
  Cl  Cl29  1  0.567336  0.795369  0.395999  1
  Cl  Cl30  1  0.621204  0.912134  0.774078  1
  Cl  Cl31  1  0.615116  0.165336  0.270875  1
  Cl  Cl32  1  0.769341  0.488516  0.758201  1
  Cl  Cl33  1  0.792455  0.586360  0.256998  1
  Cl  Cl34  1  0.894729  0.727730  0.645626  1
  Cl  Cl35  1  0.914772  0.265942  0.607060  1
  Cl  Cl36  1  0.886162  0.350096  0.146847  1
  Cl  Cl37  1  0.962377  0.004722  0.499093  1
  Cl  Cl38  1  0.945877  0.061192  0.018042  1
  Cl  Cl39  1  0.964838  0.796801  0.110034  1
