# generated using pymatgen
data_Ca6Pr6Mn11CrO36
_symmetry_space_group_name_H-M   'P 1'
_cell_length_a   5.50315641
_cell_length_b   5.45463117
_cell_length_c   23.11845479
_cell_angle_alpha   90.00041564
_cell_angle_beta   89.99144299
_cell_angle_gamma   89.99829332
_symmetry_Int_Tables_number   1
_chemical_formula_structural   Ca6Pr6Mn11CrO36
_chemical_formula_sum   'Ca6 Pr6 Mn11 Cr1 O36'
_cell_volume   693.96256521
_cell_formula_units_Z   1
loop_
 _symmetry_equiv_pos_site_id
 _symmetry_equiv_pos_as_xyz
  1  'x, y, z'
loop_
 _atom_site_type_symbol
 _atom_site_label
 _atom_site_symmetry_multiplicity
 _atom_site_fract_x
 _atom_site_fract_y
 _atom_site_fract_z
 _atom_site_occupancy
  Ca  Ca0  1  0.542085  0.509337  0.083299  1
  Ca  Ca1  1  0.541906  0.509480  0.416561  1
  Ca  Ca2  1  0.542611  0.508531  0.750146  1
  Ca  Ca3  1  0.957982  0.008730  0.249943  1
  Ca  Ca4  1  0.958342  0.009380  0.916803  1
  Ca  Ca5  1  0.956753  0.009917  0.583330  1
  Pr  Pr6  1  0.036206  0.991869  0.083387  1
  Pr  Pr7  1  0.035894  0.991580  0.416609  1
  Pr  Pr8  1  0.038010  0.990538  0.749964  1
  Pr  Pr9  1  0.463035  0.491979  0.583313  1
  Pr  Pr10  1  0.463685  0.491027  0.249940  1
  Pr  Pr11  1  0.464041  0.491652  0.916725  1
  Mn  Mn12  1  0.999224  0.500493  0.999932  1
  Mn  Mn13  1  0.999020  0.499657  0.166798  1
  Mn  Mn14  1  0.998824  0.499047  0.333108  1
  Mn  Mn15  1  0.998706  0.500080  0.500090  1
  Mn  Mn16  1  0.999189  0.499495  0.666530  1
  Mn  Mn17  1  0.999319  0.499173  0.833528  1
  Mn  Mn18  1  0.500925  0.999473  0.166532  1
  Mn  Mn19  1  0.500389  0.000019  0.499909  1
  Mn  Mn20  1  0.500787  0.000720  0.000241  1
  Mn  Mn21  1  0.501630  0.999549  0.833127  1
  Mn  Mn22  1  0.500967  0.998711  0.333378  1
  Cr  Cr23  1  0.501079  0.999539  0.666858  1
  O  O24  1  0.015673  0.578426  0.249696  1
  O  O25  1  0.015712  0.578085  0.917013  1
  O  O26  1  0.015975  0.579905  0.583635  1
  O  O27  1  0.208872  0.217088  0.652108  1
  O  O28  1  0.215812  0.216089  0.986243  1
  O  O29  1  0.215738  0.215464  0.319232  1
  O  O30  1  0.215535  0.215521  0.180592  1
  O  O31  1  0.215486  0.215322  0.513858  1
  O  O32  1  0.216050  0.215745  0.847602  1
  O  O33  1  0.284223  0.716038  0.013997  1
  O  O34  1  0.284362  0.715291  0.152699  1
  O  O35  1  0.283854  0.715836  0.485819  1
  O  O36  1  0.284233  0.715432  0.347097  1
  O  O37  1  0.282831  0.707561  0.681270  1
  O  O38  1  0.284964  0.715587  0.819624  1
  O  O39  1  0.482949  0.081022  0.751121  1
  O  O40  1  0.484026  0.078342  0.083138  1
  O  O41  1  0.483253  0.078832  0.417302  1
  O  O42  1  0.518154  0.924333  0.582210  1
  O  O43  1  0.516663  0.927051  0.250183  1
  O  O44  1  0.517167  0.927287  0.916098  1
  O  O45  1  0.717926  0.281086  0.320331  1
  O  O46  1  0.717773  0.281309  0.512680  1
  O  O47  1  0.719636  0.289605  0.652933  1
  O  O48  1  0.718187  0.281321  0.179589  1
  O  O49  1  0.718242  0.281717  0.987292  1
  O  O50  1  0.718252  0.281453  0.846454  1
  O  O51  1  0.782179  0.781415  0.153732  1
  O  O52  1  0.781889  0.781677  0.013021  1
  O  O53  1  0.781945  0.781449  0.346116  1
  O  O54  1  0.781745  0.781688  0.486754  1
  O  O55  1  0.782222  0.781715  0.820591  1
  O  O56  1  0.789422  0.780384  0.680288  1
  O  O57  1  0.983086  0.427741  0.416321  1
  O  O58  1  0.983008  0.427348  0.083617  1
  O  O59  1  0.982349  0.425858  0.749693  1
