# generated using pymatgen
data_Na6Cu2P(CO4)4
_symmetry_space_group_name_H-M   'P 1'
_cell_length_a   9.80759979
_cell_length_b   9.80780071
_cell_length_c   9.80735340
_cell_angle_alpha   60.00004714
_cell_angle_beta   60.00144214
_cell_angle_gamma   59.99860014
_symmetry_Int_Tables_number   1
_chemical_formula_structural   Na6Cu2P(CO4)4
_chemical_formula_sum   'Na12 Cu4 P2 C8 O32'
_cell_volume   667.07012080
_cell_formula_units_Z   2
loop_
 _symmetry_equiv_pos_site_id
 _symmetry_equiv_pos_as_xyz
  1  'x, y, z'
loop_
 _atom_site_type_symbol
 _atom_site_label
 _atom_site_symmetry_multiplicity
 _atom_site_fract_x
 _atom_site_fract_y
 _atom_site_fract_z
 _atom_site_occupancy
  Na  Na0  1  0.085443  0.664563  0.085436  1
  Na  Na1  1  0.085438  0.085435  0.664564  1
  Na  Na2  1  0.664563  0.085446  0.085431  1
  Na  Na3  1  0.085499  0.664539  0.664546  1
  Na  Na4  1  0.335436  0.914518  0.335445  1
  Na  Na5  1  0.335447  0.335439  0.914521  1
  Na  Na6  1  0.664535  0.664544  0.085497  1
  Na  Na7  1  0.664546  0.085500  0.664537  1
  Na  Na8  1  0.335419  0.914572  0.914587  1
  Na  Na9  1  0.914520  0.335443  0.335437  1
  Na  Na10  1  0.914574  0.335419  0.914582  1
  Na  Na11  1  0.914580  0.914582  0.335418  1
  Cu  Cu12  1  0.000000  0.500001  0.500001  1
  Cu  Cu13  1  0.500001  0.000000  0.500001  1
  Cu  Cu14  1  0.500001  0.500002  0.000000  1
  Cu  Cu15  1  0.500002  0.500001  0.500001  1
  P  P16  1  0.125003  0.125005  0.125002  1
  P  P17  1  0.874996  0.874996  0.874998  1
  C  C18  1  0.282106  0.282116  0.282120  1
  C  C19  1  0.282014  0.653694  0.282082  1
  C  C20  1  0.282069  0.282032  0.653689  1
  C  C21  1  0.653697  0.282049  0.282040  1
  C  C22  1  0.346302  0.717951  0.717960  1
  C  C23  1  0.717931  0.717968  0.346310  1
  C  C24  1  0.717985  0.346304  0.717918  1
  C  C25  1  0.717894  0.717885  0.717880  1
  O  O26  1  0.060344  0.060346  0.060343  1
  O  O27  1  0.060354  0.060352  0.318947  1
  O  O28  1  0.060353  0.318942  0.060354  1
  O  O29  1  0.318943  0.060354  0.060354  1
  O  O30  1  0.140199  0.402303  0.301512  1
  O  O31  1  0.301500  0.140203  0.402307  1
  O  O32  1  0.140189  0.301489  0.655958  1
  O  O33  1  0.402294  0.301493  0.140221  1
  O  O34  1  0.140222  0.655979  0.402291  1
  O  O35  1  0.301467  0.655971  0.140196  1
  O  O36  1  0.402282  0.140220  0.655983  1
  O  O37  1  0.301479  0.402285  0.656068  1
  O  O38  1  0.655964  0.140182  0.301490  1
  O  O39  1  0.402286  0.656079  0.301480  1
  O  O40  1  0.655996  0.402278  0.140229  1
  O  O41  1  0.343928  0.698534  0.597702  1
  O  O42  1  0.656069  0.301467  0.402298  1
  O  O43  1  0.344002  0.597722  0.859772  1
  O  O44  1  0.597715  0.343919  0.698521  1
  O  O45  1  0.344034  0.859819  0.698510  1
  O  O46  1  0.698522  0.597715  0.343930  1
  O  O47  1  0.597718  0.859780  0.344016  1
  O  O48  1  0.698533  0.344028  0.859804  1
  O  O49  1  0.859779  0.344019  0.597709  1
  O  O50  1  0.597708  0.698508  0.859778  1
  O  O51  1  0.859811  0.698511  0.344041  1
  O  O52  1  0.698501  0.859797  0.597694  1
  O  O53  1  0.859801  0.597697  0.698489  1
  O  O54  1  0.681030  0.939655  0.939655  1
  O  O55  1  0.939655  0.939657  0.681026  1
  O  O56  1  0.939656  0.681030  0.939655  1
  O  O57  1  0.939665  0.939663  0.939665  1
