# generated using pymatgen
data_Na2BiBSO7
_symmetry_space_group_name_H-M   'P 1'
_cell_length_a   9.67658800
_cell_length_b   7.07899930
_cell_length_c   5.52820013
_cell_angle_alpha   90.00000000
_cell_angle_beta   91.17169151
_cell_angle_gamma   90.00000000
_symmetry_Int_Tables_number   1
_chemical_formula_structural   Na2BiBSO7
_chemical_formula_sum   'Na4 Bi2 B2 S2 O14'
_cell_volume   378.60562290
_cell_formula_units_Z   2
loop_
 _symmetry_equiv_pos_site_id
 _symmetry_equiv_pos_as_xyz
  1  'x, y, z'
loop_
 _atom_site_type_symbol
 _atom_site_label
 _atom_site_symmetry_multiplicity
 _atom_site_fract_x
 _atom_site_fract_y
 _atom_site_fract_z
 _atom_site_occupancy
  Na  Na0  1  0.181564  0.503417  0.239757  1
  Na  Na1  1  0.181564  0.996583  0.239757  1
  Na  Na2  1  0.818436  0.496583  0.760243  1
  Na  Na3  1  0.818436  0.003417  0.760243  1
  Bi  Bi4  1  0.360685  0.750000  0.763756  1
  Bi  Bi5  1  0.639315  0.250000  0.236244  1
  B  B6  1  0.086252  0.750000  0.737620  1
  B  B7  1  0.913748  0.250000  0.262380  1
  S  S8  1  0.402826  0.250000  0.720916  1
  S  S9  1  0.597174  0.750000  0.279084  1
  O  O10  1  0.049284  0.250000  0.271866  1
  O  O11  1  0.169516  0.750000  0.957309  1
  O  O12  1  0.176406  0.750000  0.532600  1
  O  O13  1  0.343162  0.081340  0.847549  1
  O  O14  1  0.343162  0.418660  0.847549  1
  O  O15  1  0.442345  0.750000  0.247391  1
  O  O16  1  0.366026  0.250000  0.460823  1
  O  O17  1  0.633974  0.750000  0.539176  1
  O  O18  1  0.557655  0.250000  0.752609  1
  O  O19  1  0.656838  0.581340  0.152451  1
  O  O20  1  0.656838  0.918660  0.152451  1
  O  O21  1  0.823594  0.250000  0.467400  1
  O  O22  1  0.830484  0.250000  0.042691  1
  O  O23  1  0.950716  0.750000  0.728134  1
