# generated using pymatgen
data_BiOF
_symmetry_space_group_name_H-M   'P 1'
_cell_length_a   6.88051644
_cell_length_b   6.05433249
_cell_length_c   6.03779517
_cell_angle_alpha   98.72095801
_cell_angle_beta   68.23599832
_cell_angle_gamma   68.08583286
_symmetry_Int_Tables_number   1
_chemical_formula_structural   BiOF
_chemical_formula_sum   'Bi4 O4 F4'
_cell_volume   204.06532383
_cell_formula_units_Z   4
loop_
 _symmetry_equiv_pos_site_id
 _symmetry_equiv_pos_as_xyz
  1  'x, y, z'
loop_
 _atom_site_type_symbol
 _atom_site_label
 _atom_site_symmetry_multiplicity
 _atom_site_fract_x
 _atom_site_fract_y
 _atom_site_fract_z
 _atom_site_occupancy
  Bi  Bi0  1  0.251042  0.919693  0.073602  1
  Bi  Bi1  1  0.747203  0.672976  0.326761  1
  Bi  Bi2  1  0.251198  0.323410  0.669402  1
  Bi  Bi3  1  0.754067  0.074154  0.920609  1
  O  O4  1  0.510967  0.990120  0.738550  1
  O  O5  1  0.986004  0.251075  0.004748  1
  O  O6  1  0.009867  0.744293  0.997384  1
  O  O7  1  0.482349  0.011937  0.258554  1
  F  F8  1  0.498818  0.498072  0.007666  1
  F  F9  1  0.496944  0.502412  0.509682  1
  F  F10  1  0.991654  0.503748  0.505830  1
  F  F11  1  0.997939  0.002641  0.498723  1
