# generated using pymatgen
data_B8H10N
_symmetry_space_group_name_H-M   'P 1'
_cell_length_a   7.15051481
_cell_length_b   11.21297828
_cell_length_c   10.96742766
_cell_angle_alpha   90.00000000
_cell_angle_beta   93.15583294
_cell_angle_gamma   90.00000000
_symmetry_Int_Tables_number   1
_chemical_formula_structural   B8H10N
_chemical_formula_sum   'B32 H40 N4'
_cell_volume   878.01909690
_cell_formula_units_Z   4
loop_
 _symmetry_equiv_pos_site_id
 _symmetry_equiv_pos_as_xyz
  1  'x, y, z'
loop_
 _atom_site_type_symbol
 _atom_site_label
 _atom_site_symmetry_multiplicity
 _atom_site_fract_x
 _atom_site_fract_y
 _atom_site_fract_z
 _atom_site_occupancy
  B  B0  1  0.817794  0.605533  0.668843  1
  B  B1  1  0.317794  0.894467  0.168843  1
  B  B2  1  0.182206  0.394467  0.331157  1
  B  B3  1  0.682206  0.105533  0.831157  1
  B  B4  1  0.809145  0.737043  0.776357  1
  B  B5  1  0.309145  0.762957  0.276357  1
  B  B6  1  0.190855  0.262957  0.223643  1
  B  B7  1  0.690855  0.237043  0.723643  1
  B  B8  1  0.068765  0.796798  0.675827  1
  B  B9  1  0.568765  0.703202  0.175827  1
  B  B10  1  0.931235  0.203202  0.324173  1
  B  B11  1  0.431235  0.296798  0.824173  1
  B  B12  1  0.025756  0.654058  0.590412  1
  B  B13  1  0.525756  0.845942  0.090412  1
  B  B14  1  0.974244  0.345942  0.409588  1
  B  B15  1  0.474244  0.154058  0.909588  1
  B  B16  1  0.873085  0.601142  0.822530  1
  B  B17  1  0.373085  0.898858  0.322530  1
  B  B18  1  0.126915  0.398858  0.177470  1
  B  B19  1  0.626915  0.101142  0.677470  1
  B  B20  1  0.205652  0.678263  0.697511  1
  B  B21  1  0.705652  0.821737  0.197511  1
  B  B22  1  0.794348  0.321737  0.302489  1
  B  B23  1  0.294348  0.178263  0.802489  1
  B  B24  1  0.049918  0.563572  0.726569  1
  B  B25  1  0.549918  0.936428  0.226569  1
  B  B26  1  0.950082  0.436428  0.273431  1
  B  B27  1  0.450082  0.063572  0.773431  1
  B  B28  1  0.075943  0.694150  0.831582  1
  B  B29  1  0.575943  0.805850  0.331582  1
  B  B30  1  0.924057  0.305850  0.168418  1
  B  B31  1  0.424057  0.194150  0.668418  1
  H  H32  1  0.781111  0.797900  0.578617  1
  H  H33  1  0.281111  0.702100  0.078617  1
  H  H34  1  0.218889  0.202100  0.421383  1
  H  H35  1  0.718889  0.297900  0.921383  1
  H  H36  1  0.696317  0.564994  0.602927  1
  H  H37  1  0.196317  0.935006  0.102927  1
  H  H38  1  0.303683  0.435006  0.397073  1
  H  H39  1  0.803683  0.064994  0.897073  1
  H  H40  1  0.697074  0.805879  0.810588  1
  H  H41  1  0.197074  0.694121  0.310588  1
  H  H42  1  0.302926  0.194121  0.189412  1
  H  H43  1  0.802926  0.305879  0.689412  1
  H  H44  1  0.098471  0.899187  0.656557  1
  H  H45  1  0.598471  0.600813  0.156557  1
  H  H46  1  0.901529  0.100813  0.343443  1
  H  H47  1  0.401529  0.399187  0.843443  1
  H  H48  1  0.016105  0.639940  0.482789  1
  H  H49  1  0.516105  0.860060  0.982789  1
  H  H50  1  0.983895  0.360060  0.517211  1
  H  H51  1  0.483895  0.139940  0.017211  1
  H  H52  1  0.813598  0.543949  0.903346  1
  H  H53  1  0.313598  0.956051  0.403346  1
  H  H54  1  0.186402  0.456051  0.096654  1
  H  H55  1  0.686402  0.043949  0.596654  1
  H  H56  1  0.007817  0.806710  0.826791  1
  H  H57  1  0.507817  0.693290  0.326791  1
  H  H58  1  0.992183  0.193290  0.173209  1
  H  H59  1  0.492183  0.306710  0.673209  1
  H  H60  1  0.371676  0.673886  0.693799  1
  H  H61  1  0.871676  0.826114  0.193799  1
  H  H62  1  0.628324  0.326114  0.306201  1
  H  H63  1  0.128324  0.173886  0.806201  1
  H  H64  1  0.111221  0.464816  0.737496  1
  H  H65  1  0.611221  0.035184  0.237496  1
  H  H66  1  0.888779  0.535184  0.262504  1
  H  H67  1  0.388779  0.964816  0.762504  1
  H  H68  1  0.161202  0.700596  0.928036  1
  H  H69  1  0.661202  0.799404  0.428036  1
  H  H70  1  0.838798  0.299404  0.071964  1
  H  H71  1  0.338798  0.200596  0.571964  1
  N  N72  1  0.865267  0.750615  0.640068  1
  N  N73  1  0.365267  0.749385  0.140068  1
  N  N74  1  0.134733  0.249385  0.359932  1
  N  N75  1  0.634733  0.250615  0.859932  1
