# generated using pymatgen
data_RbLi2(H2N)3
_symmetry_space_group_name_H-M   'P 1'
_cell_length_a   7.00897302
_cell_length_b   6.98176265
_cell_length_c   5.37618514
_cell_angle_alpha   89.82502196
_cell_angle_beta   90.13073454
_cell_angle_gamma   78.38647315
_symmetry_Int_Tables_number   1
_chemical_formula_structural   RbLi2(H2N)3
_chemical_formula_sum   'Rb2 Li4 H12 N6'
_cell_volume   257.69530410
_cell_formula_units_Z   2
loop_
 _symmetry_equiv_pos_site_id
 _symmetry_equiv_pos_as_xyz
  1  'x, y, z'
loop_
 _atom_site_type_symbol
 _atom_site_label
 _atom_site_symmetry_multiplicity
 _atom_site_fract_x
 _atom_site_fract_y
 _atom_site_fract_z
 _atom_site_occupancy
  Rb  Rb0  1  0.773350  0.792565  0.247022  1
  Rb  Rb1  1  0.213951  0.213596  0.748066  1
  Li  Li2  1  0.646743  0.355323  0.503428  1
  Li  Li3  1  0.646907  0.359045  0.002616  1
  Li  Li4  1  0.361232  0.642393  0.500371  1
  Li  Li5  1  0.358600  0.642841  0.993773  1
  H  H6  1  0.253123  0.437990  0.251953  1
  H  H7  1  0.577739  0.756369  0.749664  1
  H  H8  1  0.747688  0.568562  0.749782  1
  H  H9  1  0.420780  0.248169  0.249057  1
  H  H10  1  0.953020  0.187043  0.243774  1
  H  H11  1  0.811700  0.055549  0.745251  1
  H  H12  1  0.048673  0.818477  0.751415  1
  H  H13  1  0.187827  0.917184  0.260425  1
  H  H14  1  0.985593  0.406895  0.256243  1
  H  H15  1  0.594752  0.017309  0.760240  1
  H  H16  1  0.017915  0.599394  0.736890  1
  H  H17  1  0.387190  0.996018  0.246110  1
  N  N18  1  0.402536  0.398513  0.248768  1
  N  N19  1  0.597625  0.605896  0.748703  1
  N  N20  1  0.875898  0.329129  0.255019  1
  N  N21  1  0.669241  0.129977  0.756691  1
  N  N22  1  0.127220  0.677235  0.740208  1
  N  N23  1  0.335786  0.868345  0.241140  1
