# generated using pymatgen
data_SmH5(SeO4)2
_symmetry_space_group_name_H-M   'P 1'
_cell_length_a   6.80488391
_cell_length_b   7.20837975
_cell_length_c   17.72358090
_cell_angle_alpha   90.00000000
_cell_angle_beta   90.00000000
_cell_angle_gamma   90.00000000
_symmetry_Int_Tables_number   1
_chemical_formula_structural   SmH5(SeO4)2
_chemical_formula_sum   'Sm4 H20 Se8 O32'
_cell_volume   869.38041131
_cell_formula_units_Z   4
loop_
 _symmetry_equiv_pos_site_id
 _symmetry_equiv_pos_as_xyz
  1  'x, y, z'
loop_
 _atom_site_type_symbol
 _atom_site_label
 _atom_site_symmetry_multiplicity
 _atom_site_fract_x
 _atom_site_fract_y
 _atom_site_fract_z
 _atom_site_occupancy
  Sm  Sm0  1  0.122554  0.597862  0.716172  1
  Sm  Sm1  1  0.377446  0.402138  0.216172  1
  Sm  Sm2  1  0.622554  0.902138  0.283828  1
  Sm  Sm3  1  0.877446  0.097862  0.783828  1
  H  H4  1  0.099545  0.761836  0.552479  1
  H  H5  1  0.400455  0.238164  0.052479  1
  H  H6  1  0.599545  0.738164  0.447521  1
  H  H7  1  0.900455  0.261836  0.947521  1
  H  H8  1  0.052776  0.921228  0.613193  1
  H  H9  1  0.447224  0.078772  0.113193  1
  H  H10  1  0.552776  0.578772  0.386807  1
  H  H11  1  0.947224  0.421228  0.886807  1
  H  H12  1  0.203007  0.756209  0.427701  1
  H  H13  1  0.296993  0.243791  0.927701  1
  H  H14  1  0.703007  0.743791  0.572299  1
  H  H15  1  0.796993  0.256209  0.072299  1
  H  H16  1  0.982031  0.722835  0.417343  1
  H  H17  1  0.517969  0.277165  0.917343  1
  H  H18  1  0.482031  0.777165  0.582657  1
  H  H19  1  0.017969  0.222835  0.082657  1
  H  H20  1  0.041753  0.266169  0.490475  1
  H  H21  1  0.458247  0.733831  0.990475  1
  H  H22  1  0.541753  0.233831  0.509525  1
  H  H23  1  0.958247  0.766169  0.009525  1
  Se  Se24  1  0.657275  0.605163  0.769893  1
  Se  Se25  1  0.842725  0.394837  0.269893  1
  Se  Se26  1  0.157275  0.894837  0.230107  1
  Se  Se27  1  0.342725  0.105163  0.730107  1
  Se  Se28  1  0.859679  0.288620  0.595671  1
  Se  Se29  1  0.640321  0.711380  0.095671  1
  Se  Se30  1  0.359679  0.211380  0.404329  1
  Se  Se31  1  0.140321  0.788620  0.904329  1
  O  O32  1  0.808385  0.423682  0.738588  1
  O  O33  1  0.691615  0.576318  0.238588  1
  O  O34  1  0.308385  0.076318  0.261412  1
  O  O35  1  0.191615  0.923682  0.761412  1
  O  O36  1  0.912417  0.096179  0.648132  1
  O  O37  1  0.587583  0.903821  0.148132  1
  O  O38  1  0.412417  0.403821  0.351868  1
  O  O39  1  0.087583  0.596179  0.851868  1
  O  O40  1  0.055935  0.429582  0.605619  1
  O  O41  1  0.444065  0.570418  0.105619  1
  O  O42  1  0.555935  0.070418  0.394381  1
  O  O43  1  0.944065  0.929582  0.894381  1
  O  O44  1  0.918994  0.200248  0.501777  1
  O  O45  1  0.581006  0.799752  0.001777  1
  O  O46  1  0.418994  0.299752  0.498223  1
  O  O47  1  0.081006  0.700248  0.998223  1
  O  O48  1  0.813304  0.778411  0.736770  1
  O  O49  1  0.686696  0.221589  0.236770  1
  O  O50  1  0.313304  0.721589  0.263230  1
  O  O51  1  0.186696  0.278411  0.763230  1
  O  O52  1  0.468199  0.606449  0.706546  1
  O  O53  1  0.031801  0.393551  0.206546  1
  O  O54  1  0.968199  0.893551  0.293454  1
  O  O55  1  0.531801  0.106449  0.793454  1
  O  O56  1  0.127641  0.804034  0.604982  1
  O  O57  1  0.372359  0.195966  0.104982  1
  O  O58  1  0.627641  0.695966  0.395018  1
  O  O59  1  0.872359  0.304034  0.895018  1
  O  O60  1  0.088047  0.710430  0.454333  1
  O  O61  1  0.411953  0.289570  0.954333  1
  O  O62  1  0.588047  0.789570  0.545667  1
  O  O63  1  0.911953  0.210430  0.045667  1
