# generated using pymatgen
data_Ce2H16S3O20
_symmetry_space_group_name_H-M   'P 1'
_cell_length_a   7.49634940
_cell_length_b   7.49634940
_cell_length_c   20.90578605
_cell_angle_alpha   83.57136327
_cell_angle_beta   96.42863673
_cell_angle_gamma   116.41993711
_symmetry_Int_Tables_number   1
_chemical_formula_structural   Ce2H16S3O20
_chemical_formula_sum   'Ce4 H32 S6 O40'
_cell_volume   1042.93771945
_cell_formula_units_Z   2
loop_
 _symmetry_equiv_pos_site_id
 _symmetry_equiv_pos_as_xyz
  1  'x, y, z'
loop_
 _atom_site_type_symbol
 _atom_site_label
 _atom_site_symmetry_multiplicity
 _atom_site_fract_x
 _atom_site_fract_y
 _atom_site_fract_z
 _atom_site_occupancy
  Ce  Ce0  1  0.893458  0.267864  0.090635  1
  Ce  Ce1  1  0.267864  0.893458  0.409365  1
  Ce  Ce2  1  0.106542  0.732136  0.909365  1
  Ce  Ce3  1  0.732136  0.106542  0.590635  1
  H  H4  1  0.510429  0.135691  -0.002935  1
  H  H5  1  0.135691  0.510429  0.502935  1
  H  H6  1  0.489571  0.864309  0.002935  1
  H  H7  1  0.864309  0.489571  0.497065  1
  H  H8  1  0.776541  0.658570  0.979361  1
  H  H9  1  0.658570  0.776541  0.520639  1
  H  H10  1  0.223459  0.341430  0.020639  1
  H  H11  1  0.341430  0.223459  0.479361  1
  H  H12  1  0.826199  0.423017  0.273533  1
  H  H13  1  0.423017  0.826199  0.226467  1
  H  H14  1  0.173801  0.576983  0.726467  1
  H  H15  1  0.576983  0.173801  0.773533  1
  H  H16  1  0.692364  0.380231  0.168020  1
  H  H17  1  0.380231  0.692364  0.331980  1
  H  H18  1  0.307636  0.619769  0.831980  1
  H  H19  1  0.619769  0.307636  0.668020  1
  H  H20  1  0.447727  0.429367  0.120146  1
  H  H21  1  0.429367  0.447727  0.379854  1
  H  H22  1  0.552273  0.570633  0.879854  1
  H  H23  1  0.570633  0.552273  0.620146  1
  H  H24  1  0.209774  0.140172  0.058457  1
  H  H25  1  0.140172  0.209774  0.441543  1
  H  H26  1  0.790226  0.859828  0.941543  1
  H  H27  1  0.859828  0.790226  0.558457  1
  H  H28  1  0.459043  0.814571  0.195794  1
  H  H29  1  0.814571  0.459043  0.304206  1
  H  H30  1  0.540957  0.185429  0.804206  1
  H  H31  1  0.185429  0.540957  0.695794  1
  H  H32  1  0.620781  0.618487  0.152975  1
  H  H33  1  0.618487  0.620781  0.347025  1
  H  H34  1  0.379219  0.381513  0.847025  1
  H  H35  1  0.381513  0.379219  0.652975  1
  S  S36  1  0.957363  0.270380  0.920983  1
  S  S37  1  0.270380  0.957363  0.579017  1
  S  S38  1  0.042637  0.729620  0.079017  1
  S  S39  1  0.729620  0.042637  0.420983  1
  S  S40  1  0.237025  0.237025  0.250000  1
  S  S41  1  0.762975  0.762975  0.750000  1
  O  O42  1  0.858479  0.116989  0.973885  1
  O  O43  1  0.116989  0.858479  0.526115  1
  O  O44  1  0.141521  0.883011  0.026115  1
  O  O45  1  0.883011  0.141521  0.473885  1
  O  O46  1  0.837618  0.383448  0.897335  1
  O  O47  1  0.383448  0.837618  0.602665  1
  O  O48  1  0.162382  0.616552  0.102665  1
  O  O49  1  0.616552  0.162382  0.397335  1
  O  O50  1  0.146552  0.434465  0.953891  1
  O  O51  1  0.434465  0.146552  0.546109  1
  O  O52  1  0.853448  0.565535  0.046109  1
  O  O53  1  0.565535  0.853448  0.453891  1
  O  O54  1  0.006805  0.184884  0.870818  1
  O  O55  1  0.184884  0.006805  0.629182  1
  O  O56  1  -0.006805  0.815116  0.129182  1
  O  O57  1  0.815116  -0.006805  0.370818  1
  O  O58  1  0.084721  0.190513  0.196740  1
  O  O59  1  0.190513  0.084721  0.303260  1
  O  O60  1  0.915279  0.809487  0.803260  1
  O  O61  1  0.809487  0.915279  0.696740  1
  O  O62  1  0.539286  0.474768  0.158996  1
  O  O63  1  0.474768  0.539286  0.341004  1
  O  O64  1  0.460714  0.525232  0.841004  1
  O  O65  1  0.525232  0.460714  0.658996  1
  O  O66  1  0.557777  0.164779  0.043964  1
  O  O67  1  0.164779  0.557777  0.456036  1
  O  O68  1  0.442223  0.835221  0.956036  1
  O  O69  1  0.835221  0.442223  0.543964  1
  O  O70  1  0.788032  0.317039  0.167622  1
  O  O71  1  0.317039  0.788032  0.332378  1
  O  O72  1  0.211968  0.682961  0.832378  1
  O  O73  1  0.682961  0.211968  0.667622  1
  O  O74  1  0.222587  0.274368  0.065211  1
  O  O75  1  0.274368  0.222587  0.434789  1
  O  O76  1  0.777413  0.725632  0.934789  1
  O  O77  1  0.725632  0.777413  0.565211  1
  O  O78  1  0.597679  -0.003830  0.069569  1
  O  O79  1  -0.003830  0.597679  0.430431  1
  O  O80  1  0.402321  0.003830  0.930431  1
  O  O81  1  0.003830  0.402321  0.569569  1
