# generated using pymatgen
data_Li2Mn2(PO4)3
_symmetry_space_group_name_H-M   'P 1'
_cell_length_a   8.59917649
_cell_length_b   8.80041177
_cell_length_c   8.59917651
_cell_angle_alpha   59.41610394
_cell_angle_beta   60.68197828
_cell_angle_gamma   59.41610509
_symmetry_Int_Tables_number   1
_chemical_formula_structural   Li2Mn2(PO4)3
_chemical_formula_sum   'Li4 Mn4 P6 O24'
_cell_volume   458.31003367
_cell_formula_units_Z   2
loop_
 _symmetry_equiv_pos_site_id
 _symmetry_equiv_pos_as_xyz
  1  'x, y, z'
loop_
 _atom_site_type_symbol
 _atom_site_label
 _atom_site_symmetry_multiplicity
 _atom_site_fract_x
 _atom_site_fract_y
 _atom_site_fract_z
 _atom_site_occupancy
  Li  Li0  1  0.325746  0.447096  0.674245  1
  Li  Li1  1  0.825755  0.052904  0.174254  1
  Li  Li2  1  0.174245  0.947096  0.825746  1
  Li  Li3  1  0.674254  0.552904  0.325755  1
  Mn  Mn4  1  0.140386  0.144525  0.138564  1
  Mn  Mn5  1  0.361436  0.355475  0.359614  1
  Mn  Mn6  1  0.638564  0.644525  0.640386  1
  Mn  Mn7  1  0.859614  0.855475  0.861436  1
  P  P8  1  0.032752  0.750000  0.467248  1
  P  P9  1  0.967248  0.250000  0.532752  1
  P  P10  1  0.460461  0.036088  0.751882  1
  P  P11  1  0.748118  0.463912  0.039539  1
  P  P12  1  0.251882  0.536088  0.960461  1
  P  P13  1  0.539539  0.963912  0.248118  1
  O  O14  1  0.138728  0.281187  0.511732  1
  O  O15  1  0.295410  0.495817  0.132017  1
  O  O16  1  0.044176  0.921324  0.279263  1
  O  O17  1  0.532079  0.116855  0.292604  1
  O  O18  1  0.011732  0.781187  0.638728  1
  O  O19  1  0.220737  0.578676  0.455824  1
  O  O20  1  0.270315  0.057095  0.917976  1
  O  O21  1  0.442802  0.230020  0.585490  1
  O  O22  1  0.582024  0.442905  0.229685  1
  O  O23  1  0.207396  0.383145  0.967921  1
  O  O24  1  0.085490  0.730020  0.942802  1
  O  O25  1  0.367983  0.004183  0.204590  1
  O  O26  1  0.632017  0.995817  0.795410  1
  O  O27  1  0.914510  0.269981  0.057198  1
  O  O28  1  0.792604  0.616855  0.032079  1
  O  O29  1  0.417976  0.557095  0.770315  1
  O  O30  1  0.557198  0.769980  0.414510  1
  O  O31  1  0.729685  0.942905  0.082024  1
  O  O32  1  0.779263  0.421324  0.544176  1
  O  O33  1  0.988268  0.218813  0.361272  1
  O  O34  1  0.467921  0.883145  0.707396  1
  O  O35  1  0.955824  0.078676  0.720737  1
  O  O36  1  0.704590  0.504183  0.867983  1
  O  O37  1  0.861272  0.718813  0.488268  1
