# generated using pymatgen
data_Li2VF5
_symmetry_space_group_name_H-M   'P 1'
_cell_length_a   13.56697559
_cell_length_b   7.14502697
_cell_length_c   5.17398869
_cell_angle_alpha   90.00000000
_cell_angle_beta   90.00000000
_cell_angle_gamma   133.72760575
_symmetry_Int_Tables_number   1
_chemical_formula_structural   Li2VF5
_chemical_formula_sum   'Li8 V4 F20'
_cell_volume   362.43563810
_cell_formula_units_Z   4
loop_
 _symmetry_equiv_pos_site_id
 _symmetry_equiv_pos_as_xyz
  1  'x, y, z'
loop_
 _atom_site_type_symbol
 _atom_site_label
 _atom_site_symmetry_multiplicity
 _atom_site_fract_x
 _atom_site_fract_y
 _atom_site_fract_z
 _atom_site_occupancy
  Li  Li0  1  0.996533  0.130931  0.759120  1
  Li  Li1  1  0.068232  0.548842  0.248778  1
  Li  Li2  1  0.431768  0.951158  0.748778  1
  Li  Li3  1  0.503467  0.369069  0.259120  1
  Li  Li4  1  0.496533  0.630931  0.740880  1
  Li  Li5  1  0.568232  0.048842  0.251222  1
  Li  Li6  1  0.931768  0.451158  0.751222  1
  Li  Li7  1  0.003467  0.869069  0.240880  1
  V  V8  1  0.200572  0.036258  0.732160  1
  V  V9  1  0.299428  0.463742  0.232160  1
  V  V10  1  0.700572  0.536258  0.767840  1
  V  V11  1  0.799428  0.963742  0.267840  1
  F  F12  1  0.142132  0.195354  0.970108  1
  F  F13  1  0.142747  0.192440  0.486645  1
  F  F14  1  0.357253  0.307560  0.986645  1
  F  F15  1  0.065234  0.756774  0.988355  1
  F  F16  1  0.055045  0.745594  0.493805  1
  F  F17  1  0.357868  0.304646  0.470108  1
  F  F18  1  0.272637  0.885704  0.722339  1
  F  F19  1  0.227363  0.614296  0.222339  1
  F  F20  1  0.444955  0.754406  0.993805  1
  F  F21  1  0.434766  0.743226  0.488355  1
  F  F22  1  0.565234  0.256774  0.511645  1
  F  F23  1  0.555045  0.245594  0.006195  1
  F  F24  1  0.772637  0.385704  0.777661  1
  F  F25  1  0.727363  0.114296  0.277661  1
  F  F26  1  0.642132  0.695354  0.529892  1
  F  F27  1  0.944955  0.254406  0.506195  1
  F  F28  1  0.934766  0.243226  0.011645  1
  F  F29  1  0.642747  0.692440  0.013355  1
  F  F30  1  0.857253  0.807560  0.513355  1
  F  F31  1  0.857868  0.804646  0.029892  1
