# generated using pymatgen
data_Li2Mn3(PO4)3
_symmetry_space_group_name_H-M   'P 1'
_cell_length_a   6.67910773
_cell_length_b   9.16286524
_cell_length_c   8.73217775
_cell_angle_alpha   105.78265018
_cell_angle_beta   71.55649489
_cell_angle_gamma   115.30478728
_symmetry_Int_Tables_number   1
_chemical_formula_structural   Li2Mn3(PO4)3
_chemical_formula_sum   'Li4 Mn6 P6 O24'
_cell_volume   452.44870905
_cell_formula_units_Z   2
loop_
 _symmetry_equiv_pos_site_id
 _symmetry_equiv_pos_as_xyz
  1  'x, y, z'
loop_
 _atom_site_type_symbol
 _atom_site_label
 _atom_site_symmetry_multiplicity
 _atom_site_fract_x
 _atom_site_fract_y
 _atom_site_fract_z
 _atom_site_occupancy
  Li  Li0  1  0.000000  0.500000  0.500000  1
  Li  Li1  1  0.500000  0.500000  0.500000  1
  Li  Li2  1  0.759970  0.009970  0.990030  1
  Li  Li3  1  0.240030  0.990030  0.009970  1
  Mn  Mn4  1  0.742485  0.380122  0.062782  1
  Mn  Mn5  1  0.925144  0.062782  0.380122  1
  Mn  Mn6  1  0.476304  0.726304  0.273696  1
  Mn  Mn7  1  0.523696  0.273696  0.726304  1
  Mn  Mn8  1  0.074856  0.937218  0.619878  1
  Mn  Mn9  1  0.257515  0.619878  0.937218  1
  P  P10  1  0.212640  0.337944  0.123178  1
  P  P11  1  0.497874  0.123178  0.337944  1
  P  P12  1  0.042530  0.292530  0.707470  1
  P  P13  1  0.957470  0.707470  0.292530  1
  P  P14  1  0.502126  0.876822  0.662056  1
  P  P15  1  0.787360  0.662056  0.876822  1
  O  O16  1  0.062665  0.159551  0.158110  1
  O  O17  1  0.561224  0.158110  0.159551  1
  O  O18  1  0.234095  0.043971  0.396037  1
  O  O19  1  0.086160  0.396037  0.043971  1
  O  O20  1  0.569451  0.674248  0.005724  1
  O  O21  1  0.400925  0.005724  0.674248  1
  O  O22  1  0.588406  0.278449  0.462172  1
  O  O23  1  0.272128  0.462172  0.278449  1
  O  O24  1  0.008364  0.275308  0.534295  1
  O  O25  1  0.767351  0.534295  0.275308  1
  O  O26  1  0.137107  0.174753  0.733326  1
  O  O27  1  0.195681  0.733326  0.174753  1
  O  O28  1  0.862892  0.825247  0.266674  1
  O  O29  1  0.804319  0.266674  0.825247  1
  O  O30  1  0.232649  0.465705  0.724692  1
  O  O31  1  0.991636  0.724692  0.465705  1
  O  O32  1  0.411594  0.721551  0.537828  1
  O  O33  1  0.727872  0.537828  0.721551  1
  O  O34  1  0.599075  0.994276  0.325752  1
  O  O35  1  0.430549  0.325752  0.994276  1
  O  O36  1  0.913840  0.603963  0.956029  1
  O  O37  1  0.765905  0.956029  0.603963  1
  O  O38  1  0.937335  0.840449  0.841890  1
  O  O39  1  0.438776  0.841890  0.840449  1
