# generated using pymatgen
data_Li4Ti3Fe2Ni3O16
_symmetry_space_group_name_H-M   'P 1'
_cell_length_a   5.87831595
_cell_length_b   5.78861340
_cell_length_c   9.54771753
_cell_angle_alpha   90.00879058
_cell_angle_beta   92.67663780
_cell_angle_gamma   119.54334253
_symmetry_Int_Tables_number   1
_chemical_formula_structural   Li4Ti3Fe2Ni3O16
_chemical_formula_sum   'Li4 Ti3 Fe2 Ni3 O16'
_cell_volume   282.23388233
_cell_formula_units_Z   1
loop_
 _symmetry_equiv_pos_site_id
 _symmetry_equiv_pos_as_xyz
  1  'x, y, z'
loop_
 _atom_site_type_symbol
 _atom_site_label
 _atom_site_symmetry_multiplicity
 _atom_site_fract_x
 _atom_site_fract_y
 _atom_site_fract_z
 _atom_site_occupancy
  Li  Li0  1  0.338250  0.669216  0.895821  1
  Li  Li1  1  0.967275  0.983559  0.991575  1
  Li  Li2  1  0.985002  0.992137  0.495572  1
  Li  Li3  1  0.680714  0.340141  0.398876  1
  Ti  Ti4  1  0.178852  0.838046  0.217406  1
  Ti  Ti5  1  0.178688  0.340891  0.217826  1
  Ti  Ti6  1  0.335476  0.168177  0.709992  1
  Fe  Fe7  1  0.338760  0.669287  0.494742  1
  Fe  Fe8  1  0.668306  0.333985  0.983472  1
  Ni  Ni9  1  0.654178  0.827088  0.208083  1
  Ni  Ni10  1  0.833667  0.663739  0.714017  1
  Ni  Ni11  1  0.833228  0.169997  0.714255  1
  O  O12  1  0.187836  0.852470  0.598383  1
  O  O13  1  0.038599  0.518829  0.335030  1
  O  O14  1  0.315643  0.657713  0.103413  1
  O  O15  1  0.991062  0.995275  0.305948  1
  O  O16  1  0.002958  0.001711  0.807190  1
  O  O17  1  0.187635  0.335821  0.597842  1
  O  O18  1  0.473177  0.966249  0.340919  1
  O  O19  1  0.474547  0.508299  0.340556  1
  O  O20  1  0.313363  0.156787  0.103191  1
  O  O21  1  0.684738  0.842356  0.603273  1
  O  O22  1  0.516032  0.473654  0.849055  1
  O  O23  1  0.515846  0.042727  0.849215  1
  O  O24  1  0.673509  0.336838  0.612070  1
  O  O25  1  0.832798  0.659673  0.094415  1
  O  O26  1  0.967844  0.483989  0.831163  1
  O  O27  1  0.832019  0.171649  0.094541  1
