# generated using pymatgen
data_Li5Mn5(PO4)6
_symmetry_space_group_name_H-M   'P 1'
_cell_length_a   8.70091770
_cell_length_b   8.90039637
_cell_length_c   8.93506358
_cell_angle_alpha   58.79594624
_cell_angle_beta   57.84103791
_cell_angle_gamma   58.39127011
_symmetry_Int_Tables_number   1
_chemical_formula_structural   Li5Mn5(PO4)6
_chemical_formula_sum   'Li5 Mn5 P6 O24'
_cell_volume   470.64497671
_cell_formula_units_Z   1
loop_
 _symmetry_equiv_pos_site_id
 _symmetry_equiv_pos_as_xyz
  1  'x, y, z'
loop_
 _atom_site_type_symbol
 _atom_site_label
 _atom_site_symmetry_multiplicity
 _atom_site_fract_x
 _atom_site_fract_y
 _atom_site_fract_z
 _atom_site_occupancy
  Li  Li0  1  0.518692  0.153632  0.167217  1
  Li  Li1  1  0.252105  0.849688  0.653236  1
  Li  Li2  1  0.710133  0.155350  0.325934  1
  Li  Li3  1  0.711013  0.803306  0.149042  1
  Li  Li4  1  0.711874  0.339289  0.816361  1
  Mn  Mn5  1  0.995845  0.998609  0.010301  1
  Mn  Mn6  1  0.066388  0.648561  0.639971  1
  Mn  Mn7  1  0.498974  0.487986  0.503495  1
  Mn  Mn8  1  0.435963  0.859565  0.849083  1
  Mn  Mn9  1  0.954143  0.345502  0.349518  1
  P  P10  1  0.255449  0.251450  0.552308  1
  P  P11  1  0.256747  0.944289  0.241137  1
  P  P12  1  0.261083  0.542136  0.950862  1
  P  P13  1  0.753566  0.468087  0.033216  1
  P  P14  1  0.774518  0.039678  0.740750  1
  P  P15  1  0.738727  0.748211  0.459997  1
  O  O16  1  0.071775  0.105885  0.297702  1
  O  O17  1  0.076036  0.498004  0.110712  1
  O  O18  1  0.074416  0.304441  0.520363  1
  O  O19  1  0.236885  0.081356  0.745649  1
  O  O20  1  0.444826  0.194460  0.399071  1
  O  O21  1  0.257797  0.407608  0.583504  1
  O  O22  1  0.239275  0.924672  0.087425  1
  O  O23  1  0.261369  0.752550  0.411388  1
  O  O24  1  0.572445  0.619127  0.988187  1
  O  O25  1  0.285714  0.569981  0.751421  1
  O  O26  1  0.788466  0.275900  0.036449  1
  O  O27  1  0.602935  0.999691  0.785594  1
  O  O28  1  0.443524  0.965900  0.186011  1
  O  O29  1  0.215272  0.745217  0.933246  1
  O  O30  1  0.719245  0.437377  0.237014  1
  O  O31  1  0.444512  0.394432  0.985125  1
  O  O32  1  0.754790  0.241034  0.581094  1
  O  O33  1  0.778355  0.058223  0.902207  1
  O  O34  1  0.730055  0.598061  0.421901  1
  O  O35  1  0.537818  0.807767  0.611072  1
  O  O36  1  0.766387  0.911479  0.268327  1
  O  O37  1  0.900261  0.678731  0.524149  1
  O  O38  1  0.932181  0.524597  0.892185  1
  O  O39  1  0.970439  0.891171  0.674782  1
