# generated using pymatgen
data_Li5Cu2Ni3O10
_symmetry_space_group_name_H-M   'P 1'
_cell_length_a   5.03398573
_cell_length_b   5.13041957
_cell_length_c   7.66011750
_cell_angle_alpha   106.90279806
_cell_angle_beta   102.89785557
_cell_angle_gamma   101.21835242
_symmetry_Int_Tables_number   1
_chemical_formula_structural   Li5Cu2Ni3O10
_chemical_formula_sum   'Li5 Cu2 Ni3 O10'
_cell_volume   177.22848036
_cell_formula_units_Z   1
loop_
 _symmetry_equiv_pos_site_id
 _symmetry_equiv_pos_as_xyz
  1  'x, y, z'
loop_
 _atom_site_type_symbol
 _atom_site_label
 _atom_site_symmetry_multiplicity
 _atom_site_fract_x
 _atom_site_fract_y
 _atom_site_fract_z
 _atom_site_occupancy
  Li  Li0  1  0.204564  0.900555  0.404337  1
  Li  Li1  1  0.384770  0.287585  0.784313  1
  Li  Li2  1  0.500000  0.500000  0.500000  1
  Li  Li3  1  0.615230  0.712415  0.215687  1
  Li  Li4  1  0.795436  0.099445  0.595663  1
  Cu  Cu5  1  0.097951  0.697989  0.696154  1
  Cu  Cu6  1  0.902049  0.302011  0.303846  1
  Ni  Ni7  1  0.000000  0.500000  0.000000  1
  Ni  Ni8  1  0.698199  0.896861  0.897547  1
  Ni  Ni9  1  0.301801  0.103139  0.102453  1
  O  O10  1  0.044936  0.120314  0.863104  1
  O  O11  1  0.331530  0.701939  0.932191  1
  O  O12  1  0.132756  0.298015  0.529999  1
  O  O13  1  0.221041  0.480956  0.239555  1
  O  O14  1  0.429596  0.894837  0.661841  1
  O  O15  1  0.570404  0.105163  0.338159  1
  O  O16  1  0.778959  0.519044  0.760445  1
  O  O17  1  0.867244  0.701985  0.470001  1
  O  O18  1  0.668470  0.298061  0.067809  1
  O  O19  1  0.955064  0.879686  0.136896  1
