# generated using pymatgen
data_Li8Mn7Fe(BO3)8
_symmetry_space_group_name_H-M   'P 1'
_cell_length_a   5.25229740
_cell_length_b   5.24615129
_cell_length_c   21.00563887
_cell_angle_alpha   89.10951780
_cell_angle_beta   91.15033643
_cell_angle_gamma   60.18231061
_symmetry_Int_Tables_number   1
_chemical_formula_structural   Li8Mn7Fe(BO3)8
_chemical_formula_sum   'Li8 Mn7 Fe1 B8 O24'
_cell_volume   501.85231502
_cell_formula_units_Z   1
loop_
 _symmetry_equiv_pos_site_id
 _symmetry_equiv_pos_as_xyz
  1  'x, y, z'
loop_
 _atom_site_type_symbol
 _atom_site_label
 _atom_site_symmetry_multiplicity
 _atom_site_fract_x
 _atom_site_fract_y
 _atom_site_fract_z
 _atom_site_occupancy
  Li  Li0  1  0.321108  0.650902  0.666170  1
  Li  Li1  1  0.347422  0.678853  0.916291  1
  Li  Li2  1  0.321033  0.650883  0.166009  1
  Li  Li3  1  0.349171  0.678797  0.415994  1
  Li  Li4  1  0.651992  0.335246  0.791069  1
  Li  Li5  1  0.661724  0.348697  0.541196  1
  Li  Li6  1  0.651363  0.338340  0.291100  1
  Li  Li7  1  0.661648  0.348373  0.041010  1
  Mn  Mn8  1  0.328961  0.003876  0.558590  1
  Mn  Mn9  1  0.329335  0.003788  0.058243  1
  Mn  Mn10  1  0.678938  0.000682  0.932680  1
  Mn  Mn11  1  0.676620  0.002887  0.433484  1
  Mn  Mn12  1  0.997988  0.324777  0.684285  1
  Mn  Mn13  1  0.997081  0.322797  0.183410  1
  Mn  Mn14  1  0.996232  0.671188  0.308439  1
  Fe  Fe15  1  0.000110  0.675079  0.808518  1
  B  B16  1  0.003518  0.340921  0.936374  1
  B  B17  1  0.002944  0.341389  0.437114  1
  B  B18  1  0.331410  0.006177  0.811867  1
  B  B19  1  0.334382  0.004680  0.312078  1
  B  B20  1  0.659514  0.997234  0.687865  1
  B  B21  1  0.658446  0.997194  0.187023  1
  B  B22  1  0.995169  0.665498  0.562225  1
  B  B23  1  0.995140  0.665678  0.062015  1
  O  O24  1  0.068751  0.254802  0.792677  1
  O  O25  1  0.070023  0.247137  0.290994  1
  O  O26  1  0.254253  0.069890  0.951739  1
  O  O27  1  0.033342  0.578365  0.915883  1
  O  O28  1  0.253411  0.070083  0.452179  1
  O  O29  1  0.033333  0.578967  0.416521  1
  O  O30  1  0.581943  0.026306  0.826305  1
  O  O31  1  0.268882  0.641012  0.569517  1
  O  O32  1  0.577466  0.038018  0.327363  1
  O  O33  1  0.268945  0.640867  0.069268  1
  O  O34  1  0.348676  0.733627  0.818237  1
  O  O35  1  0.359117  0.730869  0.319443  1
  O  O36  1  0.630464  0.272293  0.694692  1
  O  O37  1  0.629078  0.272145  0.194285  1
  O  O38  1  0.728690  0.370169  0.943681  1
  O  O39  1  0.421694  0.967007  0.667065  1
  O  O40  1  0.728232  0.371001  0.444353  1
  O  O41  1  0.421067  0.966486  0.166505  1
  O  O42  1  0.962409  0.422411  0.577639  1
  O  O43  1  0.962309  0.422286  0.077354  1
  O  O44  1  0.752545  0.929893  0.541125  1
  O  O45  1  0.752701  0.929876  0.040943  1
  O  O46  1  0.930219  0.747092  0.703277  1
  O  O47  1  0.930006  0.746656  0.202109  1
