# generated using pymatgen
data_PH9(NO2)2
_symmetry_space_group_name_H-M   'P 1'
_cell_length_a   11.09757339
_cell_length_b   6.71584999
_cell_length_c   8.10134957
_cell_angle_alpha   90.00000000
_cell_angle_beta   113.62319296
_cell_angle_gamma   90.00000000
_symmetry_Int_Tables_number   1
_chemical_formula_structural   PH9(NO2)2
_chemical_formula_sum   'P4 H36 N8 O16'
_cell_volume   553.19335527
_cell_formula_units_Z   4
loop_
 _symmetry_equiv_pos_site_id
 _symmetry_equiv_pos_as_xyz
  1  'x, y, z'
loop_
 _atom_site_type_symbol
 _atom_site_label
 _atom_site_symmetry_multiplicity
 _atom_site_fract_x
 _atom_site_fract_y
 _atom_site_fract_z
 _atom_site_occupancy
  P  P0  1  0.249122  0.609046  0.932165  1
  P  P1  1  0.750878  0.109046  0.567835  1
  P  P2  1  0.750878  0.390954  0.067835  1
  P  P3  1  0.249122  0.890954  0.432165  1
  H  H4  1  0.178312  0.632131  0.628255  1
  H  H5  1  0.821688  0.132131  0.871745  1
  H  H6  1  0.821688  0.367869  0.371745  1
  H  H7  1  0.178312  0.867869  0.128255  1
  H  H8  1  0.522741  0.334891  0.609922  1
  H  H9  1  0.477259  0.834891  0.890078  1
  H  H10  1  0.477259  0.665109  0.390078  1
  H  H11  1  0.522741  0.165109  0.109922  1
  H  H12  1  0.415754  0.520731  0.611522  1
  H  H13  1  0.584246  0.020731  0.888478  1
  H  H14  1  0.584246  0.479269  0.388478  1
  H  H15  1  0.415754  0.979269  0.111522  1
  H  H16  1  0.502138  0.379549  0.799924  1
  H  H17  1  0.497862  0.879549  0.700076  1
  H  H18  1  0.497862  0.620451  0.200076  1
  H  H19  1  0.502138  0.120451  0.299924  1
  H  H20  1  0.377609  0.273099  0.620020  1
  H  H21  1  0.622391  0.773100  0.879980  1
  H  H22  1  0.622391  0.726900  0.379980  1
  H  H23  1  0.377609  0.226901  0.120020  1
  H  H24  1  0.176059  0.100193  0.678992  1
  H  H25  1  0.823941  0.600193  0.821008  1
  H  H26  1  0.823941  0.899807  0.321008  1
  H  H27  1  0.176059  0.399807  0.178992  1
  H  H28  1  0.124651  0.976985  0.826063  1
  H  H29  1  0.875349  0.476985  0.673937  1
  H  H30  1  0.875349  0.023015  0.173937  1
  H  H31  1  0.124651  0.523015  0.326063  1
  H  H32  1  0.168649  0.222634  0.856963  1
  H  H33  1  0.831351  0.722634  0.643037  1
  H  H34  1  0.831351  0.777366  0.143037  1
  H  H35  1  0.168649  0.277366  0.356963  1
  H  H36  1  0.026533  0.156912  0.683490  1
  H  H37  1  0.973467  0.656912  0.816510  1
  H  H38  1  0.973467  0.843088  0.316510  1
  H  H39  1  0.026533  0.343088  0.183490  1
  N  N40  1  0.453160  0.380346  0.659839  1
  N  N41  1  0.546840  0.880346  0.840161  1
  N  N42  1  0.546840  0.619654  0.340161  1
  N  N43  1  0.453160  0.119654  0.159839  1
  N  N44  1  0.123463  0.112798  0.761791  1
  N  N45  1  0.876537  0.612798  0.738209  1
  N  N46  1  0.876537  0.887202  0.238209  1
  N  N47  1  0.123463  0.387202  0.261791  1
  O  O48  1  0.204518  0.530120  0.729260  1
  O  O49  1  0.795482  0.030120  0.770740  1
  O  O50  1  0.795482  0.469880  0.270740  1
  O  O51  1  0.204518  0.969880  0.229260  1
  O  O52  1  0.263782  0.415634  0.041491  1
  O  O53  1  0.736218  0.915634  0.458509  1
  O  O54  1  0.736218  0.584366  0.958509  1
  O  O55  1  0.263782  0.084366  0.541491  1
  O  O56  1  0.378805  0.727043  0.989129  1
  O  O57  1  0.621195  0.227043  0.510871  1
  O  O58  1  0.621195  0.272957  0.010871  1
  O  O59  1  0.378805  0.772957  0.489129  1
  O  O60  1  0.137414  0.742651  0.940644  1
  O  O61  1  0.862586  0.242651  0.559356  1
  O  O62  1  0.862586  0.257349  0.059356  1
  O  O63  1  0.137414  0.757349  0.440644  1
