# generated using pymatgen
data_FeOF
_symmetry_space_group_name_H-M   'P 1'
_cell_length_a   14.23565644
_cell_length_b   9.46607845
_cell_length_c   3.08564731
_cell_angle_alpha   90.00000000
_cell_angle_beta   90.00000000
_cell_angle_gamma   90.05805059
_symmetry_Int_Tables_number   1
_chemical_formula_structural   FeOF
_chemical_formula_sum   'Fe12 O12 F12'
_cell_volume   415.80878386
_cell_formula_units_Z   12
loop_
 _symmetry_equiv_pos_site_id
 _symmetry_equiv_pos_as_xyz
  1  'x, y, z'
loop_
 _atom_site_type_symbol
 _atom_site_label
 _atom_site_symmetry_multiplicity
 _atom_site_fract_x
 _atom_site_fract_y
 _atom_site_fract_z
 _atom_site_occupancy
  Fe  Fe0  1  0.004826  0.007243  0.000000  1
  Fe  Fe1  1  0.007119  0.495715  0.000000  1
  Fe  Fe2  1  0.153921  0.250031  0.500000  1
  Fe  Fe3  1  0.166981  0.718098  0.500000  1
  Fe  Fe4  1  0.347972  0.992173  0.000000  1
  Fe  Fe5  1  0.337585  0.516579  0.000000  1
  Fe  Fe6  1  0.487832  0.746440  0.500000  1
  Fe  Fe7  1  0.502697  0.223094  0.500000  1
  Fe  Fe8  1  0.669080  0.003233  0.000000  1
  Fe  Fe9  1  0.675909  0.502334  0.000000  1
  Fe  Fe10  1  0.835879  0.286006  0.500000  1
  Fe  Fe11  1  0.815931  0.753597  0.500000  1
  O  O12  1  0.068570  0.404725  0.500000  1
  O  O13  1  0.098555  0.146031  0.000000  1
  O  O14  1  0.097504  0.656289  0.000000  1
  O  O15  1  0.269935  0.588755  0.500000  1
  O  O16  1  0.397654  0.892173  0.500000  1
  O  O17  1  0.434142  0.151377  0.000000  1
  O  O18  1  0.436446  0.653655  0.000000  1
  O  O19  1  0.606812  0.097860  0.500000  1
  O  O20  1  0.726958  0.406413  0.500000  1
  O  O21  1  0.733697  0.910172  0.500000  1
  O  O22  1  0.766511  0.657037  0.000000  1
  O  O23  1  0.902790  0.354854  0.000000  1
  F  F24  1  0.062595  0.901740  0.500000  1
  F  F25  1  0.233344  0.336050  0.000000  1
  F  F26  1  0.227057  0.848897  0.000000  1
  F  F27  1  0.267154  0.091832  0.500000  1
  F  F28  1  0.399274  0.398869  0.500000  1
  F  F29  1  0.563405  0.351832  0.000000  1
  F  F30  1  0.559049  0.840201  0.000000  1
  F  F31  1  0.595900  0.601702  0.500000  1
  F  F32  1  0.777044  0.159555  0.000000  1
  F  F33  1  0.903176  0.855817  0.000000  1
  F  F34  1  0.932908  0.093456  0.500000  1
  F  F35  1  0.933790  0.606164  0.500000  1
