# generated using pymatgen
data_Na3Li3Mn2P2(CO7)2
_symmetry_space_group_name_H-M   'P 1'
_cell_length_a   8.75109605
_cell_length_b   6.76635659
_cell_length_c   10.14992143
_cell_angle_alpha   90.30446456
_cell_angle_beta   88.93559647
_cell_angle_gamma   88.91424247
_symmetry_Int_Tables_number   1
_chemical_formula_structural   Na3Li3Mn2P2(CO7)2
_chemical_formula_sum   'Na6 Li6 Mn4 P4 C4 O28'
_cell_volume   600.78642006
_cell_formula_units_Z   2
loop_
 _symmetry_equiv_pos_site_id
 _symmetry_equiv_pos_as_xyz
  1  'x, y, z'
loop_
 _atom_site_type_symbol
 _atom_site_label
 _atom_site_symmetry_multiplicity
 _atom_site_fract_x
 _atom_site_fract_y
 _atom_site_fract_z
 _atom_site_occupancy
  Na  Na0  1  0.083597  0.244260  0.378872  1
  Na  Na1  1  0.253963  0.499680  0.626233  1
  Na  Na2  1  0.255441  0.998769  0.123310  1
  Na  Na3  1  0.257101  0.500978  0.121543  1
  Na  Na4  1  0.746284  0.500836  0.876145  1
  Na  Na5  1  0.744750  0.501155  0.375743  1
  Li  Li6  1  0.079623  0.236063  0.875374  1
  Li  Li7  1  0.269713  0.019897  0.620598  1
  Li  Li8  1  0.733712  0.982390  0.883530  1
  Li  Li9  1  0.729577  0.980223  0.383775  1
  Li  Li10  1  0.914277  0.767395  0.626019  1
  Li  Li11  1  0.910894  0.760214  0.122912  1
  Mn  Mn12  1  0.358249  0.751481  0.885172  1
  Mn  Mn13  1  0.360180  0.752220  0.390901  1
  Mn  Mn14  1  0.644796  0.245814  0.613139  1
  Mn  Mn15  1  0.644319  0.244725  0.108708  1
  P  P16  1  0.405248  0.241476  0.849008  1
  P  P17  1  0.415062  0.244792  0.353629  1
  P  P18  1  0.594288  0.758030  0.648651  1
  P  P19  1  0.598173  0.753082  0.146063  1
  C  C20  1  0.044982  0.759969  0.865525  1
  C  C21  1  0.045016  0.759171  0.367210  1
  C  C22  1  0.948488  0.239393  0.639033  1
  C  C23  1  0.948778  0.248401  0.129887  1
  O  O24  1  0.095881  0.227129  0.654072  1
  O  O25  1  0.092910  0.255230  0.149818  1
  O  O26  1  0.089848  0.753054  0.987217  1
  O  O27  1  0.090245  0.750768  0.488759  1
  O  O28  1  0.145558  0.753025  0.769018  1
  O  O29  1  0.146516  0.752669  0.271063  1
  O  O30  1  0.304173  0.068271  0.896704  1
  O  O31  1  0.316271  0.434258  0.889434  1
  O  O32  1  0.316688  0.068024  0.401275  1
  O  O33  1  0.327107  0.436002  0.399292  1
  O  O34  1  0.421035  0.230582  0.695120  1
  O  O35  1  0.428200  0.767875  0.595086  1
  O  O36  1  0.427281  0.243367  0.200088  1
  O  O37  1  0.435547  0.749065  0.087843  1
  O  O38  1  0.569630  0.233379  0.905232  1
  O  O39  1  0.580479  0.772504  0.802351  1
  O  O40  1  0.579721  0.232283  0.407661  1
  O  O41  1  0.579830  0.771281  0.299543  1
  O  O42  1  0.681357  0.564172  0.608846  1
  O  O43  1  0.695514  0.927893  0.595381  1
  O  O44  1  0.693766  0.563706  0.110099  1
  O  O45  1  0.694911  0.927377  0.092745  1
  O  O46  1  0.858775  0.242792  0.742698  1
  O  O47  1  0.852786  0.242480  0.229765  1
  O  O48  1  0.888966  0.248910  0.523250  1
  O  O49  1  0.897505  0.246827  0.009792  1
  O  O50  1  0.901292  0.773149  0.837651  1
  O  O51  1  0.901696  0.773508  0.339215  1
