# generated using pymatgen
data_LiFe2(BO3)2
_symmetry_space_group_name_H-M   'P 1'
_cell_length_a   5.23053365
_cell_length_b   9.15064039
_cell_length_c   10.12924131
_cell_angle_alpha   91.43338774
_cell_angle_beta   90.61687471
_cell_angle_gamma   89.46813545
_symmetry_Int_Tables_number   1
_chemical_formula_structural   LiFe2(BO3)2
_chemical_formula_sum   'Li4 Fe8 B8 O24'
_cell_volume   484.61367030
_cell_formula_units_Z   4
loop_
 _symmetry_equiv_pos_site_id
 _symmetry_equiv_pos_as_xyz
  1  'x, y, z'
loop_
 _atom_site_type_symbol
 _atom_site_label
 _atom_site_symmetry_multiplicity
 _atom_site_fract_x
 _atom_site_fract_y
 _atom_site_fract_z
 _atom_site_occupancy
  Li  Li0  1  0.845919  0.830717  0.646319  1
  Li  Li1  1  0.665548  0.680573  0.908069  1
  Li  Li2  1  0.320017  0.329053  0.139080  1
  Li  Li3  1  0.173587  0.165239  0.408450  1
  Fe  Fe4  1  0.833625  0.169723  0.633452  1
  Fe  Fe5  1  0.818127  0.512618  0.135236  1
  Fe  Fe6  1  0.666729  0.014167  0.880567  1
  Fe  Fe7  1  0.668009  0.346185  0.382259  1
  Fe  Fe8  1  0.351996  0.648679  0.623527  1
  Fe  Fe9  1  0.318828  0.991599  0.128141  1
  Fe  Fe10  1  0.171450  0.826715  0.375257  1
  Fe  Fe11  1  0.169810  0.494198  0.872510  1
  B  B12  1  0.847787  0.502702  0.630848  1
  B  B13  1  0.827979  0.173395  0.132045  1
  B  B14  1  0.668872  0.005464  0.381493  1
  B  B15  1  0.667486  0.338594  0.881779  1
  B  B16  1  0.329512  0.992983  0.624135  1
  B  B17  1  0.332259  0.663410  0.124863  1
  B  B18  1  0.163106  0.498595  0.375061  1
  B  B19  1  0.170651  0.830493  0.875808  1
  O  O20  1  0.905408  0.499260  0.342723  1
  O  O21  1  0.909418  0.848102  0.859149  1
  O  O22  1  0.787612  0.209640  0.841014  1
  O  O23  1  0.769088  0.143860  0.414866  1
  O  O24  1  0.825908  0.887152  0.385891  1
  O  O25  1  0.812536  0.463804  0.912211  1
  O  O26  1  0.724900  0.634974  0.639742  1
  O  O27  1  0.686541  0.059984  0.074090  1
  O  O28  1  0.728974  0.379018  0.576862  1
  O  O29  1  0.689461  0.298550  0.177114  1
  O  O30  1  0.586157  0.673202  0.098622  1
  O  O31  1  0.581726  0.991879  0.676620  1
  O  O32  1  0.407439  0.995806  0.349803  1
  O  O33  1  0.409800  0.344980  0.896155  1
  O  O34  1  0.290607  0.695419  0.848337  1
  O  O35  1  0.277036  0.627320  0.417507  1
  O  O36  1  0.303595  0.370348  0.362943  1
  O  O37  1  0.323394  0.943987  0.919850  1
  O  O38  1  0.196710  0.535523  0.089476  1
  O  O39  1  0.197386  0.119245  0.605672  1
  O  O40  1  0.219197  0.857864  0.585114  1
  O  O41  1  0.202364  0.783282  0.181519  1
  O  O42  1  0.087499  0.166165  0.146664  1
  O  O43  1  0.099520  0.489110  0.677645  1
