# generated using pymatgen
data_Li2VCr(P2O7)2
_symmetry_space_group_name_H-M   'P 1'
_cell_length_a   4.87126805
_cell_length_b   8.22406022
_cell_length_c   7.02670991
_cell_angle_alpha   89.69379733
_cell_angle_beta   108.73058992
_cell_angle_gamma   90.21811170
_symmetry_Int_Tables_number   1
_chemical_formula_structural   Li2VCr(P2O7)2
_chemical_formula_sum   'Li2 V1 Cr1 P4 O14'
_cell_volume   266.58820070
_cell_formula_units_Z   1
loop_
 _symmetry_equiv_pos_site_id
 _symmetry_equiv_pos_as_xyz
  1  'x, y, z'
loop_
 _atom_site_type_symbol
 _atom_site_label
 _atom_site_symmetry_multiplicity
 _atom_site_fract_x
 _atom_site_fract_y
 _atom_site_fract_z
 _atom_site_occupancy
  Li  Li0  1  0.177408  0.862815  0.676536  1
  Li  Li1  1  0.823418  0.362395  0.324492  1
  V  V2  1  0.216924  0.499782  0.729799  1
  Cr  Cr3  1  0.786257  0.999752  0.272741  1
  P  P4  1  0.399542  0.179676  0.520585  1
  P  P5  1  0.211651  0.786136  0.086223  1
  P  P6  1  0.786044  0.281706  0.914392  1
  P  P7  1  0.599644  0.680651  0.476025  1
  O  O8  1  0.050387  0.322493  0.853185  1
  O  O9  1  0.130187  0.697652  0.885253  1
  O  O10  1  0.186311  0.036742  0.481676  1
  O  O11  1  0.248353  0.344233  0.505185  1
  O  O12  1  0.399594  0.679342  0.605830  1
  O  O13  1  0.603150  0.432765  0.918642  1
  O  O14  1  0.593327  0.151269  0.753174  1
  O  O15  1  0.404080  0.652068  0.246327  1
  O  O16  1  0.400315  0.935424  0.084627  1
  O  O17  1  0.602475  0.178470  0.393575  1
  O  O18  1  0.751990  0.846087  0.490075  1
  O  O19  1  0.814749  0.538851  0.518382  1
  O  O20  1  0.867277  0.192629  0.116305  1
  O  O21  1  0.946917  0.824640  0.146967  1
