# generated using pymatgen
data_Li10Mn3Cr3(CoO8)2
_symmetry_space_group_name_H-M   'P 1'
_cell_length_a   5.93633970
_cell_length_b   6.01945507
_cell_length_c   9.87193628
_cell_angle_alpha   91.11073198
_cell_angle_beta   89.24046975
_cell_angle_gamma   61.05545653
_symmetry_Int_Tables_number   1
_chemical_formula_structural   Li10Mn3Cr3(CoO8)2
_chemical_formula_sum   'Li10 Mn3 Cr3 Co2 O16'
_cell_volume   308.53414661
_cell_formula_units_Z   1
loop_
 _symmetry_equiv_pos_site_id
 _symmetry_equiv_pos_as_xyz
  1  'x, y, z'
loop_
 _atom_site_type_symbol
 _atom_site_label
 _atom_site_symmetry_multiplicity
 _atom_site_fract_x
 _atom_site_fract_y
 _atom_site_fract_z
 _atom_site_occupancy
  Li  Li0  1  0.016847  0.006679  0.517440  1
  Li  Li1  1  0.202608  0.602241  0.937166  1
  Li  Li2  1  0.688916  0.658264  0.217816  1
  Li  Li3  1  0.817026  0.813252  0.436462  1
  Li  Li4  1  0.402184  0.815118  0.434239  1
  Li  Li5  1  0.356242  0.323846  0.717039  1
  Li  Li6  1  0.016625  0.986335  0.017295  1
  Li  Li7  1  0.210814  0.190858  0.944375  1
  Li  Li8  1  0.800061  0.402285  0.445732  1
  Li  Li9  1  0.616956  0.210152  0.941716  1
  Mn  Mn10  1  0.848341  0.828465  0.714451  1
  Mn  Mn11  1  0.678755  0.166528  0.216131  1
  Mn  Mn12  1  0.846667  0.337777  0.715092  1
  Cr  Cr13  1  0.185424  0.659681  0.213605  1
  Cr  Cr14  1  0.352084  0.831962  0.714507  1
  Cr  Cr15  1  0.183653  0.165673  0.214738  1
  Co  Co16  1  0.342281  0.344679  0.470832  1
  Co  Co17  1  0.678846  0.669578  0.971533  1
  O  O18  1  0.340855  0.834706  0.096230  1
  O  O19  1  0.166482  0.685086  0.597924  1
  O  O20  1  0.029758  0.490462  0.333522  1
  O  O21  1  0.529362  0.983150  0.830782  1
  O  O22  1  0.853426  0.832414  0.104617  1
  O  O23  1  0.329748  0.339528  0.092512  1
  O  O24  1  0.506475  0.494438  0.327176  1
  O  O25  1  0.180080  0.160795  0.606199  1
  O  O26  1  0.521030  0.510219  0.827572  1
  O  O27  1  0.673194  0.698341  0.591927  1
  O  O28  1  0.505552  0.025831  0.329355  1
  O  O29  1  0.997987  0.484608  0.838747  1
  O  O30  1  0.853902  0.306798  0.102106  1
  O  O31  1  0.686322  0.200621  0.588785  1
  O  O32  1  0.041441  0.983702  0.331145  1
  O  O33  1  0.021817  0.968695  0.830355  1
