# generated using pymatgen
data_LiFeOF2
_symmetry_space_group_name_H-M   'P 1'
_cell_length_a   10.48423875
_cell_length_b   8.95536070
_cell_length_c   5.29702861
_cell_angle_alpha   89.89808555
_cell_angle_beta   111.47124876
_cell_angle_gamma   89.78758556
_symmetry_Int_Tables_number   1
_chemical_formula_structural   LiFeOF2
_chemical_formula_sum   'Li8 Fe8 O8 F16'
_cell_volume   462.81831594
_cell_formula_units_Z   8
loop_
 _symmetry_equiv_pos_site_id
 _symmetry_equiv_pos_as_xyz
  1  'x, y, z'
loop_
 _atom_site_type_symbol
 _atom_site_label
 _atom_site_symmetry_multiplicity
 _atom_site_fract_x
 _atom_site_fract_y
 _atom_site_fract_z
 _atom_site_occupancy
  Li  Li0  1  0.197428  0.402253  0.394618  1
  Li  Li1  1  0.305641  0.100282  0.114441  1
  Li  Li2  1  0.194779  0.590948  0.895493  1
  Li  Li3  1  0.303113  0.916021  0.611861  1
  Li  Li4  1  0.681845  0.090688  0.364282  1
  Li  Li5  1  0.809806  0.405985  0.133739  1
  Li  Li6  1  0.683468  0.913891  0.858966  1
  Li  Li7  1  0.821606  0.589308  0.644081  1
  Fe  Fe8  1  0.016245  0.730131  0.254235  1
  Fe  Fe9  1  0.017147  0.093249  0.259407  1
  Fe  Fe10  1  0.019172  0.906157  0.760451  1
  Fe  Fe11  1  0.013837  0.266486  0.753478  1
  Fe  Fe12  1  0.492400  0.765972  0.233005  1
  Fe  Fe13  1  0.488437  0.401684  0.228800  1
  Fe  Fe14  1  0.497234  0.570561  0.761047  1
  Fe  Fe15  1  0.491036  0.241457  0.757354  1
  O  O16  1  0.099618  0.086116  0.979271  1
  O  O17  1  0.096863  0.909902  0.475236  1
  O  O18  1  0.100632  0.246401  0.500385  1
  O  O19  1  0.101296  0.752818  0.003009  1
  O  O20  1  0.389965  0.253737  0.989832  1
  O  O21  1  0.400133  0.593904  0.020416  1
  O  O22  1  0.400599  0.415638  0.506984  1
  O  O23  1  0.608014  0.415370  0.998422  1
  F  F24  1  0.124401  0.416069  0.001667  1
  F  F25  1  0.134520  0.586016  0.505407  1
  F  F26  1  0.374679  0.087168  0.504210  1
  F  F27  1  0.400364  0.749706  0.504435  1
  F  F28  1  0.369591  0.913271  0.006041  1
  F  F29  1  0.622111  0.086879  0.978573  1
  F  F30  1  0.615552  0.597461  0.506145  1
  F  F31  1  0.610895  0.251232  0.507309  1
  F  F32  1  0.622209  0.906883  0.470551  1
  F  F33  1  0.606701  0.751175  0.996747  1
  F  F34  1  0.889342  0.243098  0.991046  1
  F  F35  1  0.881291  0.919242  0.985058  1
  F  F36  1  0.871790  0.406374  0.528832  1
  F  F37  1  0.890630  0.752853  0.493181  1
  F  F38  1  0.882185  0.082393  0.490207  1
  F  F39  1  0.873424  0.591217  0.031783  1
