# generated using pymatgen
data_LaAlO3
_symmetry_space_group_name_H-M   'P 1'
_cell_length_a   7.14202327
_cell_length_b   7.15342918
_cell_length_c   10.24705034
_cell_angle_alpha   90.00000000
_cell_angle_beta   90.00000000
_cell_angle_gamma   60.05272590
_symmetry_Int_Tables_number   1
_chemical_formula_structural   LaAlO3
_chemical_formula_sum   'La6 Al6 O18'
_cell_volume   453.62349507
_cell_formula_units_Z   6
loop_
 _symmetry_equiv_pos_site_id
 _symmetry_equiv_pos_as_xyz
  1  'x, y, z'
loop_
 _atom_site_type_symbol
 _atom_site_label
 _atom_site_symmetry_multiplicity
 _atom_site_fract_x
 _atom_site_fract_y
 _atom_site_fract_z
 _atom_site_occupancy
  La  La0  1  0.171423  0.657156  0.000000  1
  La  La1  1  0.171423  0.657156  0.500000  1
  La  La2  1  0.828577  0.342844  0.000000  1
  La  La3  1  0.828577  0.342844  0.500000  1
  La  La4  1  0.500000  0.000000  0.500000  1
  La  La5  1  0.500000  0.000000  0.000000  1
  Al  Al6  1  0.834364  0.742051  0.750000  1
  Al  Al7  1  0.423585  0.742051  0.250000  1
  Al  Al8  1  0.576415  0.257949  0.750000  1
  Al  Al9  1  0.165636  0.257949  0.250000  1
  Al  Al10  1  0.905593  0.000000  0.250000  1
  Al  Al11  1  0.094407  0.000000  0.750000  1
  O  O12  1  0.164985  0.759729  0.250000  1
  O  O13  1  0.075286  0.759729  0.750000  1
  O  O14  1  0.833558  0.645423  0.907190  1
  O  O15  1  0.833558  0.645423  0.592810  1
  O  O16  1  0.521020  0.645423  0.092810  1
  O  O17  1  0.521020  0.645423  0.407190  1
  O  O18  1  0.478980  0.354577  0.907190  1
  O  O19  1  0.478980  0.354577  0.592810  1
  O  O20  1  0.166442  0.354577  0.092810  1
  O  O21  1  0.166442  0.354577  0.407190  1
  O  O22  1  0.835015  0.240271  0.750000  1
  O  O23  1  0.924714  0.240271  0.250000  1
  O  O24  1  0.406294  0.000000  0.250000  1
  O  O25  1  0.811539  0.000000  0.090227  1
  O  O26  1  0.811539  0.000000  0.409773  1
  O  O27  1  0.188461  0.000000  0.590227  1
  O  O28  1  0.188461  0.000000  0.909773  1
  O  O29  1  0.593706  0.000000  0.750000  1
