# generated using pymatgen
data_Li4Cr3Fe2Sn3O16
_symmetry_space_group_name_H-M   'P 1'
_cell_length_a   6.09833215
_cell_length_b   6.10427473
_cell_length_c   9.66613415
_cell_angle_alpha   90.24995990
_cell_angle_beta   89.54180805
_cell_angle_gamma   120.11146657
_symmetry_Int_Tables_number   1
_chemical_formula_structural   Li4Cr3Fe2Sn3O16
_chemical_formula_sum   'Li4 Cr3 Fe2 Sn3 O16'
_cell_volume   311.26176211
_cell_formula_units_Z   1
loop_
 _symmetry_equiv_pos_site_id
 _symmetry_equiv_pos_as_xyz
  1  'x, y, z'
loop_
 _atom_site_type_symbol
 _atom_site_label
 _atom_site_symmetry_multiplicity
 _atom_site_fract_x
 _atom_site_fract_y
 _atom_site_fract_z
 _atom_site_occupancy
  Li  Li0  1  0.343023  0.667655  0.888815  1
  Li  Li1  1  0.973482  0.987742  0.992255  1
  Li  Li2  1  0.983693  0.990005  0.500685  1
  Li  Li3  1  0.668693  0.334568  0.397036  1
  Cr  Cr4  1  0.659738  0.830450  0.215623  1
  Cr  Cr5  1  0.831651  0.659832  0.714188  1
  Cr  Cr6  1  0.833185  0.170428  0.712606  1
  Fe  Fe7  1  0.340076  0.676331  0.493424  1
  Fe  Fe8  1  0.678966  0.340503  0.988089  1
  Sn  Sn9  1  0.169996  0.831609  0.213916  1
  Sn  Sn10  1  0.170067  0.339149  0.214111  1
  Sn  Sn11  1  0.340871  0.168999  0.714415  1
  O  O12  1  0.161120  0.835362  0.596299  1
  O  O13  1  0.035198  0.518362  0.345867  1
  O  O14  1  0.342494  0.671287  0.098350  1
  O  O15  1  0.989784  0.995449  0.315639  1
  O  O16  1  0.990784  0.997766  0.809007  1
  O  O17  1  0.149096  0.324180  0.600646  1
  O  O18  1  0.485758  0.963245  0.342264  1
  O  O19  1  0.485368  0.524028  0.343659  1
  O  O20  1  0.323079  0.161007  0.091410  1
  O  O21  1  0.672065  0.848061  0.608468  1
  O  O22  1  0.528297  0.484199  0.843203  1
  O  O23  1  0.536810  0.040094  0.838126  1
  O  O24  1  0.677890  0.335706  0.603581  1
  O  O25  1  0.834657  0.671569  0.097608  1
  O  O26  1  0.960351  0.469481  0.830456  1
  O  O27  1  0.833805  0.163232  0.098095  1
