# generated using pymatgen
data_Li4MnFe3(BO3)4
_symmetry_space_group_name_H-M   'P 1'
_cell_length_a   5.98771360
_cell_length_b   5.25080355
_cell_length_c   16.14557317
_cell_angle_alpha   90.56217007
_cell_angle_beta   98.57789272
_cell_angle_gamma   88.81591239
_symmetry_Int_Tables_number   1
_chemical_formula_structural   Li4MnFe3(BO3)4
_chemical_formula_sum   'Li8 Mn2 Fe6 B8 O24'
_cell_volume   501.82472546
_cell_formula_units_Z   2
loop_
 _symmetry_equiv_pos_site_id
 _symmetry_equiv_pos_as_xyz
  1  'x, y, z'
loop_
 _atom_site_type_symbol
 _atom_site_label
 _atom_site_symmetry_multiplicity
 _atom_site_fract_x
 _atom_site_fract_y
 _atom_site_fract_z
 _atom_site_occupancy
  Li  Li0  1  0.066621  0.845584  0.611138  1
  Li  Li1  1  0.429836  0.155077  0.886286  1
  Li  Li2  1  0.183565  0.656016  0.138821  1
  Li  Li3  1  0.320164  0.344923  0.363714  1
  Li  Li4  1  0.683379  0.654416  0.638862  1
  Li  Li5  1  0.814039  0.346038  0.858149  1
  Li  Li6  1  0.566435  0.843984  0.111179  1
  Li  Li7  1  0.935961  0.153962  0.391851  1
  Mn  Mn8  1  0.028133  0.169356  0.211144  1
  Mn  Mn9  1  0.721867  0.330644  0.038856  1
  Fe  Fe10  1  0.275948  0.664644  0.958710  1
  Fe  Fe11  1  0.223942  0.337932  0.542261  1
  Fe  Fe12  1  0.526058  0.162068  0.707739  1
  Fe  Fe13  1  0.474052  0.835356  0.291290  1
  Fe  Fe14  1  0.778568  0.662534  0.458011  1
  Fe  Fe15  1  0.971432  0.837466  0.791989  1
  B  B16  1  0.038390  0.330391  0.703199  1
  B  B17  1  0.290698  0.828935  0.454353  1
  B  B18  1  0.459302  0.671065  0.795647  1
  B  B19  1  0.212864  0.172462  0.045342  1
  B  B20  1  0.784563  0.830903  0.951740  1
  B  B21  1  0.537136  0.327538  0.204658  1
  B  B22  1  0.711610  0.169609  0.546801  1
  B  B23  1  0.965437  0.669097  0.298260  1
  O  O24  1  0.012303  0.589214  0.692384  1
  O  O25  1  0.168508  0.183535  0.653976  1
  O  O26  1  0.178302  0.705060  0.511929  1
  O  O27  1  0.324265  0.295772  0.987168  1
  O  O28  1  0.077139  0.784995  0.239323  1
  O  O29  1  0.329448  0.817181  0.845106  1
  O  O30  1  0.083214  0.319935  0.094158  1
  O  O31  1  0.264421  0.087767  0.443547  1
  O  O32  1  0.485579  0.412233  0.806453  1
  O  O33  1  0.238305  0.913870  0.056757  1
  O  O34  1  0.420552  0.682819  0.404894  1
  O  O35  1  0.425735  0.204228  0.262832  1
  O  O36  1  0.571698  0.794940  0.738071  1
  O  O37  1  0.581492  0.316465  0.596024  1
  O  O38  1  0.761927  0.089873  0.938040  1
  O  O39  1  0.511695  0.586130  0.193243  1
  O  O40  1  0.737697  0.910786  0.557616  1
  O  O41  1  0.915735  0.680910  0.903761  1
  O  O42  1  0.666786  0.180065  0.155842  1
  O  O43  1  0.926922  0.205184  0.760697  1
  O  O44  1  0.672861  0.715005  0.010677  1
  O  O45  1  0.823078  0.294816  0.489303  1
  O  O46  1  0.834265  0.819090  0.346239  1
  O  O47  1  0.988073  0.410127  0.311960  1
