# generated using pymatgen
data_LiFe(SiO3)2
_symmetry_space_group_name_H-M   'P 1'
_cell_length_a   5.37636751
_cell_length_b   5.37265532
_cell_length_c   5.65363254
_cell_angle_alpha   89.99783167
_cell_angle_beta   90.00228779
_cell_angle_gamma   119.98434373
_symmetry_Int_Tables_number   1
_chemical_formula_structural   LiFe(SiO3)2
_chemical_formula_sum   'Li1 Fe1 Si2 O6'
_cell_volume   141.45054679
_cell_formula_units_Z   1
loop_
 _symmetry_equiv_pos_site_id
 _symmetry_equiv_pos_as_xyz
  1  'x, y, z'
loop_
 _atom_site_type_symbol
 _atom_site_label
 _atom_site_symmetry_multiplicity
 _atom_site_fract_x
 _atom_site_fract_y
 _atom_site_fract_z
 _atom_site_occupancy
  Li  Li0  1  0.999991  0.999979  0.666763  1
  Fe  Fe1  1  0.000045  0.499997  0.666563  1
  Si  Si2  1  0.500014  0.500007  0.329701  1
  Si  Si3  1  0.500014  0.000020  0.003702  1
  O  O4  1  0.211702  0.844299  0.838453  1
  O  O5  1  0.211673  0.367202  0.494863  1
  O  O6  1  0.518145  0.759118  0.166670  1
  O  O7  1  0.481847  0.240916  0.166631  1
  O  O8  1  0.788371  0.632770  0.494869  1
  O  O9  1  0.788305  0.155691  0.838450  1
