# generated using pymatgen
data_Li3V3P8O29
_symmetry_space_group_name_H-M   'P 1'
_cell_length_a   9.78664856
_cell_length_b   9.78713596
_cell_length_c   14.27488557
_cell_angle_alpha   89.26631647
_cell_angle_beta   89.27203227
_cell_angle_gamma   60.04553998
_symmetry_Int_Tables_number   1
_chemical_formula_structural   Li3V3P8O29
_chemical_formula_sum   'Li6 V6 P16 O58'
_cell_volume   1184.52671645
_cell_formula_units_Z   2
loop_
 _symmetry_equiv_pos_site_id
 _symmetry_equiv_pos_as_xyz
  1  'x, y, z'
loop_
 _atom_site_type_symbol
 _atom_site_label
 _atom_site_symmetry_multiplicity
 _atom_site_fract_x
 _atom_site_fract_y
 _atom_site_fract_z
 _atom_site_occupancy
  Li  Li0  1  0.082602  0.222375  0.944024  1
  Li  Li1  1  0.225653  0.093107  0.436986  1
  Li  Li2  1  0.223881  0.695449  0.946203  1
  Li  Li3  1  0.304590  0.776264  0.553725  1
  Li  Li4  1  0.777571  0.917455  0.556004  1
  Li  Li5  1  0.906809  0.774433  0.063001  1
  V  V6  1  0.005352  0.563196  0.258203  1
  V  V7  1  0.436769  0.994629  0.241794  1
  V  V8  1  0.440576  0.559397  0.749957  1
  V  V9  1  0.569086  0.430900  0.250013  1
  V  V10  1  0.566534  0.004696  0.756957  1
  V  V11  1  0.995226  0.433528  0.743040  1
  P  P12  1  0.086412  0.235137  0.158440  1
  P  P13  1  0.236553  0.085240  0.658123  1
  P  P14  1  0.089078  0.684184  0.660880  1
  P  P15  1  0.337275  0.325828  0.369940  1
  P  P16  1  0.324468  0.337454  0.868441  1
  P  P17  1  0.230387  0.681432  0.160569  1
  P  P18  1  0.318621  0.769533  0.339447  1
  P  P19  1  0.687065  0.088978  0.161283  1
  P  P20  1  0.315845  0.910878  0.839052  1
  P  P21  1  0.689324  0.227004  0.658227  1
  P  P22  1  0.772904  0.310761  0.841920  1
  P  P23  1  0.674110  0.662717  0.130093  1
  P  P24  1  0.662579  0.675591  0.631490  1
  P  P25  1  0.911038  0.312906  0.338735  1
  P  P26  1  0.764910  0.913516  0.341560  1
  P  P27  1  0.914847  0.763355  0.841859  1
  O  O28  1  0.005686  0.226646  0.421225  1
  O  O29  1  0.090394  0.253054  0.667289  1
  O  O30  1  0.217954  0.986157  0.743074  1
  O  O31  1  0.228549  0.006565  0.921173  1
  O  O32  1  0.094860  0.385270  0.180628  1
  O  O33  1  0.255595  0.090341  0.170412  1
  O  O34  1  0.178999  0.334217  0.826929  1
  O  O35  1  0.095745  0.522318  0.676673  1
  O  O36  1  0.995074  0.754266  0.932021  1
  O  O37  1  0.083244  0.659848  0.166370  1
  O  O38  1  0.335101  0.178782  0.330626  1
  O  O39  1  0.184439  0.477591  0.326008  1
  O  O40  1  0.386540  0.093993  0.678976  1
  O  O41  1  0.327778  0.333533  0.473684  1
  O  O42  1  0.325456  0.336901  0.972128  1
  O  O43  1  0.524181  0.095785  0.175820  1
  O  O44  1  0.327792  0.487164  0.826338  1
  O  O45  1  0.476120  0.187218  0.824589  1
  O  O46  1  0.258554  0.659428  0.660644  1
  O  O47  1  0.210161  0.789791  0.250022  1
  O  O48  1  0.234690  0.755717  0.069906  1
  O  O49  1  0.244437  0.765118  0.430090  1
  O  O50  1  0.382895  0.522251  0.179161  1
  O  O51  1  0.479915  0.334437  0.324623  1
  O  O52  1  0.662040  0.082841  0.666359  1
  O  O53  1  0.340566  0.741448  0.839269  1
  O  O54  1  0.525479  0.381006  0.680713  1
  O  O55  1  0.245526  0.005071  0.567986  1
  O  O56  1  0.759982  0.984788  0.432756  1
  O  O57  1  0.477864  0.617094  0.320833  1
  O  O58  1  0.657296  0.259268  0.165327  1
  O  O59  1  0.784831  0.011417  0.256697  1
  O  O60  1  0.340157  0.916712  0.333638  1
  O  O61  1  0.512912  0.672207  0.673581  1
  O  O62  1  0.618946  0.474552  0.819260  1
  O  O63  1  0.761119  0.239170  0.930403  1
  O  O64  1  0.760886  0.238741  0.569708  1
  O  O65  1  0.792341  0.207569  0.750107  1
  O  O66  1  0.740728  0.342659  0.334720  1
  O  O67  1  0.522333  0.815534  0.174020  1
  O  O68  1  0.477756  0.904129  0.823250  1
  O  O69  1  0.665607  0.520023  0.175393  1
  O  O70  1  0.663382  0.674447  0.527811  1
  O  O71  1  0.666327  0.672309  0.026341  1
  O  O72  1  0.614736  0.905112  0.319358  1
  O  O73  1  0.812745  0.523949  0.675444  1
  O  O74  1  0.665903  0.821061  0.672935  1
  O  O75  1  0.917039  0.338111  0.833787  1
  O  O76  1  0.988519  0.215214  0.243294  1
  O  O77  1  0.015080  0.240120  0.067227  1
  O  O78  1  0.904185  0.475804  0.324181  1
  O  O79  1  0.821163  0.664902  0.169389  1
  O  O80  1  0.747002  0.909473  0.832743  1
  O  O81  1  0.905964  0.613470  0.820990  1
  O  O82  1  0.773306  0.994389  0.078764  1
  O  O83  1  0.909681  0.744335  0.329570  1
  O  O84  1  0.993388  0.771562  0.578786  1
  O  O85  1  0.013935  0.781962  0.756920  1
