# generated using pymatgen
data_Li3MnPCO7
_symmetry_space_group_name_H-M   'P 1'
_cell_length_a   8.60349782
_cell_length_b   9.84660559
_cell_length_c   6.48311281
_cell_angle_alpha   90.00000000
_cell_angle_beta   90.00000000
_cell_angle_gamma   85.41329745
_symmetry_Int_Tables_number   1
_chemical_formula_structural   Li3MnPCO7
_chemical_formula_sum   'Li12 Mn4 P4 C4 O28'
_cell_volume   547.45962882
_cell_formula_units_Z   4
loop_
 _symmetry_equiv_pos_site_id
 _symmetry_equiv_pos_as_xyz
  1  'x, y, z'
loop_
 _atom_site_type_symbol
 _atom_site_label
 _atom_site_symmetry_multiplicity
 _atom_site_fract_x
 _atom_site_fract_y
 _atom_site_fract_z
 _atom_site_occupancy
  Li  Li0  1  0.102889  0.386508  0.250622  1
  Li  Li1  1  0.102889  0.886509  0.249378  1
  Li  Li2  1  0.286373  0.117444  0.011733  1
  Li  Li3  1  0.286373  0.617444  0.488267  1
  Li  Li4  1  0.353259  0.389615  0.744725  1
  Li  Li5  1  0.353259  0.889615  0.755275  1
  Li  Li6  1  0.646741  0.110385  0.244725  1
  Li  Li7  1  0.646741  0.610385  0.255275  1
  Li  Li8  1  0.713627  0.382556  0.511733  1
  Li  Li9  1  0.713627  0.882556  0.988267  1
  Li  Li10  1  0.897111  0.113491  0.750622  1
  Li  Li11  1  0.897111  0.613491  0.749378  1
  Mn  Mn12  1  0.268349  0.129302  0.498114  1
  Mn  Mn13  1  0.268349  0.629302  0.001886  1
  Mn  Mn14  1  0.731651  0.370698  0.998114  1
  Mn  Mn15  1  0.731651  0.870698  0.501886  1
  P  P16  1  0.407127  0.360062  0.251882  1
  P  P17  1  0.407127  0.860062  0.248118  1
  P  P18  1  0.592873  0.139938  0.751882  1
  P  P19  1  0.592873  0.639938  0.748118  1
  C  C20  1  0.042114  0.352050  0.747843  1
  C  C21  1  0.042114  0.852050  0.752157  1
  C  C22  1  0.957886  0.147950  0.247843  1
  C  C23  1  0.957886  0.647950  0.252157  1
  O  O24  1  0.069866  0.477783  0.760426  1
  O  O25  1  0.103443  0.182853  0.249702  1
  O  O26  1  0.069866  0.977783  0.739574  1
  O  O27  1  0.153603  0.255737  0.735272  1
  O  O28  1  0.103443  0.682853  0.250298  1
  O  O29  1  0.153603  0.755737  0.764728  1
  O  O30  1  0.312650  0.413297  0.058588  1
  O  O31  1  0.306846  0.410660  0.438968  1
  O  O32  1  0.306846  0.910660  0.061032  1
  O  O33  1  0.312650  0.913297  0.441412  1
  O  O34  1  0.426330  0.089982  0.755440  1
  O  O35  1  0.422242  0.200480  0.250556  1
  O  O36  1  0.426330  0.589982  0.744560  1
  O  O37  1  0.422242  0.700480  0.249444  1
  O  O38  1  0.577758  0.299520  0.750556  1
  O  O39  1  0.573670  0.410018  0.255440  1
  O  O40  1  0.577758  0.799520  0.749444  1
  O  O41  1  0.573670  0.910018  0.244560  1
  O  O42  1  0.693154  0.089340  0.938968  1
  O  O43  1  0.687350  0.086703  0.558588  1
  O  O44  1  0.693154  0.589340  0.561032  1
  O  O45  1  0.687350  0.586703  0.941412  1
  O  O46  1  0.846397  0.244263  0.235272  1
  O  O47  1  0.896557  0.317147  0.749702  1
  O  O48  1  0.846397  0.744263  0.264728  1
  O  O49  1  0.930134  0.022217  0.260426  1
  O  O50  1  0.896557  0.817147  0.750298  1
  O  O51  1  0.930134  0.522217  0.239574  1
