# generated using pymatgen
data_CaNdMn2O6
_symmetry_space_group_name_H-M   'P 1'
_cell_length_a   5.44356093
_cell_length_b   5.50063986
_cell_length_c   30.92930972
_cell_angle_alpha   90.00000000
_cell_angle_beta   90.00000000
_cell_angle_gamma   89.79321097
_symmetry_Int_Tables_number   1
_chemical_formula_structural   CaNdMn2O6
_chemical_formula_sum   'Ca8 Nd8 Mn16 O48'
_cell_volume   926.11240004
_cell_formula_units_Z   8
loop_
 _symmetry_equiv_pos_site_id
 _symmetry_equiv_pos_as_xyz
  1  'x, y, z'
loop_
 _atom_site_type_symbol
 _atom_site_label
 _atom_site_symmetry_multiplicity
 _atom_site_fract_x
 _atom_site_fract_y
 _atom_site_fract_z
 _atom_site_occupancy
  Ca  Ca0  1  0.011473  0.960577  0.062500  1
  Ca  Ca1  1  0.490406  0.458521  0.812280  1
  Ca  Ca2  1  0.490406  0.458521  0.312721  1
  Ca  Ca3  1  0.490280  0.458611  0.562500  1
  Ca  Ca4  1  0.989623  0.040316  0.186776  1
  Ca  Ca5  1  0.989908  0.041372  0.437422  1
  Ca  Ca6  1  0.989908  0.041372  0.687578  1
  Ca  Ca7  1  0.989623  0.040316  0.938224  1
  Nd  Nd8  1  0.010062  0.959624  0.312303  1
  Nd  Nd9  1  0.010140  0.959561  0.562500  1
  Nd  Nd10  1  0.010062  0.959624  0.812697  1
  Nd  Nd11  1  0.491933  0.458944  0.062500  1
  Nd  Nd12  1  0.509654  0.540442  0.437538  1
  Nd  Nd13  1  0.509654  0.540442  0.687462  1
  Nd  Nd14  1  0.509121  0.540698  0.188236  1
  Nd  Nd15  1  0.509121  0.540698  0.936764  1
  Mn  Mn16  1  0.000028  0.500003  0.125039  1
  Mn  Mn17  1  0.499759  0.999606  -0.000053  1
  Mn  Mn18  1  0.499759  0.999606  0.125053  1
  Mn  Mn19  1  0.501052  0.001996  0.249979  1
  Mn  Mn20  1  0.500578  0.001578  0.500004  1
  Mn  Mn21  1  0.500578  0.001578  0.624996  1
  Mn  Mn22  1  0.500035  0.001642  0.749891  1
  Mn  Mn23  1  0.500035  0.001642  0.375109  1
  Mn  Mn24  1  0.501052  0.001996  0.875021  1
  Mn  Mn25  1  0.000028  0.500003  0.999961  1
  Mn  Mn26  1  0.001043  0.497879  0.250108  1
  Mn  Mn27  1  0.000271  0.498656  0.500021  1
  Mn  Mn28  1  0.999962  0.498480  0.750051  1
  Mn  Mn29  1  0.999962  0.498480  0.374949  1
  Mn  Mn30  1  0.000271  0.498656  0.624979  1
  Mn  Mn31  1  0.001043  0.497879  0.874892  1
  O  O32  1  0.079304  0.479328  0.187542  1
  O  O33  1  0.080242  0.481421  0.687523  1
  O  O34  1  0.080242  0.481421  0.437477  1
  O  O35  1  0.079304  0.479328  0.937458  1
  O  O36  1  0.220401  0.219035  0.113293  1
  O  O37  1  0.215233  0.214977  0.364403  1
  O  O38  1  0.217143  0.215423  0.260737  1
  O  O39  1  0.220401  0.219035  0.011707  1
  O  O40  1  0.215581  0.215189  0.614376  1
  O  O41  1  0.217143  0.215423  0.864263  1
  O  O42  1  0.215233  0.214977  0.760597  1
  O  O43  1  0.215581  0.215189  0.510624  1
  O  O44  1  0.288341  0.712133  0.009570  1
  O  O45  1  0.285430  0.715620  0.260780  1
  O  O46  1  0.283884  0.715895  0.510906  1
  O  O47  1  0.283411  0.716371  0.760863  1
  O  O48  1  0.288341  0.712133  0.115430  1
  O  O49  1  0.283411  0.716371  0.364137  1
  O  O50  1  0.283884  0.715895  0.614094  1
  O  O51  1  0.285430  0.715620  0.864220  1
  O  O52  1  0.418631  0.980746  0.687506  1
  O  O53  1  0.418375  0.982874  0.187513  1
  O  O54  1  0.418631  0.980746  0.437494  1
  O  O55  1  0.418375  0.982874  0.937487  1
  O  O56  1  0.582644  0.015559  0.062500  1
  O  O57  1  0.580400  0.018628  0.812477  1
  O  O58  1  0.580400  0.018628  0.312523  1
  O  O59  1  0.580691  0.018863  0.562500  1
  O  O60  1  0.710353  0.288630  0.134615  1
  O  O61  1  0.715099  0.285066  0.385541  1
  O  O62  1  0.715629  0.284959  0.635599  1
  O  O63  1  0.716959  0.284052  0.885448  1
  O  O64  1  0.716959  0.284052  0.239552  1
  O  O65  1  0.715099  0.285066  0.739459  1
  O  O66  1  0.715629  0.284959  0.489401  1
  O  O67  1  0.710353  0.288630  0.990385  1
  O  O68  1  0.785455  0.785112  0.239135  1
  O  O69  1  0.784051  0.784022  0.489052  1
  O  O70  1  0.783391  0.783927  0.739099  1
  O  O71  1  0.777811  0.779398  0.988162  1
  O  O72  1  0.777811  0.779398  0.136838  1
  O  O73  1  0.784051  0.784022  0.635948  1
  O  O74  1  0.785455  0.785112  0.885865  1
  O  O75  1  0.783391  0.783927  0.385901  1
  O  O76  1  0.922645  0.522520  0.062500  1
  O  O77  1  0.919034  0.519402  0.312528  1
  O  O78  1  0.919034  0.519402  0.812472  1
  O  O79  1  0.918865  0.519327  0.562500  1
