# generated using pymatgen
data_LiNiSnO4
_symmetry_space_group_name_H-M   'P 1'
_cell_length_a   6.06022234
_cell_length_b   5.91666532
_cell_length_c   6.06022258
_cell_angle_alpha   61.11198163
_cell_angle_beta   89.52619273
_cell_angle_gamma   118.88801578
_symmetry_Int_Tables_number   1
_chemical_formula_structural   LiNiSnO4
_chemical_formula_sum   'Li2 Ni2 Sn2 O8'
_cell_volume   158.09053104
_cell_formula_units_Z   2
loop_
 _symmetry_equiv_pos_site_id
 _symmetry_equiv_pos_as_xyz
  1  'x, y, z'
loop_
 _atom_site_type_symbol
 _atom_site_label
 _atom_site_symmetry_multiplicity
 _atom_site_fract_x
 _atom_site_fract_y
 _atom_site_fract_z
 _atom_site_occupancy
  Li  Li0  1  0.000000  0.500000  0.000000  1
  Li  Li1  1  0.500000  0.000000  0.500000  1
  Ni  Ni2  1  0.000000  0.000000  0.500000  1
  Ni  Ni3  1  0.000000  0.500000  0.500000  1
  Sn  Sn4  1  0.000000  0.000000  0.000000  1
  Sn  Sn5  1  0.500000  0.500000  0.500000  1
  O  O6  1  0.247880  0.012611  0.742953  1
  O  O7  1  0.207743  0.450617  0.304219  1
  O  O8  1  0.242953  0.487389  0.747880  1
  O  O9  1  0.195781  0.950617  0.292257  1
  O  O10  1  0.804219  0.049383  0.707743  1
  O  O11  1  0.757047  0.512611  0.252120  1
  O  O12  1  0.792257  0.549383  0.695781  1
  O  O13  1  0.752120  0.987389  0.257047  1
