# generated using pymatgen
data_Li2Mn3WO8
_symmetry_space_group_name_H-M   'P 1'
_cell_length_a   9.09924230
_cell_length_b   8.52205293
_cell_length_c   8.51085379
_cell_angle_alpha   89.99989245
_cell_angle_beta   90.00026156
_cell_angle_gamma   90.00008546
_symmetry_Int_Tables_number   1
_chemical_formula_structural   Li2Mn3WO8
_chemical_formula_sum   'Li8 Mn12 W4 O32'
_cell_volume   659.96755703
_cell_formula_units_Z   4
loop_
 _symmetry_equiv_pos_site_id
 _symmetry_equiv_pos_as_xyz
  1  'x, y, z'
loop_
 _atom_site_type_symbol
 _atom_site_label
 _atom_site_symmetry_multiplicity
 _atom_site_fract_x
 _atom_site_fract_y
 _atom_site_fract_z
 _atom_site_occupancy
  Li  Li0  1  0.002656  0.998954  0.996095  1
  Li  Li1  1  0.249502  0.260343  0.247760  1
  Li  Li2  1  0.250484  0.739650  0.747765  1
  Li  Li3  1  0.497351  0.001045  0.496084  1
  Li  Li4  1  0.502633  0.500970  0.003807  1
  Li  Li5  1  0.749337  0.239744  0.752197  1
  Li  Li6  1  0.750666  0.760269  0.252195  1
  Li  Li7  1  0.997362  0.499049  0.503837  1
  Mn  Mn8  1  0.114342  0.144269  0.619667  1
  Mn  Mn9  1  0.124806  0.385923  0.877872  1
  Mn  Mn10  1  0.129899  0.621135  0.129012  1
  Mn  Mn11  1  0.370097  0.378857  0.628999  1
  Mn  Mn12  1  0.375188  0.614063  0.377857  1
  Mn  Mn13  1  0.385686  0.855721  0.119666  1
  Mn  Mn14  1  0.614388  0.355921  0.380307  1
  Mn  Mn15  1  0.624714  0.114058  0.122188  1
  Mn  Mn16  1  0.629999  0.878851  0.871073  1
  Mn  Mn17  1  0.870016  0.121161  0.371068  1
  Mn  Mn18  1  0.875282  0.885958  0.622169  1
  Mn  Mn19  1  0.885628  0.644132  0.880314  1
  W  W20  1  0.133001  0.874425  0.378514  1
  W  W21  1  0.367013  0.125576  0.878515  1
  W  W22  1  0.632945  0.625716  0.621443  1
  W  W23  1  0.867039  0.374297  0.121427  1
  O  O24  1  0.133585  0.096357  0.367266  1
  O  O25  1  0.120321  0.869503  0.601111  1
  O  O26  1  0.117884  0.612952  0.900107  1
  O  O27  1  0.154403  0.146232  0.877774  1
  O  O28  1  0.095621  0.388776  0.115439  1
  O  O29  1  0.133690  0.386017  0.654023  1
  O  O30  1  0.118762  0.642002  0.361723  1
  O  O31  1  0.128940  0.853150  0.143972  1
  O  O32  1  0.371058  0.146840  0.643971  1
  O  O33  1  0.381247  0.357987  0.861714  1
  O  O34  1  0.366309  0.613980  0.154002  1
  O  O35  1  0.404363  0.611215  0.615420  1
  O  O36  1  0.345601  0.853762  0.377765  1
  O  O37  1  0.382112  0.387032  0.400093  1
  O  O38  1  0.379682  0.130491  0.101111  1
  O  O39  1  0.366416  0.903638  0.867267  1
  O  O40  1  0.633482  0.403787  0.632767  1
  O  O41  1  0.620316  0.630591  0.398857  1
  O  O42  1  0.617937  0.887004  0.099976  1
  O  O43  1  0.654408  0.353711  0.122173  1
  O  O44  1  0.595610  0.111132  0.884603  1
  O  O45  1  0.633638  0.114099  0.346024  1
  O  O46  1  0.618708  0.858088  0.638335  1
  O  O47  1  0.629013  0.646872  0.856048  1
  O  O48  1  0.870979  0.353147  0.356051  1
  O  O49  1  0.881281  0.141927  0.138330  1
  O  O50  1  0.866369  0.885920  0.846022  1
  O  O51  1  0.904395  0.888879  0.384596  1
  O  O52  1  0.845573  0.646306  0.622169  1
  O  O53  1  0.882082  0.113010  0.599972  1
  O  O54  1  0.879671  0.369418  0.898868  1
  O  O55  1  0.866510  0.596230  0.132766  1
