# generated using pymatgen
data_Na3SiSnCO7
_symmetry_space_group_name_H-M   'P 1'
_cell_length_a   9.33967505
_cell_length_b   6.91975840
_cell_length_c   5.22338855
_cell_angle_alpha   90.00000000
_cell_angle_beta   90.73451089
_cell_angle_gamma   90.00000000
_symmetry_Int_Tables_number   1
_chemical_formula_structural   Na3SiSnCO7
_chemical_formula_sum   'Na6 Si2 Sn2 C2 O14'
_cell_volume   337.55095656
_cell_formula_units_Z   2
loop_
 _symmetry_equiv_pos_site_id
 _symmetry_equiv_pos_as_xyz
  1  'x, y, z'
loop_
 _atom_site_type_symbol
 _atom_site_label
 _atom_site_symmetry_multiplicity
 _atom_site_fract_x
 _atom_site_fract_y
 _atom_site_fract_z
 _atom_site_occupancy
  Na  Na0  1  0.085541  0.250000  0.762386  1
  Na  Na1  1  0.256314  0.007418  0.250552  1
  Na  Na2  1  0.256314  0.492582  0.250552  1
  Na  Na3  1  0.743686  0.507418  0.749448  1
  Na  Na4  1  0.743686  0.992582  0.749448  1
  Na  Na5  1  0.914459  0.750000  0.237614  1
  Si  Si6  1  0.410169  0.250000  0.705715  1
  Si  Si7  1  0.589831  0.750000  0.294285  1
  Sn  Sn8  1  0.365707  0.750000  0.777502  1
  Sn  Sn9  1  0.634293  0.250000  0.222498  1
  C  C10  1  0.054664  0.750000  0.733328  1
  C  C11  1  0.945336  0.250000  0.266672  1
  O  O12  1  0.083475  0.250000  0.281612  1
  O  O13  1  0.119747  0.750000  0.956809  1
  O  O14  1  0.130157  0.750000  0.524461  1
  O  O15  1  0.313963  0.062277  0.797942  1
  O  O16  1  0.313963  0.437723  0.797942  1
  O  O17  1  0.419450  0.250000  0.388437  1
  O  O18  1  0.423504  0.750000  0.178412  1
  O  O19  1  0.576496  0.250000  0.821588  1
  O  O20  1  0.580550  0.750000  0.611563  1
  O  O21  1  0.686037  0.562277  0.202058  1
  O  O22  1  0.686037  0.937723  0.202058  1
  O  O23  1  0.869843  0.250000  0.475539  1
  O  O24  1  0.880253  0.250000  0.043191  1
  O  O25  1  0.916525  0.750000  0.718388  1
