# generated using pymatgen
data_NaCuP2O7
_symmetry_space_group_name_H-M   'P 1'
_cell_length_a   8.87632424
_cell_length_b   13.80691073
_cell_length_c   4.97162763
_cell_angle_alpha   90.00000000
_cell_angle_beta   92.19980578
_cell_angle_gamma   90.00000000
_symmetry_Int_Tables_number   1
_chemical_formula_structural   NaCuP2O7
_chemical_formula_sum   'Na4 Cu4 P8 O28'
_cell_volume   608.84689406
_cell_formula_units_Z   4
loop_
 _symmetry_equiv_pos_site_id
 _symmetry_equiv_pos_as_xyz
  1  'x, y, z'
loop_
 _atom_site_type_symbol
 _atom_site_label
 _atom_site_symmetry_multiplicity
 _atom_site_fract_x
 _atom_site_fract_y
 _atom_site_fract_z
 _atom_site_occupancy
  Na  Na0  1  0.136317  0.880319  0.220306  1
  Na  Na1  1  0.363683  0.380319  0.279694  1
  Na  Na2  1  0.636317  0.619681  0.720306  1
  Na  Na3  1  0.863683  0.119681  0.779694  1
  Cu  Cu4  1  0.237575  0.659351  0.298747  1
  Cu  Cu5  1  0.262425  0.159351  0.201253  1
  Cu  Cu6  1  0.737575  0.840649  0.798747  1
  Cu  Cu7  1  0.762425  0.340649  0.701253  1
  P  P8  1  0.043690  0.678898  0.771925  1
  P  P9  1  0.233010  0.037302  0.710693  1
  P  P10  1  0.266990  0.537302  0.789307  1
  P  P11  1  0.456310  0.178898  0.728075  1
  P  P12  1  0.543690  0.821102  0.271925  1
  P  P13  1  0.733010  0.462698  0.210693  1
  P  P14  1  0.766990  0.962698  0.289307  1
  P  P15  1  0.956310  0.321102  0.228075  1
  O  O16  1  0.086879  0.563968  0.760737  1
  O  O17  1  0.094875  0.724900  0.503322  1
  O  O18  1  0.149228  0.721082  0.000502  1
  O  O19  1  0.121521  0.309275  0.194492  1
  O  O20  1  0.154771  0.113112  0.895255  1
  O  O21  1  0.180092  0.058736  0.411220  1
  O  O22  1  0.207852  0.933690  0.776315  1
  O  O23  1  0.292148  0.433690  0.723685  1
  O  O24  1  0.319908  0.558736  0.088780  1
  O  O25  1  0.345229  0.613112  0.604745  1
  O  O26  1  0.350772  0.221082  0.499498  1
  O  O27  1  0.378479  0.809275  0.305508  1
  O  O28  1  0.405125  0.224900  0.996678  1
  O  O29  1  0.413121  0.063968  0.739263  1
  O  O30  1  0.586879  0.936032  0.260737  1
  O  O31  1  0.594875  0.775100  0.003322  1
  O  O32  1  0.621521  0.190725  0.694492  1
  O  O33  1  0.649228  0.778918  0.500502  1
  O  O34  1  0.654771  0.386888  0.395255  1
  O  O35  1  0.680092  0.441264  0.911220  1
  O  O36  1  0.707852  0.566310  0.276315  1
  O  O37  1  0.792148  0.066310  0.223685  1
  O  O38  1  0.819908  0.941264  0.588780  1
  O  O39  1  0.845229  0.886888  0.104745  1
  O  O40  1  0.878479  0.690725  0.805508  1
  O  O41  1  0.850772  0.278918  0.999498  1
  O  O42  1  0.905125  0.275100  0.496678  1
  O  O43  1  0.913121  0.436032  0.239263  1
