# generated using pymatgen
data_BaYI5
_symmetry_space_group_name_H-M   'P 1'
_cell_length_a   18.91437898
_cell_length_b   8.61481693
_cell_length_c   8.05757477
_cell_angle_alpha   90.00000000
_cell_angle_beta   90.00000000
_cell_angle_gamma   90.00000000
_symmetry_Int_Tables_number   1
_chemical_formula_structural   BaYI5
_chemical_formula_sum   'Ba4 Y4 I20'
_cell_volume   1312.93275633
_cell_formula_units_Z   4
loop_
 _symmetry_equiv_pos_site_id
 _symmetry_equiv_pos_as_xyz
  1  'x, y, z'
loop_
 _atom_site_type_symbol
 _atom_site_label
 _atom_site_symmetry_multiplicity
 _atom_site_fract_x
 _atom_site_fract_y
 _atom_site_fract_z
 _atom_site_occupancy
  Ba  Ba0  1  0.083612  0.042705  0.982941  1
  Ba  Ba1  1  0.416388  0.957295  0.482941  1
  Ba  Ba2  1  0.583612  0.457295  0.017059  1
  Ba  Ba3  1  0.916388  0.542705  0.517059  1
  Y  Y4  1  0.164910  0.623081  0.422037  1
  Y  Y5  1  0.335090  0.376919  0.922037  1
  Y  Y6  1  0.664910  0.876919  0.577963  1
  Y  Y7  1  0.835090  0.123081  0.077963  1
  I  I8  1  0.065432  0.838331  0.607146  1
  I  I9  1  0.056867  0.655082  0.150726  1
  I  I10  1  0.089956  0.365120  0.594468  1
  I  I11  1  0.243935  0.891696  0.269249  1
  I  I12  1  0.227436  0.356321  0.207866  1
  I  I13  1  0.272564  0.643679  0.707866  1
  I  I14  1  0.256065  0.108304  0.769249  1
  I  I15  1  0.410044  0.634880  0.094468  1
  I  I16  1  0.443133  0.344918  0.650726  1
  I  I17  1  0.434568  0.161669  0.107146  1
  I  I18  1  0.565432  0.661669  0.392854  1
  I  I19  1  0.556867  0.844918  0.849274  1
  I  I20  1  0.589956  0.134880  0.405532  1
  I  I21  1  0.743935  0.608304  0.730751  1
  I  I22  1  0.727436  0.143679  0.792134  1
  I  I23  1  0.772564  0.856321  0.292134  1
  I  I24  1  0.756065  0.391696  0.230751  1
  I  I25  1  0.910044  0.865120  0.905532  1
  I  I26  1  0.943133  0.155082  0.349274  1
  I  I27  1  0.934568  0.338331  0.892854  1
