# generated using pymatgen
data_Fe2OF3
_symmetry_space_group_name_H-M   'P 1'
_cell_length_a   4.83951662
_cell_length_b   4.83951662
_cell_length_c   12.44821539
_cell_angle_alpha   90.00000000
_cell_angle_beta   90.00000000
_cell_angle_gamma   91.94272907
_symmetry_Int_Tables_number   1
_chemical_formula_structural   Fe2OF3
_chemical_formula_sum   'Fe8 O4 F12'
_cell_volume   291.38109250
_cell_formula_units_Z   4
loop_
 _symmetry_equiv_pos_site_id
 _symmetry_equiv_pos_as_xyz
  1  'x, y, z'
loop_
 _atom_site_type_symbol
 _atom_site_label
 _atom_site_symmetry_multiplicity
 _atom_site_fract_x
 _atom_site_fract_y
 _atom_site_fract_z
 _atom_site_occupancy
  Fe  Fe0  1  0.978385  0.978385  0.999974  1
  Fe  Fe1  1  0.978385  0.978385  0.250026  1
  Fe  Fe2  1  0.021615  0.021615  0.499974  1
  Fe  Fe3  1  0.021615  0.021615  0.750026  1
  Fe  Fe4  1  0.475420  0.475420  0.625000  1
  Fe  Fe5  1  0.524580  0.524580  0.125000  1
  Fe  Fe6  1  0.500000  0.500000  0.875000  1
  Fe  Fe7  1  0.500000  0.500000  0.375000  1
  O  O8  1  0.319949  0.319949  0.496711  1
  O  O9  1  0.319949  0.319949  0.753289  1
  O  O10  1  0.680051  0.680051  0.996711  1
  O  O11  1  0.680051  0.680051  0.253289  1
  F  F12  1  0.203666  0.785452  0.125000  1
  F  F13  1  0.207974  0.792026  0.375000  1
  F  F14  1  0.214547  0.796334  0.625000  1
  F  F15  1  0.207974  0.792026  0.875000  1
  F  F16  1  0.294853  0.294853  0.002496  1
  F  F17  1  0.294853  0.294853  0.247504  1
  F  F18  1  0.705147  0.705147  0.502496  1
  F  F19  1  0.705147  0.705147  0.747504  1
  F  F20  1  0.792026  0.207974  0.375000  1
  F  F21  1  0.796334  0.214547  0.625000  1
  F  F22  1  0.785452  0.203666  0.125000  1
  F  F23  1  0.792026  0.207974  0.875000  1
