# generated using pymatgen
data_Na9Li7V16O48
_symmetry_space_group_name_H-M   'P 1'
_cell_length_a   6.97303203
_cell_length_b   6.97303203
_cell_length_c   22.51734067
_cell_angle_alpha   94.96187738
_cell_angle_beta   85.03812262
_cell_angle_gamma   96.62294955
_symmetry_Int_Tables_number   1
_chemical_formula_structural   Na9Li7V16O48
_chemical_formula_sum   'Na9 Li7 V16 O48'
_cell_volume   1080.23885526
_cell_formula_units_Z   1
loop_
 _symmetry_equiv_pos_site_id
 _symmetry_equiv_pos_as_xyz
  1  'x, y, z'
loop_
 _atom_site_type_symbol
 _atom_site_label
 _atom_site_symmetry_multiplicity
 _atom_site_fract_x
 _atom_site_fract_y
 _atom_site_fract_z
 _atom_site_occupancy
  Na  Na0  1  0.522883  0.897883  0.187500  1
  Na  Na1  1  0.227125  0.351432  0.062258  1
  Na  Na2  1  0.023599  0.398599  0.687500  1
  Na  Na3  1  0.726403  0.851397  0.562495  1
  Na  Na4  1  0.273670  0.148638  0.437546  1
  Na  Na5  1  0.976432  0.602125  0.312742  1
  Na  Na6  1  0.773638  0.648670  0.937454  1
  Na  Na7  1  0.895938  0.270938  0.187500  1
  Na  Na8  1  0.476397  0.101403  0.812505  1
  Li  Li9  1  0.100860  0.725860  0.812502  1
  Li  Li10  1  0.850770  0.975231  0.062223  1
  Li  Li11  1  0.399142  0.774142  0.687500  1
  Li  Li12  1  0.350860  0.475860  0.562498  1
  Li  Li13  1  0.649144  0.524107  0.437497  1
  Li  Li14  1  0.600231  0.225770  0.312777  1
  Li  Li15  1  0.149107  0.024144  0.937503  1
  V  V16  1  0.011790  0.807991  0.187146  1
  V  V17  1  0.319228  0.864845  0.062143  1
  V  V18  1  0.239771  0.943877  0.562758  1
  V  V19  1  0.181129  0.635248  0.437781  1
  V  V20  1  0.489845  0.694228  0.312857  1
  V  V21  1  0.069961  0.114502  0.312984  1
  V  V22  1  0.432991  0.386790  0.187854  1
  V  V23  1  0.260248  0.556129  0.937219  1
  V  V24  1  0.739502  0.444961  0.062016  1
  V  V25  1  0.568877  0.614771  0.812242  1
  V  V26  1  0.931122  0.885206  0.687756  1
  V  V27  1  0.510206  0.306122  0.687244  1
  V  V28  1  0.818851  0.364804  0.562255  1
  V  V29  1  0.760084  0.056099  0.437326  1
  V  V30  1  0.681099  0.135084  0.937674  1
  V  V31  1  0.989804  0.193851  0.812745  1
  O  O32  1  0.094620  0.904561  0.259581  1
  O  O33  1  0.028024  0.969132  0.615457  1
  O  O34  1  0.222859  0.780076  0.134389  1
  O  O35  1  0.155854  0.846977  0.490467  1
  O  O36  1  0.538230  0.979694  0.074836  1
  O  O37  1  0.344279  0.652973  0.009523  1
  O  O38  1  0.074646  0.734656  0.712548  1
  O  O39  1  0.277973  0.719279  0.365477  1
  O  O40  1  0.604694  0.913230  0.300164  1
  O  O41  1  0.038020  0.479520  0.574847  1
  O  O42  1  0.390350  0.800368  0.587545  1
  O  O43  1  0.109688  0.699671  0.912446  1
  O  O44  1  0.405076  0.597859  0.240611  1
  O  O45  1  0.857480  0.943518  0.161115  1
  O  O46  1  0.218287  0.267961  0.173997  1
  O  O47  1  0.645378  0.836928  0.449867  1
  O  O48  1  0.324671  0.484688  0.462554  1
  O  O49  1  0.425368  0.765350  0.787455  1
  O  O50  1  0.529561  0.469620  0.115419  1
  O  O51  1  0.104520  0.413020  0.800153  1
  O  O52  1  0.175310  0.015335  0.037495  1
  O  O53  1  0.854719  0.663878  0.049858  1
  O  O54  1  0.288878  0.229719  0.325142  1
  O  O55  1  0.640335  0.550310  0.337505  1
  O  O56  1  0.359656  0.449645  0.662452  1
  O  O57  1  0.711959  0.770463  0.675151  1
  O  O58  1  0.145571  0.336979  0.949813  1
  O  O59  1  0.824645  0.984690  0.962533  1
  O  O60  1  0.892961  0.593287  0.201003  1
  O  O61  1  0.471977  0.530854  0.884533  1
  O  O62  1  0.568518  0.232480  0.213885  1
  O  O63  1  0.675315  0.515294  0.537452  1
  O  O64  1  0.354518  0.163031  0.550146  1
  O  O65  1  0.788031  0.729518  0.824854  1
  O  O66  1  0.140294  0.050315  0.837548  1
  O  O67  1  0.594132  0.403024  0.759543  1
  O  O68  1  0.891454  0.300113  0.085082  1
  O  O69  1  0.609690  0.199645  0.412467  1
  O  O70  1  0.961979  0.520571  0.425187  1
  O  O71  1  0.395463  0.086959  0.699849  1
  O  O72  1  0.721974  0.280877  0.634551  1
  O  O73  1  0.925113  0.266454  0.289918  1
  O  O74  1  0.654993  0.347284  0.990107  1
  O  O75  1  0.461928  0.020378  0.925133  1
  O  O76  1  0.844115  0.153020  0.509577  1
  O  O77  1  0.778020  0.219115  0.865423  1
  O  O78  1  0.972284  0.029993  0.384893  1
  O  O79  1  0.905877  0.096974  0.740449  1
