# generated using pymatgen
data_Na3CoO3
_symmetry_space_group_name_H-M   'P 1'
_cell_length_a   6.03028277
_cell_length_b   5.88266219
_cell_length_c   11.05638526
_cell_angle_alpha   90.00000000
_cell_angle_beta   89.92314656
_cell_angle_gamma   90.00000000
_symmetry_Int_Tables_number   1
_chemical_formula_structural   Na3CoO3
_chemical_formula_sum   'Na12 Co4 O12'
_cell_volume   392.21514552
_cell_formula_units_Z   4
loop_
 _symmetry_equiv_pos_site_id
 _symmetry_equiv_pos_as_xyz
  1  'x, y, z'
loop_
 _atom_site_type_symbol
 _atom_site_label
 _atom_site_symmetry_multiplicity
 _atom_site_fract_x
 _atom_site_fract_y
 _atom_site_fract_z
 _atom_site_occupancy
  Na  Na0  1  0.136945  0.981826  0.120488  1
  Na  Na1  1  0.204719  0.481556  0.098035  1
  Na  Na2  1  0.231806  0.935980  0.687405  1
  Na  Na3  1  0.268194  0.435980  0.812595  1
  Na  Na4  1  0.295281  0.981556  0.401965  1
  Na  Na5  1  0.363055  0.481826  0.379512  1
  Na  Na6  1  0.636945  0.518174  0.620488  1
  Na  Na7  1  0.704719  0.018444  0.598035  1
  Na  Na8  1  0.731806  0.564020  0.187405  1
  Na  Na9  1  0.768194  0.064020  0.312594  1
  Na  Na10  1  0.795281  0.518444  0.901965  1
  Na  Na11  1  0.863055  0.018174  0.879512  1
  Co  Co12  1  0.093502  0.352032  0.585918  1
  Co  Co13  1  0.406498  0.852032  0.914082  1
  Co  Co14  1  0.593502  0.147968  0.085918  1
  Co  Co15  1  0.906498  0.647968  0.414082  1
  O  O16  1  0.060029  0.738151  0.280566  1
  O  O17  1  0.073575  0.682266  0.563406  1
  O  O18  1  0.127563  0.741303  0.933087  1
  O  O19  1  0.372437  0.241303  0.566913  1
  O  O20  1  0.426425  0.182266  0.936594  1
  O  O21  1  0.439971  0.238151  0.219434  1
  O  O22  1  0.560029  0.761849  0.780566  1
  O  O23  1  0.573575  0.817734  0.063406  1
  O  O24  1  0.627563  0.758697  0.433087  1
  O  O25  1  0.872437  0.258697  0.066913  1
  O  O26  1  0.926425  0.317734  0.436594  1
  O  O27  1  0.939971  0.261849  0.719434  1
