# generated using pymatgen
data_Fe2Co(PO4)3
_symmetry_space_group_name_H-M   'P 1'
_cell_length_a   8.42170972
_cell_length_b   8.65283265
_cell_length_c   8.65283246
_cell_angle_alpha   60.00000312
_cell_angle_beta   59.08794243
_cell_angle_gamma   59.08794345
_symmetry_Int_Tables_number   1
_chemical_formula_structural   Fe2Co(PO4)3
_chemical_formula_sum   'Fe4 Co2 P6 O24'
_cell_volume   439.61770801
_cell_formula_units_Z   2
loop_
 _symmetry_equiv_pos_site_id
 _symmetry_equiv_pos_as_xyz
  1  'x, y, z'
loop_
 _atom_site_type_symbol
 _atom_site_label
 _atom_site_symmetry_multiplicity
 _atom_site_fract_x
 _atom_site_fract_y
 _atom_site_fract_z
 _atom_site_occupancy
  Fe  Fe0  1  0.064736  0.645088  0.645088  1
  Fe  Fe1  1  0.564736  0.145088  0.145088  1
  Fe  Fe2  1  0.435264  0.854912  0.854912  1
  Fe  Fe3  1  0.935264  0.354912  0.354912  1
  Co  Co4  1  0.000000  0.000000  0.000000  1
  Co  Co5  1  0.500000  0.500000  0.500000  1
  P  P6  1  0.250000  0.250000  0.547208  1
  P  P7  1  0.250000  0.952792  0.250000  1
  P  P8  1  0.250000  0.547208  0.952792  1
  P  P9  1  0.750000  0.452792  0.047208  1
  P  P10  1  0.750000  0.047208  0.750000  1
  P  P11  1  0.750000  0.750000  0.452792  1
  O  O12  1  0.064508  0.108515  0.322327  1
  O  O13  1  0.064508  0.504650  0.108515  1
  O  O14  1  0.064508  0.322327  0.504650  1
  O  O15  1  0.217690  0.094777  0.748850  1
  O  O16  1  0.435492  0.177673  0.391485  1
  O  O17  1  0.282310  0.405223  0.561318  1
  O  O18  1  0.217690  0.938682  0.094777  1
  O  O19  1  0.282310  0.751150  0.405223  1
  O  O20  1  0.564508  0.608515  0.004650  1
  O  O21  1  0.282310  0.561318  0.751150  1
  O  O22  1  0.782310  0.251150  0.061318  1
  O  O23  1  0.564508  0.004650  0.822327  1
  O  O24  1  0.435492  0.995350  0.177673  1
  O  O25  1  0.217690  0.748850  0.938682  1
  O  O26  1  0.717690  0.438682  0.248850  1
  O  O27  1  0.435492  0.391485  0.995350  1
  O  O28  1  0.717690  0.248850  0.594777  1
  O  O29  1  0.782310  0.061318  0.905223  1
  O  O30  1  0.717690  0.594777  0.438682  1
  O  O31  1  0.564508  0.822327  0.608515  1
  O  O32  1  0.782310  0.905223  0.251150  1
  O  O33  1  0.935492  0.677673  0.495350  1
  O  O34  1  0.935492  0.495350  0.891485  1
  O  O35  1  0.935492  0.891485  0.677673  1
