# generated using pymatgen
data_VO2
_symmetry_space_group_name_H-M   'P 1'
_cell_length_a   7.73559667
_cell_length_b   8.62775019
_cell_length_c   8.62191166
_cell_angle_alpha   90.23161700
_cell_angle_beta   90.00125258
_cell_angle_gamma   90.00100022
_symmetry_Int_Tables_number   1
_chemical_formula_structural   VO2
_chemical_formula_sum   'V16 O32'
_cell_volume   575.42854199
_cell_formula_units_Z   16
loop_
 _symmetry_equiv_pos_site_id
 _symmetry_equiv_pos_as_xyz
  1  'x, y, z'
loop_
 _atom_site_type_symbol
 _atom_site_label
 _atom_site_symmetry_multiplicity
 _atom_site_fract_x
 _atom_site_fract_y
 _atom_site_fract_z
 _atom_site_occupancy
  V  V0  1  0.375049  0.758725  0.449511  1
  V  V1  1  0.375066  0.760544  0.049230  1
  V  V2  1  0.875019  0.444455  0.749055  1
  V  V3  1  0.875046  0.037986  0.751294  1
  V  V4  1  0.627940  0.951283  0.243128  1
  V  V5  1  0.125099  0.249961  0.945914  1
  V  V6  1  0.124901  0.250667  0.539060  1
  V  V7  1  0.622095  0.549940  0.243997  1
  V  V8  1  0.624988  0.251038  0.539669  1
  V  V9  1  0.624939  0.250444  0.945656  1
  V  V10  1  0.127844  0.549910  0.243710  1
  V  V11  1  0.122036  0.950841  0.243215  1
  V  V12  1  0.374970  0.056256  0.747636  1
  V  V13  1  0.874901  0.740367  0.050304  1
  V  V14  1  0.874943  0.740809  0.450375  1
  V  V15  1  0.374890  0.462071  0.749679  1
  O  O16  1  0.625084  0.748885  0.399202  1
  O  O17  1  0.624830  0.749163  0.101687  1
  O  O18  1  0.131477  0.400910  0.748081  1
  O  O19  1  0.118245  0.099071  0.749025  1
  O  O20  1  0.375021  0.898899  0.251691  1
  O  O21  1  0.875046  0.253522  0.897711  1
  O  O22  1  0.875048  0.252142  0.595824  1
  O  O23  1  0.375059  0.601471  0.252771  1
  O  O24  1  0.374965  0.249122  0.594833  1
  O  O25  1  0.375030  0.246644  0.895881  1
  O  O26  1  0.874904  0.601076  0.250537  1
  O  O27  1  0.875057  0.898062  0.251563  1
  O  O28  1  0.631769  0.099473  0.748756  1
  O  O29  1  0.125169  0.749455  0.101625  1
  O  O30  1  0.124950  0.749413  0.399021  1
  O  O31  1  0.618518  0.400801  0.747547  1
  O  O32  1  0.625160  0.404759  0.416012  1
  O  O33  1  0.124687  0.094126  0.417588  1
  O  O34  1  0.125321  0.411735  0.100031  1
  O  O35  1  0.625238  0.087165  0.099969  1
  O  O36  1  0.874881  0.917406  0.594276  1
  O  O37  1  0.874859  0.598646  0.912199  1
  O  O38  1  0.374967  0.901224  0.912506  1
  O  O39  1  0.374879  0.583701  0.594368  1
  O  O40  1  0.124834  0.404759  0.415977  1
  O  O41  1  0.625358  0.094943  0.417415  1
  O  O42  1  0.624705  0.411399  0.100420  1
  O  O43  1  0.124799  0.087387  0.100385  1
  O  O44  1  0.375153  0.901613  0.589599  1
  O  O45  1  0.375162  0.582565  0.906779  1
  O  O46  1  0.874971  0.916223  0.906440  1
  O  O47  1  0.875130  0.598945  0.588849  1
