# generated using pymatgen
data_Li2VOF3
_symmetry_space_group_name_H-M   'P 1'
_cell_length_a   5.01875811
_cell_length_b   11.59613319
_cell_length_c   5.17862356
_cell_angle_alpha   90.00014508
_cell_angle_beta   90.00733597
_cell_angle_gamma   89.99936895
_symmetry_Int_Tables_number   1
_chemical_formula_structural   Li2VOF3
_chemical_formula_sum   'Li8 V4 O4 F12'
_cell_volume   301.38650247
_cell_formula_units_Z   4
loop_
 _symmetry_equiv_pos_site_id
 _symmetry_equiv_pos_as_xyz
  1  'x, y, z'
loop_
 _atom_site_type_symbol
 _atom_site_label
 _atom_site_symmetry_multiplicity
 _atom_site_fract_x
 _atom_site_fract_y
 _atom_site_fract_z
 _atom_site_occupancy
  Li  Li0  1  0.000005  0.207974  0.750007  1
  Li  Li1  1  0.000005  0.352091  0.249995  1
  Li  Li2  1  0.999999  0.627524  0.749999  1
  Li  Li3  1  0.999999  0.778400  0.250003  1
  Li  Li4  1  0.499994  0.278358  0.249993  1
  Li  Li5  1  0.500004  0.708093  0.749995  1
  Li  Li6  1  0.500004  0.852114  0.250003  1
  Li  Li7  1  0.499997  0.127516  0.750003  1
  V  V8  1  0.999989  0.071524  0.250004  1
  V  V9  1  -0.000005  0.942769  0.750000  1
  V  V10  1  0.500002  0.571558  0.249998  1
  V  V11  1  0.499991  0.442706  0.749993  1
  O  O12  1  0.200254  0.060463  0.571266  1
  O  O13  1  0.299871  0.560430  0.571285  1
  O  O14  1  0.700139  0.560427  0.928720  1
  O  O15  1  0.799759  0.060467  0.928721  1
  F  F16  1  0.224593  0.939743  0.086818  1
  F  F17  1  0.222292  0.197419  0.078248  1
  F  F18  1  0.216688  0.812256  0.570154  1
  F  F19  1  0.283323  0.312178  0.570089  1
  F  F20  1  0.277724  0.697481  0.078261  1
  F  F21  1  0.275396  0.439718  0.086739  1
  F  F22  1  0.724596  0.439719  0.413250  1
  F  F23  1  0.716679  0.312180  0.929909  1
  F  F24  1  0.722288  0.697486  0.421751  1
  F  F25  1  0.777706  0.197417  0.421745  1
  F  F26  1  0.783319  0.812253  0.929851  1
  F  F27  1  0.775388  0.939738  0.413200  1
