# generated using pymatgen
data_Nd2P3(HO2)5
_symmetry_space_group_name_H-M   'P 1'
_cell_length_a   9.73222281
_cell_length_b   8.04384915
_cell_length_c   13.18111018
_cell_angle_alpha   90.00000000
_cell_angle_beta   108.98742897
_cell_angle_gamma   90.00000000
_symmetry_Int_Tables_number   1
_chemical_formula_structural   Nd2P3(HO2)5
_chemical_formula_sum   'Nd8 P12 H20 O40'
_cell_volume   975.73259783
_cell_formula_units_Z   4
loop_
 _symmetry_equiv_pos_site_id
 _symmetry_equiv_pos_as_xyz
  1  'x, y, z'
loop_
 _atom_site_type_symbol
 _atom_site_label
 _atom_site_symmetry_multiplicity
 _atom_site_fract_x
 _atom_site_fract_y
 _atom_site_fract_z
 _atom_site_occupancy
  Nd  Nd0  1  0.049230  0.080167  0.230230  1
  Nd  Nd1  1  0.549230  0.419833  0.730230  1
  Nd  Nd2  1  0.950770  0.919833  0.769770  1
  Nd  Nd3  1  0.450770  0.580167  0.269770  1
  Nd  Nd4  1  0.627321  0.211146  0.036132  1
  Nd  Nd5  1  0.127321  0.288854  0.536133  1
  Nd  Nd6  1  0.372679  0.788854  0.963867  1
  Nd  Nd7  1  0.872679  0.711146  0.463867  1
  P  P8  1  0.332306  0.194603  0.100058  1
  P  P9  1  0.832306  0.305397  0.600058  1
  P  P10  1  0.667694  0.805397  0.899942  1
  P  P11  1  0.167694  0.694603  0.399942  1
  P  P12  1  0.888091  0.249768  0.946003  1
  P  P13  1  0.388091  0.250232  0.446003  1
  P  P14  1  0.111909  0.750232  0.053997  1
  P  P15  1  0.611909  0.749768  0.553997  1
  P  P16  1  0.786837  0.113918  0.325024  1
  P  P17  1  0.286837  0.386082  0.825024  1
  P  P18  1  0.213163  0.886082  0.674976  1
  P  P19  1  0.713163  0.613918  0.174976  1
  H  H20  1  0.218872  0.262128  0.013874  1
  H  H21  1  0.718872  0.237872  0.513874  1
  H  H22  1  0.781128  0.737872  0.986126  1
  H  H23  1  0.281128  0.762128  0.486126  1
  H  H24  1  0.976558  0.389714  0.983890  1
  H  H25  1  0.476558  0.110286  0.483890  1
  H  H26  1  0.023442  0.610286  0.016110  1
  H  H27  1  0.523442  0.889714  0.516110  1
  H  H28  1  0.687561  0.239311  0.327984  1
  H  H29  1  0.187561  0.260689  0.827984  1
  H  H30  1  0.312439  0.760689  0.672016  1
  H  H31  1  0.812439  0.739311  0.172016  1
  H  H32  1  0.108904  0.475621  0.234251  1
  H  H33  1  0.608904  0.024379  0.734251  1
  H  H34  1  0.891096  0.524379  0.765749  1
  H  H35  1  0.391096  0.975621  0.265749  1
  H  H36  1  0.939573  0.429800  0.178402  1
  H  H37  1  0.439573  0.070200  0.678402  1
  H  H38  1  0.060427  0.570200  0.821598  1
  H  H39  1  0.560427  0.929800  0.321598  1
  O  O40  1  0.447921  0.332385  0.142995  1
  O  O41  1  0.947921  0.167615  0.642995  1
  O  O42  1  0.552079  0.667615  0.857005  1
  O  O43  1  0.052079  0.832385  0.357005  1
  O  O44  1  0.407869  0.058722  0.052205  1
  O  O45  1  0.907869  0.441277  0.552205  1
  O  O46  1  0.592131  0.941277  0.947795  1
  O  O47  1  0.092131  0.558723  0.447795  1
  O  O48  1  0.262753  0.125254  0.179617  1
  O  O49  1  0.762753  0.374746  0.679617  1
  O  O50  1  0.737247  0.874746  0.820383  1
  O  O51  1  0.237247  0.625254  0.320383  1
  O  O52  1  0.884123  0.149144  0.045537  1
  O  O53  1  0.384123  0.350856  0.545537  1
  O  O54  1  0.115877  0.850856  0.954463  1
  O  O55  1  0.615877  0.649144  0.454463  1
  O  O56  1  0.729649  0.314473  0.894713  1
  O  O57  1  0.229649  0.185527  0.394713  1
  O  O58  1  0.270351  0.685527  0.105287  1
  O  O59  1  0.770351  0.814473  0.605287  1
  O  O60  1  0.951043  0.160482  0.870038  1
  O  O61  1  0.451043  0.339518  0.370038  1
  O  O62  1  0.048957  0.839518  0.129962  1
  O  O63  1  0.548957  0.660482  0.629962  1
  O  O64  1  0.942435  0.174616  0.383717  1
  O  O65  1  0.442435  0.325384  0.883717  1
  O  O66  1  0.057565  0.825384  0.616283  1
  O  O67  1  0.557565  0.674616  0.116283  1
  O  O68  1  0.776213  0.085146  0.206401  1
  O  O69  1  0.276213  0.414854  0.706401  1
  O  O70  1  0.223787  0.914854  0.793599  1
  O  O71  1  0.723787  0.585146  0.293599  1
  O  O72  1  0.745442  0.958201  0.375917  1
  O  O73  1  0.245442  0.541799  0.875917  1
  O  O74  1  0.254558  0.041799  0.624083  1
  O  O75  1  0.754558  0.458201  0.124083  1
  O  O76  1  0.040294  0.384945  0.201461  1
  O  O77  1  0.540294  0.115055  0.701461  1
  O  O78  1  0.959706  0.615055  0.798539  1
  O  O79  1  0.459706  0.884945  0.298539  1
