# generated using pymatgen
data_Li4Co2C4SO16
_symmetry_space_group_name_H-M   'P 1'
_cell_length_a   9.34739600
_cell_length_b   9.14550249
_cell_length_c   9.34881783
_cell_angle_alpha   60.01307040
_cell_angle_beta   88.84516124
_cell_angle_gamma   120.03912841
_symmetry_Int_Tables_number   1
_chemical_formula_structural   Li4Co2C4SO16
_chemical_formula_sum   'Li8 Co4 C8 S2 O32'
_cell_volume   558.93358516
_cell_formula_units_Z   2
loop_
 _symmetry_equiv_pos_site_id
 _symmetry_equiv_pos_as_xyz
  1  'x, y, z'
loop_
 _atom_site_type_symbol
 _atom_site_label
 _atom_site_symmetry_multiplicity
 _atom_site_fract_x
 _atom_site_fract_y
 _atom_site_fract_z
 _atom_site_occupancy
  Li  Li0  1  0.916048  0.250009  0.335538  1
  Li  Li1  1  0.666589  0.344217  0.084774  1
  Li  Li2  1  0.910536  0.829377  0.326976  1
  Li  Li3  1  0.908119  0.237519  0.916584  1
  Li  Li4  1  0.082468  0.156489  0.662781  1
  Li  Li5  1  0.336466  0.250526  0.914873  1
  Li  Li6  1  0.347445  0.670095  0.922092  1
  Li  Li7  1  0.084952  0.765043  0.660413  1
  Co  Co8  1  0.499373  0.000045  0.001957  1
  Co  Co9  1  0.500838  0.001119  0.501234  1
  Co  Co10  1  0.500672  0.500145  0.500849  1
  Co  Co11  1  0.999794  0.498788  0.500520  1
  C  C12  1  0.711219  0.065737  0.716427  1
  C  C13  1  0.719240  0.435261  0.356552  1
  C  C14  1  0.351162  0.061239  0.723453  1
  C  C15  1  0.716296  0.437604  0.713048  1
  C  C16  1  0.650132  0.937061  0.281910  1
  C  C17  1  0.284094  0.564838  0.289935  1
  C  C18  1  0.290528  0.936335  0.285462  1
  C  C19  1  0.278400  0.561541  0.650698  1
  S  S20  1  0.120051  0.249513  0.119042  1
  S  S21  1  0.877836  0.750253  0.870045  1
  O  O22  1  0.656169  0.071774  0.130251  1
  O  O23  1  0.864678  0.208044  0.586479  1
  O  O24  1  0.705984  0.292050  0.344947  1
  O  O25  1  0.423936  0.062365  0.301903  1
  O  O26  1  0.866205  0.565095  0.357103  1
  O  O27  1  0.316476  0.385275  0.042935  1
  O  O28  1  0.052034  0.112330  0.057052  1
  O  O29  1  0.587858  0.444301  0.362265  1
  O  O30  1  0.698075  0.056941  0.858291  1
  O  O31  1  0.343848  0.037313  0.598220  1
  O  O32  1  0.865497  0.458711  0.698734  1
  O  O33  1  0.044502  0.113704  0.315271  1
  O  O34  1  0.057340  0.385213  0.051546  1
  O  O35  1  0.653550  0.790230  0.299604  1
  O  O36  1  0.411100  0.709668  0.137645  1
  O  O37  1  0.700409  0.562786  0.579976  1
  O  O38  1  0.301523  0.440071  0.423535  1
  O  O39  1  0.344990  0.207972  0.706603  1
  O  O40  1  0.586210  0.291989  0.865096  1
  O  O41  1  0.938575  0.611455  0.931635  1
  O  O42  1  0.957099  0.889154  0.670063  1
  O  O43  1  0.132401  0.537346  0.307702  1
  O  O44  1  0.652272  0.959186  0.407796  1
  O  O45  1  0.305171  0.958369  0.137090  1
  O  O46  1  0.405958  0.543827  0.651204  1
  O  O47  1  0.947582  0.892915  0.923340  1
  O  O48  1  0.682135  0.609778  0.940375  1
  O  O49  1  0.126691  0.425587  0.658017  1
  O  O50  1  0.579101  0.936930  0.701652  1
  O  O51  1  0.294525  0.709488  0.652887  1
  O  O52  1  0.137975  0.791215  0.415180  1
  O  O53  1  0.357874  0.936161  0.866894  1
