# generated using pymatgen
data_LiTi2Mn3O10
_symmetry_space_group_name_H-M   'P 1'
_cell_length_a   5.02144344
_cell_length_b   5.08531775
_cell_length_c   8.23060408
_cell_angle_alpha   111.56989557
_cell_angle_beta   100.70406452
_cell_angle_gamma   98.00614559
_symmetry_Int_Tables_number   1
_chemical_formula_structural   LiTi2Mn3O10
_chemical_formula_sum   'Li1 Ti2 Mn3 O10'
_cell_volume   187.03407042
_cell_formula_units_Z   1
loop_
 _symmetry_equiv_pos_site_id
 _symmetry_equiv_pos_as_xyz
  1  'x, y, z'
loop_
 _atom_site_type_symbol
 _atom_site_label
 _atom_site_symmetry_multiplicity
 _atom_site_fract_x
 _atom_site_fract_y
 _atom_site_fract_z
 _atom_site_occupancy
  Li  Li0  1  0.676271  0.043735  0.544299  1
  Ti  Ti1  1  0.124062  0.697431  0.682962  1
  Ti  Ti2  1  0.893329  0.334424  0.326440  1
  Mn  Mn3  1  0.009628  0.500762  0.002968  1
  Mn  Mn4  1  0.704578  0.888749  0.905771  1
  Mn  Mn5  1  0.312148  0.110135  0.104217  1
  O  O6  1  0.045170  0.092143  0.877730  1
  O  O7  1  0.363729  0.735808  0.946859  1
  O  O8  1  0.092315  0.312959  0.530923  1
  O  O9  1  0.195947  0.458827  0.215910  1
  O  O10  1  0.477987  0.877210  0.694364  1
  O  O11  1  0.547898  0.132266  0.314754  1
  O  O12  1  0.818614  0.537799  0.788731  1
  O  O13  1  0.900846  0.712460  0.481002  1
  O  O14  1  0.651095  0.265236  0.059168  1
  O  O15  1  0.969096  0.905769  0.126530  1
