# generated using pymatgen
data_Li4Mn3Ni3(PO4)6
_symmetry_space_group_name_H-M   'P 1'
_cell_length_a   8.45770997
_cell_length_b   8.85936663
_cell_length_c   8.85181185
_cell_angle_alpha   60.01165121
_cell_angle_beta   59.14923351
_cell_angle_gamma   59.18609224
_symmetry_Int_Tables_number   1
_chemical_formula_structural   Li4Mn3Ni3(PO4)6
_chemical_formula_sum   'Li4 Mn3 Ni3 P6 O24'
_cell_volume   463.05212954
_cell_formula_units_Z   1
loop_
 _symmetry_equiv_pos_site_id
 _symmetry_equiv_pos_as_xyz
  1  'x, y, z'
loop_
 _atom_site_type_symbol
 _atom_site_label
 _atom_site_symmetry_multiplicity
 _atom_site_fract_x
 _atom_site_fract_y
 _atom_site_fract_z
 _atom_site_occupancy
  Li  Li0  1  0.252327  0.851257  0.645743  1
  Li  Li1  1  0.774439  0.145830  0.353688  1
  Li  Li2  1  0.775126  0.725778  0.143567  1
  Li  Li3  1  0.777486  0.355008  0.722879  1
  Mn  Mn4  1  0.019054  0.996628  0.001114  1
  Mn  Mn5  1  0.555396  0.151862  0.147147  1
  Mn  Mn6  1  0.493221  0.495119  0.499290  1
  Ni  Ni7  1  0.066057  0.643783  0.647081  1
  Ni  Ni8  1  0.436971  0.852325  0.853697  1
  Ni  Ni9  1  0.940644  0.353738  0.349995  1
  P  P10  1  0.243233  0.255074  0.548755  1
  P  P11  1  0.244634  0.954040  0.252389  1
  P  P12  1  0.244019  0.550007  0.952827  1
  P  P13  1  0.745230  0.455855  0.044135  1
  P  P14  1  0.756128  0.043095  0.752857  1
  P  P15  1  0.736521  0.755515  0.456286  1
  O  O16  1  0.052484  0.106544  0.314578  1
  O  O17  1  0.052829  0.523603  0.103795  1
  O  O18  1  0.052114  0.323971  0.518046  1
  O  O19  1  0.230166  0.085795  0.731466  1
  O  O20  1  0.432408  0.194267  0.384393  1
  O  O21  1  0.271373  0.403778  0.566326  1
  O  O22  1  0.236654  0.928585  0.096432  1
  O  O23  1  0.274873  0.768542  0.415858  1
  O  O24  1  0.560662  0.606494  0.010648  1
  O  O25  1  0.276501  0.567457  0.755360  1
  O  O26  1  0.764009  0.253211  0.069815  1
  O  O27  1  0.582664  0.993828  0.812870  1
  O  O28  1  0.431868  0.998689  0.186291  1
  O  O29  1  0.228301  0.744030  0.928573  1
  O  O30  1  0.728160  0.428100  0.242114  1
  O  O31  1  0.432547  0.387244  0.990169  1
  O  O32  1  0.732073  0.240170  0.599049  1
  O  O33  1  0.766001  0.072651  0.913393  1
  O  O34  1  0.729137  0.600746  0.422852  1
  O  O35  1  0.539623  0.816358  0.603598  1
  O  O36  1  0.761474  0.916166  0.255614  1
  O  O37  1  0.913510  0.705886  0.496041  1
  O  O38  1  0.934542  0.478408  0.889241  1
  O  O39  1  0.955537  0.893562  0.699024  1
