# generated using pymatgen
data_K2FeH4(SO5)2
_symmetry_space_group_name_H-M   'P 1'
_cell_length_a   7.41081561
_cell_length_b   10.97441790
_cell_length_c   6.58055645
_cell_angle_alpha   108.67447592
_cell_angle_beta   110.48871139
_cell_angle_gamma   94.51372924
_symmetry_Int_Tables_number   1
_chemical_formula_structural   K2FeH4(SO5)2
_chemical_formula_sum   'K4 Fe2 H8 S4 O20'
_cell_volume   463.83893362
_cell_formula_units_Z   2
loop_
 _symmetry_equiv_pos_site_id
 _symmetry_equiv_pos_as_xyz
  1  'x, y, z'
loop_
 _atom_site_type_symbol
 _atom_site_label
 _atom_site_symmetry_multiplicity
 _atom_site_fract_x
 _atom_site_fract_y
 _atom_site_fract_z
 _atom_site_occupancy
  K  K0  1  0.749309  0.898836  0.188068  1
  K  K1  1  0.250691  0.101164  0.811932  1
  K  K2  1  0.238591  0.578161  0.814735  1
  K  K3  1  0.761409  0.421839  0.185265  1
  Fe  Fe4  1  0.477685  0.749517  0.498764  1
  Fe  Fe5  1  0.522315  0.250483  0.501236  1
  H  H6  1  0.841582  0.858024  0.627761  1
  H  H7  1  0.158418  0.141976  0.372239  1
  H  H8  1  0.825527  0.703257  0.563847  1
  H  H9  1  0.174473  0.296743  0.436153  1
  H  H10  1  0.180720  0.794245  0.653375  1
  H  H11  1  0.819280  0.205755  0.346625  1
  H  H12  1  0.081284  0.712422  0.374250  1
  H  H13  1  0.918716  0.287578  0.625750  1
  S  S14  1  0.276928  0.925263  0.174044  1
  S  S15  1  0.723072  0.074737  0.825956  1
  S  S16  1  0.727165  0.582636  0.811445  1
  S  S17  1  0.272835  0.417364  0.188555  1
  O  O18  1  0.428201  0.046154  0.238051  1
  O  O19  1  0.571799  0.953846  0.761949  1
  O  O20  1  0.153360  0.876961  0.919494  1
  O  O21  1  0.846640  0.123039  0.080506  1
  O  O22  1  0.155542  0.956173  0.313061  1
  O  O23  1  0.844458  0.043827  0.686939  1
  O  O24  1  0.385194  0.819472  0.220824  1
  O  O25  1  0.614806  0.180528  0.779176  1
  O  O26  1  0.589714  0.676358  0.775571  1
  O  O27  1  0.410286  0.323642  0.224429  1
  O  O28  1  0.833631  0.571090  0.654000  1
  O  O29  1  0.166369  0.428910  0.346000  1
  O  O30  1  0.865195  0.633522  0.058933  1
  O  O31  1  0.134805  0.366478  0.941067  1
  O  O32  1  0.602762  0.451787  0.755453  1
  O  O33  1  0.397238  0.548213  0.244547  1
  O  O34  1  0.774037  0.771170  0.501895  1
  O  O35  1  0.225963  0.228830  0.498105  1
  O  O36  1  0.197191  0.729929  0.519103  1
  O  O37  1  0.802809  0.270071  0.480897  1
