# generated using pymatgen
data_B5H4NO10
_symmetry_space_group_name_H-M   'P 1'
_cell_length_a   9.37775588
_cell_length_b   7.71731597
_cell_length_c   11.68681559
_cell_angle_alpha   90.00000000
_cell_angle_beta   96.62428622
_cell_angle_gamma   90.00000000
_symmetry_Int_Tables_number   1
_chemical_formula_structural   B5H4NO10
_chemical_formula_sum   'B20 H16 N4 O40'
_cell_volume   840.14124566
_cell_formula_units_Z   4
loop_
 _symmetry_equiv_pos_site_id
 _symmetry_equiv_pos_as_xyz
  1  'x, y, z'
loop_
 _atom_site_type_symbol
 _atom_site_label
 _atom_site_symmetry_multiplicity
 _atom_site_fract_x
 _atom_site_fract_y
 _atom_site_fract_z
 _atom_site_occupancy
  B  B0  1  0.565306  0.189140  0.573507  1
  B  B1  1  0.434694  0.689140  0.926493  1
  B  B2  1  0.434694  0.810860  0.426493  1
  B  B3  1  0.565306  0.310860  0.073507  1
  B  B4  1  0.750818  0.984865  0.541382  1
  B  B5  1  0.249182  0.484865  0.958618  1
  B  B6  1  0.249182  0.015135  0.458618  1
  B  B7  1  0.750818  0.515135  0.041382  1
  B  B8  1  0.704573  0.048136  0.744414  1
  B  B9  1  0.295427  0.548136  0.755586  1
  B  B10  1  0.295427  0.951864  0.255586  1
  B  B11  1  0.704573  0.451864  0.244414  1
  B  B12  1  0.631898  0.905462  0.921471  1
  B  B13  1  0.368102  0.405462  0.578529  1
  B  B14  1  0.368102  0.094538  0.078529  1
  B  B15  1  0.631898  0.594538  0.421471  1
  B  B16  1  0.825889  0.112321  0.942695  1
  B  B17  1  0.174111  0.612321  0.557305  1
  B  B18  1  0.174111  0.887679  0.057305  1
  B  B19  1  0.825889  0.387679  0.442695  1
  H  H20  1  0.048231  0.408556  0.770162  1
  H  H21  1  0.951769  0.908556  0.729838  1
  H  H22  1  0.951769  0.591444  0.229838  1
  H  H23  1  0.048231  0.091444  0.270162  1
  H  H24  1  0.903242  0.296284  0.770601  1
  H  H25  1  0.096758  0.796284  0.729399  1
  H  H26  1  0.096758  0.703716  0.229399  1
  H  H27  1  0.903242  0.203716  0.270601  1
  H  H28  1  0.939591  0.158331  0.095316  1
  H  H29  1  0.060409  0.658331  0.404684  1
  H  H30  1  0.060409  0.841669  0.904684  1
  H  H31  1  0.939591  0.341669  0.595316  1
  H  H32  1  0.906868  0.833305  0.492906  1
  H  H33  1  0.093132  0.333305  0.007094  1
  H  H34  1  0.093132  0.166695  0.507094  1
  H  H35  1  0.906868  0.666695  0.992906  1
  N  N36  1  0.323884  0.061041  0.764229  1
  N  N37  1  0.676116  0.561041  0.735771  1
  N  N38  1  0.676116  0.938959  0.235771  1
  N  N39  1  0.323884  0.438959  0.264229  1
  O  O40  1  0.457509  0.297716  0.525250  1
  O  O41  1  0.542491  0.797716  0.974750  1
  O  O42  1  0.542491  0.702284  0.474750  1
  O  O43  1  0.457509  0.202284  0.025250  1
  O  O44  1  0.639791  0.095490  0.498064  1
  O  O45  1  0.360209  0.595490  0.001936  1
  O  O46  1  0.360209  0.904510  0.501936  1
  O  O47  1  0.639791  0.404510  0.998064  1
  O  O48  1  0.824694  0.905995  0.462491  1
  O  O49  1  0.175306  0.405995  0.037509  1
  O  O50  1  0.175306  0.094005  0.537509  1
  O  O51  1  0.824694  0.594005  0.962491  1
  O  O52  1  0.600818  0.174605  0.689659  1
  O  O53  1  0.399182  0.674605  0.810341  1
  O  O54  1  0.399182  0.825395  0.310341  1
  O  O55  1  0.600818  0.325395  0.189659  1
  O  O56  1  0.783589  0.959440  0.658722  1
  O  O57  1  0.216411  0.459440  0.841278  1
  O  O58  1  0.216411  0.040560  0.341278  1
  O  O59  1  0.783589  0.540560  0.158722  1
  O  O60  1  0.622365  0.921522  0.803947  1
  O  O61  1  0.377635  0.421522  0.696053  1
  O  O62  1  0.377635  0.078478  0.196053  1
  O  O63  1  0.622365  0.578478  0.303947  1
  O  O64  1  0.810860  0.140447  0.825910  1
  O  O65  1  0.189140  0.640447  0.674090  1
  O  O66  1  0.189140  0.859553  0.174090  1
  O  O67  1  0.810860  0.359553  0.325910  1
  O  O68  1  0.734454  0.997869  0.991777  1
  O  O69  1  0.265546  0.497869  0.508223  1
  O  O70  1  0.265546  0.002131  0.008223  1
  O  O71  1  0.734454  0.502131  0.491777  1
  O  O72  1  0.932974  0.194136  0.010845  1
  O  O73  1  0.067026  0.694136  0.489155  1
  O  O74  1  0.067026  0.805864  0.989155  1
  O  O75  1  0.932974  0.305864  0.510845  1
  O  O76  1  0.952650  0.384666  0.726012  1
  O  O77  1  0.047350  0.884666  0.773988  1
  O  O78  1  0.047350  0.615334  0.273988  1
  O  O79  1  0.952650  0.115334  0.226012  1
