# generated using pymatgen
data_NaGa(H2N)4
_symmetry_space_group_name_H-M   'P 1'
_cell_length_a   7.72127754
_cell_length_b   6.37814995
_cell_length_c   17.02692086
_cell_angle_alpha   90.00000000
_cell_angle_beta   93.24933690
_cell_angle_gamma   90.00000000
_symmetry_Int_Tables_number   1
_chemical_formula_structural   NaGa(H2N)4
_chemical_formula_sum   'Na4 Ga4 H32 N16'
_cell_volume   837.18461852
_cell_formula_units_Z   4
loop_
 _symmetry_equiv_pos_site_id
 _symmetry_equiv_pos_as_xyz
  1  'x, y, z'
loop_
 _atom_site_type_symbol
 _atom_site_label
 _atom_site_symmetry_multiplicity
 _atom_site_fract_x
 _atom_site_fract_y
 _atom_site_fract_z
 _atom_site_occupancy
  Na  Na0  1  0.819607  0.427968  0.694158  1
  Na  Na1  1  0.180393  0.927968  0.805842  1
  Na  Na2  1  0.180393  0.572032  0.305842  1
  Na  Na3  1  0.819607  0.072032  0.194158  1
  Ga  Ga4  1  0.273378  0.280420  0.690498  1
  Ga  Ga5  1  0.726622  0.780420  0.809502  1
  Ga  Ga6  1  0.726622  0.719580  0.309502  1
  Ga  Ga7  1  0.273378  0.219580  0.190498  1
  H  H8  1  0.410097  0.058773  0.567667  1
  H  H9  1  0.589903  0.558773  0.932333  1
  H  H10  1  0.589903  0.941227  0.432333  1
  H  H11  1  0.410097  0.441227  0.067667  1
  H  H12  1  0.527020  0.701289  0.453116  1
  H  H13  1  0.472980  0.201289  0.046884  1
  H  H14  1  0.472980  0.298711  0.546884  1
  H  H15  1  0.527020  0.798711  0.953116  1
  H  H16  1  0.426546  0.260876  0.813690  1
  H  H17  1  0.573454  0.760876  0.686310  1
  H  H18  1  0.573454  0.739124  0.186310  1
  H  H19  1  0.426546  0.239124  0.313690  1
  H  H20  1  0.441491  0.825842  0.373127  1
  H  H21  1  0.558509  0.325842  0.126873  1
  H  H22  1  0.558509  0.174158  0.626873  1
  H  H23  1  0.441491  0.674158  0.873127  1
  H  H24  1  0.034006  0.156362  0.632682  1
  H  H25  1  0.965994  0.656362  0.867318  1
  H  H26  1  0.965994  0.843638  0.367318  1
  H  H27  1  0.034006  0.343638  0.132682  1
  H  H28  1  0.980001  0.709764  0.982990  1
  H  H29  1  0.019999  0.209764  0.517010  1
  H  H30  1  0.019999  0.290236  0.017010  1
  H  H31  1  0.980001  0.790236  0.482990  1
  H  H32  1  0.551230  0.211918  0.928305  1
  H  H33  1  0.448770  0.711918  0.571695  1
  H  H34  1  0.448770  0.788082  0.071695  1
  H  H35  1  0.551230  0.288082  0.428305  1
  H  H36  1  0.455285  0.233679  0.924808  1
  H  H37  1  0.544715  0.733679  0.575192  1
  H  H38  1  0.544715  0.766321  0.075192  1
  H  H39  1  0.455285  0.266321  0.424808  1
  N  N40  1  0.448709  0.199139  0.591945  1
  N  N41  1  0.551291  0.699139  0.908055  1
  N  N42  1  0.551291  0.800861  0.408055  1
  N  N43  1  0.448709  0.300861  0.091945  1
  N  N44  1  0.983254  0.081828  0.480314  1
  N  N45  1  0.016746  0.581828  0.019686  1
  N  N46  1  0.016746  0.918172  0.519686  1
  N  N47  1  0.983254  0.418172  0.980314  1
  N  N48  1  0.064136  0.315514  0.638040  1
  N  N49  1  0.935863  0.815514  0.861960  1
  N  N50  1  0.935863  0.684486  0.361960  1
  N  N51  1  0.064136  0.184486  0.138040  1
  N  N52  1  0.404359  0.155995  0.768546  1
  N  N53  1  0.595641  0.655995  0.731454  1
  N  N54  1  0.595641  0.844005  0.231454  1
  N  N55  1  0.404359  0.344005  0.268546  1
