# generated using pymatgen
data_RbCoO2
_symmetry_space_group_name_H-M   'P 1'
_cell_length_a   5.85490566
_cell_length_b   11.54196500
_cell_length_c   16.51157741
_cell_angle_alpha   90.00000000
_cell_angle_beta   90.00000000
_cell_angle_gamma   90.00000000
_symmetry_Int_Tables_number   1
_chemical_formula_structural   RbCoO2
_chemical_formula_sum   'Rb16 Co16 O32'
_cell_volume   1115.80478538
_cell_formula_units_Z   16
loop_
 _symmetry_equiv_pos_site_id
 _symmetry_equiv_pos_as_xyz
  1  'x, y, z'
loop_
 _atom_site_type_symbol
 _atom_site_label
 _atom_site_symmetry_multiplicity
 _atom_site_fract_x
 _atom_site_fract_y
 _atom_site_fract_z
 _atom_site_occupancy
  Rb  Rb0  1  0.706508  0.741036  0.684940  1
  Rb  Rb1  1  0.732570  0.990214  0.564673  1
  Rb  Rb2  1  0.232570  0.990214  0.935327  1
  Rb  Rb3  1  0.267430  0.009786  0.435327  1
  Rb  Rb4  1  0.293492  0.241036  0.815060  1
  Rb  Rb5  1  0.732570  0.509786  0.064673  1
  Rb  Rb6  1  0.232570  0.509786  0.435327  1
  Rb  Rb7  1  0.293492  0.258964  0.315060  1
  Rb  Rb8  1  0.206508  0.741036  0.815060  1
  Rb  Rb9  1  0.767430  0.490214  0.564673  1
  Rb  Rb10  1  0.206508  0.758964  0.315060  1
  Rb  Rb11  1  0.706508  0.758964  0.184940  1
  Rb  Rb12  1  0.267430  0.490214  0.935327  1
  Rb  Rb13  1  0.767430  0.009786  0.064673  1
  Rb  Rb14  1  0.793492  0.258964  0.184940  1
  Rb  Rb15  1  0.793492  0.241036  0.684940  1
  Co  Co16  1  0.793091  0.239579  0.936474  1
  Co  Co17  1  0.714295  0.994302  0.815677  1
  Co  Co18  1  0.285705  0.494302  0.684323  1
  Co  Co19  1  0.214295  0.505698  0.184323  1
  Co  Co20  1  0.285705  0.005698  0.184323  1
  Co  Co21  1  0.714295  0.505698  0.315677  1
  Co  Co22  1  0.293091  0.239579  0.563526  1
  Co  Co23  1  0.214295  0.994302  0.684323  1
  Co  Co24  1  0.206909  0.760421  0.063526  1
  Co  Co25  1  0.793091  0.260421  0.436474  1
  Co  Co26  1  0.706909  0.760421  0.436474  1
  Co  Co27  1  0.785705  0.005698  0.315677  1
  Co  Co28  1  0.293091  0.260421  0.063526  1
  Co  Co29  1  0.785705  0.494302  0.815677  1
  Co  Co30  1  0.706909  0.739579  0.936474  1
  Co  Co31  1  0.206909  0.739579  0.563526  1
  O  O32  1  0.815294  0.914571  0.405052  1
  O  O33  1  0.217424  0.667399  0.151644  1
  O  O34  1  0.413875  0.489663  0.265809  1
  O  O35  1  0.782576  0.332601  0.848356  1
  O  O36  1  0.282576  0.167399  0.151644  1
  O  O37  1  0.067798  0.288996  0.485150  1
  O  O38  1  0.432202  0.788996  0.485150  1
  O  O39  1  0.315294  0.585429  0.594948  1
  O  O40  1  0.782576  0.167399  0.348356  1
  O  O41  1  0.567798  0.288996  0.014850  1
  O  O42  1  0.432202  0.711004  0.985150  1
  O  O43  1  0.815294  0.585429  0.905052  1
  O  O44  1  0.217424  0.832601  0.651644  1
  O  O45  1  0.684706  0.414571  0.405052  1
  O  O46  1  0.567798  0.211004  0.514850  1
  O  O47  1  0.184706  0.414571  0.094948  1
  O  O48  1  0.586125  0.989663  0.234191  1
  O  O49  1  0.067798  0.211004  0.985150  1
  O  O50  1  0.586125  0.510337  0.734191  1
  O  O51  1  0.932202  0.711004  0.514850  1
  O  O52  1  0.913875  0.010337  0.734191  1
  O  O53  1  0.184706  0.085429  0.594948  1
  O  O54  1  0.315294  0.914571  0.094948  1
  O  O55  1  0.086125  0.989663  0.265809  1
  O  O56  1  0.282576  0.332601  0.651644  1
  O  O57  1  0.413875  0.010337  0.765809  1
  O  O58  1  0.932202  0.788996  0.014850  1
  O  O59  1  0.913875  0.489663  0.234191  1
  O  O60  1  0.717424  0.832601  0.848356  1
  O  O61  1  0.086125  0.510337  0.765809  1
  O  O62  1  0.684706  0.085429  0.905052  1
  O  O63  1  0.717424  0.667399  0.348356  1
