# generated using pymatgen
data_MnHC3O4
_symmetry_space_group_name_H-M   'P 1'
_cell_length_a   9.29860695
_cell_length_b   9.29854369
_cell_length_c   14.09534674
_cell_angle_alpha   89.99946178
_cell_angle_beta   90.00120207
_cell_angle_gamma   119.99971790
_symmetry_Int_Tables_number   1
_chemical_formula_structural   MnHC3O4
_chemical_formula_sum   'Mn8 H8 C24 O32'
_cell_volume   1055.45678610
_cell_formula_units_Z   8
loop_
 _symmetry_equiv_pos_site_id
 _symmetry_equiv_pos_as_xyz
  1  'x, y, z'
loop_
 _atom_site_type_symbol
 _atom_site_label
 _atom_site_symmetry_multiplicity
 _atom_site_fract_x
 _atom_site_fract_y
 _atom_site_fract_z
 _atom_site_occupancy
  Mn  Mn0  1  0.666659  0.333330  0.890378  1
  Mn  Mn1  1  0.333341  0.666670  0.109622  1
  Mn  Mn2  1  0.848826  0.297919  0.701566  1
  Mn  Mn3  1  0.449113  0.151186  0.701579  1
  Mn  Mn4  1  0.702081  0.550919  0.701566  1
  Mn  Mn5  1  0.151174  0.702081  0.298434  1
  Mn  Mn6  1  0.550887  0.848814  0.298421  1
  Mn  Mn7  1  0.297919  0.449081  0.298434  1
  H  H8  1  0.633095  0.057955  0.811086  1
  H  H9  1  0.424859  0.366905  0.811086  1
  H  H10  1  0.942040  0.575135  0.811085  1
  H  H11  1  0.366905  0.942045  0.188914  1
  H  H12  1  0.575141  0.633095  0.188914  1
  H  H13  1  0.057960  0.424865  0.188915  1
  H  H14  1  0.666607  0.333303  0.566455  1
  H  H15  1  0.333393  0.666697  0.433545  1
  C  C16  1  0.813715  0.312427  0.967202  1
  C  C17  1  0.498701  0.186274  0.967203  1
  C  C18  1  0.687564  0.501287  0.967202  1
  C  C19  1  0.186285  0.687573  0.032798  1
  C  C20  1  0.501299  0.813726  0.032797  1
  C  C21  1  0.312436  0.498713  0.032798  1
  C  C22  1  0.001380  0.273545  0.770689  1
  C  C23  1  0.272178  0.998629  0.770695  1
  C  C24  1  0.726464  0.727858  0.770692  1
  C  C25  1  0.998620  0.726455  0.229311  1
  C  C26  1  0.727822  0.001371  0.229305  1
  C  C27  1  0.273536  0.272142  0.229308  1
  C  C28  1  0.815826  0.118399  0.630524  1
  C  C29  1  0.302588  0.184182  0.630532  1
  C  C30  1  0.881619  0.697446  0.630517  1
  C  C31  1  0.184174  0.881601  0.369476  1
  C  C32  1  0.697412  0.815818  0.369468  1
  C  C33  1  0.118381  0.302553  0.369483  1
  C  C34  1  0.019245  0.433671  0.622570  1
  C  C35  1  0.414434  0.980762  0.622579  1
  C  C36  1  0.566317  0.585586  0.622563  1
  C  C37  1  0.980755  0.566329  0.377430  1
  C  C38  1  0.585566  0.019238  0.377421  1
  C  C39  1  0.433683  0.414414  0.377437  1
  O  O40  1  0.640584  0.159962  0.787066  1
  O  O41  1  0.519388  0.359437  0.787066  1
  O  O42  1  0.840038  0.480616  0.787063  1
  O  O43  1  0.359416  0.840038  0.212934  1
  O  O44  1  0.480612  0.640563  0.212934  1
  O  O45  1  0.159962  0.519384  0.212937  1
  O  O46  1  0.666653  0.333332  0.635838  1
  O  O47  1  0.333347  0.666668  0.364162  1
  O  O48  1  0.905173  0.303309  0.019933  1
  O  O49  1  0.398134  0.094825  0.019936  1
  O  O50  1  0.696692  0.601865  0.019934  1
  O  O51  1  0.094827  0.696691  0.980067  1
  O  O52  1  0.601866  0.905175  0.980064  1
  O  O53  1  0.303308  0.398135  0.980066  1
  O  O54  1  0.106225  0.260012  0.808004  1
  O  O55  1  0.153785  0.893773  0.808000  1
  O  O56  1  0.739987  0.846205  0.808002  1
  O  O57  1  0.893775  0.739988  0.191996  1
  O  O58  1  0.846215  0.106227  0.192000  1
  O  O59  1  0.260013  0.153795  0.191998  1
  O  O60  1  0.796997  0.003029  0.588543  1
  O  O61  1  0.206037  0.203000  0.588544  1
  O  O62  1  0.996954  0.793952  0.588549  1
  O  O63  1  0.203003  0.996971  0.411457  1
  O  O64  1  0.793963  0.797000  0.411456  1
  O  O65  1  0.003046  0.206048  0.411451  1
  O  O66  1  0.130007  0.513766  0.572234  1
  O  O67  1  0.383756  0.869995  0.572234  1
  O  O68  1  0.486238  0.616237  0.572236  1
  O  O69  1  0.869993  0.486234  0.427766  1
  O  O70  1  0.616244  0.130005  0.427766  1
  O  O71  1  0.513762  0.383763  0.427764  1
