# generated using pymatgen
data_Li2MnPHO5
_symmetry_space_group_name_H-M   'P 1'
_cell_length_a   5.42168973
_cell_length_b   5.57502312
_cell_length_c   7.96942678
_cell_angle_alpha   69.69203538
_cell_angle_beta   71.08898213
_cell_angle_gamma   94.14484702
_symmetry_Int_Tables_number   1
_chemical_formula_structural   Li2MnPHO5
_chemical_formula_sum   'Li4 Mn2 P2 H2 O10'
_cell_volume   209.03152631
_cell_formula_units_Z   2
loop_
 _symmetry_equiv_pos_site_id
 _symmetry_equiv_pos_as_xyz
  1  'x, y, z'
loop_
 _atom_site_type_symbol
 _atom_site_label
 _atom_site_symmetry_multiplicity
 _atom_site_fract_x
 _atom_site_fract_y
 _atom_site_fract_z
 _atom_site_occupancy
  Li  Li0  1  0.012192  0.376544  0.196407  1
  Li  Li1  1  0.631148  0.299241  0.829243  1
  Li  Li2  1  0.368858  0.700758  0.170758  1
  Li  Li3  1  0.987814  0.623459  0.803586  1
  Mn  Mn4  1  0.999994  0.999994  0.000010  1
  Mn  Mn5  1  0.499995  0.500001  0.500007  1
  P  P6  1  0.444077  0.150372  0.226164  1
  P  P7  1  0.555924  0.849629  0.773834  1
  H  H8  1  0.016471  0.278829  0.646994  1
  H  H9  1  0.983531  0.721161  0.353007  1
  O  O10  1  0.752748  0.239090  0.118400  1
  O  O11  1  0.317329  0.185344  0.069404  1
  O  O12  1  0.634003  0.142598  0.638951  1
  O  O13  1  0.335657  0.333492  0.328712  1
  O  O14  1  0.089179  0.338349  0.727178  1
  O  O15  1  0.910817  0.661644  0.272824  1
  O  O16  1  0.664354  0.666514  0.671282  1
  O  O17  1  0.365999  0.857405  0.361046  1
  O  O18  1  0.682666  0.814663  0.930598  1
  O  O19  1  0.247253  0.760913  0.881593  1
