# generated using pymatgen
data_Li4Cr3FeO8
_symmetry_space_group_name_H-M   'P 1'
_cell_length_a   5.12331303
_cell_length_b   5.88650982
_cell_length_c   10.19457918
_cell_angle_alpha   90.05442899
_cell_angle_beta   80.45899683
_cell_angle_gamma   73.28902420
_symmetry_Int_Tables_number   1
_chemical_formula_structural   Li4Cr3FeO8
_chemical_formula_sum   'Li8 Cr6 Fe2 O16'
_cell_volume   290.00985193
_cell_formula_units_Z   2
loop_
 _symmetry_equiv_pos_site_id
 _symmetry_equiv_pos_as_xyz
  1  'x, y, z'
loop_
 _atom_site_type_symbol
 _atom_site_label
 _atom_site_symmetry_multiplicity
 _atom_site_fract_x
 _atom_site_fract_y
 _atom_site_fract_z
 _atom_site_occupancy
  Li  Li0  1  0.000331  0.000894  0.998550  1
  Li  Li1  1  0.998021  0.001472  0.499724  1
  Li  Li2  1  0.000000  0.250000  0.250000  1
  Li  Li3  1  0.000000  0.250000  0.750000  1
  Li  Li4  1  0.001979  0.498528  0.000276  1
  Li  Li5  1  0.999669  0.499106  0.501450  1
  Li  Li6  1  0.000000  0.750000  0.250000  1
  Li  Li7  1  0.000000  0.750000  0.750000  1
  Cr  Cr8  1  0.499949  0.125927  0.376593  1
  Cr  Cr9  1  0.500051  0.374073  0.123407  1
  Cr  Cr10  1  0.499978  0.624042  0.376718  1
  Cr  Cr11  1  0.499785  0.623560  0.873285  1
  Cr  Cr12  1  0.500023  0.875958  0.123282  1
  Cr  Cr13  1  0.500215  0.876440  0.626714  1
  Fe  Fe14  1  0.500129  0.125631  0.873774  1
  Fe  Fe15  1  0.499871  0.374369  0.626226  1
  O  O16  1  0.275974  0.181543  0.056645  1
  O  O17  1  0.276246  0.184448  0.562479  1
  O  O18  1  0.726361  0.068509  0.189455  1
  O  O19  1  0.721168  0.074036  0.691505  1
  O  O20  1  0.273639  0.431491  0.310546  1
  O  O21  1  0.724025  0.318458  0.443356  1
  O  O22  1  0.278831  0.425965  0.808496  1
  O  O23  1  0.723753  0.315553  0.937521  1
  O  O24  1  0.273445  0.681474  0.059511  1
  O  O25  1  0.726192  0.568132  0.189293  1
  O  O26  1  0.276089  0.677751  0.563141  1
  O  O27  1  0.723749  0.565383  0.688450  1
  O  O28  1  0.273807  0.931868  0.310707  1
  O  O29  1  0.726555  0.818526  0.440489  1
  O  O30  1  0.276252  0.934616  0.811550  1
  O  O31  1  0.723912  0.822248  0.936859  1
