# generated using pymatgen
data_Ba2Ga6O11
_symmetry_space_group_name_H-M   'P 1'
_cell_length_a   23.22310128
_cell_length_b   5.16121101
_cell_length_c   8.93236349
_cell_angle_alpha   90.00000000
_cell_angle_beta   90.00000000
_cell_angle_gamma   90.00000000
_symmetry_Int_Tables_number   1
_chemical_formula_structural   Ba2Ga6O11
_chemical_formula_sum   'Ba8 Ga24 O44'
_cell_volume   1070.62706761
_cell_formula_units_Z   4
loop_
 _symmetry_equiv_pos_site_id
 _symmetry_equiv_pos_as_xyz
  1  'x, y, z'
loop_
 _atom_site_type_symbol
 _atom_site_label
 _atom_site_symmetry_multiplicity
 _atom_site_fract_x
 _atom_site_fract_y
 _atom_site_fract_z
 _atom_site_occupancy
  Ba  Ba0  1  0.140651  0.397711  0.000000  1
  Ba  Ba1  1  0.155169  0.473606  0.500000  1
  Ba  Ba2  1  0.344831  0.973606  0.000000  1
  Ba  Ba3  1  0.359349  0.897711  0.500000  1
  Ba  Ba4  1  0.640651  0.102289  0.500000  1
  Ba  Ba5  1  0.655169  0.026394  0.000000  1
  Ba  Ba6  1  0.844831  0.526394  0.500000  1
  Ba  Ba7  1  0.859349  0.602289  0.000000  1
  Ga  Ga8  1  0.000000  0.000000  0.000000  1
  Ga  Ga9  1  0.000000  0.500000  0.167027  1
  Ga  Ga10  1  0.000000  0.500000  0.500000  1
  Ga  Ga11  1  0.000000  0.500000  0.832973  1
  Ga  Ga12  1  0.073184  0.994496  0.320587  1
  Ga  Ga13  1  0.073184  0.994496  0.679413  1
  Ga  Ga14  1  0.213514  0.888933  0.793867  1
  Ga  Ga15  1  0.213514  0.888933  0.206133  1
  Ga  Ga16  1  0.286486  0.388933  0.293867  1
  Ga  Ga17  1  0.286486  0.388933  0.706133  1
  Ga  Ga18  1  0.426816  0.494496  0.179413  1
  Ga  Ga19  1  0.426816  0.494496  0.820587  1
  Ga  Ga20  1  0.500000  0.000000  0.000000  1
  Ga  Ga21  1  0.500000  0.000000  0.332973  1
  Ga  Ga22  1  0.500000  0.000000  0.667027  1
  Ga  Ga23  1  0.500000  0.500000  0.500000  1
  Ga  Ga24  1  0.573184  0.505504  0.820587  1
  Ga  Ga25  1  0.573184  0.505504  0.179413  1
  Ga  Ga26  1  0.713514  0.611067  0.293867  1
  Ga  Ga27  1  0.713514  0.611067  0.706133  1
  Ga  Ga28  1  0.786486  0.111067  0.206133  1
  Ga  Ga29  1  0.786486  0.111067  0.793867  1
  Ga  Ga30  1  0.926816  0.005504  0.320587  1
  Ga  Ga31  1  0.926816  0.005504  0.679413  1
  O  O32  1  0.043959  0.673730  0.000000  1
  O  O33  1  0.049221  0.179660  0.156466  1
  O  O34  1  0.049221  0.179660  0.843534  1
  O  O35  1  0.048371  0.650234  0.336549  1
  O  O36  1  0.048371  0.650234  0.663451  1
  O  O37  1  0.056207  0.179518  0.500000  1
  O  O38  1  0.153666  0.007545  0.676504  1
  O  O39  1  0.153666  0.007545  0.323496  1
  O  O40  1  0.202342  0.950341  0.000000  1
  O  O41  1  0.215747  0.529195  0.764175  1
  O  O42  1  0.215747  0.529195  0.235825  1
  O  O43  1  0.284253  0.029195  0.264175  1
  O  O44  1  0.284253  0.029195  0.735825  1
  O  O45  1  0.297658  0.450341  0.500000  1
  O  O46  1  0.346334  0.507545  0.176504  1
  O  O47  1  0.346334  0.507545  0.823496  1
  O  O48  1  0.443793  0.679518  0.000000  1
  O  O49  1  0.451629  0.150234  0.163451  1
  O  O50  1  0.451629  0.150234  0.836549  1
  O  O51  1  0.450779  0.679660  0.656466  1
  O  O52  1  0.450779  0.679660  0.343534  1
  O  O53  1  0.456041  0.173730  0.500000  1
  O  O54  1  0.543959  0.826270  0.500000  1
  O  O55  1  0.549221  0.320340  0.343534  1
  O  O56  1  0.549221  0.320340  0.656466  1
  O  O57  1  0.548371  0.849766  0.163451  1
  O  O58  1  0.548371  0.849766  0.836549  1
  O  O59  1  0.556207  0.320482  0.000000  1
  O  O60  1  0.653666  0.492455  0.823496  1
  O  O61  1  0.653666  0.492455  0.176504  1
  O  O62  1  0.702342  0.549659  0.500000  1
  O  O63  1  0.715747  0.970805  0.735825  1
  O  O64  1  0.715747  0.970805  0.264175  1
  O  O65  1  0.784253  0.470805  0.235825  1
  O  O66  1  0.784253  0.470805  0.764175  1
  O  O67  1  0.797658  0.049659  0.000000  1
  O  O68  1  0.846334  0.992455  0.676504  1
  O  O69  1  0.846334  0.992455  0.323496  1
  O  O70  1  0.943793  0.820482  0.500000  1
  O  O71  1  0.951629  0.349766  0.336549  1
  O  O72  1  0.951629  0.349766  0.663451  1
  O  O73  1  0.950779  0.820340  0.156466  1
  O  O74  1  0.950779  0.820340  0.843534  1
  O  O75  1  0.956041  0.326270  0.000000  1
