# generated using pymatgen
data_Li3Mn2P2(CO7)2
_symmetry_space_group_name_H-M   'P 1'
_cell_length_a   8.29135411
_cell_length_b   10.11842566
_cell_length_c   6.47752466
_cell_angle_alpha   90.16802718
_cell_angle_beta   89.59381274
_cell_angle_gamma   85.60767344
_symmetry_Int_Tables_number   1
_chemical_formula_structural   Li3Mn2P2(CO7)2
_chemical_formula_sum   'Li6 Mn4 P4 C4 O28'
_cell_volume   541.82188154
_cell_formula_units_Z   2
loop_
 _symmetry_equiv_pos_site_id
 _symmetry_equiv_pos_as_xyz
  1  'x, y, z'
loop_
 _atom_site_type_symbol
 _atom_site_label
 _atom_site_symmetry_multiplicity
 _atom_site_fract_x
 _atom_site_fract_y
 _atom_site_fract_z
 _atom_site_occupancy
  Li  Li0  1  0.259477  0.124426  0.022720  1
  Li  Li1  1  0.259340  0.127753  0.479165  1
  Li  Li2  1  0.275206  0.619893  0.053826  1
  Li  Li3  1  0.729551  0.369268  0.529282  1
  Li  Li4  1  0.736032  0.883284  0.532487  1
  Li  Li5  1  0.902987  0.617484  0.758095  1
  Mn  Mn6  1  0.329514  0.402481  0.747788  1
  Mn  Mn7  1  0.331548  0.895850  0.747366  1
  Mn  Mn8  1  0.670835  0.100997  0.241638  1
  Mn  Mn9  1  0.671179  0.602564  0.246636  1
  P  P10  1  0.419778  0.362299  0.254079  1
  P  P11  1  0.422332  0.865449  0.249159  1
  P  P12  1  0.580252  0.138253  0.745681  1
  P  P13  1  0.579858  0.639653  0.751042  1
  C  C14  1  0.041837  0.354897  0.746238  1
  C  C15  1  0.050394  0.851423  0.748000  1
  C  C16  1  0.954020  0.142753  0.255626  1
  C  C17  1  0.954151  0.646451  0.250781  1
  O  O18  1  0.083795  0.476622  0.759949  1
  O  O19  1  0.101204  0.165426  0.253849  1
  O  O20  1  0.098535  0.971697  0.744868  1
  O  O21  1  0.170561  0.266285  0.754863  1
  O  O22  1  0.096638  0.671767  0.230776  1
  O  O23  1  0.172585  0.761018  0.771816  1
  O  O24  1  0.323222  0.411791  0.062868  1
  O  O25  1  0.309268  0.397305  0.440263  1
  O  O26  1  0.325616  0.919376  0.060001  1
  O  O27  1  0.313697  0.911195  0.435354  1
  O  O28  1  0.410407  0.078316  0.745771  1
  O  O29  1  0.453910  0.206155  0.243005  1
  O  O30  1  0.418879  0.574659  0.770597  1
  O  O31  1  0.457016  0.711964  0.233338  1
  O  O32  1  0.543267  0.290684  0.724241  1
  O  O33  1  0.583900  0.424188  0.270015  1
  O  O34  1  0.540061  0.791749  0.725166  1
  O  O35  1  0.588248  0.924991  0.265747  1
  O  O36  1  0.678499  0.097553  0.936674  1
  O  O37  1  0.682972  0.084551  0.558787  1
  O  O38  1  0.688260  0.587140  0.567158  1
  O  O39  1  0.694556  0.608593  0.934123  1
  O  O40  1  0.834412  0.235870  0.264083  1
  O  O41  1  0.902408  0.322589  0.723558  1
  O  O42  1  0.831709  0.737936  0.272213  1
  O  O43  1  0.901651  0.024627  0.246058  1
  O  O44  1  0.908789  0.819197  0.726290  1
  O  O45  1  0.901422  0.526743  0.247512  1
