# generated using pymatgen
data_Na3CoBAsO7
_symmetry_space_group_name_H-M   'P 1'
_cell_length_a   8.95684473
_cell_length_b   7.03442398
_cell_length_c   5.21576208
_cell_angle_alpha   90.00000000
_cell_angle_beta   88.16886621
_cell_angle_gamma   90.00000000
_symmetry_Int_Tables_number   1
_chemical_formula_structural   Na3CoBAsO7
_chemical_formula_sum   'Na6 Co2 B2 As2 O14'
_cell_volume   328.45776039
_cell_formula_units_Z   2
loop_
 _symmetry_equiv_pos_site_id
 _symmetry_equiv_pos_as_xyz
  1  'x, y, z'
loop_
 _atom_site_type_symbol
 _atom_site_label
 _atom_site_symmetry_multiplicity
 _atom_site_fract_x
 _atom_site_fract_y
 _atom_site_fract_z
 _atom_site_occupancy
  Na  Na0  1  0.078221  0.250000  0.763759  1
  Na  Na1  1  0.253486  0.003510  0.251302  1
  Na  Na2  1  0.253486  0.496490  0.251302  1
  Na  Na3  1  0.746514  0.503510  0.748698  1
  Na  Na4  1  0.746514  0.996490  0.748698  1
  Na  Na5  1  0.921779  0.750000  0.236241  1
  Co  Co6  1  0.329404  0.750000  0.785702  1
  Co  Co7  1  0.670596  0.250000  0.214298  1
  B  B8  1  0.065313  0.750000  0.727530  1
  B  B9  1  0.934687  0.250000  0.272470  1
  As  As10  1  0.420563  0.250000  0.713982  1
  As  As11  1  0.579437  0.750000  0.286018  1
  O  O12  1  0.082757  0.250000  0.298356  1
  O  O13  1  0.136628  0.750000  0.962788  1
  O  O14  1  0.174478  0.750000  0.528720  1
  O  O15  1  0.306636  0.057899  0.780460  1
  O  O16  1  0.306636  0.442101  0.780460  1
  O  O17  1  0.468859  0.250000  0.387398  1
  O  O18  1  0.413771  0.750000  0.127083  1
  O  O19  1  0.586229  0.250000  0.872917  1
  O  O20  1  0.531141  0.750000  0.612602  1
  O  O21  1  0.693364  0.557899  0.219540  1
  O  O22  1  0.693364  0.942101  0.219540  1
  O  O23  1  0.825522  0.250000  0.471280  1
  O  O24  1  0.863372  0.250000  0.037212  1
  O  O25  1  0.917243  0.750000  0.701644  1
