# generated using pymatgen
data_Al13Si5H18ClO38
_symmetry_space_group_name_H-M   'P 1'
_cell_length_a   9.94786656
_cell_length_b   9.94786656
_cell_length_c   9.94786656
_cell_angle_alpha   60.00000000
_cell_angle_beta   90.00000000
_cell_angle_gamma   120.00000000
_symmetry_Int_Tables_number   1
_chemical_formula_structural   Al13Si5H18ClO38
_chemical_formula_sum   'Al13 Si5 H18 Cl1 O38'
_cell_volume   696.10516272
_cell_formula_units_Z   1
loop_
 _symmetry_equiv_pos_site_id
 _symmetry_equiv_pos_as_xyz
  1  'x, y, z'
loop_
 _atom_site_type_symbol
 _atom_site_label
 _atom_site_symmetry_multiplicity
 _atom_site_fract_x
 _atom_site_fract_y
 _atom_site_fract_z
 _atom_site_occupancy
  Al  Al0  1  0.765812  0.171967  0.062221  1
  Al  Al1  1  0.406154  0.171967  0.062221  1
  Al  Al2  1  0.765812  0.531625  0.062221  1
  Al  Al3  1  0.765812  0.531625  0.406154  1
  Al  Al4  1  0.765812  0.171967  0.765812  1
  Al  Al5  1  0.765812  0.828033  0.406154  1
  Al  Al6  1  0.750000  0.500000  0.750000  1
  Al  Al7  1  0.406154  0.171967  0.765812  1
  Al  Al8  1  0.406154  0.468375  0.765812  1
  Al  Al9  1  0.765812  0.828033  0.765812  1
  Al  Al10  1  0.062221  0.828033  0.406154  1
  Al  Al11  1  0.062221  0.468375  0.765812  1
  Al  Al12  1  0.062221  0.828033  0.765812  1
  Si  Si13  1  0.113210  0.226420  0.113210  1
  Si  Si14  1  0.660369  0.773580  0.113210  1
  Si  Si15  1  0.250000  0.500000  0.250000  1
  Si  Si16  1  0.113210  0.226420  0.660369  1
  Si  Si17  1  0.113210  0.773580  0.113210  1
  H  H18  1  0.482384  0.964768  0.118588  1
  H  H19  1  0.916644  0.399028  0.118588  1
  H  H20  1  0.651922  0.000000  0.348079  1
  H  H21  1  0.482384  0.399028  0.118588  1
  H  H22  1  0.651922  0.000000  0.651922  1
  H  H23  1  0.348079  0.000000  0.348079  1
  H  H24  1  0.651922  0.303844  0.348079  1
  H  H25  1  0.916644  0.399028  0.482384  1
  H  H26  1  0.348079  0.000000  0.651922  1
  H  H27  1  0.482384  0.964768  0.916644  1
  H  H28  1  0.482384  0.399028  0.482384  1
  H  H29  1  0.482384  0.600972  0.482384  1
  H  H30  1  0.916644  0.035232  0.482384  1
  H  H31  1  0.482384  0.600972  0.916644  1
  H  H32  1  0.348079  0.696156  0.651922  1
  H  H33  1  0.118588  0.600972  0.482384  1
  H  H34  1  0.118588  0.035232  0.482384  1
  H  H35  1  0.118588  0.600972  0.916644  1
  Cl  Cl36  1  0.500000  0.000000  0.500000  1
  O  O37  1  0.722340  0.000000  0.277660  1
  O  O38  1  0.544428  0.088855  0.098623  1
  O  O39  1  0.812521  0.356949  0.098623  1
  O  O40  1  0.544428  0.356949  0.098623  1
  O  O41  1  0.277660  0.000000  0.277660  1
  O  O42  1  0.722340  0.444681  0.277660  1
  O  O43  1  0.722340  0.000000  0.722340  1
  O  O44  1  0.274971  0.276749  0.001779  1
  O  O45  1  0.721472  0.723251  0.001779  1
  O  O46  1  0.812521  0.356949  0.544428  1
  O  O47  1  0.001779  0.003557  0.274971  1
  O  O48  1  0.001779  0.276749  0.001779  1
  O  O49  1  0.721472  0.723251  0.274971  1
  O  O50  1  0.721472  0.996443  0.001779  1
  O  O51  1  0.824866  0.649732  0.525402  1
  O  O52  1  0.824866  0.350268  0.824866  1
  O  O53  1  0.544428  0.088855  0.812521  1
  O  O54  1  0.544428  0.356949  0.544428  1
  O  O55  1  0.182586  0.365170  0.182586  1
  O  O56  1  0.452244  0.634830  0.182586  1
  O  O57  1  0.277660  0.000000  0.722340  1
  O  O58  1  0.182586  0.634830  0.182586  1
  O  O59  1  0.182586  0.365170  0.452244  1
  O  O60  1  0.544428  0.643051  0.544428  1
  O  O61  1  0.812521  0.911145  0.544428  1
  O  O62  1  0.525402  0.350268  0.824866  1
  O  O63  1  0.824866  0.649732  0.824866  1
  O  O64  1  0.274971  0.996443  0.001779  1
  O  O65  1  0.001779  0.003557  0.721472  1
  O  O66  1  0.274971  0.276749  0.721472  1
  O  O67  1  0.001779  0.723251  0.001779  1
  O  O68  1  0.544428  0.643051  0.812521  1
  O  O69  1  0.001779  0.276749  0.721472  1
  O  O70  1  0.001779  0.723251  0.274971  1
  O  O71  1  0.277660  0.555319  0.722340  1
  O  O72  1  0.098623  0.643051  0.544428  1
  O  O73  1  0.098623  0.911145  0.544428  1
  O  O74  1  0.098623  0.643051  0.812521  1
