# generated using pymatgen
data_Mn12O5F19
_symmetry_space_group_name_H-M   'P 1'
_cell_length_a   4.85546921
_cell_length_b   5.83439372
_cell_length_c   15.96927790
_cell_angle_alpha   90.60632845
_cell_angle_beta   90.19502277
_cell_angle_gamma   89.00694881
_symmetry_Int_Tables_number   1
_chemical_formula_structural   Mn12O5F19
_chemical_formula_sum   'Mn12 O5 F19'
_cell_volume   452.29356769
_cell_formula_units_Z   1
loop_
 _symmetry_equiv_pos_site_id
 _symmetry_equiv_pos_as_xyz
  1  'x, y, z'
loop_
 _atom_site_type_symbol
 _atom_site_label
 _atom_site_symmetry_multiplicity
 _atom_site_fract_x
 _atom_site_fract_y
 _atom_site_fract_z
 _atom_site_occupancy
  Mn  Mn0  1  0.984225  0.172158  0.411336  1
  Mn  Mn1  1  0.024235  0.835432  0.237720  1
  Mn  Mn2  1  0.987338  0.164463  0.080095  1
  Mn  Mn3  1  0.045335  0.171593  0.751119  1
  Mn  Mn4  1  0.005554  0.854240  0.587679  1
  Mn  Mn5  1  0.993213  0.840200  0.917308  1
  Mn  Mn6  1  0.478465  0.316278  0.586880  1
  Mn  Mn7  1  0.504675  0.343089  0.918338  1
  Mn  Mn8  1  0.514474  0.337019  0.255611  1
  Mn  Mn9  1  0.484202  0.651336  0.082652  1
  Mn  Mn10  1  0.518796  0.649832  0.416309  1
  Mn  Mn11  1  0.497318  0.640125  0.751770  1
  O  O12  1  0.215562  0.107788  0.645570  1
  O  O13  1  0.222824  0.878956  0.129212  1
  O  O14  1  0.305502  0.376898  0.807655  1
  O  O15  1  0.699890  0.391474  0.028374  1
  O  O16  1  0.717517  0.402646  0.366946  1
  F  F17  1  0.223978  0.111264  0.304330  1
  F  F18  1  0.224032  0.123489  0.970374  1
  F  F19  1  0.244042  0.887413  0.468656  1
  F  F20  1  0.245023  0.877670  0.810585  1
  F  F21  1  0.255248  0.389043  0.146073  1
  F  F22  1  0.271592  0.621884  0.309665  1
  F  F23  1  0.263687  0.395115  0.473890  1
  F  F24  1  0.267446  0.609474  0.639643  1
  F  F25  1  0.261517  0.610945  0.974542  1
  F  F26  1  0.717487  0.617352  0.189840  1
  F  F27  1  0.729500  0.620232  0.530937  1
  F  F28  1  0.731569  0.607483  0.863102  1
  F  F29  1  0.743387  0.388185  0.691551  1
  F  F30  1  0.774656  0.112185  0.191786  1
  F  F31  1  0.763936  0.102918  0.523669  1
  F  F32  1  0.774277  0.884195  0.352811  1
  F  F33  1  0.740692  0.894038  0.024028  1
  F  F34  1  0.799853  0.130764  0.856043  1
  F  F35  1  0.768951  0.882827  0.703904  1
