# generated using pymatgen
data_VO2F
_symmetry_space_group_name_H-M   'P 1'
_cell_length_a   5.10327344
_cell_length_b   13.03345992
_cell_length_c   5.14759269
_cell_angle_alpha   88.78604854
_cell_angle_beta   119.47480027
_cell_angle_gamma   90.03103836
_symmetry_Int_Tables_number   1
_chemical_formula_structural   VO2F
_chemical_formula_sum   'V6 O12 F6'
_cell_volume   297.98337937
_cell_formula_units_Z   6
loop_
 _symmetry_equiv_pos_site_id
 _symmetry_equiv_pos_as_xyz
  1  'x, y, z'
loop_
 _atom_site_type_symbol
 _atom_site_label
 _atom_site_symmetry_multiplicity
 _atom_site_fract_x
 _atom_site_fract_y
 _atom_site_fract_z
 _atom_site_occupancy
  V  V0  1  0.942986  0.496466  0.959925  1
  V  V1  1  0.954724  0.001741  0.991484  1
  V  V2  1  0.631774  0.832305  0.352057  1
  V  V3  1  0.279867  0.665262  0.635426  1
  V  V4  1  0.714422  0.332973  0.355852  1
  V  V5  1  0.363509  0.169332  0.731726  1
  O  O6  1  0.011479  0.749925  0.413688  1
  O  O7  1  0.347034  0.915496  0.253439  1
  O  O8  1  0.583849  0.252534  0.001788  1
  O  O9  1  0.994396  0.248270  0.580115  1
  O  O10  1  0.759352  0.917872  0.073498  1
  O  O11  1  0.094826  0.583541  0.749463  1
  O  O12  1  0.595978  0.749276  0.587010  1
  O  O13  1  0.920775  0.413993  0.254606  1
  O  O14  1  0.263937  0.084450  0.916497  1
  O  O15  1  0.737496  0.418467  0.661224  1
  O  O16  1  0.678805  0.085975  0.744112  1
  O  O17  1  0.684593  0.583193  0.921593  1
  F  F18  1  0.415896  0.750351  0.999487  1
  F  F19  1  0.334204  0.416416  0.081133  1
  F  F20  1  0.074377  0.081609  0.325667  1
  F  F21  1  0.271462  0.583543  0.336065  1
  F  F22  1  0.407910  0.250580  0.409514  1
  F  F23  1  0.936351  0.916430  0.664633  1
