# generated using pymatgen
data_Li5Fe8(BO3)8
_symmetry_space_group_name_H-M   'P 1'
_cell_length_a   5.25306382
_cell_length_b   9.05778019
_cell_length_c   11.39337426
_cell_angle_alpha   66.92907247
_cell_angle_beta   77.21941789
_cell_angle_gamma   89.70121407
_symmetry_Int_Tables_number   1
_chemical_formula_structural   Li5Fe8(BO3)8
_chemical_formula_sum   'Li5 Fe8 B8 O24'
_cell_volume   484.38520670
_cell_formula_units_Z   1
loop_
 _symmetry_equiv_pos_site_id
 _symmetry_equiv_pos_as_xyz
  1  'x, y, z'
loop_
 _atom_site_type_symbol
 _atom_site_label
 _atom_site_symmetry_multiplicity
 _atom_site_fract_x
 _atom_site_fract_y
 _atom_site_fract_z
 _atom_site_occupancy
  Li  Li0  1  0.969764  0.959129  0.418924  1
  Li  Li1  1  0.708460  0.725720  0.900454  1
  Li  Li2  1  0.507529  0.488932  0.666603  1
  Li  Li3  1  0.738030  0.758667  0.157979  1
  Li  Li4  1  0.232389  0.254718  0.159682  1
  Fe  Fe5  1  0.986253  0.639565  0.380961  1
  Fe  Fe6  1  0.736567  0.071948  0.876829  1
  Fe  Fe7  1  0.505947  0.843597  0.636569  1
  Fe  Fe8  1  0.752104  0.437339  0.128110  1
  Fe  Fe9  1  0.226020  0.550467  0.882924  1
  Fe  Fe10  1  0.479559  0.152317  0.386636  1
  Fe  Fe11  1  0.033093  0.338420  0.632226  1
  Fe  Fe12  1  0.252206  0.944574  0.121256  1
  B  B13  1  0.977720  0.311315  0.375018  1
  B  B14  1  0.733111  0.399544  0.875303  1
  B  B15  1  0.529838  0.189503  0.629994  1
  B  B16  1  0.756822  0.103549  0.131470  1
  B  B17  1  0.485715  0.820072  0.374227  1
  B  B18  1  0.233643  0.892809  0.880739  1
  B  B19  1  0.018087  0.684768  0.620229  1
  B  B20  1  0.267058  0.602014  0.129903  1
  O  O21  1  0.967846  0.899685  0.887289  1
  O  O22  1  0.883705  0.283130  0.848883  1
  O  O23  1  0.835392  0.505531  0.919161  1
  O  O24  1  0.890249  0.817520  0.614737  1
  O  O25  1  0.911482  0.572822  0.579654  1
  O  O26  1  0.747294  0.154009  0.684976  1
  O  O27  1  0.743778  0.325448  0.335727  1
  O  O28  1  0.489044  0.411158  0.854143  1
  O  O29  1  0.373976  0.782995  0.842024  1
  O  O30  1  0.573510  0.933544  0.414468  1
  O  O31  1  0.651366  0.711264  0.353150  1
  O  O32  1  0.365386  0.990916  0.920957  1
  O  O33  1  0.657095  0.998685  0.085296  1
  O  O34  1  0.404333  0.321387  0.625111  1
  O  O35  1  0.451094  0.085737  0.577393  1
  O  O36  1  0.588030  0.204766  0.171799  1
  O  O37  1  0.535007  0.625061  0.109838  1
  O  O38  1  0.251315  0.655421  0.660025  1
  O  O39  1  0.234370  0.824364  0.350838  1
  O  O40  1  0.059317  0.418711  0.419375  1
  O  O41  1  0.127179  0.187174  0.366106  1
  O  O42  1  0.157250  0.486445  0.099528  1
  O  O43  1  0.104953  0.700931  0.178104  1
  O  O44  1  0.010620  0.104141  0.141339  1
