# generated using pymatgen
data_MnFe7(PO4)8
_symmetry_space_group_name_H-M   'P 1'
_cell_length_a   4.89037833
_cell_length_b   9.93610342
_cell_length_c   11.91257653
_cell_angle_alpha   90.00000000
_cell_angle_beta   90.00000000
_cell_angle_gamma   90.23034709
_symmetry_Int_Tables_number   1
_chemical_formula_structural   MnFe7(PO4)8
_chemical_formula_sum   'Mn1 Fe7 P8 O32'
_cell_volume   578.84296013
_cell_formula_units_Z   1
loop_
 _symmetry_equiv_pos_site_id
 _symmetry_equiv_pos_as_xyz
  1  'x, y, z'
loop_
 _atom_site_type_symbol
 _atom_site_label
 _atom_site_symmetry_multiplicity
 _atom_site_fract_x
 _atom_site_fract_y
 _atom_site_fract_z
 _atom_site_occupancy
  Mn  Mn0  1  0.061160  0.717930  0.375000  1
  Fe  Fe1  1  0.030322  0.727500  0.875000  1
  Fe  Fe2  1  0.468434  0.226988  0.875000  1
  Fe  Fe3  1  0.469112  0.226856  0.375000  1
  Fe  Fe4  1  0.533804  0.774593  0.125870  1
  Fe  Fe5  1  0.533804  0.774593  0.624130  1
  Fe  Fe6  1  0.969142  0.272801  0.124522  1
  Fe  Fe7  1  0.969142  0.272801  0.625478  1
  P  P8  1  0.080645  0.596637  0.123129  1
  P  P9  1  0.080645  0.596637  0.626871  1
  P  P10  1  0.416682  0.096619  0.124995  1
  P  P11  1  0.416682  0.096619  0.625005  1
  P  P12  1  0.581900  0.903703  0.875000  1
  P  P13  1  0.580699  0.900076  0.375000  1
  P  P14  1  0.920941  0.404370  0.375000  1
  P  P15  1  0.918877  0.403215  0.875000  1
  O  O16  1  0.150035  0.446603  0.124250  1
  O  O17  1  0.150035  0.446603  0.625750  1
  O  O18  1  0.226421  0.671477  0.023007  1
  O  O19  1  0.228857  0.671568  0.526614  1
  O  O20  1  0.226421  0.671477  0.726993  1
  O  O21  1  0.228857  0.671568  0.223386  1
  O  O22  1  0.230122  0.383026  0.375000  1
  O  O23  1  0.227897  0.381203  0.875000  1
  O  O24  1  0.266430  0.880344  0.375000  1
  O  O25  1  0.272538  0.881682  0.875000  1
  O  O26  1  0.273368  0.172124  0.024303  1
  O  O27  1  0.272775  0.171884  0.225806  1
  O  O28  1  0.273368  0.172124  0.725697  1
  O  O29  1  0.272775  0.171884  0.524194  1
  O  O30  1  0.346130  0.946758  0.123786  1
  O  O31  1  0.346130  0.946758  0.626214  1
  O  O32  1  0.640814  0.051821  0.375000  1
  O  O33  1  0.650800  0.054154  0.875000  1
  O  O34  1  0.718305  0.828334  0.272791  1
  O  O35  1  0.718305  0.828334  0.477209  1
  O  O36  1  0.726352  0.829093  0.774244  1
  O  O37  1  0.726352  0.829093  0.975756  1
  O  O38  1  0.726209  0.119016  0.125563  1
  O  O39  1  0.726209  0.119016  0.624437  1
  O  O40  1  0.772229  0.618694  0.124242  1
  O  O41  1  0.772229  0.618694  0.625758  1
  O  O42  1  0.774674  0.330220  0.274353  1
  O  O43  1  0.774674  0.330220  0.475647  1
  O  O44  1  0.773919  0.328049  0.774254  1
  O  O45  1  0.773919  0.328049  0.975746  1
  O  O46  1  0.851193  0.555082  0.375000  1
  O  O47  1  0.849670  0.553105  0.875000  1
