# generated using pymatgen
data_Li3CoO2F
_symmetry_space_group_name_H-M   'P 1'
_cell_length_a   8.52922050
_cell_length_b   9.75077854
_cell_length_c   3.65306615
_cell_angle_alpha   90.00002112
_cell_angle_beta   90.00003411
_cell_angle_gamma   90.00239033
_symmetry_Int_Tables_number   1
_chemical_formula_structural   Li3CoO2F
_chemical_formula_sum   'Li12 Co4 O8 F4'
_cell_volume   303.81287275
_cell_formula_units_Z   4
loop_
 _symmetry_equiv_pos_site_id
 _symmetry_equiv_pos_as_xyz
  1  'x, y, z'
loop_
 _atom_site_type_symbol
 _atom_site_label
 _atom_site_symmetry_multiplicity
 _atom_site_fract_x
 _atom_site_fract_y
 _atom_site_fract_z
 _atom_site_occupancy
  Li  Li0  1  0.103067  0.344896  0.500000  1
  Li  Li1  1  0.162079  0.174033  0.000000  1
  Li  Li2  1  0.143923  0.576649  1.000000  1
  Li  Li3  1  0.356145  0.076663  0.500000  1
  Li  Li4  1  0.337932  0.674063  0.500000  1
  Li  Li5  1  0.396908  0.844961  0.000000  1
  Li  Li6  1  0.603098  0.155029  1.000000  1
  Li  Li7  1  0.662054  0.325932  0.500000  1
  Li  Li8  1  0.643862  0.923339  0.500000  1
  Li  Li9  1  0.856146  0.423364  0.000000  1
  Li  Li10  1  0.837920  0.825972  0.000001  1
  Li  Li11  1  0.896920  0.655104  0.500000  1
  Co  Co12  1  0.118420  0.906086  0.500000  1
  Co  Co13  1  0.381573  0.406064  1.000000  1
  Co  Co14  1  0.618408  0.593921  1.000000  1
  Co  Co15  1  0.881596  0.093924  0.500001  1
  O  O16  1  0.099790  0.117043  0.500000  1
  O  O17  1  0.171537  0.376556  -0.000000  1
  O  O18  1  0.328452  0.876576  0.500000  1
  O  O19  1  0.400212  0.617032  -0.000000  1
  O  O20  1  0.599772  0.382927  0.999999  1
  O  O21  1  0.671547  0.123417  0.500000  1
  O  O22  1  0.828444  0.623451  0.000000  1
  O  O23  1  0.900205  0.882956  0.500000  1
  F  F24  1  0.117046  0.630522  0.500000  1
  F  F25  1  0.382959  0.130494  -0.000000  1
  F  F26  1  0.617033  0.869531  0.000000  1
  F  F27  1  0.882950  0.369494  0.500000  1
