# generated using pymatgen
data_H6CN3Cl
_symmetry_space_group_name_H-M   'P 1'
_cell_length_a   8.51656970
_cell_length_b   13.52236166
_cell_length_c   8.15009955
_cell_angle_alpha   90.00000000
_cell_angle_beta   90.00000000
_cell_angle_gamma   90.00000000
_symmetry_Int_Tables_number   1
_chemical_formula_structural   H6CN3Cl
_chemical_formula_sum   'H48 C8 N24 Cl8'
_cell_volume   938.59916962
_cell_formula_units_Z   8
loop_
 _symmetry_equiv_pos_site_id
 _symmetry_equiv_pos_as_xyz
  1  'x, y, z'
loop_
 _atom_site_type_symbol
 _atom_site_label
 _atom_site_symmetry_multiplicity
 _atom_site_fract_x
 _atom_site_fract_y
 _atom_site_fract_z
 _atom_site_occupancy
  H  H0  1  0.833916  0.217006  0.087552  1
  H  H1  1  0.333916  0.282994  0.912448  1
  H  H2  1  0.166084  0.717006  0.412448  1
  H  H3  1  0.666084  0.782994  0.587552  1
  H  H4  1  0.166084  0.782994  0.912448  1
  H  H5  1  0.666084  0.717006  0.087552  1
  H  H6  1  0.833916  0.282994  0.587552  1
  H  H7  1  0.333916  0.217006  0.412448  1
  H  H8  1  0.695916  0.288949  0.971781  1
  H  H9  1  0.195916  0.211051  0.028219  1
  H  H10  1  0.304084  0.788949  0.528219  1
  H  H11  1  0.804084  0.711051  0.471781  1
  H  H12  1  0.304084  0.711051  0.028219  1
  H  H13  1  0.804084  0.788949  0.971781  1
  H  H14  1  0.695916  0.211051  0.471781  1
  H  H15  1  0.195916  0.288949  0.528219  1
  H  H16  1  0.697279  0.455055  0.978327  1
  H  H17  1  0.197279  0.044945  0.021673  1
  H  H18  1  0.302721  0.955055  0.521673  1
  H  H19  1  0.802721  0.544945  0.478327  1
  H  H20  1  0.302721  0.544945  0.021673  1
  H  H21  1  0.802721  0.955055  0.978327  1
  H  H22  1  0.697279  0.044945  0.478327  1
  H  H23  1  0.197279  0.455055  0.521673  1
  H  H24  1  0.831027  0.518039  0.108027  1
  H  H25  1  0.331027  0.981961  0.891973  1
  H  H26  1  0.168973  0.018039  0.391973  1
  H  H27  1  0.668973  0.481961  0.608027  1
  H  H28  1  0.168973  0.481961  0.891973  1
  H  H29  1  0.668973  0.018039  0.108027  1
  H  H30  1  0.831027  0.981961  0.608027  1
  H  H31  1  0.331027  0.518039  0.391973  1
  H  H32  1  0.018196  0.431062  0.253408  1
  H  H33  1  0.518196  0.068938  0.746592  1
  H  H34  1  0.981804  0.931062  0.246592  1
  H  H35  1  0.481804  0.568938  0.753408  1
  H  H36  1  0.981804  0.568938  0.746592  1
  H  H37  1  0.481804  0.931062  0.253408  1
  H  H38  1  0.018196  0.068938  0.753408  1
  H  H39  1  0.518196  0.431062  0.246592  1
  H  H40  1  0.013963  0.301132  0.252881  1
  H  H41  1  0.513963  0.198868  0.747119  1
  H  H42  1  0.986037  0.801132  0.247119  1
  H  H43  1  0.486037  0.698868  0.752881  1
  H  H44  1  0.986037  0.698868  0.747119  1
  H  H45  1  0.486037  0.801132  0.252881  1
  H  H46  1  0.013963  0.198868  0.752881  1
  H  H47  1  0.513963  0.301132  0.247119  1
  C  C48  1  0.851320  0.367926  0.105592  1
  C  C49  1  0.351320  0.132074  0.894408  1
  C  C50  1  0.148680  0.867926  0.394408  1
  C  C51  1  0.648680  0.632074  0.605592  1
  C  C52  1  0.148680  0.632074  0.894408  1
  C  C53  1  0.648680  0.867926  0.105592  1
  C  C54  1  0.851320  0.132074  0.605592  1
  C  C55  1  0.351320  0.367926  0.394408  1
  N  N56  1  0.784920  0.283583  0.055578  1
  N  N57  1  0.284920  0.216417  0.944422  1
  N  N58  1  0.215080  0.783583  0.444422  1
  N  N59  1  0.715080  0.716417  0.555578  1
  N  N60  1  0.215080  0.716417  0.944422  1
  N  N61  1  0.715080  0.783583  0.055578  1
  N  N62  1  0.784920  0.216417  0.555578  1
  N  N63  1  0.284920  0.283583  0.444422  1
  N  N64  1  0.789843  0.454028  0.058769  1
  N  N65  1  0.289843  0.045972  0.941231  1
  N  N66  1  0.210157  0.954028  0.441231  1
  N  N67  1  0.710157  0.545972  0.558769  1
  N  N68  1  0.210157  0.545972  0.941231  1
  N  N69  1  0.710157  0.954028  0.058769  1
  N  N70  1  0.789843  0.045972  0.558769  1
  N  N71  1  0.289843  0.454028  0.441231  1
  N  N72  1  0.978715  0.366383  0.202793  1
  N  N73  1  0.478715  0.133617  0.797207  1
  N  N74  1  0.021285  0.866383  0.297207  1
  N  N75  1  0.521285  0.633617  0.702793  1
  N  N76  1  0.021285  0.633617  0.797207  1
  N  N77  1  0.521285  0.866383  0.202793  1
  N  N78  1  0.978715  0.133617  0.702793  1
  N  N79  1  0.478715  0.366383  0.297207  1
  Cl  Cl80  1  0.511834  0.112548  0.306466  1
  Cl  Cl81  1  0.011834  0.387452  0.693534  1
  Cl  Cl82  1  0.488166  0.612548  0.193534  1
  Cl  Cl83  1  0.988166  0.887452  0.806466  1
  Cl  Cl84  1  0.488166  0.887452  0.693534  1
  Cl  Cl85  1  0.988166  0.612548  0.306466  1
  Cl  Cl86  1  0.511834  0.387452  0.806466  1
  Cl  Cl87  1  0.011834  0.112548  0.193534  1
