# generated using pymatgen
data_MnFe3Sn2(PO4)6
_symmetry_space_group_name_H-M   'P 1'
_cell_length_a   8.68988572
_cell_length_b   8.68988609
_cell_length_c   8.68988620
_cell_angle_alpha   60.48216871
_cell_angle_beta   60.48216756
_cell_angle_gamma   60.48217266
_symmetry_Int_Tables_number   1
_chemical_formula_structural   MnFe3Sn2(PO4)6
_chemical_formula_sum   'Mn1 Fe3 Sn2 P6 O24'
_cell_volume   469.06678843
_cell_formula_units_Z   1
loop_
 _symmetry_equiv_pos_site_id
 _symmetry_equiv_pos_as_xyz
  1  'x, y, z'
loop_
 _atom_site_type_symbol
 _atom_site_label
 _atom_site_symmetry_multiplicity
 _atom_site_fract_x
 _atom_site_fract_y
 _atom_site_fract_z
 _atom_site_occupancy
  Mn  Mn0  1  0.846803  0.846803  0.846803  1
  Fe  Fe1  1  0.151320  0.151320  0.151320  1
  Fe  Fe2  1  0.351213  0.351213  0.351213  1
  Fe  Fe3  1  0.649187  0.649187  0.649187  1
  Sn  Sn4  1  0.998909  0.998909  0.998909  1
  Sn  Sn5  1  0.498840  0.498840  0.498840  1
  P  P6  1  0.046849  0.749780  0.447788  1
  P  P7  1  0.447788  0.046849  0.749780  1
  P  P8  1  0.252882  0.546802  0.957403  1
  P  P9  1  0.546802  0.957403  0.252882  1
  P  P10  1  0.957403  0.252882  0.546802  1
  P  P11  1  0.749780  0.447788  0.046849  1
  O  O12  1  0.107103  0.326589  0.498235  1
  O  O13  1  0.326589  0.498235  0.107103  1
  O  O14  1  0.061184  0.909514  0.246211  1
  O  O15  1  0.498235  0.107103  0.326589  1
  O  O16  1  0.021230  0.818510  0.590502  1
  O  O17  1  0.243682  0.592098  0.419831  1
  O  O18  1  0.246211  0.061184  0.909514  1
  O  O19  1  0.419831  0.243682  0.592098  1
  O  O20  1  0.181259  0.396463  0.997106  1
  O  O21  1  0.592098  0.419831  0.243682  1
  O  O22  1  0.095708  0.746150  0.945241  1
  O  O23  1  0.396463  0.997106  0.181259  1
  O  O24  1  0.590502  0.021230  0.818510  1
  O  O25  1  0.909514  0.246211  0.061184  1
  O  O26  1  0.409187  0.566385  0.759760  1
  O  O27  1  0.818510  0.590502  0.021230  1
  O  O28  1  0.566385  0.759760  0.409187  1
  O  O29  1  0.746150  0.945241  0.095708  1
  O  O30  1  0.759760  0.409187  0.566385  1
  O  O31  1  0.997106  0.181259  0.396463  1
  O  O32  1  0.494431  0.888537  0.687312  1
  O  O33  1  0.945241  0.095708  0.746150  1
  O  O34  1  0.687312  0.494431  0.888537  1
  O  O35  1  0.888537  0.687312  0.494431  1
