# generated using pymatgen
data_Fe4O3F5
_symmetry_space_group_name_H-M   'P 1'
_cell_length_a   4.88672198
_cell_length_b   10.10374169
_cell_length_c   6.19833244
_cell_angle_alpha   72.30936359
_cell_angle_beta   90.00000000
_cell_angle_gamma   90.00000000
_symmetry_Int_Tables_number   1
_chemical_formula_structural   Fe4O3F5
_chemical_formula_sum   'Fe8 O6 F10'
_cell_volume   291.56539768
_cell_formula_units_Z   2
loop_
 _symmetry_equiv_pos_site_id
 _symmetry_equiv_pos_as_xyz
  1  'x, y, z'
loop_
 _atom_site_type_symbol
 _atom_site_label
 _atom_site_symmetry_multiplicity
 _atom_site_fract_x
 _atom_site_fract_y
 _atom_site_fract_z
 _atom_site_occupancy
  Fe  Fe0  1  0.435750  0.236362  0.634007  1
  Fe  Fe1  1  0.508371  0.744858  0.876423  1
  Fe  Fe2  1  0.562399  0.777101  0.364866  1
  Fe  Fe3  1  0.503213  0.271441  0.109410  1
  Fe  Fe4  1  0.062399  0.972899  0.510134  1
  Fe  Fe5  1  0.003213  0.478559  0.765590  1
  Fe  Fe6  1  0.008371  0.005142  -0.001423  1
  Fe  Fe7  1  0.935750  0.513638  0.240993  1
  O  O8  1  0.799674  0.404433  0.048105  1
  O  O9  1  0.819898  0.922169  0.304483  1
  O  O10  1  0.687105  0.657226  0.187749  1
  O  O11  1  0.319898  0.827831  0.570517  1
  O  O12  1  0.299674  0.345567  0.826895  1
  O  O13  1  0.187105  0.092774  0.687252  1
  F  F14  1  0.795428  0.392245  0.553274  1
  F  F15  1  0.814886  0.896728  0.786748  1
  F  F16  1  0.668385  0.172927  0.416672  1
  F  F17  1  0.681384  0.159538  0.918175  1
  F  F18  1  0.723505  0.637342  0.663812  1
  F  F19  1  0.314886  0.853272  0.088252  1
  F  F20  1  0.295428  0.357755  0.321726  1
  F  F21  1  0.181384  0.590462  0.956825  1
  F  F22  1  0.223505  0.112658  0.211188  1
  F  F23  1  0.168385  0.577073  0.458328  1
