# generated using pymatgen
data_Ta2CrNO5
_symmetry_space_group_name_H-M   'P 1'
_cell_length_a   4.76404919
_cell_length_b   4.76404919
_cell_length_c   9.22409272
_cell_angle_alpha   89.77518553
_cell_angle_beta   90.22481447
_cell_angle_gamma   90.13503925
_symmetry_Int_Tables_number   1
_chemical_formula_structural   Ta2CrNO5
_chemical_formula_sum   'Ta4 Cr2 N2 O10'
_cell_volume   209.34773051
_cell_formula_units_Z   2
loop_
 _symmetry_equiv_pos_site_id
 _symmetry_equiv_pos_as_xyz
  1  'x, y, z'
loop_
 _atom_site_type_symbol
 _atom_site_label
 _atom_site_symmetry_multiplicity
 _atom_site_fract_x
 _atom_site_fract_y
 _atom_site_fract_z
 _atom_site_occupancy
  Ta  Ta0  1  0.988406  0.011594  0.343126  1
  Ta  Ta1  1  0.993987  0.006013  0.672577  1
  Ta  Ta2  1  0.495188  0.504812  0.166942  1
  Ta  Ta3  1  0.480604  0.519396  0.829858  1
  Cr  Cr4  1  0.002691  0.997309  0.999620  1
  Cr  Cr5  1  0.503351  0.496649  0.499247  1
  N  N6  1  0.198954  0.801046  0.833053  1
  N  N7  1  0.804195  0.195805  0.497178  1
  O  O8  1  0.195786  0.804214  0.498507  1
  O  O9  1  0.204019  0.795981  0.164913  1
  O  O10  1  0.306293  0.301773  0.328154  1
  O  O11  1  0.307424  0.300364  0.668038  1
  O  O12  1  0.312633  0.302004  0.001055  1
  O  O13  1  0.697996  0.687367  0.001055  1
  O  O14  1  0.698227  0.693707  0.328154  1
  O  O15  1  0.699636  0.692576  0.668038  1
  O  O16  1  0.804843  0.195157  0.169348  1
  O  O17  1  0.805766  0.194234  0.831140  1
