# generated using pymatgen
data_K3CrPCO7
_symmetry_space_group_name_H-M   'P 1'
_cell_length_a   9.95256528
_cell_length_b   6.77300386
_cell_length_c   5.73052312
_cell_angle_alpha   90.00000000
_cell_angle_beta   88.45311769
_cell_angle_gamma   90.00000000
_symmetry_Int_Tables_number   1
_chemical_formula_structural   K3CrPCO7
_chemical_formula_sum   'K6 Cr2 P2 C2 O14'
_cell_volume   386.14670075
_cell_formula_units_Z   2
loop_
 _symmetry_equiv_pos_site_id
 _symmetry_equiv_pos_as_xyz
  1  'x, y, z'
loop_
 _atom_site_type_symbol
 _atom_site_label
 _atom_site_symmetry_multiplicity
 _atom_site_fract_x
 _atom_site_fract_y
 _atom_site_fract_z
 _atom_site_occupancy
  K  K0  1  0.078950  0.250000  0.760323  1
  K  K1  1  0.270498  0.010902  0.249178  1
  K  K2  1  0.270498  0.489098  0.249178  1
  K  K3  1  0.729502  0.510902  0.750822  1
  K  K4  1  0.729502  0.989098  0.750822  1
  K  K5  1  0.921050  0.750000  0.239677  1
  Cr  Cr6  1  0.358718  0.750000  0.758657  1
  Cr  Cr7  1  0.641282  0.250000  0.241343  1
  P  P8  1  0.424868  0.250000  0.703754  1
  P  P9  1  0.575132  0.750000  0.296246  1
  C  C10  1  0.080767  0.750000  0.730931  1
  C  C11  1  0.919233  0.250000  0.269069  1
  O  O12  1  0.048419  0.250000  0.239961  1
  O  O13  1  0.158479  0.750000  0.913444  1
  O  O14  1  0.137127  0.750000  0.523765  1
  O  O15  1  0.333692  0.064570  0.752988  1
  O  O16  1  0.333692  0.435430  0.752988  1
  O  O17  1  0.464971  0.250000  0.437309  1
  O  O18  1  0.450959  0.750000  0.142856  1
  O  O19  1  0.549041  0.250000  0.857144  1
  O  O20  1  0.535029  0.750000  0.562691  1
  O  O21  1  0.666308  0.564570  0.247012  1
  O  O22  1  0.666308  0.935430  0.247012  1
  O  O23  1  0.862873  0.250000  0.476235  1
  O  O24  1  0.841521  0.250000  0.086555  1
  O  O25  1  0.951581  0.750000  0.760039  1
