# generated using pymatgen
data_LiFeF3
_symmetry_space_group_name_H-M   'P 1'
_cell_length_a   8.73206857
_cell_length_b   8.73206857
_cell_length_c   6.21044361
_cell_angle_alpha   90.00000000
_cell_angle_beta   90.00000000
_cell_angle_gamma   90.00000000
_symmetry_Int_Tables_number   1
_chemical_formula_structural   LiFeF3
_chemical_formula_sum   'Li8 Fe8 F24'
_cell_volume   473.54024841
_cell_formula_units_Z   8
loop_
 _symmetry_equiv_pos_site_id
 _symmetry_equiv_pos_as_xyz
  1  'x, y, z'
loop_
 _atom_site_type_symbol
 _atom_site_label
 _atom_site_symmetry_multiplicity
 _atom_site_fract_x
 _atom_site_fract_y
 _atom_site_fract_z
 _atom_site_occupancy
  Li  Li0  1  0.099506  0.207617  0.413961  1
  Li  Li1  1  0.292383  0.099506  0.086039  1
  Li  Li2  1  0.207617  0.400494  0.086039  1
  Li  Li3  1  0.400494  0.292383  0.413961  1
  Li  Li4  1  0.599506  0.707617  0.586039  1
  Li  Li5  1  0.792383  0.599506  0.913961  1
  Li  Li6  1  0.707617  0.900494  0.913961  1
  Li  Li7  1  0.900494  0.792383  0.586039  1
  Fe  Fe8  1  0.057434  0.768412  0.146792  1
  Fe  Fe9  1  0.231588  0.557434  0.646792  1
  Fe  Fe10  1  0.268412  0.942566  0.646792  1
  Fe  Fe11  1  0.442566  0.731588  0.146792  1
  Fe  Fe12  1  0.557434  0.268412  0.853208  1
  Fe  Fe13  1  0.731588  0.057434  0.353208  1
  Fe  Fe14  1  0.768412  0.442566  0.353208  1
  Fe  Fe15  1  0.942566  0.231588  0.853208  1
  F  F16  1  0.082162  0.077294  0.689155  1
  F  F17  1  0.091043  0.203481  0.107234  1
  F  F18  1  0.109262  0.734525  0.517860  1
  F  F19  1  0.077294  0.417838  0.810845  1
  F  F20  1  0.234525  0.890738  0.017860  1
  F  F21  1  0.203481  0.408957  0.392766  1
  F  F22  1  0.296519  0.091043  0.392766  1
  F  F23  1  0.265475  0.609262  0.017860  1
  F  F24  1  0.422706  0.082162  0.810845  1
  F  F25  1  0.390738  0.765475  0.517860  1
  F  F26  1  0.408957  0.296519  0.107234  1
  F  F27  1  0.417838  0.422706  0.689155  1
  F  F28  1  0.582162  0.577294  0.310845  1
  F  F29  1  0.591043  0.703481  0.892766  1
  F  F30  1  0.609262  0.234525  0.482140  1
  F  F31  1  0.577294  0.917838  0.189155  1
  F  F32  1  0.734525  0.390738  0.982140  1
  F  F33  1  0.703481  0.908957  0.607234  1
  F  F34  1  0.796519  0.591043  0.607234  1
  F  F35  1  0.765475  0.109262  0.982140  1
  F  F36  1  0.922706  0.582162  0.189155  1
  F  F37  1  0.890738  0.265475  0.482140  1
  F  F38  1  0.908957  0.796519  0.892766  1
  F  F39  1  0.917838  0.922706  0.310845  1
