# generated using pymatgen
data_MnOF
_symmetry_space_group_name_H-M   'P 1'
_cell_length_a   4.63334483
_cell_length_b   4.63334483
_cell_length_c   12.67850532
_cell_angle_alpha   90.02615869
_cell_angle_beta   90.02615869
_cell_angle_gamma   90.18086478
_symmetry_Int_Tables_number   1
_chemical_formula_structural   MnOF
_chemical_formula_sum   'Mn8 O8 F8'
_cell_volume   272.17927215
_cell_formula_units_Z   8
loop_
 _symmetry_equiv_pos_site_id
 _symmetry_equiv_pos_as_xyz
  1  'x, y, z'
loop_
 _atom_site_type_symbol
 _atom_site_label
 _atom_site_symmetry_multiplicity
 _atom_site_fract_x
 _atom_site_fract_y
 _atom_site_fract_z
 _atom_site_occupancy
  Mn  Mn0  1  0.975713  0.966561  0.000623  1
  Mn  Mn1  1  0.033439  0.024287  0.249377  1
  Mn  Mn2  1  0.988354  0.953758  0.499616  1
  Mn  Mn3  1  0.046242  0.011646  0.750384  1
  Mn  Mn4  1  0.484690  0.515310  0.625000  1
  Mn  Mn5  1  0.531742  0.468258  0.125000  1
  Mn  Mn6  1  0.481556  0.521330  0.374224  1
  Mn  Mn7  1  0.478670  0.518444  0.875776  1
  O  O8  1  0.187069  0.813821  0.371706  1
  O  O9  1  0.189394  0.810606  0.625000  1
  O  O10  1  0.186179  0.812931  0.878294  1
  O  O11  1  0.331635  0.315825  0.250097  1
  O  O12  1  0.309968  0.327946  0.749733  1
  O  O13  1  0.684175  0.668365  0.999903  1
  O  O14  1  0.672054  0.690032  0.500267  1
  O  O15  1  0.825852  0.174148  0.125000  1
  F  F16  1  0.227833  0.772167  0.125000  1
  F  F17  1  0.280155  0.271016  0.999488  1
  F  F18  1  0.269390  0.280685  0.500460  1
  F  F19  1  0.728984  0.719845  0.250512  1
  F  F20  1  0.719315  0.730610  0.749540  1
  F  F21  1  0.785293  0.210642  0.382638  1
  F  F22  1  0.792938  0.207062  0.625000  1
  F  F23  1  0.789358  0.214707  0.867362  1
