# generated using pymatgen
data_Li5Mn8(BO3)8
_symmetry_space_group_name_H-M   'P 1'
_cell_length_a   5.26743669
_cell_length_b   9.14694212
_cell_length_c   11.46483203
_cell_angle_alpha   67.97772123
_cell_angle_beta   77.34283109
_cell_angle_gamma   89.83485317
_symmetry_Int_Tables_number   1
_chemical_formula_structural   Li5Mn8(BO3)8
_chemical_formula_sum   'Li5 Mn8 B8 O24'
_cell_volume   497.71599572
_cell_formula_units_Z   1
loop_
 _symmetry_equiv_pos_site_id
 _symmetry_equiv_pos_as_xyz
  1  'x, y, z'
loop_
 _atom_site_type_symbol
 _atom_site_label
 _atom_site_symmetry_multiplicity
 _atom_site_fract_x
 _atom_site_fract_y
 _atom_site_fract_z
 _atom_site_occupancy
  Li  Li0  1  0.001602  0.027304  0.827250  1
  Li  Li1  1  0.281177  0.265220  0.314667  1
  Li  Li2  1  0.479291  0.503527  0.843753  1
  Li  Li3  1  0.767444  0.735423  0.346959  1
  Li  Li4  1  0.781550  0.775784  0.601924  1
  Mn  Mn5  1  0.241664  0.570362  0.378275  1
  Mn  Mn6  1  0.264162  0.959855  0.611772  1
  Mn  Mn7  1  0.545016  0.846091  0.119288  1
  Mn  Mn8  1  0.475206  0.138699  0.874073  1
  Mn  Mn9  1  0.744378  0.061621  0.362184  1
  Mn  Mn10  1  0.987435  0.357879  0.114622  1
  Mn  Mn11  1  0.763020  0.419526  0.623312  1
  Mn  Mn12  1  0.978943  0.670424  0.870933  1
  B  B13  1  0.046293  0.670687  0.142605  1
  B  B14  1  0.226583  0.891515  0.381167  1
  B  B15  1  0.268251  0.615052  0.620697  1
  B  B16  1  0.518218  0.186277  0.112899  1
  B  B17  1  0.482292  0.824615  0.863448  1
  B  B18  1  0.737501  0.398973  0.363070  1
  B  B19  1  0.746629  0.097776  0.634969  1
  B  B20  1  0.970499  0.316140  0.876652  1
  O  O21  1  0.273386  0.642484  0.191263  1
  O  O22  1  0.357931  0.294090  0.132214  1
  O  O23  1  0.155944  0.527067  0.563854  1
  O  O24  1  0.112634  0.719037  0.661229  1
  O  O25  1  0.454902  0.081090  0.057756  1
  O  O26  1  0.063463  0.425639  0.921687  1
  O  O27  1  0.331272  0.016972  0.401995  1
  O  O28  1  0.112180  0.194363  0.870645  1
  O  O29  1  0.399984  0.790556  0.343922  1
  O  O30  1  0.245072  0.865294  0.832343  1
  O  O31  1  0.478060  0.393923  0.370383  1
  O  O32  1  0.516259  0.595895  0.639678  1
  O  O33  1  0.756179  0.167220  0.152498  1
  O  O34  1  0.567142  0.187901  0.686237  1
  O  O35  1  0.663563  0.007128  0.574079  1
  O  O36  1  0.886498  0.777393  0.164879  1
  O  O37  1  0.598296  0.695075  0.854884  1
  O  O38  1  0.996088  0.586168  0.070361  1
  O  O39  1  0.900939  0.306137  0.307771  1
  O  O40  1  0.613496  0.924602  0.905900  1
  O  O41  1  0.853622  0.492522  0.413443  1
  O  O42  1  0.736400  0.340243  0.835967  1
  O  O43  1  0.961743  0.864962  0.399123  1
  O  O44  1  0.995567  0.105416  0.646090  1
