# generated using pymatgen
data_Li4TiCu3(PO4)4
_symmetry_space_group_name_H-M   'P 1'
_cell_length_a   5.09405342
_cell_length_b   6.34655718
_cell_length_c   10.12610480
_cell_angle_alpha   89.98033718
_cell_angle_beta   90.84165768
_cell_angle_gamma   91.15170081
_symmetry_Int_Tables_number   1
_chemical_formula_structural   Li4TiCu3(PO4)4
_chemical_formula_sum   'Li4 Ti1 Cu3 P4 O16'
_cell_volume   327.27249388
_cell_formula_units_Z   1
loop_
 _symmetry_equiv_pos_site_id
 _symmetry_equiv_pos_as_xyz
  1  'x, y, z'
loop_
 _atom_site_type_symbol
 _atom_site_label
 _atom_site_symmetry_multiplicity
 _atom_site_fract_x
 _atom_site_fract_y
 _atom_site_fract_z
 _atom_site_occupancy
  Li  Li0  1  0.102422  0.030946  0.128512  1
  Li  Li1  1  0.434641  0.018638  0.593856  1
  Li  Li2  1  0.607629  0.534919  0.374596  1
  Li  Li3  1  0.878507  0.562775  0.890188  1
  Ti  Ti4  1  0.966634  0.245375  0.713931  1
  Cu  Cu5  1  0.390678  0.746965  0.803309  1
  Cu  Cu6  1  0.104703  0.743982  0.307627  1
  Cu  Cu7  1  0.620437  0.246668  0.191715  1
  P  P8  1  0.090670  0.255413  0.396588  1
  P  P9  1  0.383097  0.250927  0.892867  1
  P  P10  1  0.579648  0.754763  0.107021  1
  P  P11  1  0.930823  0.750479  0.602504  1
  O  O12  1  0.157652  0.237216  0.554107  1
  O  O13  1  0.239132  0.069148  0.809991  1
  O  O14  1  0.211506  0.435345  0.832193  1
  O  O15  1  0.207011  0.061927  0.328956  1
  O  O16  1  0.239631  0.454279  0.349221  1
  O  O17  1  0.232026  0.766045  0.620207  1
  O  O18  1  0.279690  0.768096  0.128968  1
  O  O19  1  0.340833  0.230851  0.040089  1
  O  O20  1  0.627135  0.736726  0.955356  1
  O  O21  1  0.676166  0.270078  0.854648  1
  O  O22  1  0.698384  0.561793  0.180814  1
  O  O23  1  0.735327  0.953487  0.159424  1
  O  O24  1  0.789445  0.266806  0.383878  1
  O  O25  1  0.826399  0.547316  0.677548  1
  O  O26  1  0.800190  0.956208  0.665076  1
  O  O27  1  0.841153  0.740090  0.457550  1
