# generated using pymatgen
data_LiMn3Al2(HO2)6
_symmetry_space_group_name_H-M   'P 1'
_cell_length_a   10.56394235
_cell_length_b   7.85043188
_cell_length_c   5.99564352
_cell_angle_alpha   101.19591391
_cell_angle_beta   106.90808240
_cell_angle_gamma   67.87995566
_symmetry_Int_Tables_number   1
_chemical_formula_structural   LiMn3Al2(HO2)6
_chemical_formula_sum   'Li2 Mn6 Al4 H12 O24'
_cell_volume   438.70392038
_cell_formula_units_Z   2
loop_
 _symmetry_equiv_pos_site_id
 _symmetry_equiv_pos_as_xyz
  1  'x, y, z'
loop_
 _atom_site_type_symbol
 _atom_site_label
 _atom_site_symmetry_multiplicity
 _atom_site_fract_x
 _atom_site_fract_y
 _atom_site_fract_z
 _atom_site_occupancy
  Li  Li0  1  0.501311  0.010778  0.747577  1
  Li  Li1  1  0.498567  0.322609  0.585787  1
  Mn  Mn2  1  0.003605  0.998795  0.996739  1
  Mn  Mn3  1  0.001165  0.998102  0.496639  1
  Mn  Mn4  1  0.996466  0.334447  0.336605  1
  Mn  Mn5  1  -0.000017  0.666692  0.166456  1
  Mn  Mn6  1  0.998909  0.335151  0.836671  1
  Mn  Mn7  1  -0.000021  0.666776  0.666512  1
  Al  Al8  1  0.502778  0.005087  0.256985  1
  Al  Al9  1  0.497146  0.328293  0.076371  1
  Al  Al10  1  0.498768  0.668000  0.422386  1
  Al  Al11  1  0.501194  0.665383  0.910961  1
  H  H12  1  0.708705  0.027291  0.125506  1
  H  H13  1  0.291181  0.306105  0.207715  1
  H  H14  1  0.709634  0.010074  0.586185  1
  H  H15  1  0.291919  0.654068  0.050089  1
  H  H16  1  0.290251  0.323228  0.747188  1
  H  H17  1  0.698526  0.361099  0.429074  1
  H  H18  1  0.290591  0.659620  0.561090  1
  H  H19  1  0.708067  0.679401  0.283281  1
  H  H20  1  0.703227  0.360956  0.955041  1
  H  H21  1  0.296666  0.972367  0.378230  1
  H  H22  1  0.709359  0.673798  0.772192  1
  H  H23  1  0.301431  0.972133  0.904348  1
  O  O24  1  0.102728  0.065673  0.318792  1
  O  O25  1  0.605373  0.073740  0.090754  1
  O  O26  1  0.394620  0.259627  0.242630  1
  O  O27  1  0.101221  0.398282  0.159979  1
  O  O28  1  0.103692  0.068997  0.820612  1
  O  O29  1  0.607189  0.049382  0.547957  1
  O  O30  1  0.897354  0.267582  0.014606  1
  O  O31  1  0.396591  0.603713  0.099682  1
  O  O32  1  0.099179  0.399262  0.655439  1
  O  O33  1  0.392754  0.283987  0.785446  1
  O  O34  1  0.896386  0.264199  0.512694  1
  O  O35  1  0.595706  0.412591  0.379613  1
  O  O36  1  0.393572  0.627623  0.602491  1
  O  O37  1  0.102129  0.727414  0.485209  1
  O  O38  1  0.889647  0.593394  0.367568  1
  O  O39  1  0.600279  0.409289  0.923699  1
  O  O40  1  0.603363  0.729707  0.233678  1
  O  O41  1  0.399660  0.924067  0.409618  1
  O  O42  1  0.110407  0.739892  0.965701  1
  O  O43  1  0.898805  0.935049  0.173343  1
  O  O44  1  0.897862  0.605977  0.848066  1
  O  O45  1  0.606397  0.705747  0.730848  1
  O  O46  1  0.404209  0.920785  0.953711  1
  O  O47  1  0.900854  0.933965  0.677836  1
