# generated using pymatgen
data_Li3SiBiBO7
_symmetry_space_group_name_H-M   'P 1'
_cell_length_a   8.86158410
_cell_length_b   6.88374069
_cell_length_c   5.13550848
_cell_angle_alpha   90.00000000
_cell_angle_beta   85.77097994
_cell_angle_gamma   90.00000000
_symmetry_Int_Tables_number   1
_chemical_formula_structural   Li3SiBiBO7
_chemical_formula_sum   'Li6 Si2 Bi2 B2 O14'
_cell_volume   312.41741214
_cell_formula_units_Z   2
loop_
 _symmetry_equiv_pos_site_id
 _symmetry_equiv_pos_as_xyz
  1  'x, y, z'
loop_
 _atom_site_type_symbol
 _atom_site_label
 _atom_site_symmetry_multiplicity
 _atom_site_fract_x
 _atom_site_fract_y
 _atom_site_fract_z
 _atom_site_occupancy
  Li  Li0  1  0.059747  0.250000  0.744291  1
  Li  Li1  1  0.247954  0.047759  0.247957  1
  Li  Li2  1  0.247954  0.452241  0.247957  1
  Li  Li3  1  0.752046  0.547759  0.752043  1
  Li  Li4  1  0.752046  0.952241  0.752043  1
  Li  Li5  1  0.940253  0.750000  0.255709  1
  Si  Si6  1  0.405917  0.250000  0.732237  1
  Si  Si7  1  0.594083  0.750000  0.267763  1
  Bi  Bi8  1  0.334737  0.750000  0.784745  1
  Bi  Bi9  1  0.665263  0.250000  0.215255  1
  B  B10  1  0.037682  0.750000  0.705166  1
  B  B11  1  0.962318  0.250000  0.294834  1
  O  O12  1  0.108337  0.250000  0.362092  1
  O  O13  1  0.085163  0.750000  0.956377  1
  O  O14  1  0.152654  0.750000  0.498744  1
  O  O15  1  0.301590  0.068633  0.855399  1
  O  O16  1  0.301590  0.431367  0.855399  1
  O  O17  1  0.416057  0.250000  0.408736  1
  O  O18  1  0.417888  0.750000  0.187852  1
  O  O19  1  0.582112  0.250000  0.812148  1
  O  O20  1  0.583943  0.750000  0.591264  1
  O  O21  1  0.698410  0.568633  0.144601  1
  O  O22  1  0.698410  0.931367  0.144601  1
  O  O23  1  0.847346  0.250000  0.501256  1
  O  O24  1  0.914837  0.250000  0.043623  1
  O  O25  1  0.891663  0.750000  0.637908  1
