# generated using pymatgen
data_CaB3H13O12
_symmetry_space_group_name_H-M   'P 1'
_cell_length_a   10.52829167
_cell_length_b   12.11318039
_cell_length_c   8.39379508
_cell_angle_alpha   90.00000000
_cell_angle_beta   112.45726998
_cell_angle_gamma   90.00000000
_symmetry_Int_Tables_number   1
_chemical_formula_structural   CaB3H13O12
_chemical_formula_sum   'Ca4 B12 H52 O48'
_cell_volume   989.29045365
_cell_formula_units_Z   4
loop_
 _symmetry_equiv_pos_site_id
 _symmetry_equiv_pos_as_xyz
  1  'x, y, z'
loop_
 _atom_site_type_symbol
 _atom_site_label
 _atom_site_symmetry_multiplicity
 _atom_site_fract_x
 _atom_site_fract_y
 _atom_site_fract_z
 _atom_site_occupancy
  Ca  Ca0  1  0.979439  0.128729  0.140529  1
  Ca  Ca1  1  0.479439  0.371271  0.640529  1
  Ca  Ca2  1  0.020561  0.871271  0.859471  1
  Ca  Ca3  1  0.520561  0.628729  0.359471  1
  B  B4  1  0.079887  0.892376  0.246307  1
  B  B5  1  0.579887  0.607624  0.746307  1
  B  B6  1  0.920113  0.107624  0.753693  1
  B  B7  1  0.420113  0.392376  0.253693  1
  B  B8  1  0.263347  0.037500  0.236493  1
  B  B9  1  0.763347  0.462500  0.736493  1
  B  B10  1  0.736653  0.962500  0.763507  1
  B  B11  1  0.236653  0.537500  0.263507  1
  B  B12  1  0.295399  0.926949  0.500406  1
  B  B13  1  0.795399  0.573051  0.000406  1
  B  B14  1  0.704601  0.073051  0.499594  1
  B  B15  1  0.204601  0.426949  0.999594  1
  H  H16  1  0.976173  0.742880  0.151814  1
  H  H17  1  0.476173  0.757120  0.651814  1
  H  H18  1  0.023827  0.257120  0.848186  1
  H  H19  1  0.523827  0.242880  0.348186  1
  H  H20  1  0.868559  0.902154  0.190960  1
  H  H21  1  0.368559  0.597846  0.690960  1
  H  H22  1  0.131441  0.097846  0.809040  1
  H  H23  1  0.631441  0.402154  0.309040  1
  H  H24  1  0.292509  0.206660  0.254286  1
  H  H25  1  0.792509  0.293340  0.754286  1
  H  H26  1  0.707491  0.793340  0.745714  1
  H  H27  1  0.207491  0.706660  0.245714  1
  H  H28  1  0.350184  0.065165  0.057612  1
  H  H29  1  0.850184  0.434835  0.557612  1
  H  H30  1  0.649816  0.934835  0.942388  1
  H  H31  1  0.149816  0.565165  0.442388  1
  H  H32  1  0.467425  0.937946  0.718324  1
  H  H33  1  0.967425  0.562054  0.218324  1
  H  H34  1  0.532575  0.062054  0.281676  1
  H  H35  1  0.032575  0.437946  0.781676  1
  H  H36  1  0.909224  0.377977  0.070297  1
  H  H37  1  0.409224  0.122023  0.570297  1
  H  H38  1  0.090776  0.622023  0.929703  1
  H  H39  1  0.590776  0.877977  0.429703  1
  H  H40  1  0.036660  0.382075  0.241530  1
  H  H41  1  0.536660  0.117925  0.741530  1
  H  H42  1  0.963340  0.617925  0.758470  1
  H  H43  1  0.463340  0.882075  0.258470  1
  H  H44  1  0.690528  0.093849  -0.000247  1
  H  H45  1  0.190528  0.406151  0.499753  1
  H  H46  1  0.309472  0.906151  0.000247  1
  H  H47  1  0.809472  0.593849  0.500247  1
  H  H48  1  0.699242  0.136556  0.181810  1
  H  H49  1  0.199242  0.363444  0.681810  1
  H  H50  1  0.300758  0.863444  0.818190  1
  H  H51  1  0.800758  0.636556  0.318190  1
  H  H52  1  0.041317  0.112576  0.533508  1
  H  H53  1  0.541317  0.387424  0.033508  1
  H  H54  1  0.958683  0.887424  0.466492  1
  H  H55  1  0.458683  0.612576  0.966492  1
  H  H56  1  0.128741  0.210180  0.502390  1
  H  H57  1  0.628741  0.289820  0.002390  1
  H  H58  1  0.871259  0.789820  0.497610  1
  H  H59  1  0.371259  0.710180  0.997610  1
  H  H60  1  0.316431  0.235392  0.957625  1
  H  H61  1  0.816431  0.264608  0.457625  1
  H  H62  1  0.683569  0.764608  0.042375  1
  H  H63  1  0.183569  0.735392  0.542375  1
  H  H64  1  0.361914  0.168829  0.824488  1
  H  H65  1  0.861914  0.331171  0.324488  1
  H  H66  1  0.638086  0.831171  0.175512  1
  H  H67  1  0.138086  0.668829  0.675512  1
  O  O68  1  0.046348  0.791123  0.138504  1
  O  O69  1  0.546348  0.708877  0.638504  1
  O  O70  1  0.953652  0.208877  0.861496  1
  O  O71  1  0.453652  0.291123  0.361496  1
  O  O72  1  0.953665  0.942754  0.257581  1
  O  O73  1  0.453665  0.557246  0.757581  1
  O  O74  1  0.046335  0.057246  0.742419  1
  O  O75  1  0.546335  0.442754  0.242419  1
  O  O76  1  0.217946  0.152374  0.204780  1
  O  O77  1  0.717946  0.347626  0.704780  1
  O  O78  1  0.782054  0.847626  0.795220  1
  O  O79  1  0.282054  0.652374  0.295220  1
  O  O80  1  0.367641  0.012856  0.156587  1
  O  O81  1  0.867641  0.487144  0.656587  1
  O  O82  1  0.632359  0.987144  0.843413  1
  O  O83  1  0.132359  0.512856  0.343413  1
  O  O84  1  0.379157  0.895779  0.668398  1
  O  O85  1  0.879157  0.604221  0.168398  1
  O  O86  1  0.620843  0.104221  0.331602  1
  O  O87  1  0.120843  0.395779  0.831602  1
  O  O88  1  0.959971  0.333214  0.175480  1
  O  O89  1  0.459971  0.166786  0.675480  1
  O  O90  1  0.040029  0.666786  0.824520  1
  O  O91  1  0.540029  0.833214  0.324520  1
  O  O92  1  0.734228  0.151456  0.089815  1
  O  O93  1  0.234228  0.348544  0.589815  1
  O  O94  1  0.265772  0.848544  0.910185  1
  O  O95  1  0.765772  0.651456  0.410185  1
  O  O96  1  0.058649  0.154780  0.442649  1
  O  O97  1  0.558649  0.345220  0.942649  1
  O  O98  1  0.941351  0.845220  0.557351  1
  O  O99  1  0.441351  0.654780  0.057351  1
  O  O100  1  0.309642  0.162774  0.900588  1
  O  O101  1  0.809642  0.337226  0.400588  1
  O  O102  1  0.690358  0.837226  0.099412  1
  O  O103  1  0.190358  0.662774  0.599412  1
  O  O104  1  0.138444  0.969836  0.157010  1
  O  O105  1  0.638444  0.530164  0.657010  1
  O  O106  1  0.861556  0.030164  0.842990  1
  O  O107  1  0.361556  0.469836  0.342990  1
  O  O108  1  0.178934  0.866128  0.423285  1
  O  O109  1  0.678934  0.633872  0.923285  1
  O  O110  1  0.821066  0.133872  0.576715  1
  O  O111  1  0.321066  0.366128  0.076715  1
  O  O112  1  0.334340  0.013159  0.423602  1
  O  O113  1  0.834340  0.486841  0.923602  1
  O  O114  1  0.665660  0.986841  0.576398  1
  O  O115  1  0.165660  0.513159  0.076398  1
