# generated using pymatgen
data_Li5Fe8(BO3)8
_symmetry_space_group_name_H-M   'P 1'
_cell_length_a   5.21850947
_cell_length_b   9.11761349
_cell_length_c   11.33062943
_cell_angle_alpha   67.64962414
_cell_angle_beta   77.44869737
_cell_angle_gamma   90.02449499
_symmetry_Int_Tables_number   1
_chemical_formula_structural   Li5Fe8(BO3)8
_chemical_formula_sum   'Li5 Fe8 B8 O24'
_cell_volume   484.63411699
_cell_formula_units_Z   1
loop_
 _symmetry_equiv_pos_site_id
 _symmetry_equiv_pos_as_xyz
  1  'x, y, z'
loop_
 _atom_site_type_symbol
 _atom_site_label
 _atom_site_symmetry_multiplicity
 _atom_site_fract_x
 _atom_site_fract_y
 _atom_site_fract_z
 _atom_site_occupancy
  Li  Li0  1  0.971304  0.966262  0.397166  1
  Li  Li1  1  0.699609  0.722342  0.915905  1
  Li  Li2  1  0.512892  0.492244  0.660619  1
  Li  Li3  1  0.021190  0.996673  0.660852  1
  Li  Li4  1  0.237199  0.250741  0.158783  1
  Fe  Fe5  1  0.979000  0.640154  0.375417  1
  Fe  Fe6  1  0.733318  0.077224  0.881172  1
  Fe  Fe7  1  0.514981  0.843136  0.629431  1
  Fe  Fe8  1  0.760279  0.434632  0.136147  1
  Fe  Fe9  1  0.227294  0.553106  0.878621  1
  Fe  Fe10  1  0.470898  0.155015  0.388703  1
  Fe  Fe11  1  0.036193  0.348727  0.628846  1
  Fe  Fe12  1  0.251890  0.930542  0.127022  1
  B  B13  1  0.972361  0.315319  0.375491  1
  B  B14  1  0.732844  0.400328  0.875981  1
  B  B15  1  0.520772  0.179554  0.637647  1
  B  B16  1  0.764118  0.112245  0.127391  1
  B  B17  1  0.485398  0.814016  0.376952  1
  B  B18  1  0.236984  0.895358  0.875868  1
  B  B19  1  0.028162  0.689364  0.618553  1
  B  B20  1  0.266865  0.592942  0.132455  1
  O  O21  1  0.976493  0.913239  0.863401  1
  O  O22  1  0.887697  0.291567  0.840863  1
  O  O23  1  0.832312  0.499680  0.928870  1
  O  O24  1  0.916927  0.829084  0.611121  1
  O  O25  1  0.909493  0.579785  0.582155  1
  O  O26  1  0.758928  0.147036  0.679794  1
  O  O27  1  0.744243  0.345087  0.327750  1
  O  O28  1  0.486836  0.411955  0.854550  1
  O  O29  1  0.377192  0.779886  0.844746  1
  O  O30  1  0.579791  0.930468  0.412820  1
  O  O31  1  0.631872  0.692659  0.371293  1
  O  O32  1  0.361948  0.991570  0.919850  1
  O  O33  1  0.649789  0.022237  0.074042  1
  O  O34  1  0.405477  0.313696  0.633182  1
  O  O35  1  0.411119  0.070774  0.597998  1
  O  O36  1  0.608660  0.224795  0.160844  1
  O  O37  1  0.537059  0.602173  0.111935  1
  O  O38  1  0.261359  0.655869  0.661622  1
  O  O39  1  0.232327  0.823453  0.348212  1
  O  O40  1  0.061013  0.418442  0.423908  1
  O  O41  1  0.102135  0.184786  0.371386  1
  O  O42  1  0.144271  0.479865  0.099887  1
  O  O43  1  0.119914  0.692832  0.179063  1
  O  O44  1  0.012559  0.095798  0.147647  1
