# generated using pymatgen
data_LiFePH2O5
_symmetry_space_group_name_H-M   'P 1'
_cell_length_a   9.67327226
_cell_length_b   7.90122180
_cell_length_c   5.57351962
_cell_angle_alpha   90.00000000
_cell_angle_beta   95.89199587
_cell_angle_gamma   90.00000000
_symmetry_Int_Tables_number   1
_chemical_formula_structural   LiFePH2O5
_chemical_formula_sum   'Li4 Fe4 P4 H8 O20'
_cell_volume   423.73741425
_cell_formula_units_Z   4
loop_
 _symmetry_equiv_pos_site_id
 _symmetry_equiv_pos_as_xyz
  1  'x, y, z'
loop_
 _atom_site_type_symbol
 _atom_site_label
 _atom_site_symmetry_multiplicity
 _atom_site_fract_x
 _atom_site_fract_y
 _atom_site_fract_z
 _atom_site_occupancy
  Li  Li0  1  0.351378  0.532112  0.551185  1
  Li  Li1  1  0.351378  0.967888  0.051185  1
  Li  Li2  1  0.648622  0.032112  0.948815  1
  Li  Li3  1  0.648622  0.467888  0.448815  1
  Fe  Fe4  1  0.017136  0.804062  0.790198  1
  Fe  Fe5  1  0.017136  0.695938  0.290198  1
  Fe  Fe6  1  0.982864  0.304062  0.709802  1
  Fe  Fe7  1  0.982864  0.195938  0.209802  1
  P  P8  1  0.198890  0.474632  0.982142  1
  P  P9  1  0.198890  0.025368  0.482142  1
  P  P10  1  0.801110  0.974632  0.517858  1
  P  P11  1  0.801110  0.525368  0.017858  1
  H  H12  1  0.417720  0.258684  0.871763  1
  H  H13  1  0.436436  0.103790  0.695814  1
  H  H14  1  0.417720  0.241316  0.371763  1
  H  H15  1  0.436436  0.396210  0.195814  1
  H  H16  1  0.563564  0.603790  0.804186  1
  H  H17  1  0.582280  0.758684  0.628237  1
  H  H18  1  0.563564  0.896210  0.304186  1
  H  H19  1  0.582280  0.741316  0.128237  1
  O  O20  1  0.101782  0.555320  0.767710  1
  O  O21  1  0.101782  0.944680  0.267710  1
  O  O22  1  0.132262  0.204445  0.515786  1
  O  O23  1  0.132262  0.295555  0.015786  1
  O  O24  1  0.198000  0.918055  0.717112  1
  O  O25  1  0.198000  0.581945  0.217112  1
  O  O26  1  0.346612  0.455569  0.906436  1
  O  O27  1  0.346612  0.044431  0.406436  1
  O  O28  1  0.457347  0.142180  0.865986  1
  O  O29  1  0.457347  0.357820  0.365986  1
  O  O30  1  0.542653  0.642180  0.634014  1
  O  O31  1  0.542653  0.857820  0.134014  1
  O  O32  1  0.653388  0.955569  0.593564  1
  O  O33  1  0.653388  0.544431  0.093564  1
  O  O34  1  0.802000  0.418055  0.782888  1
  O  O35  1  0.802000  0.081945  0.282888  1
  O  O36  1  0.867738  0.704445  0.984214  1
  O  O37  1  0.867738  0.795555  0.484214  1
  O  O38  1  0.898218  0.055320  0.732290  1
  O  O39  1  0.898218  0.444680  0.232290  1
