# generated using pymatgen
data_Li3Fe8(BO3)8
_symmetry_space_group_name_H-M   'P 1'
_cell_length_a   5.23573568
_cell_length_b   9.10743621
_cell_length_c   10.18203339
_cell_angle_alpha   90.41216501
_cell_angle_beta   90.75744003
_cell_angle_gamma   89.58683398
_symmetry_Int_Tables_number   1
_chemical_formula_structural   Li3Fe8(BO3)8
_chemical_formula_sum   'Li3 Fe8 B8 O24'
_cell_volume   485.45411038
_cell_formula_units_Z   1
loop_
 _symmetry_equiv_pos_site_id
 _symmetry_equiv_pos_as_xyz
  1  'x, y, z'
loop_
 _atom_site_type_symbol
 _atom_site_label
 _atom_site_symmetry_multiplicity
 _atom_site_fract_x
 _atom_site_fract_y
 _atom_site_fract_z
 _atom_site_occupancy
  Li  Li0  1  0.851574  0.821044  0.663365  1
  Li  Li1  1  0.813022  0.830243  0.159674  1
  Li  Li2  1  0.669835  0.665309  0.398892  1
  Fe  Fe3  1  0.838342  0.169855  0.629224  1
  Fe  Fe4  1  0.817031  0.494460  0.125612  1
  Fe  Fe5  1  0.670066  0.007894  0.877995  1
  Fe  Fe6  1  0.667239  0.330631  0.374343  1
  Fe  Fe7  1  0.345695  0.650587  0.630432  1
  Fe  Fe8  1  0.330322  0.003671  0.130149  1
  Fe  Fe9  1  0.169589  0.846030  0.384599  1
  Fe  Fe10  1  0.169768  0.501938  0.883008  1
  B  B11  1  0.848428  0.501503  0.622506  1
  B  B12  1  0.837176  0.163166  0.131524  1
  B  B13  1  0.659036  0.001391  0.376923  1
  B  B14  1  0.664603  0.334682  0.876061  1
  B  B15  1  0.327875  0.995647  0.633652  1
  B  B16  1  0.321493  0.677345  0.125453  1
  B  B17  1  0.172442  0.503512  0.375213  1
  B  B18  1  0.180189  0.833506  0.876234  1
  O  O19  1  0.906775  0.500991  0.344722  1
  O  O20  1  0.921828  0.858983  0.857316  1
  O  O21  1  0.777887  0.202602  0.827364  1
  O  O22  1  0.759911  0.128626  0.434533  1
  O  O23  1  0.793551  0.872012  0.369846  1
  O  O24  1  0.824796  0.442005  0.923747  1
  O  O25  1  0.720160  0.632502  0.601991  1
  O  O26  1  0.694328  0.040503  0.081490  1
  O  O27  1  0.742473  0.369139  0.575504  1
  O  O28  1  0.707437  0.282379  0.182506  1
  O  O29  1  0.579479  0.673991  0.144003  1
  O  O30  1  0.594040  0.995262  0.670741  1
  O  O31  1  0.416625  0.007998  0.321809  1
  O  O32  1  0.409484  0.348452  0.876544  1
  O  O33  1  0.291490  0.702697  0.840808  1
  O  O34  1  0.282524  0.635447  0.416225  1
  O  O35  1  0.320059  0.380390  0.367746  1
  O  O36  1  0.332473  0.946739  0.928570  1
  O  O37  1  0.178902  0.561158  0.076792  1
  O  O38  1  0.186641  0.120854  0.638972  1
  O  O39  1  0.217863  0.864529  0.593936  1
  O  O40  1  0.183147  0.807570  0.160408  1
  O  O41  1  0.093257  0.154902  0.126220  1
  O  O42  1  0.082283  0.497746  0.684745  1
