# generated using pymatgen
data_Ca2La8Ti5Cr5O30
_symmetry_space_group_name_H-M   'P 1'
_cell_length_a   5.52203293
_cell_length_b   5.52281647
_cell_length_c   27.61961256
_cell_angle_alpha   60.67660893
_cell_angle_beta   60.70783911
_cell_angle_gamma   60.68657523
_symmetry_Int_Tables_number   1
_chemical_formula_structural   Ca2La8Ti5Cr5O30
_chemical_formula_sum   'Ca2 La8 Ti5 Cr5 O30'
_cell_volume   604.89106033
_cell_formula_units_Z   1
loop_
 _symmetry_equiv_pos_site_id
 _symmetry_equiv_pos_as_xyz
  1  'x, y, z'
loop_
 _atom_site_type_symbol
 _atom_site_label
 _atom_site_symmetry_multiplicity
 _atom_site_fract_x
 _atom_site_fract_y
 _atom_site_fract_z
 _atom_site_occupancy
  Ca  Ca0  1  0.251889  0.253289  0.047629  1
  Ca  Ca1  1  0.748111  0.746711  0.352371  1
  La  La2  1  0.246949  0.245595  0.252224  1
  La  La3  1  0.753051  0.754405  0.147776  1
  La  La4  1  0.252072  0.250805  0.450762  1
  La  La5  1  0.249016  0.251271  0.649969  1
  La  La6  1  0.748592  0.750614  0.550741  1
  La  La7  1  0.251408  0.249386  0.849259  1
  La  La8  1  0.750984  0.748729  0.750031  1
  La  La9  1  0.747928  0.749195  0.949238  1
  Ti  Ti10  1  -0.001943  0.997211  0.000593  1
  Ti  Ti11  1  0.000000  0.000000  0.200000  1
  Ti  Ti12  1  0.504559  0.500078  0.099351  1
  Ti  Ti13  1  0.001943  0.002789  0.399407  1
  Ti  Ti14  1  0.495441  0.499922  0.300649  1
  Cr  Cr15  1  0.999613  0.000728  0.599827  1
  Cr  Cr16  1  0.501788  0.501916  0.499206  1
  Cr  Cr17  1  0.000387  0.999272  0.800173  1
  Cr  Cr18  1  0.500000  0.500000  0.700000  1
  Cr  Cr19  1  0.498212  0.498084  0.900794  1
  O  O20  1  0.190280  0.749990  0.061815  1
  O  O21  1  0.312071  0.189025  0.151408  1
  O  O22  1  0.753498  0.307669  0.037700  1
  O  O23  1  0.252740  0.683434  0.163082  1
  O  O24  1  0.684463  0.817992  0.050163  1
  O  O25  1  0.183338  0.749198  0.263281  1
  O  O26  1  0.816662  0.250802  0.136719  1
  O  O27  1  0.315537  0.182008  0.349837  1
  O  O28  1  0.747260  0.316566  0.236918  1
  O  O29  1  0.246502  0.692331  0.362300  1
  O  O30  1  0.687929  0.810975  0.248592  1
  O  O31  1  0.181791  0.753056  0.463177  1
  O  O32  1  0.809720  0.250010  0.338185  1
  O  O33  1  0.322636  0.179500  0.548840  1
  O  O34  1  0.752291  0.316960  0.435900  1
  O  O35  1  0.250102  0.679130  0.563779  1
  O  O36  1  0.686347  0.817488  0.450369  1
  O  O37  1  0.178255  0.750151  0.664042  1
  O  O38  1  0.822933  0.251253  0.535069  1
  O  O39  1  0.322514  0.176516  0.750645  1
  O  O40  1  0.750386  0.321448  0.635550  1
  O  O41  1  0.249614  0.678552  0.764450  1
  O  O42  1  0.677486  0.823484  0.649355  1
  O  O43  1  0.177067  0.748747  0.864931  1
  O  O44  1  0.821745  0.249849  0.735958  1
  O  O45  1  0.313653  0.182512  0.949631  1
  O  O46  1  0.749898  0.320870  0.836221  1
  O  O47  1  0.247709  0.683040  0.964100  1
  O  O48  1  0.677364  0.820500  0.851160  1
  O  O49  1  0.818209  0.246944  0.936823  1
