# generated using pymatgen
data_Lu(HO)3
_symmetry_space_group_name_H-M   'P 1'
_cell_length_a   6.22559100
_cell_length_b   6.22566081
_cell_length_c   3.46340777
_cell_angle_alpha   90.00000000
_cell_angle_beta   90.00000000
_cell_angle_gamma   120.00146355
_symmetry_Int_Tables_number   1
_chemical_formula_structural   Lu(HO)3
_chemical_formula_sum   'Lu2 H6 O6'
_cell_volume   116.25024972
_cell_formula_units_Z   2
loop_
 _symmetry_equiv_pos_site_id
 _symmetry_equiv_pos_as_xyz
  1  'x, y, z'
loop_
 _atom_site_type_symbol
 _atom_site_label
 _atom_site_symmetry_multiplicity
 _atom_site_fract_x
 _atom_site_fract_y
 _atom_site_fract_z
 _atom_site_occupancy
  Lu  Lu0  1  0.333314  0.666675  0.250000  1
  Lu  Lu1  1  0.666633  0.333318  0.750000  1
  H  H2  1  0.138253  0.861170  0.750000  1
  H  H3  1  0.138843  0.277091  0.750000  1
  H  H4  1  0.277082  0.138255  0.250000  1
  H  H5  1  0.722919  0.861737  0.750000  1
  H  H6  1  0.861166  0.722918  0.250000  1
  H  H7  1  0.861737  0.138827  0.250000  1
  O  O8  1  0.314039  0.915087  0.750000  1
  O  O9  1  0.084910  0.398988  0.750000  1
  O  O10  1  0.398969  0.314055  0.250000  1
  O  O11  1  0.601022  0.685938  0.750000  1
  O  O12  1  0.915089  0.601027  0.250000  1
  O  O13  1  0.685923  0.084915  0.250000  1
