# generated using pymatgen
data_Mg(IO3)2
_symmetry_space_group_name_H-M   'P 1'
_cell_length_a   5.70445961
_cell_length_b   17.26379043
_cell_length_c   5.39032359
_cell_angle_alpha   90.00000000
_cell_angle_beta   90.00000000
_cell_angle_gamma   90.00000000
_symmetry_Int_Tables_number   1
_chemical_formula_structural   Mg(IO3)2
_chemical_formula_sum   'Mg4 I8 O24'
_cell_volume   530.84227559
_cell_formula_units_Z   4
loop_
 _symmetry_equiv_pos_site_id
 _symmetry_equiv_pos_as_xyz
  1  'x, y, z'
loop_
 _atom_site_type_symbol
 _atom_site_label
 _atom_site_symmetry_multiplicity
 _atom_site_fract_x
 _atom_site_fract_y
 _atom_site_fract_z
 _atom_site_occupancy
  Mg  Mg0  1  0.168046  0.094675  0.713060  1
  Mg  Mg1  1  0.331954  0.905325  0.213060  1
  Mg  Mg2  1  0.668046  0.405325  0.286940  1
  Mg  Mg3  1  0.831954  0.594675  0.786940  1
  I  I4  1  0.136911  0.424723  0.968309  1
  I  I5  1  0.220758  0.206502  0.253400  1
  I  I6  1  0.279242  0.793498  0.753400  1
  I  I7  1  0.363089  0.575277  0.468309  1
  I  I8  1  0.636911  0.075277  0.031691  1
  I  I9  1  0.720758  0.293498  0.746600  1
  I  I10  1  0.779242  0.706502  0.246600  1
  I  I11  1  0.863089  0.924723  0.531691  1
  O  O12  1  0.995749  0.336528  0.110075  1
  O  O13  1  0.023339  0.157495  0.030500  1
  O  O14  1  0.026234  0.201442  0.525460  1
  O  O15  1  0.117423  0.983582  0.433720  1
  O  O16  1  0.121122  0.879157  0.880449  1
  O  O17  1  0.170185  0.546850  0.735476  1
  O  O18  1  0.329815  0.453150  0.235476  1
  O  O19  1  0.378878  0.120844  0.380449  1
  O  O20  1  0.382577  0.016418  0.933720  1
  O  O21  1  0.473766  0.798558  0.025460  1
  O  O22  1  0.476661  0.842505  0.530500  1
  O  O23  1  0.504251  0.663472  0.610075  1
  O  O24  1  0.495749  0.163472  0.889925  1
  O  O25  1  0.523339  0.342505  0.969500  1
  O  O26  1  0.526234  0.298558  0.474540  1
  O  O27  1  0.617423  0.516418  0.566280  1
  O  O28  1  0.621122  0.620843  0.119551  1
  O  O29  1  0.670185  0.953150  0.264524  1
  O  O30  1  0.829815  0.046850  0.764524  1
  O  O31  1  0.878878  0.379157  0.619551  1
  O  O32  1  0.882577  0.483582  0.066280  1
  O  O33  1  0.973766  0.701442  0.974540  1
  O  O34  1  0.976661  0.657495  0.469500  1
  O  O35  1  0.004251  0.836528  0.389925  1
