# generated using pymatgen
data_Li8Sc5Fe3(SiO3)16
_symmetry_space_group_name_H-M   'P 1'
_cell_length_a   9.90140840
_cell_length_b   8.95037949
_cell_length_c   10.78614257
_cell_angle_alpha   90.00000000
_cell_angle_beta   110.36027093
_cell_angle_gamma   90.00000000
_symmetry_Int_Tables_number   1
_chemical_formula_structural   Li8Sc5Fe3(SiO3)16
_chemical_formula_sum   'Li8 Sc5 Fe3 Si16 O48'
_cell_volume   896.16241706
_cell_formula_units_Z   1
loop_
 _symmetry_equiv_pos_site_id
 _symmetry_equiv_pos_as_xyz
  1  'x, y, z'
loop_
 _atom_site_type_symbol
 _atom_site_label
 _atom_site_symmetry_multiplicity
 _atom_site_fract_x
 _atom_site_fract_y
 _atom_site_fract_z
 _atom_site_occupancy
  Li  Li0  1  0.000470  0.745182  0.873773  1
  Li  Li1  1  0.000000  0.253210  0.625000  1
  Li  Li2  1  0.999530  0.745182  0.376227  1
  Li  Li3  1  0.000000  0.255126  0.125000  1
  Li  Li4  1  0.499888  0.246346  0.874960  1
  Li  Li5  1  0.500000  0.752645  0.625000  1
  Li  Li6  1  0.500112  0.246346  0.375040  1
  Li  Li7  1  0.500000  0.752718  0.125000  1
  Sc  Sc8  1  0.999744  0.103950  0.873039  1
  Sc  Sc9  1  0.000256  0.103950  0.376961  1
  Sc  Sc10  1  0.000000  0.894877  0.125000  1
  Sc  Sc11  1  0.499714  0.602428  0.874737  1
  Sc  Sc12  1  0.500286  0.602428  0.375263  1
  Fe  Fe13  1  0.000000  0.891647  0.625000  1
  Fe  Fe14  1  0.500000  0.391953  0.625000  1
  Fe  Fe15  1  0.500000  0.393058  0.125000  1
  Si  Si16  1  0.203416  0.411872  0.864473  1
  Si  Si17  1  0.296820  0.912599  0.884924  1
  Si  Si18  1  0.202099  0.588692  0.613362  1
  Si  Si19  1  0.298429  0.088874  0.637097  1
  Si  Si20  1  0.203224  0.412412  0.365119  1
  Si  Si21  1  0.298268  0.913366  0.386860  1
  Si  Si22  1  0.203678  0.586411  0.112770  1
  Si  Si23  1  0.298890  0.089716  0.136381  1
  Si  Si24  1  0.701732  0.913366  0.863140  1
  Si  Si25  1  0.796776  0.412412  0.884881  1
  Si  Si26  1  0.701571  0.088874  0.612903  1
  Si  Si27  1  0.797901  0.588692  0.636638  1
  Si  Si28  1  0.703180  0.912599  0.365076  1
  Si  Si29  1  0.796584  0.411872  0.385527  1
  Si  Si30  1  0.701110  0.089716  0.113619  1
  Si  Si31  1  0.796322  0.586411  0.137230  1
  O  O32  1  0.144140  0.495357  0.971545  1
  O  O33  1  0.118287  0.912918  0.823024  1
  O  O34  1  0.131390  0.248562  0.829364  1
  O  O35  1  0.147680  0.504298  0.723366  1
  O  O36  1  0.120402  0.084622  0.580876  1
  O  O37  1  0.128285  0.753101  0.581690  1
  O  O38  1  0.143917  0.498538  0.471357  1
  O  O39  1  0.120400  0.913776  0.328868  1
  O  O40  1  0.131255  0.248803  0.331076  1
  O  O41  1  0.369025  0.748600  0.919078  1
  O  O42  1  0.381879  0.412569  0.926451  1
  O  O43  1  0.356313  0.998438  0.778852  1
  O  O44  1  0.148418  0.503679  0.223302  1
  O  O45  1  0.121159  0.088059  0.078545  1
  O  O46  1  0.131990  0.750674  0.079999  1
  O  O47  1  0.371756  0.253894  0.668912  1
  O  O48  1  0.380250  0.584309  0.669788  1
  O  O49  1  0.354789  0.004998  0.528139  1
  O  O50  1  0.369693  0.748901  0.419510  1
  O  O51  1  0.381914  0.412719  0.427086  1
  O  O52  1  0.354876  0.998489  0.278135  1
  O  O53  1  0.645124  0.998489  0.971865  1
  O  O54  1  0.373071  0.253919  0.169414  1
  O  O55  1  0.618086  0.412719  0.822914  1
  O  O56  1  0.381826  0.582082  0.170002  1
  O  O57  1  0.630307  0.748901  0.830490  1
  O  O58  1  0.352897  0.004227  0.026584  1
  O  O59  1  0.645211  0.004998  0.721861  1
  O  O60  1  0.619750  0.584309  0.580212  1
  O  O61  1  0.628244  0.253894  0.581088  1
  O  O62  1  0.643687  0.998438  0.471148  1
  O  O63  1  0.618121  0.412569  0.323549  1
  O  O64  1  0.630975  0.748600  0.330922  1
  O  O65  1  0.868745  0.248803  0.918924  1
  O  O66  1  0.879600  0.913776  0.921132  1
  O  O67  1  0.856083  0.498538  0.778643  1
  O  O68  1  0.647103  0.004227  0.223416  1
  O  O69  1  0.618174  0.582082  0.079998  1
  O  O70  1  0.626929  0.253919  0.080586  1
  O  O71  1  0.871715  0.753101  0.668310  1
  O  O72  1  0.879598  0.084622  0.669124  1
  O  O73  1  0.852320  0.504298  0.526634  1
  O  O74  1  0.868610  0.248562  0.420636  1
  O  O75  1  0.881713  0.912918  0.426976  1
  O  O76  1  0.855860  0.495357  0.278455  1
  O  O77  1  0.868010  0.750674  0.170001  1
  O  O78  1  0.878841  0.088059  0.171455  1
  O  O79  1  0.851582  0.503679  0.026698  1
