# generated using pymatgen
data_MoH12N3O5F3
_symmetry_space_group_name_H-M   'P 1'
_cell_length_a   6.83872924
_cell_length_b   8.82396106
_cell_length_c   15.64120816
_cell_angle_alpha   90.00000000
_cell_angle_beta   90.00000000
_cell_angle_gamma   90.00000000
_symmetry_Int_Tables_number   1
_chemical_formula_structural   MoH12N3O5F3
_chemical_formula_sum   'Mo4 H48 N12 O20 F12'
_cell_volume   943.86370926
_cell_formula_units_Z   4
loop_
 _symmetry_equiv_pos_site_id
 _symmetry_equiv_pos_as_xyz
  1  'x, y, z'
loop_
 _atom_site_type_symbol
 _atom_site_label
 _atom_site_symmetry_multiplicity
 _atom_site_fract_x
 _atom_site_fract_y
 _atom_site_fract_z
 _atom_site_occupancy
  Mo  Mo0  1  0.812487  0.757419  0.163366  1
  Mo  Mo1  1  0.687513  0.242581  0.663366  1
  Mo  Mo2  1  0.312487  0.742581  0.836634  1
  Mo  Mo3  1  0.187513  0.257419  0.336634  1
  H  H4  1  0.830425  0.888640  0.477831  1
  H  H5  1  0.669575  0.111360  0.977831  1
  H  H6  1  0.330425  0.611360  0.522169  1
  H  H7  1  0.169575  0.388640  0.022169  1
  H  H8  1  0.600590  0.857888  0.446361  1
  H  H9  1  0.899410  0.142112  0.946361  1
  H  H10  1  0.100590  0.642112  0.553639  1
  H  H11  1  0.399410  0.357888  0.053639  1
  H  H12  1  0.767449  0.926932  0.374787  1
  H  H13  1  0.732551  0.073068  0.874787  1
  H  H14  1  0.267449  0.573068  0.625213  1
  H  H15  1  0.232551  0.426932  0.125213  1
  H  H16  1  0.683811  0.040160  0.453034  1
  H  H17  1  0.816189  0.959840  0.953034  1
  H  H18  1  0.183811  0.459840  0.546966  1
  H  H19  1  0.316189  0.540160  0.046966  1
  H  H20  1  0.359079  0.715916  0.366558  1
  H  H21  1  0.140921  0.284084  0.866558  1
  H  H22  1  0.859079  0.784084  0.633442  1
  H  H23  1  0.640921  0.215916  0.133442  1
  H  H24  1  0.170588  0.740259  0.295455  1
  H  H25  1  0.329412  0.259741  0.795455  1
  H  H26  1  0.670588  0.759741  0.704545  1
  H  H27  1  0.829412  0.240259  0.204545  1
  H  H28  1  0.342051  0.601869  0.281803  1
  H  H29  1  0.157949  0.398131  0.781803  1
  H  H30  1  0.842051  0.898131  0.718197  1
  H  H31  1  0.657949  0.101869  0.218197  1
  H  H32  1  0.403109  0.786725  0.266282  1
  H  H33  1  0.096891  0.213275  0.766282  1
  H  H34  1  0.903109  0.713275  0.733718  1
  H  H35  1  0.596891  0.286725  0.233718  1
  H  H36  1  0.390521  0.925116  0.117430  1
  H  H37  1  0.109479  0.074884  0.617430  1
  H  H38  1  0.890521  0.574884  0.882570  1
  H  H39  1  0.609479  0.425116  0.382570  1
  H  H40  1  0.362102  0.072129  0.051030  1
  H  H41  1  0.137898  0.927871  0.551030  1
  H  H42  1  0.862102  0.427871  0.948970  1
  H  H43  1  0.637898  0.572129  0.448970  1
  H  H44  1  0.166108  0.004310  0.106913  1
  H  H45  1  0.333892  0.995690  0.606913  1
  H  H46  1  0.666108  0.495690  0.893087  1
  H  H47  1  0.833892  0.504310  0.393087  1
  H  H48  1  0.253375  0.900451  0.025961  1
  H  H49  1  0.246625  0.099549  0.525961  1
  H  H50  1  0.753375  0.599549  0.974039  1
  H  H51  1  0.746625  0.400451  0.474039  1
  N  N52  1  0.719824  0.931543  0.437281  1
  N  N53  1  0.780176  0.068457  0.937281  1
  N  N54  1  0.219824  0.568457  0.562719  1
  N  N55  1  0.280176  0.431543  0.062719  1
  N  N56  1  0.316855  0.711794  0.301891  1
  N  N57  1  0.183145  0.288206  0.801891  1
  N  N58  1  0.816855  0.788206  0.698109  1
  N  N59  1  0.683145  0.211794  0.198109  1
  N  N60  1  0.291960  0.974530  0.074773  1
  N  N61  1  0.208040  0.025470  0.574773  1
  N  N62  1  0.791960  0.525470  0.925227  1
  N  N63  1  0.708040  0.474530  0.425227  1
  O  O64  1  0.916618  0.835608  0.276006  1
  O  O65  1  0.583382  0.164392  0.776006  1
  O  O66  1  0.416618  0.664392  0.723994  1
  O  O67  1  0.083382  0.335608  0.223994  1
  O  O68  1  0.812948  0.689063  0.282783  1
  O  O69  1  0.687052  0.310937  0.782783  1
  O  O70  1  0.312948  0.810937  0.717217  1
  O  O71  1  0.187052  0.189063  0.217217  1
  O  O72  1  0.616753  0.601467  0.139200  1
  O  O73  1  0.883247  0.398533  0.639200  1
  O  O74  1  0.116753  0.898533  0.860800  1
  O  O75  1  0.383247  0.101467  0.360800  1
  O  O76  1  0.628121  0.709234  0.066981  1
  O  O77  1  0.871879  0.290766  0.566981  1
  O  O78  1  0.128121  0.790766  0.933019  1
  O  O79  1  0.371879  0.209234  0.433019  1
  O  O80  1  0.022803  0.673204  0.125614  1
  O  O81  1  0.477197  0.326796  0.625614  1
  O  O82  1  0.522803  0.826796  0.874386  1
  O  O83  1  0.977197  0.173204  0.374386  1
  F  F84  1  0.873304  0.956717  0.109376  1
  F  F85  1  0.626696  0.043283  0.609376  1
  F  F86  1  0.373304  0.543283  0.890624  1
  F  F87  1  0.126696  0.456717  0.390624  1
  F  F88  1  0.556224  0.895488  0.204813  1
  F  F89  1  0.943776  0.104512  0.704813  1
  F  F90  1  0.056224  0.604512  0.795187  1
  F  F91  1  0.443776  0.395488  0.295187  1
  F  F92  1  0.469989  0.707612  0.461942  1
  F  F93  1  0.030011  0.292388  0.961942  1
  F  F94  1  0.969989  0.792388  0.538058  1
  F  F95  1  0.530011  0.207612  0.038058  1
