# generated using pymatgen
data_LiV2(PO4)3
_symmetry_space_group_name_H-M   'P 1'
_cell_length_a   8.62248107
_cell_length_b   12.04581381
_cell_length_c   8.61460476
_cell_angle_alpha   90.14501460
_cell_angle_beta   90.18453760
_cell_angle_gamma   90.11397496
_symmetry_Int_Tables_number   1
_chemical_formula_structural   LiV2(PO4)3
_chemical_formula_sum   'Li4 V8 P12 O48'
_cell_volume   894.74492314
_cell_formula_units_Z   4
loop_
 _symmetry_equiv_pos_site_id
 _symmetry_equiv_pos_as_xyz
  1  'x, y, z'
loop_
 _atom_site_type_symbol
 _atom_site_label
 _atom_site_symmetry_multiplicity
 _atom_site_fract_x
 _atom_site_fract_y
 _atom_site_fract_z
 _atom_site_occupancy
  Li  Li0  1  0.286736  0.318307  0.273444  1
  Li  Li1  1  0.783628  0.818618  0.226035  1
  Li  Li2  1  0.934879  0.289774  0.908381  1
  Li  Li3  1  0.941884  0.712631  0.594023  1
  V  V4  1  0.257139  0.383166  0.955748  1
  V  V5  1  0.259078  0.619397  0.531620  1
  V  V6  1  0.249834  0.115391  0.468227  1
  V  V7  1  0.250313  0.880019  0.035943  1
  V  V8  1  0.742923  0.113859  0.967113  1
  V  V9  1  0.741445  0.888771  0.542266  1
  V  V10  1  0.750634  0.380337  0.463710  1
  V  V11  1  0.750588  0.614855  0.032543  1
  P  P12  1  0.038183  0.499771  0.250560  1
  P  P13  1  0.108715  0.144323  0.101723  1
  P  P14  1  0.106268  0.854556  0.392209  1
  P  P15  1  0.397081  0.355611  0.603270  1
  P  P16  1  0.393544  0.645760  0.894677  1
  P  P17  1  0.457618  0.000105  0.752396  1
  P  P18  1  0.533141  0.000487  0.250403  1
  P  P19  1  0.610529  0.353329  0.106421  1
  P  P20  1  0.613607  0.645382  0.398258  1
  P  P21  1  0.895408  0.855180  0.897135  1
  P  P22  1  0.893196  0.146641  0.603708  1
  P  P23  1  0.962043  0.500534  0.747813  1
  O  O24  1  0.061251  0.579300  0.648241  1
  O  O25  1  0.058561  0.422103  0.853547  1
  O  O26  1  0.071052  0.153381  0.583672  1
  O  O27  1  0.072029  0.846178  0.910567  1
  O  O28  1  0.164712  0.028796  0.060573  1
  O  O29  1  0.159932  0.970970  0.438297  1
  O  O30  1  0.161597  0.177557  0.267582  1
  O  O31  1  0.149495  0.826412  0.224366  1
  O  O32  1  0.149971  0.423930  0.157410  1
  O  O33  1  0.141525  0.575914  0.352921  1
  O  O34  1  0.170026  0.233110  0.984810  1
  O  O35  1  0.167232  0.768797  0.511729  1
  O  O36  1  0.321191  0.272734  0.487226  1
  O  O37  1  0.320018  0.728617  0.007006  1
  O  O38  1  0.358019  0.078877  0.655733  1
  O  O39  1  0.357110  0.923806  0.848689  1
  O  O40  1  0.351327  0.668279  0.722851  1
  O  O41  1  0.351700  0.328486  0.772895  1
  O  O42  1  0.340123  0.471309  0.557030  1
  O  O43  1  0.335852  0.527761  0.937811  1
  O  O44  1  0.436739  0.661214  0.411637  1
  O  O45  1  0.430940  0.340326  0.093317  1
  O  O46  1  0.433107  0.073588  0.356916  1
  O  O47  1  0.433915  0.923175  0.149001  1
  O  O48  1  0.559612  0.924170  0.648820  1
  O  O49  1  0.566650  0.075822  0.851870  1
  O  O50  1  0.573791  0.346585  0.590915  1
  O  O51  1  0.571649  0.652190  0.913306  1
  O  O52  1  0.661228  0.471229  0.062919  1
  O  O53  1  0.665442  0.527916  0.437991  1
  O  O54  1  0.648999  0.326800  0.276287  1
  O  O55  1  0.662811  0.676972  0.230587  1
  O  O56  1  0.636389  0.078912  0.155238  1
  O  O57  1  0.644101  0.922526  0.342458  1
  O  O58  1  0.692541  0.273516  0.991208  1
  O  O59  1  0.695109  0.727904  0.512903  1
  O  O60  1  0.819491  0.228119  0.489895  1
  O  O61  1  0.819937  0.772850  0.012814  1
  O  O62  1  0.858672  0.421887  0.653714  1
  O  O63  1  0.858969  0.578595  0.844689  1
  O  O64  1  0.855132  0.172076  0.775300  1
  O  O65  1  0.852668  0.827761  0.726335  1
  O  O66  1  0.834429  0.028070  0.563640  1
  O  O67  1  0.836135  0.970766  0.941073  1
  O  O68  1  0.925686  0.844261  0.403976  1
  O  O69  1  0.929553  0.154747  0.086773  1
  O  O70  1  0.936384  0.422974  0.349980  1
  O  O71  1  0.937908  0.574703  0.145857  1
