# generated using pymatgen
data_Er2Bi2O7
_symmetry_space_group_name_H-M   'P 1'
_cell_length_a   7.33915621
_cell_length_b   7.32007941
_cell_length_c   13.11885119
_cell_angle_alpha   90.00703798
_cell_angle_beta   89.99323619
_cell_angle_gamma   90.05985643
_symmetry_Int_Tables_number   1
_chemical_formula_structural   Er2Bi2O7
_chemical_formula_sum   'Er8 Bi8 O28'
_cell_volume   704.78635404
_cell_formula_units_Z   4
loop_
 _symmetry_equiv_pos_site_id
 _symmetry_equiv_pos_as_xyz
  1  'x, y, z'
loop_
 _atom_site_type_symbol
 _atom_site_label
 _atom_site_symmetry_multiplicity
 _atom_site_fract_x
 _atom_site_fract_y
 _atom_site_fract_z
 _atom_site_occupancy
  Er  Er0  1  0.150753  0.620133  0.640361  1
  Er  Er1  1  0.119940  0.349128  0.389713  1
  Er  Er2  1  0.377143  0.850553  0.859699  1
  Er  Er3  1  0.351442  0.123321  0.608816  1
  Er  Er4  1  0.648432  0.876678  0.108920  1
  Er  Er5  1  0.622861  0.149667  0.359750  1
  Er  Er6  1  0.880022  0.650627  0.889719  1
  Er  Er7  1  0.849172  0.379815  0.140469  1
  Bi  Bi8  1  0.123125  0.880633  0.097549  1
  Bi  Bi9  1  0.124635  0.880201  0.408717  1
  Bi  Bi10  1  0.379121  0.378301  0.845194  1
  Bi  Bi11  1  0.378690  0.376178  0.156634  1
  Bi  Bi12  1  0.621394  0.623638  0.656619  1
  Bi  Bi13  1  0.620496  0.621962  0.345273  1
  Bi  Bi14  1  0.875246  0.119613  0.908762  1
  Bi  Bi15  1  0.876741  0.119022  0.597681  1
  O  O16  1  0.074978  0.905137  0.913560  1
  O  O17  1  0.091973  0.319776  0.573675  1
  O  O18  1  0.108443  0.915716  0.579301  1
  O  O19  1  0.168347  0.613174  0.466847  1
  O  O20  1  0.181083  0.592297  0.824504  1
  O  O21  1  0.110052  0.327747  0.218084  1
  O  O22  1  0.178862  0.814919  0.257821  1
  O  O23  1  0.319209  0.320605  0.002087  1
  O  O24  1  0.390913  0.823843  0.029155  1
  O  O25  1  0.318400  0.088944  0.424168  1
  O  O26  1  0.327239  0.110728  0.779732  1
  O  O27  1  0.401384  0.422845  0.666271  1
  O  O28  1  0.411623  0.818831  0.675559  1
  O  O29  1  0.417919  0.396250  0.332105  1
  O  O30  1  0.581971  0.603294  0.832248  1
  O  O31  1  0.588801  0.181186  0.175393  1
  O  O32  1  0.598555  0.577313  0.166144  1
  O  O33  1  0.673019  0.889543  0.279705  1
  O  O34  1  0.681521  0.910900  0.924162  1
  O  O35  1  0.608990  0.176675  0.529297  1
  O  O36  1  0.681136  0.679596  0.502336  1
  O  O37  1  0.821164  0.185490  0.758077  1
  O  O38  1  0.889704  0.672177  0.718038  1
  O  O39  1  0.818772  0.408056  0.324476  1
  O  O40  1  0.832330  0.386563  0.966886  1
  O  O41  1  0.891807  0.084025  0.079286  1
  O  O42  1  0.907876  0.680105  0.073442  1
  O  O43  1  0.924897  0.094975  0.413765  1
