# generated using pymatgen
data_Ca3Mn2(GeO4)3
_symmetry_space_group_name_H-M   'P 1'
_cell_length_a   10.80829737
_cell_length_b   10.80838831
_cell_length_c   10.80830567
_cell_angle_alpha   109.31853801
_cell_angle_beta   109.54715591
_cell_angle_gamma   109.54871772
_symmetry_Int_Tables_number   1
_chemical_formula_structural   Ca3Mn2(GeO4)3
_chemical_formula_sum   'Ca12 Mn8 Ge12 O48'
_cell_volume   971.95955573
_cell_formula_units_Z   4
loop_
 _symmetry_equiv_pos_site_id
 _symmetry_equiv_pos_as_xyz
  1  'x, y, z'
loop_
 _atom_site_type_symbol
 _atom_site_label
 _atom_site_symmetry_multiplicity
 _atom_site_fract_x
 _atom_site_fract_y
 _atom_site_fract_z
 _atom_site_occupancy
  Ca  Ca0  1  0.627467  0.375565  0.252634  1
  Ca  Ca1  1  0.372533  0.624435  0.747366  1
  Ca  Ca2  1  0.750002  0.377047  0.627043  1
  Ca  Ca3  1  0.249985  0.127036  0.877034  1
  Ca  Ca4  1  0.750015  0.872964  0.122966  1
  Ca  Ca5  1  0.127458  0.874834  0.251898  1
  Ca  Ca6  1  0.622933  0.248101  0.875566  1
  Ca  Ca7  1  0.877078  0.752641  0.625175  1
  Ca  Ca8  1  0.377067  0.751899  0.124434  1
  Ca  Ca9  1  0.872542  0.125166  0.748102  1
  Ca  Ca10  1  0.249998  0.622953  0.372957  1
  Ca  Ca11  1  0.122922  0.247359  0.374825  1
  Mn  Mn12  1  0.500000  0.500000  0.500000  1
  Mn  Mn13  1  0.500000  0.000000  0.000000  1
  Mn  Mn14  1  0.000000  0.000000  0.000000  1
  Mn  Mn15  1  0.000000  0.500000  0.000000  1
  Mn  Mn16  1  0.500000  0.500000  0.000000  1
  Mn  Mn17  1  0.500000  0.000000  0.500000  1
  Mn  Mn18  1  0.000000  0.000000  0.500000  1
  Mn  Mn19  1  0.000000  0.500000  0.500000  1
  Ge  Ge20  1  0.377750  0.131614  0.259263  1
  Ge  Ge21  1  0.372340  0.253863  0.631605  1
  Ge  Ge22  1  0.622250  0.868386  0.740737  1
  Ge  Ge23  1  0.250002  0.875008  0.625009  1
  Ge  Ge24  1  0.250001  0.375002  0.125010  1
  Ge  Ge25  1  0.122253  0.381510  0.753862  1
  Ge  Ge26  1  0.749998  0.124992  0.374991  1
  Ge  Ge27  1  0.627660  0.746137  0.368395  1
  Ge  Ge28  1  0.749999  0.624998  0.874990  1
  Ge  Ge29  1  0.877747  0.618490  0.246138  1
  Ge  Ge30  1  0.872339  0.240733  0.118481  1
  Ge  Ge31  1  0.127661  0.759267  0.881519  1
  O  O32  1  0.318311  0.808137  0.916820  1
  O  O33  1  0.869822  0.281452  0.973214  1
  O  O34  1  0.191764  0.088373  0.218559  1
  O  O35  1  0.630185  0.603396  0.411639  1
  O  O36  1  0.414811  0.125718  0.110545  1
  O  O37  1  0.891316  0.583181  0.401483  1
  O  O38  1  0.101373  0.185211  0.986423  1
  O  O39  1  0.301215  0.416166  0.314791  1
  O  O40  1  0.601370  0.614953  0.916159  1
  O  O41  1  0.698785  0.583834  0.685209  1
  O  O42  1  0.021713  0.613770  0.198921  1
  O  O43  1  0.205813  0.686136  0.584829  1
  O  O44  1  0.818315  0.901479  0.510143  1
  O  O45  1  0.398630  0.385047  0.083841  1
  O  O46  1  0.898696  0.084826  0.379012  1
  O  O47  1  0.808236  0.911627  0.781441  1
  O  O48  1  0.914802  0.804265  0.289074  1
  O  O49  1  0.794187  0.313864  0.415171  1
  O  O50  1  0.484830  0.789083  0.374279  1
  O  O51  1  0.601309  0.980320  0.186125  1
  O  O52  1  0.898627  0.814789  0.013577  1
  O  O53  1  0.085148  0.907935  0.886224  1
  O  O54  1  0.108684  0.416819  0.598517  1
  O  O55  1  0.101304  0.915174  0.620988  1
  O  O56  1  0.681689  0.191863  0.083180  1
  O  O57  1  0.978287  0.386230  0.801079  1
  O  O58  1  0.585157  0.698927  0.177210  1
  O  O59  1  0.801211  0.486422  0.885047  1
  O  O60  1  0.691756  0.473206  0.103392  1
  O  O61  1  0.294179  0.879007  0.480323  1
  O  O62  1  0.515170  0.210917  0.625721  1
  O  O63  1  0.914852  0.092065  0.113776  1
  O  O64  1  0.521706  0.322794  0.407933  1
  O  O65  1  0.984824  0.610548  0.695742  1
  O  O66  1  0.391318  0.989837  0.308132  1
  O  O67  1  0.608682  0.010163  0.691868  1
  O  O68  1  0.181685  0.098521  0.489857  1
  O  O69  1  0.130178  0.718548  0.026786  1
  O  O70  1  0.398691  0.019680  0.813875  1
  O  O71  1  0.015176  0.389452  0.304258  1
  O  O72  1  0.585189  0.874282  0.889455  1
  O  O73  1  0.198789  0.513578  0.114953  1
  O  O74  1  0.308244  0.526794  0.896608  1
  O  O75  1  0.478294  0.677206  0.592067  1
  O  O76  1  0.705821  0.120993  0.519677  1
  O  O77  1  0.085198  0.195735  0.710926  1
  O  O78  1  0.369815  0.396604  0.588361  1
  O  O79  1  0.414843  0.301073  0.822790  1
