# generated using pymatgen
data_Li3V3O5F3
_symmetry_space_group_name_H-M   'P 1'
_cell_length_a   6.03176442
_cell_length_b   5.97065618
_cell_length_c   6.02746617
_cell_angle_alpha   60.61796926
_cell_angle_beta   61.17851538
_cell_angle_gamma   58.68102645
_symmetry_Int_Tables_number   1
_chemical_formula_structural   Li3V3O5F3
_chemical_formula_sum   'Li3 V3 O5 F3'
_cell_volume   153.88703171
_cell_formula_units_Z   1
loop_
 _symmetry_equiv_pos_site_id
 _symmetry_equiv_pos_as_xyz
  1  'x, y, z'
loop_
 _atom_site_type_symbol
 _atom_site_label
 _atom_site_symmetry_multiplicity
 _atom_site_fract_x
 _atom_site_fract_y
 _atom_site_fract_z
 _atom_site_occupancy
  Li  Li0  1  0.988401  0.977954  0.023556  1
  Li  Li1  1  0.252738  0.268889  0.232719  1
  Li  Li2  1  0.629266  0.621928  0.624079  1
  V  V3  1  0.642788  0.144025  0.604895  1
  V  V4  1  0.636090  0.620752  0.131490  1
  V  V5  1  0.123198  0.624516  0.624351  1
  O  O6  1  0.845473  0.378605  0.381231  1
  O  O7  1  0.393133  0.404249  0.369518  1
  O  O8  1  0.390279  0.360574  0.829667  1
  O  O9  1  0.846170  0.880434  0.428262  1
  O  O10  1  0.857543  0.856478  0.868744  1
  F  F11  1  0.372049  0.860647  0.383992  1
  F  F12  1  0.876408  0.387141  0.872308  1
  F  F13  1  0.396465  0.863808  0.875187  1
