# generated using pymatgen
data_BaLaI5
_symmetry_space_group_name_H-M   'P 1'
_cell_length_a   6.46101555
_cell_length_b   11.68581014
_cell_length_c   8.01315430
_cell_angle_alpha   88.76324382
_cell_angle_beta   93.92154234
_cell_angle_gamma   106.29176861
_symmetry_Int_Tables_number   1
_chemical_formula_structural   BaLaI5
_chemical_formula_sum   'Ba2 La2 I10'
_cell_volume   579.35545644
_cell_formula_units_Z   2
loop_
 _symmetry_equiv_pos_site_id
 _symmetry_equiv_pos_as_xyz
  1  'x, y, z'
loop_
 _atom_site_type_symbol
 _atom_site_label
 _atom_site_symmetry_multiplicity
 _atom_site_fract_x
 _atom_site_fract_y
 _atom_site_fract_z
 _atom_site_occupancy
  Ba  Ba0  1  0.322096  0.651375  0.246415  1
  Ba  Ba1  1  0.680080  0.347562  0.744865  1
  La  La2  1  0.078143  0.156371  0.251343  1
  La  La3  1  0.921540  0.843024  0.752483  1
  I  I4  1  0.211330  0.929743  0.104898  1
  I  I5  1  0.199268  0.383883  0.994000  1
  I  I6  1  0.368417  0.739274  0.756557  1
  I  I7  1  0.191407  0.385419  0.506702  1
  I  I8  1  0.282901  0.069993  0.603138  1
  I  I9  1  0.715912  0.930436  0.402086  1
  I  I10  1  0.810868  0.616974  0.492533  1
  I  I11  1  0.633436  0.260630  0.253057  1
  I  I12  1  0.802789  0.611937  0.004740  1
  I  I13  1  0.788766  0.069928  0.898781  1
