# generated using pymatgen
data_Li3V2(O2F)2
_symmetry_space_group_name_H-M   'P 1'
_cell_length_a   5.13181993
_cell_length_b   5.16864011
_cell_length_c   15.19859292
_cell_angle_alpha   79.65989274
_cell_angle_beta   79.40787081
_cell_angle_gamma   59.83267336
_symmetry_Int_Tables_number   1
_chemical_formula_structural   Li3V2(O2F)2
_chemical_formula_sum   'Li9 V6 O12 F6'
_cell_volume   340.79174147
_cell_formula_units_Z   3
loop_
 _symmetry_equiv_pos_site_id
 _symmetry_equiv_pos_as_xyz
  1  'x, y, z'
loop_
 _atom_site_type_symbol
 _atom_site_label
 _atom_site_symmetry_multiplicity
 _atom_site_fract_x
 _atom_site_fract_y
 _atom_site_fract_z
 _atom_site_occupancy
  Li  Li0  1  0.328841  0.323766  0.026224  1
  Li  Li1  1  0.629276  0.268563  0.166477  1
  Li  Li2  1  0.228526  0.563242  0.307255  1
  Li  Li3  1  0.259613  0.953659  0.166857  1
  Li  Li4  1  0.112591  0.777306  0.666588  1
  Li  Li5  1  0.660363  0.658980  0.026078  1
  Li  Li6  1  0.776298  0.444916  0.666746  1
  Li  Li7  1  0.944444  0.611111  0.166667  1
  Li  Li8  1  0.560048  0.898457  0.307109  1
  V  V9  1  0.167847  0.167424  0.497938  1
  V  V10  1  0.057496  0.382450  0.833865  1
  V  V11  1  0.501941  0.494668  0.499349  1
  V  V12  1  0.721042  0.054799  0.835395  1
  V  V13  1  0.386948  0.727555  0.833985  1
  V  V14  1  0.831393  0.839772  0.499469  1
  O  O15  1  0.060765  0.076955  0.760165  1
  O  O16  1  0.504419  0.189812  0.430718  1
  O  O17  1  0.384470  0.032410  0.902615  1
  O  O18  1  0.128528  0.483197  0.572424  1
  O  O19  1  0.199933  0.854448  0.431798  1
  O  O20  1  0.025871  0.696760  0.901410  1
  O  O21  1  0.419223  0.420881  0.761135  1
  O  O22  1  0.828124  0.145267  0.573168  1
  O  O23  1  0.863018  0.525462  0.431923  1
  O  O24  1  0.688956  0.367774  0.901535  1
  O  O25  1  0.469666  0.801341  0.572199  1
  O  O26  1  0.760361  0.739026  0.760909  1
  F  F27  1  0.273397  0.252769  0.245887  1
  F  F28  1  0.327950  0.613506  0.087009  1
  F  F29  1  0.560939  0.608716  0.246324  1
  F  F30  1  0.970575  0.324863  0.089905  1
  F  F31  1  0.615492  0.969453  0.087447  1
  F  F32  1  0.918314  0.897359  0.243429  1
