# generated using pymatgen
data_Li5Ti2Mn5O12
_symmetry_space_group_name_H-M   'P 1'
_cell_length_a   5.29735297
_cell_length_b   5.29735263
_cell_length_c   10.06315159
_cell_angle_alpha   85.12817594
_cell_angle_beta   94.87182534
_cell_angle_gamma   59.98190338
_symmetry_Int_Tables_number   1
_chemical_formula_structural   Li5Ti2Mn5O12
_chemical_formula_sum   'Li5 Ti2 Mn5 O12'
_cell_volume   240.95878556
_cell_formula_units_Z   1
loop_
 _symmetry_equiv_pos_site_id
 _symmetry_equiv_pos_as_xyz
  1  'x, y, z'
loop_
 _atom_site_type_symbol
 _atom_site_label
 _atom_site_symmetry_multiplicity
 _atom_site_fract_x
 _atom_site_fract_y
 _atom_site_fract_z
 _atom_site_occupancy
  Li  Li0  1  0.156639  0.663095  0.506626  1
  Li  Li1  1  0.335587  0.844363  0.992745  1
  Li  Li2  1  0.663095  0.156639  0.993374  1
  Li  Li3  1  0.844363  0.335587  0.507255  1
  Li  Li4  1  0.915242  0.915242  0.750000  1
  Ti  Ti5  1  0.242794  0.242794  0.750000  1
  Ti  Ti6  1  0.747283  0.747283  0.250000  1
  Mn  Mn7  1  0.080283  0.080283  0.250000  1
  Mn  Mn8  1  0.996275  0.514758  0.992055  1
  Mn  Mn9  1  0.514758  0.996275  0.507945  1
  Mn  Mn10  1  0.418468  0.418468  0.250000  1
  Mn  Mn11  1  0.575317  0.575317  0.750000  1
  O  O12  1  0.987775  0.212569  0.870828  1
  O  O13  1  0.212569  0.987775  0.629172  1
  O  O14  1  0.097556  0.403365  0.365190  1
  O  O15  1  0.403365  0.097556  0.134810  1
  O  O16  1  0.299760  0.517957  0.866489  1
  O  O17  1  0.517957  0.299760  0.633511  1
  O  O18  1  0.484801  0.711749  0.369844  1
  O  O19  1  0.711749  0.484801  0.130156  1
  O  O20  1  0.597605  0.889026  0.861719  1
  O  O21  1  0.889026  0.597605  0.638281  1
  O  O22  1  0.791106  0.016626  0.370969  1
  O  O23  1  0.016626  0.791106  0.129031  1
