# generated using pymatgen
data_CoTeO4
_symmetry_space_group_name_H-M   'P 1'
_cell_length_a   6.23527044
_cell_length_b   6.23527120
_cell_length_c   6.12897950
_cell_angle_alpha   119.63760828
_cell_angle_beta   119.63761031
_cell_angle_gamma   92.23858483
_symmetry_Int_Tables_number   1
_chemical_formula_structural   CoTeO4
_chemical_formula_sum   'Co2 Te2 O8'
_cell_volume   166.84881033
_cell_formula_units_Z   2
loop_
 _symmetry_equiv_pos_site_id
 _symmetry_equiv_pos_as_xyz
  1  'x, y, z'
loop_
 _atom_site_type_symbol
 _atom_site_label
 _atom_site_symmetry_multiplicity
 _atom_site_fract_x
 _atom_site_fract_y
 _atom_site_fract_z
 _atom_site_occupancy
  Co  Co0  1  0.000000  0.500000  0.000000  1
  Co  Co1  1  0.500000  0.000000  0.500000  1
  Te  Te2  1  0.000000  0.000000  0.500000  1
  Te  Te3  1  0.000000  0.000000  0.000000  1
  O  O4  1  0.211909  0.786905  0.023766  1
  O  O5  1  0.222532  0.220534  0.472954  1
  O  O6  1  0.213095  0.788091  0.476234  1
  O  O7  1  0.779466  0.777468  0.027046  1
  O  O8  1  0.220534  0.222532  0.972954  1
  O  O9  1  0.786905  0.211909  0.523766  1
  O  O10  1  0.777468  0.779466  0.527046  1
  O  O11  1  0.788091  0.213095  0.976234  1
