# generated using pymatgen
data_LiFe2(BO3)2
_symmetry_space_group_name_H-M   'P 1'
_cell_length_a   5.31617041
_cell_length_b   9.05907634
_cell_length_c   11.34559978
_cell_angle_alpha   114.21826844
_cell_angle_beta   77.58184162
_cell_angle_gamma   90.74538495
_symmetry_Int_Tables_number   1
_chemical_formula_structural   LiFe2(BO3)2
_chemical_formula_sum   'Li4 Fe8 B8 O24'
_cell_volume   484.91414424
_cell_formula_units_Z   4
loop_
 _symmetry_equiv_pos_site_id
 _symmetry_equiv_pos_as_xyz
  1  'x, y, z'
loop_
 _atom_site_type_symbol
 _atom_site_label
 _atom_site_symmetry_multiplicity
 _atom_site_fract_x
 _atom_site_fract_y
 _atom_site_fract_z
 _atom_site_occupancy
  Li  Li0  1  0.162899  0.167926  0.351056  1
  Li  Li1  1  0.355610  0.304152  0.601836  1
  Li  Li2  1  0.607963  0.042013  0.084344  1
  Li  Li3  1  0.110600  0.544275  0.092575  1
  Fe  Fe4  1  0.408500  0.262563  0.865886  1
  Fe  Fe5  1  0.095102  0.215410  0.116332  1
  Fe  Fe6  1  0.843896  0.145689  0.621822  1
  Fe  Fe7  1  0.653081  0.362342  0.374429  1
  Fe  Fe8  1  0.358099  0.663813  0.629426  1
  Fe  Fe9  1  0.148821  0.845672  0.368607  1
  Fe  Fe10  1  0.907412  0.763010  0.863837  1
  Fe  Fe11  1  0.606207  0.716492  0.121570  1
  B  B12  1  0.643490  0.020888  0.368226  1
  B  B13  1  0.893334  0.102877  0.874278  1
  B  B14  1  0.155455  0.510510  0.368706  1
  B  B15  1  0.397298  0.607518  0.878002  1
  B  B16  1  0.861691  0.474835  0.619620  1
  B  B17  1  0.605299  0.389620  0.121494  1
  B  B18  1  0.348371  0.986840  0.619017  1
  B  B19  1  0.100852  0.893624  0.127150  1
  O  O20  1  0.123619  0.147996  0.912678  1
  O  O21  1  0.438753  0.145909  0.665021  1
  O  O22  1  0.232705  0.031087  0.144698  1
  O  O23  1  0.520906  0.164825  0.383500  1
  O  O24  1  0.885953  0.022486  0.396200  1
  O  O25  1  0.772029  0.196334  0.828304  1
  O  O26  1  0.292144  0.469771  0.882022  1
  O  O27  1  0.029395  0.365521  0.335824  1
  O  O28  1  0.686137  0.280323  0.169564  1
  O  O29  1  0.625299  0.460599  0.579131  1
  O  O30  1  0.999058  0.338407  0.603354  1
  O  O31  1  0.376120  0.362396  0.075370  1
  O  O32  1  0.627550  0.650163  0.916698  1
  O  O33  1  0.372751  0.516494  0.418786  1
  O  O34  1  0.271469  0.707517  0.839931  1
  O  O35  1  0.953736  0.627235  0.670419  1
  O  O36  1  0.746417  0.514082  0.119252  1
  O  O37  1  0.192033  0.774649  0.160638  1
  O  O38  1  0.137641  0.969016  0.559354  1
  O  O39  1  0.464691  0.867796  0.632477  1
  O  O40  1  0.065627  0.635102  0.348539  1
  O  O41  1  0.780457  0.974395  0.891767  1
  O  O42  1  0.518184  0.880965  0.328004  1
  O  O43  1  0.873790  0.875287  0.082160  1
