# generated using pymatgen
data_NdO2
_symmetry_space_group_name_H-M   'P 1'
_cell_length_a   6.62589437
_cell_length_b   5.44452238
_cell_length_c   6.50624724
_cell_angle_alpha   89.70510924
_cell_angle_beta   109.29066603
_cell_angle_gamma   34.89373322
_symmetry_Int_Tables_number   1
_chemical_formula_structural   NdO2
_chemical_formula_sum   'Nd2 O4'
_cell_volume   108.90585413
_cell_formula_units_Z   2
loop_
 _symmetry_equiv_pos_site_id
 _symmetry_equiv_pos_as_xyz
  1  'x, y, z'
loop_
 _atom_site_type_symbol
 _atom_site_label
 _atom_site_symmetry_multiplicity
 _atom_site_fract_x
 _atom_site_fract_y
 _atom_site_fract_z
 _atom_site_occupancy
  Nd  Nd0  1  0.502735  0.501629  0.005311  1
  Nd  Nd1  1  0.503836  -0.002020  0.508079  1
  O  O2  1  0.180639  0.120844  0.684942  1
  O  O3  1  0.825945  0.882884  0.330510  1
  O  O4  1  0.179136  0.031142  0.180398  1
  O  O5  1  0.822953  0.981552  0.826418  1
