# generated using pymatgen
data_Mn6OF11
_symmetry_space_group_name_H-M   'P 1'
_cell_length_a   4.94266864
_cell_length_b   5.88019910
_cell_length_c   16.26292272
_cell_angle_alpha   90.00000000
_cell_angle_beta   89.70931873
_cell_angle_gamma   90.00000000
_symmetry_Int_Tables_number   1
_chemical_formula_structural   Mn6OF11
_chemical_formula_sum   'Mn12 O2 F22'
_cell_volume   472.65748133
_cell_formula_units_Z   2
loop_
 _symmetry_equiv_pos_site_id
 _symmetry_equiv_pos_as_xyz
  1  'x, y, z'
loop_
 _atom_site_type_symbol
 _atom_site_label
 _atom_site_symmetry_multiplicity
 _atom_site_fract_x
 _atom_site_fract_y
 _atom_site_fract_z
 _atom_site_occupancy
  Mn  Mn0  1  0.996888  0.170340  0.413825  1
  Mn  Mn1  1  0.011922  0.835264  0.244595  1
  Mn  Mn2  1  0.000000  0.208060  0.083333  1
  Mn  Mn3  1  0.003112  0.170340  0.752842  1
  Mn  Mn4  1  0.000000  0.830663  0.583333  1
  Mn  Mn5  1  0.988078  0.835264  0.922072  1
  Mn  Mn6  1  0.500000  0.330007  0.583333  1
  Mn  Mn7  1  0.514144  0.339004  0.924499  1
  Mn  Mn8  1  0.485856  0.339004  0.242168  1
  Mn  Mn9  1  0.500000  0.633339  0.083333  1
  Mn  Mn10  1  0.502281  0.667525  0.414595  1
  Mn  Mn11  1  0.497719  0.667525  0.752072  1
  O  O12  1  0.281377  0.399992  0.137027  1
  O  O13  1  0.718623  0.399992  0.029640  1
  F  F14  1  0.236074  0.106979  0.303776  1
  F  F15  1  0.229506  0.104699  0.641855  1
  F  F16  1  0.217598  0.114164  0.974059  1
  F  F17  1  0.248234  0.878868  0.131987  1
  F  F18  1  0.231666  0.895873  0.472949  1
  F  F19  1  0.220884  0.889845  0.809295  1
  F  F20  1  0.265582  0.605280  0.306579  1
  F  F21  1  0.267130  0.394560  0.473361  1
  F  F22  1  0.269250  0.603619  0.642123  1
  F  F23  1  0.285665  0.383158  0.813434  1
  F  F24  1  0.270186  0.609792  0.970083  1
  F  F25  1  0.729814  0.609792  0.196584  1
  F  F26  1  0.714335  0.383158  0.353232  1
  F  F27  1  0.730750  0.603619  0.524544  1
  F  F28  1  0.734418  0.605280  0.860088  1
  F  F29  1  0.732870  0.394560  0.693306  1
  F  F30  1  0.782402  0.114164  0.192608  1
  F  F31  1  0.770494  0.104699  0.524812  1
  F  F32  1  0.779116  0.889845  0.357371  1
  F  F33  1  0.751766  0.878868  0.034679  1
  F  F34  1  0.763926  0.106979  0.862891  1
  F  F35  1  0.768334  0.895873  0.693717  1
