# generated using pymatgen
data_LiVP3H8O13
_symmetry_space_group_name_H-M   'P 1'
_cell_length_a   7.75698355
_cell_length_b   10.02503893
_cell_length_c   7.09546335
_cell_angle_alpha   105.01852106
_cell_angle_beta   102.00232846
_cell_angle_gamma   83.71852441
_symmetry_Int_Tables_number   1
_chemical_formula_structural   LiVP3H8O13
_chemical_formula_sum   'Li2 V2 P6 H16 O26'
_cell_volume   520.37335332
_cell_formula_units_Z   2
loop_
 _symmetry_equiv_pos_site_id
 _symmetry_equiv_pos_as_xyz
  1  'x, y, z'
loop_
 _atom_site_type_symbol
 _atom_site_label
 _atom_site_symmetry_multiplicity
 _atom_site_fract_x
 _atom_site_fract_y
 _atom_site_fract_z
 _atom_site_occupancy
  Li  Li0  1  0.000000  0.000000  0.000000  1
  Li  Li1  1  0.500000  0.500000  0.000000  1
  V  V2  1  0.172970  0.223073  0.800989  1
  V  V3  1  0.827030  0.776927  0.199011  1
  P  P4  1  0.197692  0.258121  0.326929  1
  P  P5  1  0.196155  0.524461  0.240921  1
  P  P6  1  0.540821  0.269867  0.595371  1
  P  P7  1  0.459179  0.730133  0.404629  1
  P  P8  1  0.803845  0.475539  0.759079  1
  P  P9  1  0.802308  0.741879  0.673071  1
  H  H10  1  0.017781  0.031740  0.358500  1
  H  H11  1  0.184234  0.568947  0.819627  1
  H  H12  1  0.142243  0.898024  0.312813  1
  H  H13  1  0.259741  0.795031  0.920223  1
  H  H14  1  0.305129  0.602313  0.689880  1
  H  H15  1  0.337705  0.987945  0.856477  1
  H  H16  1  0.375226  0.994447  0.649060  1
  H  H17  1  0.341203  0.913533  0.098761  1
  H  H18  1  0.658797  0.086467  0.901239  1
  H  H19  1  0.624774  0.005553  0.350940  1
  H  H20  1  0.662295  0.012055  0.143523  1
  H  H21  1  0.694871  0.397687  0.310120  1
  H  H22  1  0.740259  0.204969  0.079777  1
  H  H23  1  0.857757  0.101976  0.687187  1
  H  H24  1  0.815766  0.431053  0.180373  1
  H  H25  1  0.982219  0.968260  0.641500  1
  O  O26  1  0.125765  0.206644  0.475228  1
  O  O27  1  0.019211  0.937097  0.272188  1
  O  O28  1  0.040324  0.619212  0.194389  1
  O  O29  1  0.141620  0.422877  0.362701  1
  O  O30  1  0.147236  0.187705  0.110680  1
  O  O31  1  0.252669  0.897656  0.975491  1
  O  O32  1  0.284308  0.622332  0.826243  1
  O  O33  1  0.372915  0.052416  0.785124  1
  O  O34  1  0.440134  0.326940  0.760865  1
  O  O35  1  0.290645  0.440991  0.081308  1
  O  O36  1  0.340950  0.610296  0.423098  1
  O  O37  1  0.411369  0.252807  0.380429  1
  O  O38  1  0.347318  0.863189  0.412965  1
  O  O39  1  0.652682  0.136811  0.587035  1
  O  O40  1  0.588631  0.747193  0.619571  1
  O  O41  1  0.659050  0.389704  0.576902  1
  O  O42  1  0.709355  0.559009  0.918692  1
  O  O43  1  0.559866  0.673060  0.239135  1
  O  O44  1  0.627085  0.947584  0.214876  1
  O  O45  1  0.715692  0.377668  0.173757  1
  O  O46  1  0.747331  0.102344  0.024509  1
  O  O47  1  0.852764  0.812295  0.889320  1
  O  O48  1  0.858380  0.577123  0.637299  1
  O  O49  1  0.959676  0.380788  0.805611  1
  O  O50  1  0.980789  0.062903  0.727812  1
  O  O51  1  0.874235  0.793356  0.524772  1
