# generated using pymatgen
data_V3Sb(PO4)6
_symmetry_space_group_name_H-M   'P 1'
_cell_length_a   8.77827643
_cell_length_b   8.77827682
_cell_length_c   8.77827716
_cell_angle_alpha   58.48146727
_cell_angle_beta   58.48146266
_cell_angle_gamma   58.48146517
_symmetry_Int_Tables_number   1
_chemical_formula_structural   V3Sb(PO4)6
_chemical_formula_sum   'V3 Sb1 P6 O24'
_cell_volume   461.69640638
_cell_formula_units_Z   1
loop_
 _symmetry_equiv_pos_site_id
 _symmetry_equiv_pos_as_xyz
  1  'x, y, z'
loop_
 _atom_site_type_symbol
 _atom_site_label
 _atom_site_symmetry_multiplicity
 _atom_site_fract_x
 _atom_site_fract_y
 _atom_site_fract_z
 _atom_site_occupancy
  V  V0  1  0.141953  0.141953  0.141953  1
  V  V1  1  0.358506  0.358506  0.358506  1
  V  V2  1  0.640723  0.640723  0.640723  1
  Sb  Sb3  1  0.857502  0.857502  0.857502  1
  P  P4  1  0.033468  0.750518  0.460882  1
  P  P5  1  0.460882  0.033468  0.750518  1
  P  P6  1  0.750518  0.460882  0.033468  1
  P  P7  1  0.252663  0.531469  0.966179  1
  P  P8  1  0.531469  0.966179  0.252663  1
  P  P9  1  0.966179  0.252663  0.531469  1
  O  O10  1  0.140256  0.283112  0.500495  1
  O  O11  1  0.283112  0.500495  0.140256  1
  O  O12  1  0.061439  0.924762  0.283750  1
  O  O13  1  0.500495  0.140256  0.283112  1
  O  O14  1  0.216360  0.574477  0.431414  1
  O  O15  1  0.020154  0.768210  0.636503  1
  O  O16  1  0.283750  0.061439  0.924762  1
  O  O17  1  0.431414  0.216360  0.574477  1
  O  O18  1  0.574477  0.431414  0.216360  1
  O  O19  1  0.217313  0.364179  0.994211  1
  O  O20  1  0.076855  0.718588  0.945352  1
  O  O21  1  0.364179  0.994211  0.217313  1
  O  O22  1  0.636503  0.020154  0.768210  1
  O  O23  1  0.924762  0.283750  0.061439  1
  O  O24  1  0.768210  0.636503  0.020154  1
  O  O25  1  0.424813  0.559386  0.786121  1
  O  O26  1  0.559386  0.786121  0.424813  1
  O  O27  1  0.718588  0.945352  0.076855  1
  O  O28  1  0.994211  0.217313  0.364179  1
  O  O29  1  0.786121  0.424813  0.559386  1
  O  O30  1  0.494983  0.859926  0.723475  1
  O  O31  1  0.945352  0.076855  0.718588  1
  O  O32  1  0.723475  0.494983  0.859926  1
  O  O33  1  0.859926  0.723475  0.494983  1
