# generated using pymatgen
data_U(MoO4)2
_symmetry_space_group_name_H-M   'P 1'
_cell_length_a   17.73976247
_cell_length_b   17.73976202
_cell_length_c   6.21900047
_cell_angle_alpha   90.00000000
_cell_angle_beta   90.00000000
_cell_angle_gamma   120.00000086
_symmetry_Int_Tables_number   1
_chemical_formula_structural   U(MoO4)2
_chemical_formula_sum   'U9 Mo18 O72'
_cell_volume   1694.91064528
_cell_formula_units_Z   9
loop_
 _symmetry_equiv_pos_site_id
 _symmetry_equiv_pos_as_xyz
  1  'x, y, z'
loop_
 _atom_site_type_symbol
 _atom_site_label
 _atom_site_symmetry_multiplicity
 _atom_site_fract_x
 _atom_site_fract_y
 _atom_site_fract_z
 _atom_site_occupancy
  U  U0  1  0.000796  0.666909  0.750418  1
  U  U1  1  0.333333  0.666667  0.009966  1
  U  U2  1  0.998015  0.330676  0.261186  1
  U  U3  1  0.332661  0.001985  0.261186  1
  U  U4  1  0.666113  0.999204  0.750418  1
  U  U5  1  0.669324  0.667339  0.261186  1
  U  U6  1  0.666667  0.333333  0.004872  1
  U  U7  1  0.000000  0.000000  0.528807  1
  U  U8  1  0.333091  0.333887  0.750418  1
  Mo  Mo9  1  0.598745  0.104608  0.250900  1
  Mo  Mo10  1  0.171840  0.737688  0.253151  1
  Mo  Mo11  1  0.227437  0.162716  0.254504  1
  Mo  Mo12  1  0.935279  0.772563  0.254504  1
  Mo  Mo13  1  0.161404  0.935913  0.751219  1
  Mo  Mo14  1  0.262312  0.434153  0.253151  1
  Mo  Mo15  1  0.064087  0.225490  0.751219  1
  Mo  Mo16  1  0.826955  0.263804  0.761858  1
  Mo  Mo17  1  0.565847  0.828160  0.253151  1
  Mo  Mo18  1  0.736196  0.563151  0.761858  1
  Mo  Mo19  1  0.398199  0.894879  0.766633  1
  Mo  Mo20  1  0.436849  0.173045  0.761858  1
  Mo  Mo21  1  0.895392  0.494138  0.250900  1
  Mo  Mo22  1  0.774510  0.838596  0.751219  1
  Mo  Mo23  1  0.105121  0.503320  0.766633  1
  Mo  Mo24  1  0.837284  0.064721  0.254504  1
  Mo  Mo25  1  0.505862  0.401255  0.250900  1
  Mo  Mo26  1  0.496680  0.601801  0.766633  1
  O  O27  1  0.083721  0.440372  0.525413  1
  O  O28  1  0.178337  0.293272  0.732205  1
  O  O29  1  0.356651  0.916279  0.525413  1
  O  O30  1  0.264999  0.244193  0.460544  1
  O  O31  1  0.419121  0.109652  0.522167  1
  O  O32  1  0.783484  0.149370  0.759478  1
  O  O33  1  0.708511  0.448365  0.797690  1
  O  O34  1  0.550346  0.515636  0.251932  1
  O  O35  1  0.314018  0.423235  0.489558  1
  O  O36  1  0.431865  0.354614  0.029757  1
  O  O37  1  0.484364  0.034710  0.251932  1
  O  O38  1  0.979194  0.735001  0.460544  1
  O  O39  1  0.890348  0.309469  0.522167  1
  O  O40  1  0.300231  0.400466  0.025925  1
  O  O41  1  0.113812  0.078877  0.326754  1
  O  O42  1  0.366437  0.778882  0.800930  1
  O  O43  1  0.593847  0.374889  0.213005  1
  O  O44  1  0.039739  0.552963  0.772080  1
  O  O45  1  0.635717  0.783863  0.271756  1
  O  O46  1  0.898300  0.308757  0.987026  1
  O  O47  1  0.352416  0.922315  0.988796  1
  O  O48  1  0.446393  0.358316  0.495832  1
  O  O49  1  0.559628  0.643349  0.525413  1
  O  O50  1  0.820827  0.702923  0.249385  1
  O  O51  1  0.229875  0.984829  0.521142  1
  O  O52  1  0.513225  0.960261  0.772080  1
  O  O53  1  0.109217  0.685982  0.489558  1
  O  O54  1  0.216137  0.851854  0.271756  1
  O  O55  1  0.236139  0.215368  0.003659  1
  O  O56  1  0.641684  0.088076  0.495832  1
  O  O57  1  0.034114  0.109455  0.746208  1
  O  O58  1  0.882096  0.179173  0.249385  1
  O  O59  1  0.412445  0.633563  0.800930  1
  O  O60  1  0.226995  0.976967  0.987770  1
  O  O61  1  0.890545  0.924659  0.746208  1
  O  O62  1  0.691243  0.589543  0.987026  1
  O  O63  1  0.075341  0.965886  0.746208  1
  O  O64  1  0.690531  0.580879  0.522167  1
  O  O65  1  0.258048  0.709204  0.207900  1
  O  O66  1  0.297077  0.117904  0.249385  1
  O  O67  1  0.749971  0.773005  0.987770  1
  O  O68  1  0.569899  0.647584  0.988796  1
  O  O69  1  0.077685  0.430101  0.988796  1
  O  O70  1  0.784632  0.020771  0.003659  1
  O  O71  1  0.290796  0.548844  0.207900  1
  O  O72  1  0.921123  0.034935  0.326754  1
  O  O73  1  0.148146  0.364283  0.271756  1
  O  O74  1  0.100235  0.699769  0.025925  1
  O  O75  1  0.551635  0.260146  0.797690  1
  O  O76  1  0.706727  0.885064  0.732205  1
  O  O77  1  0.645386  0.077251  0.029757  1
  O  O78  1  0.979229  0.763861  0.003659  1
  O  O79  1  0.015171  0.245045  0.521142  1
  O  O80  1  0.023033  0.250029  0.987770  1
  O  O81  1  0.599534  0.899765  0.025925  1
  O  O82  1  0.221118  0.587555  0.800930  1
  O  O83  1  0.781042  0.406153  0.213005  1
  O  O84  1  0.922749  0.568135  0.029757  1
  O  O85  1  0.576765  0.890783  0.489558  1
  O  O86  1  0.625111  0.218958  0.213005  1
  O  O87  1  0.365886  0.216516  0.759478  1
  O  O88  1  0.739854  0.291489  0.797690  1
  O  O89  1  0.447037  0.486775  0.772080  1
  O  O90  1  0.755807  0.020806  0.460544  1
  O  O91  1  0.965290  0.449654  0.251932  1
  O  O92  1  0.114936  0.821663  0.732205  1
  O  O93  1  0.965065  0.886188  0.326754  1
  O  O94  1  0.451156  0.741952  0.207900  1
  O  O95  1  0.754955  0.770125  0.521142  1
  O  O96  1  0.911924  0.553607  0.495832  1
  O  O97  1  0.410457  0.101700  0.987026  1
  O  O98  1  0.850630  0.634114  0.759478  1
