# generated using pymatgen
data_Mn(NO3)4
_symmetry_space_group_name_H-M   'P 1'
_cell_length_a   7.68324130
_cell_length_b   11.87558094
_cell_length_c   12.79824545
_cell_angle_alpha   99.92595016
_cell_angle_beta   94.31987705
_cell_angle_gamma   106.08097101
_symmetry_Int_Tables_number   1
_chemical_formula_structural   Mn(NO3)4
_chemical_formula_sum   'Mn4 N16 O48'
_cell_volume   1095.87780490
_cell_formula_units_Z   4
loop_
 _symmetry_equiv_pos_site_id
 _symmetry_equiv_pos_as_xyz
  1  'x, y, z'
loop_
 _atom_site_type_symbol
 _atom_site_label
 _atom_site_symmetry_multiplicity
 _atom_site_fract_x
 _atom_site_fract_y
 _atom_site_fract_z
 _atom_site_occupancy
  Mn  Mn0  1  0.097099  0.798869  0.730225  1
  Mn  Mn1  1  0.457307  0.675251  0.244259  1
  Mn  Mn2  1  0.542693  0.324749  0.755741  1
  Mn  Mn3  1  0.902901  0.201131  0.269775  1
  N  N4  1  0.114669  0.664453  0.869367  1
  N  N5  1  0.205704  0.597635  0.368247  1
  N  N6  1  0.428436  0.873984  0.698913  1
  N  N7  1  0.047926  0.016082  0.782378  1
  N  N8  1  0.425969  0.819474  0.114689  1
  N  N9  1  0.233931  0.298093  0.367398  1
  N  N10  1  0.307344  0.178014  0.603111  1
  N  N11  1  0.397500  0.471546  0.116511  1
  N  N12  1  0.602500  0.528454  0.883489  1
  N  N13  1  0.692656  0.821986  0.396889  1
  N  N14  1  0.766069  0.701907  0.632602  1
  N  N15  1  0.574031  0.180526  0.885311  1
  N  N16  1  0.952074  0.983918  0.217622  1
  N  N17  1  0.571564  0.126016  0.301087  1
  N  N18  1  0.794296  0.402365  0.631753  1
  N  N19  1  0.885331  0.335547  0.130633  1
  O  O20  1  0.063915  0.970855  0.862084  1
  O  O21  1  0.069164  0.949668  0.690159  1
  O  O22  1  0.066671  0.756967  0.899638  1
  O  O23  1  0.133987  0.646053  0.765521  1
  O  O24  1  0.143589  0.596541  0.924431  1
  O  O25  1  0.120345  0.556195  0.435757  1
  O  O26  1  0.161301  0.659456  0.307176  1
  O  O27  1  0.290178  0.806022  0.628035  1
  O  O28  1  0.016534  0.110270  0.779340  1
  O  O29  1  0.382734  0.896312  0.792908  1
  O  O30  1  0.075376  0.291977  0.403067  1
  O  O31  1  0.299371  0.793110  0.171245  1
  O  O32  1  0.435033  0.880285  0.047356  1
  O  O33  1  0.267822  0.518818  0.121736  1
  O  O34  1  0.366683  0.577591  0.354253  1
  O  O35  1  0.218867  0.257954  0.267549  1
  O  O36  1  0.184724  0.119416  0.533323  1
  O  O37  1  0.580156  0.910894  0.674889  1
  O  O38  1  0.290971  0.271447  0.669293  1
  O  O39  1  0.538932  0.841079  0.378324  1
  O  O40  1  0.449691  0.460724  0.823496  1
  O  O41  1  0.375146  0.338442  0.428463  1
  O  O42  1  0.560435  0.771929  0.135725  1
  O  O43  1  0.389305  0.374795  0.063547  1
  O  O44  1  0.610695  0.625205  0.936453  1
  O  O45  1  0.439565  0.228071  0.864275  1
  O  O46  1  0.624854  0.661558  0.571537  1
  O  O47  1  0.550309  0.539276  0.176504  1
  O  O48  1  0.461068  0.158921  0.621676  1
  O  O49  1  0.709029  0.728553  0.330707  1
  O  O50  1  0.419844  0.089106  0.325111  1
  O  O51  1  0.815276  0.880584  0.466677  1
  O  O52  1  0.781133  0.742046  0.732451  1
  O  O53  1  0.633317  0.422409  0.645747  1
  O  O54  1  0.732178  0.481182  0.878264  1
  O  O55  1  0.564967  0.119715  0.952644  1
  O  O56  1  0.700629  0.206890  0.828755  1
  O  O57  1  0.924624  0.708023  0.596933  1
  O  O58  1  0.617266  0.103688  0.207092  1
  O  O59  1  0.983466  0.889730  0.220660  1
  O  O60  1  0.709822  0.193978  0.371965  1
  O  O61  1  0.838699  0.340544  0.692824  1
  O  O62  1  0.879655  0.443805  0.564243  1
  O  O63  1  0.856411  0.403459  0.075569  1
  O  O64  1  0.866013  0.353947  0.234479  1
  O  O65  1  0.933329  0.243033  0.100362  1
  O  O66  1  0.930836  0.050332  0.309841  1
  O  O67  1  0.936085  0.029145  0.137916  1
