# generated using pymatgen
data_LiVP2HO8
_symmetry_space_group_name_H-M   'P 1'
_cell_length_a   9.71584416
_cell_length_b   7.98374682
_cell_length_c   7.47448618
_cell_angle_alpha   90.04382579
_cell_angle_beta   105.46432270
_cell_angle_gamma   90.04069315
_symmetry_Int_Tables_number   1
_chemical_formula_structural   LiVP2HO8
_chemical_formula_sum   'Li4 V4 P8 H4 O32'
_cell_volume   558.79658076
_cell_formula_units_Z   4
loop_
 _symmetry_equiv_pos_site_id
 _symmetry_equiv_pos_as_xyz
  1  'x, y, z'
loop_
 _atom_site_type_symbol
 _atom_site_label
 _atom_site_symmetry_multiplicity
 _atom_site_fract_x
 _atom_site_fract_y
 _atom_site_fract_z
 _atom_site_occupancy
  Li  Li0  1  0.202532  0.869043  0.856349  1
  Li  Li1  1  0.453952  0.630916  0.354439  1
  Li  Li2  1  0.791297  0.130233  0.142779  1
  Li  Li3  1  0.953236  0.631405  0.352183  1
  V  V4  1  0.246324  0.490470  0.999724  1
  V  V5  1  0.498533  0.005953  0.499996  1
  V  V6  1  0.746240  0.503198  0.989836  1
  V  V7  1  0.999140  0.005881  0.500625  1
  P  P8  1  0.065414  0.350121  0.266574  1
  P  P9  1  0.185860  0.848434  0.232831  1
  P  P10  1  0.317035  0.155216  0.763794  1
  P  P11  1  0.433766  0.657336  0.735866  1
  P  P12  1  0.567540  0.347434  0.267493  1
  P  P13  1  0.682671  0.848004  0.230759  1
  P  P14  1  0.812920  0.154301  0.761914  1
  P  P15  1  0.935976  0.652215  0.735672  1
  H  H16  1  0.259737  0.503787  0.508258  1
  H  H17  1  0.487538  0.006798  0.991676  1
  H  H18  1  0.750019  0.502294  0.499291  1
  H  H19  1  0.986218  0.005792  0.990022  1
  O  O20  1  0.069908  0.555241  0.854202  1
  O  O21  1  0.011473  0.176583  0.312571  1
  O  O22  1  0.079632  0.829165  0.355770  1
  O  O23  1  0.129359  0.453516  0.440203  1
  O  O24  1  0.181378  0.052995  0.653951  1
  O  O25  1  0.272299  0.326652  0.818081  1
  O  O26  1  0.117795  0.937981  0.051379  1
  O  O27  1  0.164576  0.327763  0.137129  1
  O  O28  1  0.327346  0.672921  0.855796  1
  O  O29  1  0.375636  0.044782  0.937835  1
  O  O30  1  0.244256  0.676092  0.190828  1
  O  O31  1  0.317941  0.948147  0.351561  1
  O  O32  1  0.371179  0.556875  0.555293  1
  O  O33  1  0.417449  0.172521  0.637603  1
  O  O34  1  0.482649  0.827500  0.682294  1
  O  O35  1  0.566150  0.558231  0.854007  1
  O  O36  1  0.432525  0.448526  0.156492  1
  O  O37  1  0.522426  0.174392  0.318833  1
  O  O38  1  0.578990  0.825844  0.355173  1
  O  O39  1  0.630940  0.456748  0.439089  1
  O  O40  1  0.679809  0.054860  0.651094  1
  O  O41  1  0.767926  0.327084  0.815707  1
  O  O42  1  0.622969  0.955681  0.060218  1
  O  O43  1  0.669312  0.327683  0.139850  1
  O  O44  1  0.832403  0.669257  0.858610  1
  O  O45  1  0.879096  0.059878  0.946877  1
  O  O46  1  0.740764  0.677780  0.186902  1
  O  O47  1  0.817493  0.949230  0.350147  1
  O  O48  1  0.871362  0.559541  0.553097  1
  O  O49  1  0.917284  0.167952  0.639838  1
  O  O50  1  0.992428  0.823622  0.688402  1
  O  O51  1  0.929393  0.450103  0.154945  1
