# generated using pymatgen
data_Li2VCrP2(O4F)2
_symmetry_space_group_name_H-M   'P 1'
_cell_length_a   5.22209072
_cell_length_b   14.98287337
_cell_length_c   7.34278546
_cell_angle_alpha   93.88279553
_cell_angle_beta   71.41544517
_cell_angle_gamma   87.39640357
_symmetry_Int_Tables_number   1
_chemical_formula_structural   Li2VCrP2(O4F)2
_chemical_formula_sum   'Li6 V3 Cr3 P6 O24 F6'
_cell_volume   541.93977138
_cell_formula_units_Z   3
loop_
 _symmetry_equiv_pos_site_id
 _symmetry_equiv_pos_as_xyz
  1  'x, y, z'
loop_
 _atom_site_type_symbol
 _atom_site_label
 _atom_site_symmetry_multiplicity
 _atom_site_fract_x
 _atom_site_fract_y
 _atom_site_fract_z
 _atom_site_occupancy
  Li  Li0  1  0.064246  0.204634  0.016614  1
  Li  Li1  1  0.269047  0.461452  0.649377  1
  Li  Li2  1  0.602421  0.128699  0.316719  1
  Li  Li3  1  0.397620  0.871882  0.683956  1
  Li  Li4  1  0.731704  0.538206  0.349041  1
  Li  Li5  1  0.934962  0.795127  0.984293  1
  V  V6  1  0.999875  -0.000109  0.499736  1
  V  V7  1  0.333333  0.666667  0.666667  1
  V  V8  1  0.666792  0.333442  0.833597  1
  Cr  Cr9  1  0.999628  0.999770  0.000172  1
  Cr  Cr10  1  0.333333  0.666667  0.166667  1
  Cr  Cr11  1  0.667038  0.333563  0.333162  1
  P  P12  1  0.110301  0.214257  0.450563  1
  P  P13  1  0.223897  0.453012  0.215632  1
  P  P14  1  0.442770  0.880321  0.117702  1
  P  P15  1  0.556366  0.119076  0.882770  1
  P  P16  1  0.775533  0.546918  0.785721  1
  P  P17  1  0.891134  0.786415  0.547612  1
  O  O18  1  0.009830  0.737595  0.345948  1
  O  O19  1  0.139243  0.553412  0.210695  1
  O  O20  1  0.236940  0.888453  0.001625  1
  O  O21  1  0.342828  0.404492  0.012866  1
  O  O22  1  0.193397  0.114037  0.457823  1
  O  O23  1  0.047675  0.583912  0.669291  1
  O  O24  1  0.092867  0.778619  0.666769  1
  O  O25  1  0.381788  0.250875  0.334119  1
  O  O26  1  0.323838  0.928841  0.320467  1
  O  O27  1  0.429727  0.444881  0.331708  1
  O  O28  1  0.527424  0.779922  0.122638  1
  O  O29  1  0.284878  0.082458  0.999214  1
  O  O30  1  0.714214  0.917210  0.001622  1
  O  O31  1  0.473269  0.219297  0.875510  1
  O  O32  1  0.573800  0.554714  0.666564  1
  O  O33  1  0.675587  0.071035  0.679562  1
  O  O34  1  0.618992  0.749422  0.664042  1
  O  O35  1  0.903947  0.222007  0.334962  1
  O  O36  1  0.952452  0.416123  0.331711  1
  O  O37  1  0.805063  0.886296  0.541400  1
  O  O38  1  0.656836  0.595738  0.987385  1
  O  O39  1  0.762720  0.111327  0.998372  1
  O  O40  1  0.861604  0.447038  0.791933  1
  O  O41  1  0.991079  0.262299  0.653771  1
  F  F42  1  0.152964  0.976238  0.717139  1
  F  F43  1  0.180849  0.690273  0.958201  1
  F  F44  1  0.485818  0.643060  0.375134  1
  F  F45  1  0.513703  0.357095  0.616195  1
  F  F46  1  0.820225  0.309499  0.050451  1
  F  F47  1  0.846442  0.023834  0.282883  1
