# generated using pymatgen
data_Fe4O7F
_symmetry_space_group_name_H-M   'P 1'
_cell_length_a   6.02905827
_cell_length_b   6.63558380
_cell_length_c   7.08957585
_cell_angle_alpha   90.00000000
_cell_angle_beta   115.16369386
_cell_angle_gamma   90.00000000
_symmetry_Int_Tables_number   1
_chemical_formula_structural   Fe4O7F
_chemical_formula_sum   'Fe8 O14 F2'
_cell_volume   256.71062271
_cell_formula_units_Z   2
loop_
 _symmetry_equiv_pos_site_id
 _symmetry_equiv_pos_as_xyz
  1  'x, y, z'
loop_
 _atom_site_type_symbol
 _atom_site_label
 _atom_site_symmetry_multiplicity
 _atom_site_fract_x
 _atom_site_fract_y
 _atom_site_fract_z
 _atom_site_occupancy
  Fe  Fe0  1  0.500657  0.020619  0.001315  1
  Fe  Fe1  1  0.999389  0.993301  0.998778  1
  Fe  Fe2  1  0.759416  0.492172  0.999841  1
  Fe  Fe3  1  0.240425  0.492172  0.999841  1
  Fe  Fe4  1  0.490584  0.992172  0.500159  1
  Fe  Fe5  1  0.009575  0.992172  0.500159  1
  Fe  Fe6  1  0.749343  0.520619  0.498685  1
  Fe  Fe7  1  0.250611  0.493301  0.501222  1
  O  O8  1  0.344328  0.999208  0.193580  1
  O  O9  1  0.849252  0.999208  0.193580  1
  O  O10  1  0.500957  0.317432  0.001914  1
  O  O11  1  0.999057  0.296942  0.998114  1
  O  O12  1  0.251667  0.187759  0.503333  1
  O  O13  1  0.998333  0.687759  0.996667  1
  O  O14  1  0.654644  0.999704  0.806582  1
  O  O15  1  0.151938  0.999704  0.806582  1
  O  O16  1  0.400748  0.499208  0.306420  1
  O  O17  1  0.905672  0.499208  0.306420  1
  O  O18  1  0.098062  0.499704  0.693418  1
  O  O19  1  0.595356  0.499704  0.693418  1
  O  O20  1  0.749043  0.817432  0.498086  1
  O  O21  1  0.250943  0.796942  0.501886  1
  F  F22  1  0.501029  0.701779  0.002058  1
  F  F23  1  0.748971  0.201779  0.497942  1
