# generated using pymatgen
data_Co2H21S3(NO2)6
_symmetry_space_group_name_H-M   'P 1'
_cell_length_a   11.32299539
_cell_length_b   10.03246202
_cell_length_c   15.90045525
_cell_angle_alpha   90.00000000
_cell_angle_beta   117.35206244
_cell_angle_gamma   90.00000000
_symmetry_Int_Tables_number   1
_chemical_formula_structural   Co2H21S3(NO2)6
_chemical_formula_sum   'Co8 H84 S12 N24 O48'
_cell_volume   1604.31349212
_cell_formula_units_Z   4
loop_
 _symmetry_equiv_pos_site_id
 _symmetry_equiv_pos_as_xyz
  1  'x, y, z'
loop_
 _atom_site_type_symbol
 _atom_site_label
 _atom_site_symmetry_multiplicity
 _atom_site_fract_x
 _atom_site_fract_y
 _atom_site_fract_z
 _atom_site_occupancy
  Co  Co0  1  0.265344  0.458492  0.758268  1
  Co  Co1  1  0.734656  0.958492  0.741732  1
  Co  Co2  1  0.734656  0.541508  0.241732  1
  Co  Co3  1  0.265344  0.041508  0.258268  1
  Co  Co4  1  0.995336  0.461555  0.674936  1
  Co  Co5  1  0.004664  0.961555  0.825064  1
  Co  Co6  1  0.004664  0.538445  0.325064  1
  Co  Co7  1  0.995336  0.038445  0.174936  1
  H  H8  1  0.124592  0.376738  0.858557  1
  H  H9  1  0.875408  0.876738  0.641443  1
  H  H10  1  0.875408  0.623262  0.141443  1
  H  H11  1  0.124592  0.123262  0.358557  1
  H  H12  1  0.125661  0.656717  0.694800  1
  H  H13  1  0.874339  0.156717  0.805200  1
  H  H14  1  0.874339  0.343283  0.305200  1
  H  H15  1  0.125661  0.843283  0.194800  1
  H  H16  1  0.134867  0.328027  0.613897  1
  H  H17  1  0.865133  0.828027  0.886103  1
  H  H18  1  0.865133  0.671973  0.386103  1
  H  H19  1  0.134867  0.171973  0.113897  1
  H  H20  1  0.363215  0.573873  0.658390  1
  H  H21  1  0.636785  0.073873  0.841610  1
  H  H22  1  0.636785  0.426127  0.341610  1
  H  H23  1  0.363215  0.926127  0.158390  1
  H  H24  1  0.385289  0.676656  0.748817  1
  H  H25  1  0.614711  0.176656  0.751183  1
  H  H26  1  0.614711  0.323344  0.251183  1
  H  H27  1  0.385289  0.823344  0.248817  1
  H  H28  1  0.487602  0.548191  0.762935  1
  H  H29  1  0.512398  0.048191  0.737065  1
  H  H30  1  0.512398  0.451809  0.237065  1
  H  H31  1  0.487602  0.951809  0.262935  1
  H  H32  1  0.373049  0.414945  0.938621  1
  H  H33  1  0.626951  0.914945  0.561379  1
  H  H34  1  0.626951  0.585055  0.061379  1
  H  H35  1  0.373049  0.085055  0.438621  1
  H  H36  1  0.353954  0.579618  0.918942  1
  H  H37  1  0.646046  0.079618  0.581058  1
  H  H38  1  0.646046  0.420382  0.081058  1
  H  H39  1  0.353954  0.920382  0.418942  1
  H  H40  1  0.476029  0.499524  0.910375  1
  H  H41  1  0.523971  0.999524  0.589625  1
  H  H42  1  0.523971  0.500476  0.089625  1
  H  H43  1  0.476029  0.000476  0.410375  1
  H  H44  1  0.472413  0.316643  0.811491  1
  H  H45  1  0.527587  0.816643  0.688509  1
  H  H46  1  0.527587  0.683357  0.188509  1
  H  H47  1  0.472413  0.183357  0.311491  1
  H  H48  1  0.364132  0.274283  0.700901  1
  H  H49  1  0.635868  0.774283  0.799099  1
  H  H50  1  0.635868  0.725717  0.299099  1
  H  H51  1  0.364132  0.225717  0.200901  1
  H  H52  1  0.348147  0.220410  0.795592  1
  H  H53  1  0.651853  0.720410  0.704408  1
  H  H54  1  0.651853  0.779590  0.204408  1
  H  H55  1  0.348147  0.279590  0.295592  1
  H  H56  1  0.920082  0.497139  0.800965  1
  H  H57  1  0.079918  0.997139  0.699035  1
  H  H58  1  0.079918  0.502861  0.199035  1
  H  H59  1  0.920082  0.002861  0.300965  1
  H  H60  1  0.789137  0.449098  0.703017  1
  H  H61  1  0.210863  0.949098  0.796983  1
  H  H62  1  0.210863  0.550902  0.296983  1
  H  H63  1  0.789137  0.050902  0.203017  1
  H  H64  1  0.839968  0.600649  0.711751  1
  H  H65  1  0.160032  0.100649  0.788249  1
  H  H66  1  0.160032  0.399351  0.288249  1
  H  H67  1  0.839968  0.899351  0.211751  1
  H  H68  1  0.912232  0.556840  0.519652  1
  H  H69  1  0.087768  0.056840  0.980348  1
  H  H70  1  0.087768  0.443160  0.480348  1
  H  H71  1  0.912232  0.943160  0.019652  1
  H  H72  1  0.928216  0.744841  0.212218  1
  H  H73  1  0.071784  0.244841  0.287782  1
  H  H74  1  0.071784  0.255159  0.787782  1
  H  H75  1  0.928216  0.755159  0.712218  1
  H  H76  1  0.809157  0.590009  0.560551  1
  H  H77  1  0.190843  0.090009  0.939449  1
  H  H78  1  0.190843  0.409991  0.439449  1
  H  H79  1  0.809157  0.909991  0.060551  1
  H  H80  1  0.869287  0.241832  0.642168  1
  H  H81  1  0.130713  0.741832  0.857832  1
  H  H82  1  0.130713  0.758168  0.357832  1
  H  H83  1  0.869287  0.258168  0.142168  1
  H  H84  1  0.913531  0.271958  0.557990  1
  H  H85  1  0.086469  0.771958  0.942010  1
  H  H86  1  0.086469  0.728042  0.442010  1
  H  H87  1  0.913531  0.228042  0.057990  1
  H  H88  1  0.785267  0.348940  0.558265  1
  H  H89  1  0.214733  0.848940  0.941735  1
  H  H90  1  0.214733  0.651060  0.441735  1
  H  H91  1  0.785267  0.151060  0.058265  1
  S  S92  1  0.470123  0.406365  0.521422  1
  S  S93  1  0.529877  0.906365  0.978578  1
  S  S94  1  0.529877  0.593635  0.478578  1
  S  S95  1  0.470123  0.093635  0.021422  1
  S  S96  1  0.210504  0.081403  0.548438  1
  S  S97  1  0.789496  0.581403  0.951562  1
  S  S98  1  0.789496  0.918597  0.451562  1
  S  S99  1  0.210504  0.418597  0.048438  1
  S  S100  1  0.268617  0.886053  0.617961  1
  S  S101  1  0.731383  0.386053  0.882039  1
  S  S102  1  0.731383  0.113947  0.382039  1
  S  S103  1  0.268617  0.613947  0.117961  1
  N  N104  1  0.390779  0.580650  0.729391  1
  N  N105  1  0.609221  0.080650  0.770609  1
  N  N106  1  0.609221  0.419350  0.270609  1
  N  N107  1  0.390779  0.919350  0.229391  1
  N  N108  1  0.378979  0.491850  0.898022  1
  N  N109  1  0.621021  0.991850  0.601978  1
  N  N110  1  0.621021  0.508150  0.101978  1
  N  N111  1  0.378979  0.008150  0.398022  1
  N  N112  1  0.373388  0.299653  0.766231  1
  N  N113  1  0.626612  0.799653  0.733769  1
  N  N114  1  0.626612  0.700347  0.233769  1
  N  N115  1  0.373388  0.200347  0.266231  1
  N  N116  1  0.874527  0.505445  0.728584  1
  N  N117  1  0.125473  0.005445  0.771416  1
  N  N118  1  0.125473  0.494555  0.271416  1
  N  N119  1  0.874527  0.994555  0.228584  1
  N  N120  1  0.908965  0.588293  0.579932  1
  N  N121  1  0.091035  0.088293  0.920068  1
  N  N122  1  0.091035  0.411707  0.420068  1
  N  N123  1  0.908965  0.911707  0.079932  1
  N  N124  1  0.879925  0.315818  0.601365  1
  N  N125  1  0.120075  0.815818  0.898635  1
  N  N126  1  0.120075  0.684182  0.398635  1
  N  N127  1  0.879925  0.184182  0.101365  1
  O  O128  1  0.111149  0.343164  0.793892  1
  O  O129  1  0.888851  0.843164  0.706108  1
  O  O130  1  0.888851  0.656836  0.206108  1
  O  O131  1  0.111149  0.156836  0.293892  1
  O  O132  1  0.135996  0.597172  0.747128  1
  O  O133  1  0.864004  0.097172  0.752872  1
  O  O134  1  0.864004  0.402828  0.252872  1
  O  O135  1  0.135996  0.902828  0.247128  1
  O  O136  1  0.131691  0.420102  0.635238  1
  O  O137  1  0.868309  0.920102  0.864762  1
  O  O138  1  0.868309  0.579898  0.364762  1
  O  O139  1  0.131691  0.079898  0.135238  1
  O  O140  1  0.150446  0.808620  0.600914  1
  O  O141  1  0.849554  0.308620  0.899086  1
  O  O142  1  0.849554  0.191380  0.399086  1
  O  O143  1  0.150446  0.691380  0.100914  1
  O  O144  1  0.347710  0.831048  0.573882  1
  O  O145  1  0.652290  0.331048  0.926118  1
  O  O146  1  0.652290  0.168952  0.426118  1
  O  O147  1  0.347710  0.668952  0.073882  1
  O  O148  1  0.350725  0.924629  0.717334  1
  O  O149  1  0.649275  0.424629  0.782666  1
  O  O150  1  0.649275  0.075371  0.282666  1
  O  O151  1  0.350725  0.575371  0.217334  1
  O  O152  1  0.341209  0.140643  0.573911  1
  O  O153  1  0.658791  0.640643  0.926089  1
  O  O154  1  0.658791  0.859357  0.426089  1
  O  O155  1  0.341209  0.359357  0.073911  1
  O  O156  1  0.134871  0.150556  0.589753  1
  O  O157  1  0.865129  0.650556  0.910247  1
  O  O158  1  0.865129  0.849444  0.410247  1
  O  O159  1  0.134871  0.349444  0.089753  1
  O  O160  1  0.133515  0.050277  0.446577  1
  O  O161  1  0.866485  0.550277  0.053423  1
  O  O162  1  0.866485  0.949723  0.553423  1
  O  O163  1  0.133515  0.449723  0.946577  1
  O  O164  1  0.398471  0.450282  0.573396  1
  O  O165  1  0.601529  0.950282  0.926604  1
  O  O166  1  0.601529  0.549718  0.426604  1
  O  O167  1  0.398471  0.049718  0.073396  1
  O  O168  1  0.382569  0.339430  0.431259  1
  O  O169  1  0.617431  0.839430  0.068741  1
  O  O170  1  0.617431  0.660570  0.568741  1
  O  O171  1  0.382569  0.160570  0.931259  1
  O  O172  1  0.595411  0.335649  0.578375  1
  O  O173  1  0.404589  0.835649  0.921625  1
  O  O174  1  0.404589  0.664351  0.421625  1
  O  O175  1  0.595411  0.164351  0.078375  1
