# generated using pymatgen
data_BSbO3
_symmetry_space_group_name_H-M   'P 1'
_cell_length_a   5.02028335
_cell_length_b   5.02099801
_cell_length_c   13.02491162
_cell_angle_alpha   82.20894268
_cell_angle_beta   97.74287989
_cell_angle_gamma   77.72164026
_symmetry_Int_Tables_number   1
_chemical_formula_structural   BSbO3
_chemical_formula_sum   'B4 Sb4 O12'
_cell_volume   313.27661628
_cell_formula_units_Z   4
loop_
 _symmetry_equiv_pos_site_id
 _symmetry_equiv_pos_as_xyz
  1  'x, y, z'
loop_
 _atom_site_type_symbol
 _atom_site_label
 _atom_site_symmetry_multiplicity
 _atom_site_fract_x
 _atom_site_fract_y
 _atom_site_fract_z
 _atom_site_occupancy
  B  B0  1  0.061304  0.343575  0.852708  1
  B  B1  1  0.342410  0.062955  0.647103  1
  B  B2  1  0.657590  0.937045  0.352897  1
  B  B3  1  0.938696  0.656425  0.147292  1
  Sb  Sb4  1  0.331757  0.014725  0.128320  1
  Sb  Sb5  1  0.984243  0.669710  0.628046  1
  Sb  Sb6  1  0.668243  0.985275  0.871680  1
  Sb  Sb7  1  0.015757  0.330290  0.371954  1
  O  O8  1  0.126019  0.284581  0.596665  1
  O  O9  1  0.283337  0.127320  0.903255  1
  O  O10  1  0.100827  0.562570  0.785649  1
  O  O11  1  0.561247  0.102456  0.714086  1
  O  O12  1  0.200224  0.663224  0.125762  1
  O  O13  1  0.335907  0.801098  0.625501  1
  O  O14  1  0.664093  0.198902  0.374499  1
  O  O15  1  0.799776  0.336776  0.874238  1
  O  O16  1  0.438753  0.897544  0.285914  1
  O  O17  1  0.899173  0.437430  0.214351  1
  O  O18  1  0.716663  0.872680  0.096745  1
  O  O19  1  0.873981  0.715419  0.403335  1
