# generated using pymatgen
data_LiV2OF5
_symmetry_space_group_name_H-M   'P 1'
_cell_length_a   5.22843596
_cell_length_b   5.22844878
_cell_length_c   13.92648817
_cell_angle_alpha   90.00571656
_cell_angle_beta   90.00241124
_cell_angle_gamma   120.00413951
_symmetry_Int_Tables_number   1
_chemical_formula_structural   LiV2OF5
_chemical_formula_sum   'Li3 V6 O3 F15'
_cell_volume   329.68468697
_cell_formula_units_Z   3
loop_
 _symmetry_equiv_pos_site_id
 _symmetry_equiv_pos_as_xyz
  1  'x, y, z'
loop_
 _atom_site_type_symbol
 _atom_site_label
 _atom_site_symmetry_multiplicity
 _atom_site_fract_x
 _atom_site_fract_y
 _atom_site_fract_z
 _atom_site_occupancy
  Li  Li0  1  0.360212  0.693494  0.916711  1
  Li  Li1  1  0.666664  0.306415  0.583335  1
  Li  Li2  1  0.972968  0.000217  0.250064  1
  V  V3  1  0.342862  0.691186  0.170163  1
  V  V4  1  0.975815  0.985222  0.503281  1
  V  V5  1  0.358019  0.676297  0.663426  1
  V  V6  1  0.651534  0.308343  0.329909  1
  V  V7  1  0.681559  0.323778  0.836809  1
  V  V8  1  0.990018  0.014980  0.996574  1
  O  O9  1  0.666610  0.936956  0.583297  1
  O  O10  1  0.603276  0.000125  0.249817  1
  O  O11  1  0.729826  0.063081  0.916566  1
  F  F12  1  0.271786  0.941626  0.075358  1
  F  F13  1  0.032680  0.682623  0.577580  1
  F  F14  1  0.003686  0.394908  0.742187  1
  F  F15  1  0.665742  0.726910  0.083562  1
  F  F16  1  0.061407  0.335874  0.091074  1
  F  F17  1  0.725376  0.663780  0.408909  1
  F  F18  1  0.608070  0.605185  0.757631  1
  F  F19  1  0.348121  0.365417  0.255858  1
  F  F20  1  0.983970  0.683454  0.910798  1
  F  F21  1  0.301132  0.316408  0.589148  1
  F  F22  1  0.983188  0.633940  0.244088  1
  F  F23  1  0.350290  0.318156  0.922455  1
  F  F24  1  0.330853  0.058930  0.424501  1
  F  F25  1  0.394461  0.000472  0.750081  1
  F  F26  1  0.939866  0.272217  0.416832  1
