# generated using pymatgen
data_NaTmO2
_symmetry_space_group_name_H-M   'P 1'
_cell_length_a   5.88088848
_cell_length_b   7.34730621
_cell_length_c   6.02257065
_cell_angle_alpha   75.09941260
_cell_angle_beta   112.43083658
_cell_angle_gamma   75.88777582
_symmetry_Int_Tables_number   1
_chemical_formula_structural   NaTmO2
_chemical_formula_sum   'Na4 Tm4 O8'
_cell_volume   214.74484198
_cell_formula_units_Z   4
loop_
 _symmetry_equiv_pos_site_id
 _symmetry_equiv_pos_as_xyz
  1  'x, y, z'
loop_
 _atom_site_type_symbol
 _atom_site_label
 _atom_site_symmetry_multiplicity
 _atom_site_fract_x
 _atom_site_fract_y
 _atom_site_fract_z
 _atom_site_occupancy
  Na  Na0  1  0.805827  0.388347  0.055827  1
  Na  Na1  1  0.430567  0.138866  0.180567  1
  Na  Na2  1  0.569433  0.861134  0.819433  1
  Na  Na3  1  0.194173  0.611653  0.944173  1
  Tm  Tm4  1  0.943043  0.113914  0.693043  1
  Tm  Tm5  1  0.683137  0.633725  0.433137  1
  Tm  Tm6  1  0.316863  0.366275  0.566863  1
  Tm  Tm7  1  0.056957  0.886086  0.306957  1
  O  O8  1  0.939869  0.627096  0.233888  1
  O  O9  1  0.832815  0.876088  0.540503  1
  O  O10  1  0.291097  0.876088  0.083408  1
  O  O11  1  0.566965  0.372904  0.360984  1
  O  O12  1  0.433035  0.627096  0.639016  1
  O  O13  1  0.708903  0.123912  0.916592  1
  O  O14  1  0.167185  0.123912  0.459497  1
  O  O15  1  0.060131  0.372904  0.766112  1
