# generated using pymatgen
data_LiP3W2O13
_symmetry_space_group_name_H-M   'P 1'
_cell_length_a   6.48898516
_cell_length_b   19.04374267
_cell_length_c   9.82190537
_cell_angle_alpha   90.00000000
_cell_angle_beta   107.12430074
_cell_angle_gamma   90.00000000
_symmetry_Int_Tables_number   1
_chemical_formula_structural   LiP3W2O13
_chemical_formula_sum   'Li4 P12 W8 O52'
_cell_volume   1159.93051632
_cell_formula_units_Z   4
loop_
 _symmetry_equiv_pos_site_id
 _symmetry_equiv_pos_as_xyz
  1  'x, y, z'
loop_
 _atom_site_type_symbol
 _atom_site_label
 _atom_site_symmetry_multiplicity
 _atom_site_fract_x
 _atom_site_fract_y
 _atom_site_fract_z
 _atom_site_occupancy
  Li  Li0  1  0.184801  0.925111  0.619933  1
  Li  Li1  1  0.234387  0.154668  0.029954  1
  Li  Li2  1  0.765613  0.654668  0.970046  1
  Li  Li3  1  0.815199  0.425111  0.380067  1
  P  P4  1  0.091737  0.331797  0.964638  1
  P  P5  1  0.020069  0.067147  0.292962  1
  P  P6  1  0.244340  0.692577  0.702652  1
  P  P7  1  0.257000  0.627260  0.308734  1
  P  P8  1  0.591008  0.487902  0.972555  1
  P  P9  1  0.479284  0.252478  0.696793  1
  P  P10  1  0.520716  0.752478  0.303207  1
  P  P11  1  0.408992  0.987902  0.027445  1
  P  P12  1  0.743000  0.127260  0.691266  1
  P  P13  1  0.755660  0.192577  0.297348  1
  P  P14  1  0.979931  0.567147  0.707038  1
  P  P15  1  0.908263  0.831797  0.035362  1
  W  W16  1  0.066837  0.786829  0.393017  1
  W  W17  1  0.370366  0.819949  0.943785  1
  W  W18  1  0.132144  0.497240  0.073618  1
  W  W19  1  0.437677  0.532342  0.620303  1
  W  W20  1  0.562323  0.032342  0.379697  1
  W  W21  1  0.867856  0.997240  0.926382  1
  W  W22  1  0.629634  0.319949  0.056215  1
  W  W23  1  0.933163  0.286829  0.606983  1
  O  O24  1  0.064349  0.805861  0.954332  1
  O  O25  1  0.022182  0.551974  0.865423  1
  O  O26  1  0.082676  0.411363  0.939181  1
  O  O27  1  0.040049  0.293773  0.820693  1
  O  O28  1  0.026128  0.650726  0.698841  1
  O  O29  1  0.184439  0.011206  0.931504  1
  O  O30  1  0.121195  0.528870  0.630737  1
  O  O31  1  0.075327  0.875253  0.448410  1
  O  O32  1  0.169377  0.753533  0.601368  1
  O  O33  1  0.298199  0.872210  0.788045  1
  O  O34  1  0.342734  0.719502  0.856522  1
  O  O35  1  0.103109  0.678165  0.349045  1
  O  O36  1  0.242383  0.260580  0.612284  1
  O  O37  1  0.255623  0.059370  0.382426  1
  O  O38  1  0.153500  0.599937  0.155704  1
  O  O39  1  0.403120  0.643400  0.664275  1
  O  O40  1  0.196591  0.447350  0.229164  1
  O  O41  1  0.563686  0.008108  0.941406  1
  O  O42  1  0.329894  0.566331  0.410931  1
  O  O43  1  0.528673  0.270065  0.854962  1
  O  O44  1  0.543681  0.534896  0.838686  1
  O  O45  1  0.578998  0.409780  0.930074  1
  O  O46  1  0.450097  0.443006  0.587793  1
  O  O47  1  0.378967  0.789553  0.379728  1
  O  O48  1  0.525450  0.168766  0.691551  1
  O  O49  1  0.684425  0.804550  0.945204  1
  O  O50  1  0.315575  0.304550  0.054796  1
  O  O51  1  0.474550  0.668766  0.308449  1
  O  O52  1  0.621033  0.289553  0.620272  1
  O  O53  1  0.549903  0.943006  0.412207  1
  O  O54  1  0.421002  0.909780  0.069926  1
  O  O55  1  0.456319  0.034896  0.161314  1
  O  O56  1  0.471327  0.770065  0.145038  1
  O  O57  1  0.670106  0.066331  0.589069  1
  O  O58  1  0.436314  0.508108  0.058594  1
  O  O59  1  0.803409  0.947350  0.770836  1
  O  O60  1  0.596880  0.143400  0.335725  1
  O  O61  1  0.846500  0.099937  0.844296  1
  O  O62  1  0.744377  0.559370  0.617574  1
  O  O63  1  0.757617  0.760580  0.387716  1
  O  O64  1  0.896891  0.178165  0.650955  1
  O  O65  1  0.657266  0.219502  0.143478  1
  O  O66  1  0.701801  0.372210  0.211955  1
  O  O67  1  0.830623  0.253533  0.398632  1
  O  O68  1  0.924673  0.375253  0.551590  1
  O  O69  1  0.878805  0.028870  0.369263  1
  O  O70  1  0.815561  0.511206  0.068496  1
  O  O71  1  0.973872  0.150726  0.301159  1
  O  O72  1  0.959951  0.793773  0.179307  1
  O  O73  1  0.917324  0.911363  0.060819  1
  O  O74  1  0.977818  0.051974  0.134577  1
  O  O75  1  0.935651  0.305861  0.045668  1
