# generated using pymatgen
data_Co3OF5
_symmetry_space_group_name_H-M   'P 1'
_cell_length_a   4.74367177
_cell_length_b   7.91161376
_cell_length_c   5.69800685
_cell_angle_alpha   92.82558669
_cell_angle_beta   90.00000000
_cell_angle_gamma   90.00000000
_symmetry_Int_Tables_number   1
_chemical_formula_structural   Co3OF5
_chemical_formula_sum   'Co6 O2 F10'
_cell_volume   213.58677044
_cell_formula_units_Z   2
loop_
 _symmetry_equiv_pos_site_id
 _symmetry_equiv_pos_as_xyz
  1  'x, y, z'
loop_
 _atom_site_type_symbol
 _atom_site_label
 _atom_site_symmetry_multiplicity
 _atom_site_fract_x
 _atom_site_fract_y
 _atom_site_fract_z
 _atom_site_occupancy
  Co  Co0  1  0.485280  0.013594  0.495336  1
  Co  Co1  1  0.483842  0.329362  0.822664  1
  Co  Co2  1  0.529535  0.670492  0.153371  1
  Co  Co3  1  0.983842  0.670638  0.677336  1
  Co  Co4  1  0.029535  0.329508  0.346629  1
  Co  Co5  1  0.985280  0.986406  0.004664  1
  O  O6  1  0.800988  0.761286  0.967572  1
  O  O7  1  0.300988  0.238714  0.532428  1
  F  F8  1  0.802516  0.437768  0.625552  1
  F  F9  1  0.804261  0.103811  0.297068  1
  F  F10  1  0.691922  0.774484  0.462016  1
  F  F11  1  0.701025  0.103045  0.795802  1
  F  F12  1  0.700630  0.424902  0.134834  1
  F  F13  1  0.302516  0.562232  0.874448  1
  F  F14  1  0.304261  0.896189  0.202932  1
  F  F15  1  0.191922  0.225516  0.037984  1
  F  F16  1  0.201025  0.896955  0.704198  1
  F  F17  1  0.200630  0.575098  0.365166  1
