# generated using pymatgen
data_Li6V3P8O29
_symmetry_space_group_name_H-M   'P 1'
_cell_length_a   9.83780765
_cell_length_b   9.83286678
_cell_length_c   13.86379557
_cell_angle_alpha   90.11947430
_cell_angle_beta   90.11255873
_cell_angle_gamma   60.00471328
_symmetry_Int_Tables_number   1
_chemical_formula_structural   Li6V3P8O29
_chemical_formula_sum   'Li12 V6 P16 O58'
_cell_volume   1161.47721331
_cell_formula_units_Z   2
loop_
 _symmetry_equiv_pos_site_id
 _symmetry_equiv_pos_as_xyz
  1  'x, y, z'
loop_
 _atom_site_type_symbol
 _atom_site_label
 _atom_site_symmetry_multiplicity
 _atom_site_fract_x
 _atom_site_fract_y
 _atom_site_fract_z
 _atom_site_occupancy
  Li  Li0  1  0.908039  0.775062  0.060207  1
  Li  Li1  1  0.775105  0.907974  0.560342  1
  Li  Li2  1  0.909028  0.318056  0.561946  1
  Li  Li3  1  0.667748  0.669096  0.382170  1
  Li  Li4  1  0.669214  0.668408  0.882174  1
  Li  Li5  1  0.773399  0.312009  0.060235  1
  Li  Li6  1  0.318142  0.908982  0.061896  1
  Li  Li7  1  0.676522  0.225884  0.439782  1
  Li  Li8  1  0.311935  0.773529  0.560148  1
  Li  Li9  1  0.225678  0.676673  0.939881  1
  Li  Li10  1  0.227675  0.093194  0.440044  1
  Li  Li11  1  0.093313  0.227725  0.939882  1
  V  V12  1  0.566098  0.431623  0.248014  1
  V  V13  1  0.431336  0.566261  0.747494  1
  V  V14  1  0.565828  0.006370  0.754601  1
  V  V15  1  0.433049  0.002746  0.248551  1
  V  V16  1  0.005889  0.566468  0.254365  1
  V  V17  1  0.002415  0.432995  0.748514  1
  P  P18  1  0.911461  0.770398  0.843380  1
  P  P19  1  0.770346  0.911372  0.343095  1
  P  P20  1  0.909965  0.320128  0.341554  1
  P  P21  1  0.668710  0.666109  0.126267  1
  P  P22  1  0.665772  0.668925  0.626280  1
  P  P23  1  0.769741  0.320966  0.843939  1
  P  P24  1  0.683278  0.230568  0.658421  1
  P  P25  1  0.320233  0.909960  0.841528  1
  P  P26  1  0.684370  0.084493  0.156811  1
  P  P27  1  0.320590  0.769891  0.343921  1
  P  P28  1  0.231090  0.682613  0.158521  1
  P  P29  1  0.335059  0.330821  0.374665  1
  P  P30  1  0.330284  0.335504  0.874887  1
  P  P31  1  0.084408  0.684227  0.657174  1
  P  P32  1  0.234118  0.086403  0.656744  1
  P  P33  1  0.086339  0.234038  0.156877  1
  O  O34  1  0.990614  0.769914  0.571293  1
  O  O35  1  0.915033  0.747082  0.340143  1
  O  O36  1  0.770108  0.990614  0.071286  1
  O  O37  1  0.747457  0.915038  0.840567  1
  O  O38  1  0.890347  0.624968  0.825180  1
  O  O39  1  0.816256  0.669566  0.166198  1
  O  O40  1  0.887045  0.486811  0.326256  1
  O  O41  1  0.997243  0.242902  0.066787  1
  O  O42  1  0.919071  0.337950  0.839883  1
  O  O43  1  0.668921  0.816635  0.666564  1
  O  O44  1  0.625024  0.890317  0.325264  1
  O  O45  1  0.813942  0.514826  0.664481  1
  O  O46  1  0.666596  0.666122  0.017557  1
  O  O47  1  0.665823  0.667302  0.517567  1
  O  O48  1  0.672799  0.512714  0.164856  1
  O  O49  1  0.486864  0.886963  0.826721  1
  O  O50  1  0.514847  0.814052  0.164753  1
  O  O51  1  0.745143  0.335476  0.341731  1
  O  O52  1  0.790318  0.212116  0.750656  1
  O  O53  1  0.757254  0.246148  0.567446  1
  O  O54  1  0.760959  0.245722  0.934281  1
  O  O55  1  0.625544  0.486515  0.824601  1
  O  O56  1  0.512480  0.673274  0.664681  1
  O  O57  1  0.663569  0.251309  0.158417  1
  O  O58  1  0.486444  0.625506  0.324646  1
  O  O59  1  0.337777  0.919094  0.340084  1
  O  O60  1  0.786253  0.006781  0.254303  1
  O  O61  1  0.753480  0.002130  0.433800  1
  O  O62  1  0.242880  0.997084  0.566811  1
  O  O63  1  0.665491  0.084340  0.657986  1
  O  O64  1  0.522917  0.381637  0.676849  1
  O  O65  1  0.335960  0.744512  0.841446  1
  O  O66  1  0.485954  0.327807  0.333464  1
  O  O67  1  0.381493  0.522348  0.176540  1
  O  O68  1  0.246046  0.757110  0.067589  1
  O  O69  1  0.245703  0.760515  0.434336  1
  O  O70  1  0.212098  0.790325  0.250735  1
  O  O71  1  0.251569  0.663056  0.658378  1
  O  O72  1  0.478370  0.186308  0.828280  1
  O  O73  1  0.523914  0.093680  0.174201  1
  O  O74  1  0.327682  0.485342  0.833520  1
  O  O75  1  0.329543  0.332950  0.981935  1
  O  O76  1  0.333539  0.328848  0.481847  1
  O  O77  1  0.186924  0.478766  0.328541  1
  O  O78  1  0.382589  0.095628  0.673883  1
  O  O79  1  0.329297  0.183384  0.332835  1
  O  O80  1  0.084432  0.665309  0.158296  1
  O  O81  1  0.007095  0.786154  0.754394  1
  O  O82  1  0.002540  0.753058  0.933821  1
  O  O83  1  0.093545  0.523853  0.674294  1
  O  O84  1  0.183293  0.328900  0.833158  1
  O  O85  1  0.094531  0.383198  0.174392  1
  O  O86  1  0.249643  0.084333  0.158271  1
  O  O87  1  0.242723  0.000403  0.931710  1
  O  O88  1  0.212360  0.997560  0.749787  1
  O  O89  1  0.083808  0.249451  0.658307  1
  O  O90  1  0.000603  0.242769  0.431777  1
  O  O91  1  0.997746  0.212115  0.249782  1
