# generated using pymatgen
data_Na2P2H12O11F2
_symmetry_space_group_name_H-M   'P 1'
_cell_length_a   5.38995501
_cell_length_b   10.00799099
_cell_length_c   12.78599268
_cell_angle_alpha   71.07823923
_cell_angle_beta   90.01049557
_cell_angle_gamma   74.17789673
_symmetry_Int_Tables_number   1
_chemical_formula_structural   Na2P2H12O11F2
_chemical_formula_sum   'Na4 P4 H24 O22 F4'
_cell_volume   624.73918474
_cell_formula_units_Z   2
loop_
 _symmetry_equiv_pos_site_id
 _symmetry_equiv_pos_as_xyz
  1  'x, y, z'
loop_
 _atom_site_type_symbol
 _atom_site_label
 _atom_site_symmetry_multiplicity
 _atom_site_fract_x
 _atom_site_fract_y
 _atom_site_fract_z
 _atom_site_occupancy
  Na  Na0  1  0.100328  0.958421  0.878743  1
  Na  Na1  1  0.942109  0.957004  0.379787  1
  Na  Na2  1  0.058997  0.043317  0.621565  1
  Na  Na3  1  0.891117  0.044336  0.118489  1
  P  P4  1  0.001615  0.674962  0.780944  1
  P  P5  1  0.322178  0.673795  0.280976  1
  P  P6  1  0.675936  0.325624  0.721001  1
  P  P7  1  0.998835  0.323960  0.221862  1
  H  H8  1  0.574268  0.922982  0.753074  1
  H  H9  1  0.556737  0.699087  0.938510  1
  H  H10  1  0.441728  0.840086  0.515348  1
  H  H11  1  0.236597  0.775214  0.586300  1
  H  H12  1  0.504128  0.918219  0.258922  1
  H  H13  1  0.873890  0.698851  0.552341  1
  H  H14  1  0.732770  0.535164  0.813438  1
  H  H15  1  0.752088  0.703419  0.438163  1
  H  H16  1  0.719297  0.840430  0.012779  1
  H  H17  1  0.985182  0.779081  0.085806  1
  H  H18  1  0.265738  0.464712  0.689295  1
  H  H19  1  0.561596  0.308316  0.950367  1
  H  H20  1  0.431905  0.698499  0.050268  1
  H  H21  1  0.731711  0.536309  0.313486  1
  H  H22  1  0.009266  0.225230  0.911761  1
  H  H23  1  0.275998  0.164728  0.984566  1
  H  H24  1  0.251853  0.296520  0.565736  1
  H  H25  1  0.272000  0.460201  0.189208  1
  H  H26  1  0.130351  0.303936  0.450974  1
  H  H27  1  0.488868  0.084282  0.743869  1
  H  H28  1  0.767141  0.226601  0.415140  1
  H  H29  1  0.562890  0.160574  0.486054  1
  H  H30  1  0.441902  0.298433  0.064576  1
  H  H31  1  0.429353  0.081130  0.246872  1
  O  O32  1  0.478764  0.762364  0.981906  1
  O  O33  1  0.966153  0.833203  0.768430  1
  O  O34  1  0.260706  0.867101  0.534527  1
  O  O35  1  0.742935  0.634384  0.817288  1
  O  O36  1  0.761608  0.764105  0.483751  1
  O  O37  1  0.197463  0.832745  0.266751  1
  O  O38  1  0.104792  0.622924  0.685695  1
  O  O39  1  0.869961  0.869911  0.032301  1
  O  O40  1  0.622117  0.635028  0.317525  1
  O  O41  1  0.726863  0.378484  0.815673  1
  O  O42  1  0.273803  0.622395  0.185287  1
  O  O43  1  0.376148  0.366300  0.684048  1
  O  O44  1  0.126987  0.134665  0.964279  1
  O  O45  1  0.897596  0.375746  0.317345  1
  O  O46  1  0.799259  0.166761  0.735059  1
  O  O47  1  0.239693  0.236879  0.519160  1
  O  O48  1  0.260240  0.361961  0.185156  1
  O  O49  1  0.742989  0.134140  0.466129  1
  O  O50  1  0.416469  0.002979  0.747817  1
  O  O51  1  0.032097  0.166182  0.233195  1
  O  O52  1  0.516292  0.240316  0.017401  1
  O  O53  1  0.581761  0.998920  0.251516  1
  F  F54  1  0.202150  0.573519  0.887061  1
  F  F55  1  0.221339  0.573824  0.387563  1
  F  F56  1  0.778991  0.423919  0.614980  1
  F  F57  1  0.798432  0.425088  0.115801  1
