# generated using pymatgen
data_K3BaPCO7
_symmetry_space_group_name_H-M   'P 1'
_cell_length_a   10.24431695
_cell_length_b   7.85202418
_cell_length_c   5.81913091
_cell_angle_alpha   90.00000000
_cell_angle_beta   91.23695208
_cell_angle_gamma   90.00000000
_symmetry_Int_Tables_number   1
_chemical_formula_structural   K3BaPCO7
_chemical_formula_sum   'K6 Ba2 P2 C2 O14'
_cell_volume   467.97380803
_cell_formula_units_Z   2
loop_
 _symmetry_equiv_pos_site_id
 _symmetry_equiv_pos_as_xyz
  1  'x, y, z'
loop_
 _atom_site_type_symbol
 _atom_site_label
 _atom_site_symmetry_multiplicity
 _atom_site_fract_x
 _atom_site_fract_y
 _atom_site_fract_z
 _atom_site_occupancy
  K  K0  1  0.084371  0.250000  0.761185  1
  K  K1  1  0.253739  0.007322  0.251782  1
  K  K2  1  0.253739  0.492678  0.251782  1
  K  K3  1  0.746261  0.507322  0.748218  1
  K  K4  1  0.746261  0.992678  0.748218  1
  K  K5  1  0.915629  0.750000  0.238815  1
  Ba  Ba6  1  0.373000  0.750000  0.767153  1
  Ba  Ba7  1  0.627000  0.250000  0.232847  1
  P  P8  1  0.405635  0.250000  0.701416  1
  P  P9  1  0.594365  0.750000  0.298584  1
  C  C10  1  0.059618  0.750000  0.737670  1
  C  C11  1  0.940382  0.250000  0.262330  1
  O  O12  1  0.067761  0.250000  0.277705  1
  O  O13  1  0.118154  0.750000  0.939276  1
  O  O14  1  0.128573  0.750000  0.550946  1
  O  O15  1  0.332100  0.088298  0.785901  1
  O  O16  1  0.332100  0.411702  0.785901  1
  O  O17  1  0.404497  0.250000  0.432719  1
  O  O18  1  0.447988  0.750000  0.212190  1
  O  O19  1  0.552012  0.250000  0.787810  1
  O  O20  1  0.595503  0.750000  0.567281  1
  O  O21  1  0.667900  0.588298  0.214099  1
  O  O22  1  0.667900  0.911702  0.214099  1
  O  O23  1  0.871427  0.250000  0.449054  1
  O  O24  1  0.881846  0.250000  0.060724  1
  O  O25  1  0.932239  0.750000  0.722295  1
