# generated using pymatgen
data_LiMn2F7
_symmetry_space_group_name_H-M   'P 1'
_cell_length_a   8.70268738
_cell_length_b   6.49167761
_cell_length_c   5.69896647
_cell_angle_alpha   92.62927089
_cell_angle_beta   78.69394584
_cell_angle_gamma   109.32375473
_symmetry_Int_Tables_number   1
_chemical_formula_structural   LiMn2F7
_chemical_formula_sum   'Li2 Mn4 F14'
_cell_volume   297.86630459
_cell_formula_units_Z   2
loop_
 _symmetry_equiv_pos_site_id
 _symmetry_equiv_pos_as_xyz
  1  'x, y, z'
loop_
 _atom_site_type_symbol
 _atom_site_label
 _atom_site_symmetry_multiplicity
 _atom_site_fract_x
 _atom_site_fract_y
 _atom_site_fract_z
 _atom_site_occupancy
  Li  Li0  1  0.273010  0.589536  0.089374  1
  Li  Li1  1  0.726990  0.410464  0.910625  1
  Mn  Mn2  1  0.167631  0.982929  0.290410  1
  Mn  Mn3  1  0.304383  0.211125  0.776784  1
  Mn  Mn4  1  0.695617  0.788875  0.223216  1
  Mn  Mn5  1  0.832369  0.017071  0.709590  1
  F  F6  1  0.141869  0.700503  0.351861  1
  F  F7  1  0.077124  0.092015  0.693308  1
  F  F8  1  0.258016  0.931717  0.934714  1
  F  F9  1  0.193285  0.261015  0.171389  1
  F  F10  1  0.299928  0.489704  0.754542  1
  F  F11  1  0.482635  0.694508  0.173873  1
  F  F12  1  0.358596  0.096189  0.427801  1
  F  F13  1  0.641404  0.903811  0.572199  1
  F  F14  1  0.517365  0.305492  0.826127  1
  F  F15  1  0.700072  0.510296  0.245458  1
  F  F16  1  0.806715  0.738985  0.828611  1
  F  F17  1  0.741984  0.068283  0.065286  1
  F  F18  1  0.922876  0.907985  0.306692  1
  F  F19  1  0.858131  0.299497  0.648139  1
