# generated using pymatgen
data_Be2P2O7
_symmetry_space_group_name_H-M   'P 1'
_cell_length_a   8.86750447
_cell_length_b   10.57355390
_cell_length_c   10.57355390
_cell_angle_alpha   43.82964477
_cell_angle_beta   97.43310181
_cell_angle_gamma   97.43310181
_symmetry_Int_Tables_number   1
_chemical_formula_structural   Be2P2O7
_chemical_formula_sum   'Be12 P12 O42'
_cell_volume   679.84441133
_cell_formula_units_Z   6
loop_
 _symmetry_equiv_pos_site_id
 _symmetry_equiv_pos_as_xyz
  1  'x, y, z'
loop_
 _atom_site_type_symbol
 _atom_site_label
 _atom_site_symmetry_multiplicity
 _atom_site_fract_x
 _atom_site_fract_y
 _atom_site_fract_z
 _atom_site_occupancy
  Be  Be0  1  0.049088  0.853567  0.220485  1
  Be  Be1  1  0.121188  0.708781  0.574135  1
  Be  Be2  1  0.229432  0.494464  0.925996  1
  Be  Be3  1  0.270568  0.074004  0.505536  1
  Be  Be4  1  0.378812  0.425865  0.291219  1
  Be  Be5  1  0.450912  0.779515  0.146433  1
  Be  Be6  1  0.549088  0.220485  0.853567  1
  Be  Be7  1  0.621188  0.574135  0.708781  1
  Be  Be8  1  0.729432  0.925996  0.494464  1
  Be  Be9  1  0.770568  0.505536  0.074004  1
  Be  Be10  1  0.878812  0.291219  0.425865  1
  Be  Be11  1  0.950912  0.146433  0.779515  1
  P  P12  1  0.192905  0.937326  0.851676  1
  P  P13  1  0.027362  0.260284  0.220642  1
  P  P14  1  0.136052  0.479561  0.402128  1
  P  P15  1  0.363948  0.597872  0.520439  1
  P  P16  1  0.472638  0.779358  0.739716  1
  P  P17  1  0.307095  0.148324  0.062674  1
  P  P18  1  0.692905  0.851676  0.937326  1
  P  P19  1  0.527362  0.220642  0.260284  1
  P  P20  1  0.636052  0.402128  0.479561  1
  P  P21  1  0.863948  0.520439  0.597872  1
  P  P22  1  0.972638  0.739716  0.779358  1
  P  P23  1  0.807095  0.062674  0.148324  1
  O  O24  1  0.101226  0.037761  0.868149  1
  O  O25  1  0.070655  0.792967  0.873450  1
  O  O26  1  0.094107  0.678009  0.736528  1
  O  O27  1  0.013793  0.318739  0.513923  1
  O  O28  1  0.072894  0.667361  0.274085  1
  O  O29  1  0.191459  0.987497  0.181172  1
  O  O30  1  0.244172  0.337098  0.936380  1
  O  O31  1  0.115307  0.099950  0.392205  1
  O  O32  1  0.277536  0.691985  0.545761  1
  O  O33  1  0.134502  0.419856  0.084278  1
  O  O34  1  0.250000  0.443085  0.556915  1
  O  O35  1  0.365498  0.915722  0.580144  1
  O  O36  1  0.222464  0.454239  0.308015  1
  O  O37  1  0.384693  0.607795  0.900050  1
  O  O38  1  0.255828  0.063620  0.662902  1
  O  O39  1  0.308541  0.818828  0.012503  1
  O  O40  1  0.427106  0.725915  0.332639  1
  O  O41  1  0.601226  0.868149  0.037761  1
  O  O42  1  0.570655  0.873450  0.792967  1
  O  O43  1  0.486207  0.486077  0.681261  1
  O  O44  1  0.594107  0.736528  0.678009  1
  O  O45  1  0.405893  0.263472  0.321991  1
  O  O46  1  0.513793  0.513923  0.318739  1
  O  O47  1  0.429345  0.126550  0.207033  1
  O  O48  1  0.398774  0.131851  0.962239  1
  O  O49  1  0.572894  0.274085  0.667361  1
  O  O50  1  0.691459  0.181172  0.987497  1
  O  O51  1  0.744172  0.936380  0.337098  1
  O  O52  1  0.615307  0.392205  0.099950  1
  O  O53  1  0.777536  0.545761  0.691985  1
  O  O54  1  0.634502  0.084278  0.419856  1
  O  O55  1  0.750000  0.556915  0.443085  1
  O  O56  1  0.865498  0.580144  0.915722  1
  O  O57  1  0.722464  0.308015  0.454239  1
  O  O58  1  0.884693  0.900050  0.607795  1
  O  O59  1  0.755828  0.662902  0.063620  1
  O  O60  1  0.808541  0.012503  0.818828  1
  O  O61  1  0.927106  0.332639  0.725915  1
  O  O62  1  0.986207  0.681261  0.486077  1
  O  O63  1  0.905893  0.321991  0.263472  1
  O  O64  1  0.929345  0.207033  0.126550  1
  O  O65  1  0.898774  0.962239  0.131851  1
