# generated using pymatgen
data_Ti2(SO4)3
_symmetry_space_group_name_H-M   'P 1'
_cell_length_a   8.66975153
_cell_length_b   12.04669784
_cell_length_c   8.71369004
_cell_angle_alpha   90.00000000
_cell_angle_beta   90.00000000
_cell_angle_gamma   90.49468187
_symmetry_Int_Tables_number   1
_chemical_formula_structural   Ti2(SO4)3
_chemical_formula_sum   'Ti8 S12 O48'
_cell_volume   910.04022403
_cell_formula_units_Z   4
loop_
 _symmetry_equiv_pos_site_id
 _symmetry_equiv_pos_as_xyz
  1  'x, y, z'
loop_
 _atom_site_type_symbol
 _atom_site_label
 _atom_site_symmetry_multiplicity
 _atom_site_fract_x
 _atom_site_fract_y
 _atom_site_fract_z
 _atom_site_occupancy
  Ti  Ti0  1  0.248331  0.618210  0.537571  1
  Ti  Ti1  1  0.251669  0.881790  0.037571  1
  Ti  Ti2  1  0.250909  0.116523  0.461832  1
  Ti  Ti3  1  0.249091  0.383477  0.961832  1
  Ti  Ti4  1  0.750909  0.616523  0.038168  1
  Ti  Ti5  1  0.749091  0.883477  0.538168  1
  Ti  Ti6  1  0.748331  0.118210  0.962429  1
  Ti  Ti7  1  0.751669  0.381790  0.462429  1
  S  S8  1  0.035614  0.496093  0.247527  1
  S  S9  1  0.101253  0.851469  0.387072  1
  S  S10  1  0.103408  0.145902  0.107889  1
  S  S11  1  0.398747  0.648531  0.887072  1
  S  S12  1  0.396593  0.354098  0.607889  1
  S  S13  1  0.464386  0.003907  0.747527  1
  S  S14  1  0.535614  0.996093  0.252473  1
  S  S15  1  0.603408  0.645902  0.392111  1
  S  S16  1  0.601253  0.351469  0.112928  1
  S  S17  1  0.896592  0.854098  0.892111  1
  S  S18  1  0.898747  0.148531  0.612928  1
  S  S19  1  0.964386  0.503907  0.752473  1
  O  O20  1  0.052300  0.434170  0.861342  1
  O  O21  1  0.067677  0.859520  0.889335  1
  O  O22  1  0.067803  0.590068  0.684695  1
  O  O23  1  0.065724  0.164734  0.585070  1
  O  O24  1  0.100335  0.569018  0.366788  1
  O  O25  1  0.131128  0.822655  0.224078  1
  O  O26  1  0.145436  0.968396  0.417270  1
  O  O27  1  0.153555  0.230315  0.994686  1
  O  O28  1  0.159162  0.176605  0.263377  1
  O  O29  1  0.162644  0.439863  0.166449  1
  O  O30  1  0.168497  0.037890  0.061738  1
  O  O31  1  0.190295  0.779652  0.492226  1
  O  O32  1  0.309705  0.720348  0.992226  1
  O  O33  1  0.331503  0.462110  0.561738  1
  O  O34  1  0.337356  0.060137  0.666449  1
  O  O35  1  0.340838  0.323395  0.763377  1
  O  O36  1  0.354564  0.531604  0.917270  1
  O  O37  1  0.346445  0.269685  0.494686  1
  O  O38  1  0.368872  0.677345  0.724078  1
  O  O39  1  0.399665  0.930982  0.866788  1
  O  O40  1  0.432197  0.909932  0.184695  1
  O  O41  1  0.432323  0.640480  0.389335  1
  O  O42  1  0.434276  0.335266  0.085070  1
  O  O43  1  0.447700  0.065830  0.361342  1
  O  O44  1  0.552300  0.934170  0.638658  1
  O  O45  1  0.565724  0.664734  0.914930  1
  O  O46  1  0.567677  0.359520  0.610665  1
  O  O47  1  0.567803  0.090068  0.815305  1
  O  O48  1  0.600335  0.069018  0.133212  1
  O  O49  1  0.631128  0.322655  0.275922  1
  O  O50  1  0.653555  0.730315  0.505314  1
  O  O51  1  0.645436  0.468396  0.082730  1
  O  O52  1  0.659162  0.676605  0.236623  1
  O  O53  1  0.662644  0.939863  0.333551  1
  O  O54  1  0.668497  0.537890  0.438262  1
  O  O55  1  0.690295  0.279652  0.007774  1
  O  O56  1  0.809705  0.220348  0.507774  1
  O  O57  1  0.831503  0.962110  0.938262  1
  O  O58  1  0.837356  0.560137  0.833551  1
  O  O59  1  0.840838  0.823395  0.736623  1
  O  O60  1  0.846445  0.769685  0.005314  1
  O  O61  1  0.854564  0.031604  0.582730  1
  O  O62  1  0.868872  0.177345  0.775922  1
  O  O63  1  0.899665  0.430982  0.633212  1
  O  O64  1  0.934276  0.835266  0.414930  1
  O  O65  1  0.932197  0.409932  0.315305  1
  O  O66  1  0.932323  0.140480  0.110665  1
  O  O67  1  0.947700  0.565830  0.138658  1
