# generated using pymatgen
data_Na2MnPCO7
_symmetry_space_group_name_H-M   'P 1'
_cell_length_a   17.90277832
_cell_length_b   6.67627577
_cell_length_c   5.19453462
_cell_angle_alpha   89.86479649
_cell_angle_beta   88.78743983
_cell_angle_gamma   90.61614590
_symmetry_Int_Tables_number   1
_chemical_formula_structural   Na2MnPCO7
_chemical_formula_sum   'Na8 Mn4 P4 C4 O28'
_cell_volume   620.69395630
_cell_formula_units_Z   4
loop_
 _symmetry_equiv_pos_site_id
 _symmetry_equiv_pos_as_xyz
  1  'x, y, z'
loop_
 _atom_site_type_symbol
 _atom_site_label
 _atom_site_symmetry_multiplicity
 _atom_site_fract_x
 _atom_site_fract_y
 _atom_site_fract_z
 _atom_site_occupancy
  Na  Na0  1  0.125029  0.009596  0.244973  1
  Na  Na1  1  0.124799  0.486253  0.247607  1
  Na  Na2  1  0.380603  0.508155  0.755633  1
  Na  Na3  1  0.380844  0.992584  0.758394  1
  Na  Na4  1  0.621604  0.008398  0.245338  1
  Na  Na5  1  0.621847  0.491835  0.245747  1
  Na  Na6  1  0.871909  0.994182  0.750902  1
  Na  Na7  1  0.956137  0.727060  0.230184  1
  Mn  Mn8  1  0.177888  0.747984  0.777225  1
  Mn  Mn9  1  0.324141  0.250792  0.220635  1
  Mn  Mn10  1  0.676028  0.751995  0.779109  1
  Mn  Mn11  1  0.827386  0.261530  0.212842  1
  P  P12  1  0.212018  0.249117  0.705318  1
  P  P13  1  0.289726  0.750003  0.295401  1
  P  P14  1  0.712314  0.251266  0.713134  1
  P  P15  1  0.788455  0.752821  0.295426  1
  C  C16  1  0.033822  0.752721  0.724036  1
  C  C17  1  0.462804  0.250542  0.273702  1
  C  C18  1  0.538242  0.749216  0.728088  1
  C  C19  1  0.962484  0.246501  0.267270  1
  O  O20  1  0.032526  0.243529  0.286683  1
  O  O21  1  0.072351  0.747249  0.940747  1
  O  O22  1  0.074202  0.746985  0.512429  1
  O  O23  1  0.165678  0.058963  0.775401  1
  O  O24  1  0.165977  0.437033  0.775004  1
  O  O25  1  0.226667  0.249492  0.403272  1
  O  O26  1  0.211835  0.748738  0.169456  1
  O  O27  1  0.288361  0.250291  0.838916  1
  O  O28  1  0.276818  0.750012  0.599146  1
  O  O29  1  0.334937  0.562782  0.220733  1
  O  O30  1  0.335208  0.939250  0.219509  1
  O  O31  1  0.418803  0.250977  0.476984  1
  O  O32  1  0.424763  0.252295  0.055516  1
  O  O33  1  0.468253  0.751612  0.722883  1
  O  O34  1  0.532393  0.248592  0.273952  1
  O  O35  1  0.575113  0.747615  0.947355  1
  O  O36  1  0.582527  0.748395  0.525443  1
  O  O37  1  0.663076  0.064532  0.773106  1
  O  O38  1  0.666305  0.439292  0.777184  1
  O  O39  1  0.732429  0.251103  0.415699  1
  O  O40  1  0.713824  0.752542  0.151493  1
  O  O41  1  0.785613  0.243814  0.865168  1
  O  O42  1  0.769016  0.764433  0.590687  1
  O  O43  1  0.836335  0.567986  0.237127  1
  O  O44  1  0.839700  0.934711  0.225066  1
  O  O45  1  0.915069  0.247553  0.462564  1
  O  O46  1  0.928905  0.252995  0.043932  1
  O  O47  1  0.963597  0.762576  0.730732  1
