# generated using pymatgen
data_Ba14Na8CaN6
_symmetry_space_group_name_H-M   'P 1'
_cell_length_a   11.47277100
_cell_length_b   11.46999398
_cell_length_c   21.67637001
_cell_angle_alpha   90.00279004
_cell_angle_beta   89.99812806
_cell_angle_gamma   120.00683952
_symmetry_Int_Tables_number   1
_chemical_formula_structural   Ba14Na8CaN6
_chemical_formula_sum   'Ba28 Na16 Ca2 N12'
_cell_volume   2470.12406306
_cell_formula_units_Z   2
loop_
 _symmetry_equiv_pos_site_id
 _symmetry_equiv_pos_as_xyz
  1  'x, y, z'
loop_
 _atom_site_type_symbol
 _atom_site_label
 _atom_site_symmetry_multiplicity
 _atom_site_fract_x
 _atom_site_fract_y
 _atom_site_fract_z
 _atom_site_occupancy
  Ba  Ba0  1  0.254611  0.964210  0.950176  1
  Ba  Ba1  1  0.254608  0.964204  0.549817  1
  Ba  Ba2  1  0.329317  0.952324  0.361604  1
  Ba  Ba3  1  0.329311  0.952330  0.138402  1
  Ba  Ba4  1  0.047659  0.377025  0.138384  1
  Ba  Ba5  1  0.047659  0.377021  0.361624  1
  Ba  Ba6  1  0.035756  0.290423  0.549807  1
  Ba  Ba7  1  0.035763  0.290430  0.950194  1
  Ba  Ba8  1  0.999987  0.999998  0.151516  1
  Ba  Ba9  1  0.999992  0.999998  0.348491  1
  Ba  Ba10  1  0.000000  0.999999  0.651491  1
  Ba  Ba11  1  0.000004  0.999999  0.848501  1
  Ba  Ba12  1  0.290386  0.254623  0.049815  1
  Ba  Ba13  1  0.290392  0.254631  0.450188  1
  Ba  Ba14  1  0.377008  0.329319  0.861597  1
  Ba  Ba15  1  0.377010  0.329325  0.638394  1
  Ba  Ba16  1  0.622999  0.670683  0.361609  1
  Ba  Ba17  1  0.622998  0.670686  0.138400  1
  Ba  Ba18  1  0.709601  0.745362  0.549820  1
  Ba  Ba19  1  0.709603  0.745369  0.950175  1
  Ba  Ba20  1  0.964239  0.709577  0.049807  1
  Ba  Ba21  1  0.964248  0.709585  0.450194  1
  Ba  Ba22  1  0.952346  0.622971  0.861611  1
  Ba  Ba23  1  0.952342  0.622972  0.638381  1
  Ba  Ba24  1  0.670681  0.047671  0.861589  1
  Ba  Ba25  1  0.670671  0.047673  0.638406  1
  Ba  Ba26  1  0.745400  0.035793  0.049821  1
  Ba  Ba27  1  0.745404  0.035798  0.450185  1
  Na  Na28  1  0.314165  0.961011  0.750003  1
  Na  Na29  1  0.038980  0.353140  0.750001  1
  Na  Na30  1  0.333276  0.666671  0.009115  1
  Na  Na31  1  0.333296  0.666688  0.249998  1
  Na  Na32  1  0.333347  0.666669  0.490882  1
  Na  Na33  1  0.333414  0.666713  0.664626  1
  Na  Na34  1  0.333431  0.666721  0.835377  1
  Na  Na35  1  0.353154  0.314166  0.249996  1
  Na  Na36  1  0.646849  0.685834  0.750003  1
  Na  Na37  1  0.666591  0.333290  0.335374  1
  Na  Na38  1  0.666647  0.333323  0.509119  1
  Na  Na39  1  0.666596  0.333308  0.750002  1
  Na  Na40  1  0.666649  0.333322  0.990883  1
  Na  Na41  1  0.666672  0.333282  0.164623  1
  Na  Na42  1  0.961025  0.646859  0.249999  1
  Na  Na43  1  0.685834  0.038987  0.249997  1
  Ca  Ca44  1  0.999999  0.000003  0.999998  1
  Ca  Ca45  1  0.999998  0.000002  0.500003  1
  N  N46  1  0.168320  0.974598  0.068312  1
  N  N47  1  0.168319  0.974595  0.431688  1
  N  N48  1  0.025412  0.193705  0.068317  1
  N  N49  1  0.025411  0.193704  0.431687  1
  N  N50  1  0.193705  0.168300  0.568322  1
  N  N51  1  0.193729  0.168296  0.931675  1
  N  N52  1  0.806254  0.831688  0.068318  1
  N  N53  1  0.806282  0.831689  0.431688  1
  N  N54  1  0.974585  0.806297  0.931668  1
  N  N55  1  0.974588  0.806300  0.568327  1
  N  N56  1  0.831688  0.025422  0.568322  1
  N  N57  1  0.831688  0.025418  0.931678  1
