# generated using pymatgen
data_Na6SiNi2(CO4)4
_symmetry_space_group_name_H-M   'P 1'
_cell_length_a   9.87608402
_cell_length_b   9.87608449
_cell_length_c   9.87608404
_cell_angle_alpha   60.00000150
_cell_angle_beta   60.00000008
_cell_angle_gamma   60.00000156
_symmetry_Int_Tables_number   1
_chemical_formula_structural   Na6SiNi2(CO4)4
_chemical_formula_sum   'Na12 Si2 Ni4 C8 O32'
_cell_volume   681.14466922
_cell_formula_units_Z   2
loop_
 _symmetry_equiv_pos_site_id
 _symmetry_equiv_pos_as_xyz
  1  'x, y, z'
loop_
 _atom_site_type_symbol
 _atom_site_label
 _atom_site_symmetry_multiplicity
 _atom_site_fract_x
 _atom_site_fract_y
 _atom_site_fract_z
 _atom_site_occupancy
  Na  Na0  1  0.088135  0.661865  0.088135  1
  Na  Na1  1  0.088135  0.088135  0.661865  1
  Na  Na2  1  0.088135  0.661865  0.661865  1
  Na  Na3  1  0.661865  0.088135  0.088135  1
  Na  Na4  1  0.338135  0.911865  0.338135  1
  Na  Na5  1  0.338135  0.338135  0.911865  1
  Na  Na6  1  0.661865  0.661865  0.088135  1
  Na  Na7  1  0.661865  0.088135  0.661865  1
  Na  Na8  1  0.911865  0.338135  0.338135  1
  Na  Na9  1  0.338135  0.911865  0.911865  1
  Na  Na10  1  0.911865  0.911865  0.338135  1
  Na  Na11  1  0.911865  0.338135  0.911865  1
  Si  Si12  1  0.125000  0.125000  0.125000  1
  Si  Si13  1  0.875000  0.875000  0.875000  1
  Ni  Ni14  1  0.000000  0.500000  0.500000  1
  Ni  Ni15  1  0.500000  0.000000  0.500000  1
  Ni  Ni16  1  0.500000  0.500000  0.000000  1
  Ni  Ni17  1  0.500000  0.500000  0.500000  1
  C  C18  1  0.284280  0.284280  0.284280  1
  C  C19  1  0.284280  0.284280  0.647159  1
  C  C20  1  0.284280  0.647159  0.284280  1
  C  C21  1  0.647159  0.284280  0.284280  1
  C  C22  1  0.352841  0.715720  0.715720  1
  C  C23  1  0.715720  0.352841  0.715720  1
  C  C24  1  0.715720  0.715720  0.352841  1
  C  C25  1  0.715720  0.715720  0.715720  1
  O  O26  1  0.057366  0.057366  0.057366  1
  O  O27  1  0.057366  0.057366  0.327902  1
  O  O28  1  0.057366  0.327902  0.057366  1
  O  O29  1  0.327902  0.057366  0.057366  1
  O  O30  1  0.141166  0.401040  0.307777  1
  O  O31  1  0.307777  0.141166  0.401040  1
  O  O32  1  0.141166  0.307777  0.650018  1
  O  O33  1  0.401040  0.307777  0.141166  1
  O  O34  1  0.141166  0.650018  0.401040  1
  O  O35  1  0.307777  0.650018  0.141166  1
  O  O36  1  0.401040  0.141166  0.650018  1
  O  O37  1  0.307777  0.401040  0.650018  1
  O  O38  1  0.650018  0.141166  0.307777  1
  O  O39  1  0.401040  0.650018  0.307777  1
  O  O40  1  0.650018  0.401040  0.141166  1
  O  O41  1  0.349982  0.692223  0.598960  1
  O  O42  1  0.650018  0.307777  0.401040  1
  O  O43  1  0.349982  0.598960  0.858834  1
  O  O44  1  0.598960  0.349982  0.692223  1
  O  O45  1  0.349982  0.858834  0.692223  1
  O  O46  1  0.692223  0.598960  0.349982  1
  O  O47  1  0.598960  0.858834  0.349982  1
  O  O48  1  0.692223  0.349982  0.858834  1
  O  O49  1  0.858834  0.349982  0.598960  1
  O  O50  1  0.598960  0.692223  0.858834  1
  O  O51  1  0.858834  0.692223  0.349982  1
  O  O52  1  0.692223  0.858834  0.598960  1
  O  O53  1  0.858834  0.598960  0.692223  1
  O  O54  1  0.672098  0.942634  0.942634  1
  O  O55  1  0.942634  0.672098  0.942634  1
  O  O56  1  0.942634  0.942634  0.672098  1
  O  O57  1  0.942634  0.942634  0.942634  1
