# generated using pymatgen
data_Li3MnV(PO4)3
_symmetry_space_group_name_H-M   'P 1'
_cell_length_a   9.86304323
_cell_length_b   9.86304408
_cell_length_c   9.80810702
_cell_angle_alpha   86.76591311
_cell_angle_beta   93.23408372
_cell_angle_gamma   94.90383940
_symmetry_Int_Tables_number   1
_chemical_formula_structural   Li3MnV(PO4)3
_chemical_formula_sum   'Li12 Mn4 V4 P12 O48'
_cell_volume   947.84507755
_cell_formula_units_Z   4
loop_
 _symmetry_equiv_pos_site_id
 _symmetry_equiv_pos_as_xyz
  1  'x, y, z'
loop_
 _atom_site_type_symbol
 _atom_site_label
 _atom_site_symmetry_multiplicity
 _atom_site_fract_x
 _atom_site_fract_y
 _atom_site_fract_z
 _atom_site_occupancy
  Li  Li0  1  0.011906  0.513217  0.246976  1
  Li  Li1  1  0.976932  0.250441  0.386642  1
  Li  Li2  1  0.225244  0.563605  0.467454  1
  Li  Li3  1  0.228058  0.734587  0.179926  1
  Li  Li4  1  0.250441  0.976932  0.613359  1
  Li  Li5  1  0.372584  0.749107  0.809095  1
  Li  Li6  1  0.513217  0.011906  0.753024  1
  Li  Li7  1  0.563605  0.225244  0.532546  1
  Li  Li8  1  0.691711  0.919238  0.979965  1
  Li  Li9  1  0.734587  0.228058  0.820074  1
  Li  Li10  1  0.749107  0.372584  0.190905  1
  Li  Li11  1  0.919238  0.691711  0.020035  1
  Mn  Mn12  1  0.533645  0.533645  0.500000  1
  Mn  Mn13  1  0.742815  0.973555  0.277573  1
  Mn  Mn14  1  0.756250  0.756250  0.500000  1
  Mn  Mn15  1  0.973555  0.742815  0.722427  1
  V  V16  1  0.027989  0.247537  0.782320  1
  V  V17  1  0.247292  0.247292  1.000000  1
  V  V18  1  0.247537  0.027989  0.217680  1
  V  V19  1  0.471759  0.471759  0.000000  1
  P  P20  1  0.053508  0.816675  0.405475  1
  P  P21  1  0.172666  0.946329  0.903039  1
  P  P22  1  0.159616  0.548249  0.931715  1
  P  P23  1  0.324185  0.340716  0.301737  1
  P  P24  1  0.340716  0.324185  0.698263  1
  P  P25  1  0.443909  0.837507  0.425321  1
  P  P26  1  0.548249  0.159616  0.068285  1
  P  P27  1  0.649863  0.687778  0.800500  1
  P  P28  1  0.687778  0.649863  0.199500  1
  P  P29  1  0.837507  0.443909  0.574679  1
  P  P30  1  0.816675  0.053508  0.594525  1
  P  P31  1  0.946329  0.172666  0.096961  1
  O  O32  1  0.032220  0.872571  0.870050  1
  O  O33  1  0.092646  0.824231  0.559255  1
  O  O34  1  0.116252  0.611745  0.794058  1
  O  O35  1  0.109520  0.953342  0.333935  1
  O  O36  1  0.104802  0.692419  0.342256  1
  O  O37  1  0.125153  0.389471  0.928930  1
  O  O38  1  0.097806  0.601535  0.056263  1
  O  O39  1  0.106003  0.163299  0.124801  1
  O  O40  1  0.163299  0.106003  0.875199  1
  O  O41  1  0.182632  0.310830  0.673758  1
  O  O42  1  0.208614  0.910275  0.057429  1
  O  O43  1  0.200884  0.405593  0.348389  1
  O  O44  1  0.285025  0.912299  0.813146  1
  O  O45  1  0.321872  0.580113  0.946925  1
  O  O46  1  0.310830  0.182632  0.326242  1
  O  O47  1  0.332763  0.377414  0.138398  1
  O  O48  1  0.367284  0.879109  0.288204  1
  O  O49  1  0.402704  0.904598  0.550574  1
  O  O50  1  0.377414  0.332763  0.861602  1
  O  O51  1  0.387552  0.462676  0.630817  1
  O  O52  1  0.410900  0.676527  0.438942  1
  O  O53  1  0.405593  0.200884  0.651611  1
  O  O54  1  0.389471  0.125153  0.071070  1
  O  O55  1  0.462676  0.387552  0.369183  1
  O  O56  1  0.573240  0.807245  0.841492  1
  O  O57  1  0.550180  0.581052  0.139453  1
  O  O58  1  0.581052  0.550180  0.860547  1
  O  O59  1  0.600461  0.873624  0.409434  1
  O  O60  1  0.628198  0.675630  0.640904  1
  O  O61  1  0.601535  0.097806  0.943737  1
  O  O62  1  0.580113  0.321872  0.053075  1
  O  O63  1  0.611745  0.116252  0.205942  1
  O  O64  1  0.675630  0.628198  0.359096  1
  O  O65  1  0.698627  0.800595  0.149591  1
  O  O66  1  0.676527  0.410900  0.561058  1
  O  O67  1  0.692419  0.104802  0.657744  1
  O  O68  1  0.800595  0.698627  0.850409  1
  O  O69  1  0.818189  0.894615  0.624402  1
  O  O70  1  0.807245  0.573240  0.158508  1
  O  O71  1  0.824231  0.092646  0.440745  1
  O  O72  1  0.873624  0.600461  0.590566  1
  O  O73  1  0.894615  0.818189  0.375598  1
  O  O74  1  0.879109  0.367284  0.711796  1
  O  O75  1  0.910275  0.208614  0.942571  1
  O  O76  1  0.904598  0.402704  0.449426  1
  O  O77  1  0.872571  0.032220  0.129950  1
  O  O78  1  0.912299  0.285025  0.186854  1
  O  O79  1  0.953342  0.109520  0.666065  1
