# generated using pymatgen
data_Li4Mn3Fe(BO3)4
_symmetry_space_group_name_H-M   'P 1'
_cell_length_a   6.03984769
_cell_length_b   5.23196641
_cell_length_c   16.25224510
_cell_angle_alpha   91.06939570
_cell_angle_beta   97.88654424
_cell_angle_gamma   89.35619468
_symmetry_Int_Tables_number   1
_chemical_formula_structural   Li4Mn3Fe(BO3)4
_chemical_formula_sum   'Li8 Mn6 Fe2 B8 O24'
_cell_volume   508.60983497
_cell_formula_units_Z   2
loop_
 _symmetry_equiv_pos_site_id
 _symmetry_equiv_pos_as_xyz
  1  'x, y, z'
loop_
 _atom_site_type_symbol
 _atom_site_label
 _atom_site_symmetry_multiplicity
 _atom_site_fract_x
 _atom_site_fract_y
 _atom_site_fract_z
 _atom_site_occupancy
  Li  Li0  1  0.062126  0.849452  0.610116  1
  Li  Li1  1  0.436104  0.150374  0.890082  1
  Li  Li2  1  0.187022  0.650414  0.140522  1
  Li  Li3  1  0.312678  0.347982  0.360410  1
  Li  Li4  1  0.686957  0.650832  0.641378  1
  Li  Li5  1  0.812844  0.350358  0.858080  1
  Li  Li6  1  0.563132  0.848789  0.108574  1
  Li  Li7  1  0.938565  0.150891  0.391831  1
  Mn  Mn8  1  0.272782  0.667394  0.958869  1
  Mn  Mn9  1  0.024743  0.167063  0.210084  1
  Mn  Mn10  1  0.522853  0.167055  0.709004  1
  Mn  Mn11  1  0.475628  0.832737  0.289543  1
  Mn  Mn12  1  0.773356  0.665749  0.460139  1
  Mn  Mn13  1  0.724414  0.332590  0.039746  1
  Fe  Fe14  1  0.225637  0.338883  0.539713  1
  Fe  Fe15  1  0.975464  0.829226  0.788828  1
  B  B16  1  0.035621  0.329074  0.702584  1
  B  B17  1  0.287183  0.829525  0.453543  1
  B  B18  1  0.464241  0.670369  0.797517  1
  B  B19  1  0.214791  0.169705  0.047794  1
  B  B20  1  0.785040  0.831820  0.950942  1
  B  B21  1  0.535253  0.330146  0.202045  1
  B  B22  1  0.714086  0.170063  0.547815  1
  B  B23  1  0.965571  0.669190  0.298336  1
  O  O24  1  0.015872  0.591136  0.691647  1
  O  O25  1  0.166702  0.186634  0.653607  1
  O  O26  1  0.173576  0.707496  0.511004  1
  O  O27  1  0.333054  0.286943  0.991398  1
  O  O28  1  0.083266  0.785802  0.241658  1
  O  O29  1  0.327177  0.819118  0.842898  1
  O  O30  1  0.079422  0.319431  0.093862  1
  O  O31  1  0.263072  0.089429  0.441792  1
  O  O32  1  0.485919  0.410771  0.810915  1
  O  O33  1  0.236156  0.909959  0.061310  1
  O  O34  1  0.419374  0.682100  0.405904  1
  O  O35  1  0.417152  0.214480  0.258973  1
  O  O36  1  0.582468  0.788080  0.741246  1
  O  O37  1  0.577605  0.320099  0.593263  1
  O  O38  1  0.763646  0.091919  0.937797  1
  O  O39  1  0.514590  0.589675  0.187988  1
  O  O40  1  0.736295  0.910020  0.561724  1
  O  O41  1  0.918446  0.682830  0.904188  1
  O  O42  1  0.670110  0.179227  0.156324  1
  O  O43  1  0.921603  0.206309  0.759115  1
  O  O44  1  0.668983  0.713389  0.007899  1
  O  O45  1  0.832492  0.286324  0.491373  1
  O  O46  1  0.830523  0.819536  0.344441  1
  O  O47  1  0.986407  0.409612  0.312180  1
