# generated using pymatgen
data_Li3Mn2P2(CO7)2
_symmetry_space_group_name_H-M   'P 1'
_cell_length_a   8.34556910
_cell_length_b   8.19872151
_cell_length_c   8.25768978
_cell_angle_alpha   76.04773874
_cell_angle_beta   87.42968525
_cell_angle_gamma   92.47763516
_symmetry_Int_Tables_number   1
_chemical_formula_structural   Li3Mn2P2(CO7)2
_chemical_formula_sum   'Li6 Mn4 P4 C4 O28'
_cell_volume   546.94284236
_cell_formula_units_Z   2
loop_
 _symmetry_equiv_pos_site_id
 _symmetry_equiv_pos_as_xyz
  1  'x, y, z'
loop_
 _atom_site_type_symbol
 _atom_site_label
 _atom_site_symmetry_multiplicity
 _atom_site_fract_x
 _atom_site_fract_y
 _atom_site_fract_z
 _atom_site_occupancy
  Li  Li0  1  0.734098  0.097731  0.858450  1
  Li  Li1  1  0.751491  0.612959  0.375152  1
  Li  Li2  1  0.749378  0.382240  0.124147  1
  Li  Li3  1  0.247087  0.619841  0.872564  1
  Li  Li4  1  0.266041  0.111013  0.341093  1
  Li  Li5  1  0.254959  0.387813  0.628451  1
  Mn  Mn6  1  0.660573  0.019187  0.230742  1
  Mn  Mn7  1  0.670882  0.528585  0.728507  1
  Mn  Mn8  1  0.330169  0.485456  0.269611  1
  Mn  Mn9  1  0.337641  0.976980  0.775082  1
  P  P10  1  0.576873  0.239393  0.509946  1
  P  P11  1  0.578964  0.736468  0.015055  1
  P  P12  1  0.421354  0.261095  0.982941  1
  P  P13  1  0.421484  0.761792  0.495407  1
  C  C14  1  0.953751  0.481534  0.764266  1
  C  C15  1  0.945095  0.982570  0.270189  1
  C  C16  1  0.054819  0.023563  0.734703  1
  C  C17  1  0.046760  0.512595  0.227769  1
  O  O18  1  0.901603  0.596130  0.643711  1
  O  O19  1  0.887112  0.104553  0.155920  1
  O  O20  1  0.913341  0.058599  0.718951  1
  O  O21  1  0.834573  0.390168  0.861748  1
  O  O22  1  0.899182  0.530891  0.212589  1
  O  O23  1  0.826132  0.875907  0.349171  1
  O  O24  1  0.680551  0.380335  0.551775  1
  O  O25  1  0.688689  0.677942  0.891699  1
  O  O26  1  0.673386  0.188727  0.365983  1
  O  O27  1  0.672264  0.887064  0.058650  1
  O  O28  1  0.543983  0.091019  0.669837  1
  O  O29  1  0.587534  0.696644  0.546906  1
  O  O30  1  0.590692  0.202629  0.040948  1
  O  O31  1  0.543893  0.589556  0.175958  1
  O  O32  1  0.453445  0.420733  0.834204  1
  O  O33  1  0.409370  0.298588  0.451810  1
  O  O34  1  0.414337  0.789250  0.945153  1
  O  O35  1  0.454648  0.921698  0.347026  1
  O  O36  1  0.323701  0.123283  0.925797  1
  O  O37  1  0.324218  0.810731  0.640379  1
  O  O38  1  0.315312  0.624599  0.450797  1
  O  O39  1  0.322992  0.299547  0.128026  1
  O  O40  1  0.177355  0.113474  0.638860  1
  O  O41  1  0.099076  0.457854  0.789378  1
  O  O42  1  0.159715  0.599171  0.122515  1
  O  O43  1  0.086807  0.969604  0.302671  1
  O  O44  1  0.105778  0.404996  0.352654  1
  O  O45  1  0.108893  0.899313  0.846627  1
