# generated using pymatgen
data_Na6Fe2As(CO4)4
_symmetry_space_group_name_H-M   'P 1'
_cell_length_a   10.12557353
_cell_length_b   10.12557410
_cell_length_c   10.12557399
_cell_angle_alpha   89.99999648
_cell_angle_beta   59.99999806
_cell_angle_gamma   59.99999842
_symmetry_Int_Tables_number   1
_chemical_formula_structural   Na6Fe2As(CO4)4
_chemical_formula_sum   'Na12 Fe4 As2 C8 O32'
_cell_volume   734.08091259
_cell_formula_units_Z   2
loop_
 _symmetry_equiv_pos_site_id
 _symmetry_equiv_pos_as_xyz
  1  'x, y, z'
loop_
 _atom_site_type_symbol
 _atom_site_label
 _atom_site_symmetry_multiplicity
 _atom_site_fract_x
 _atom_site_fract_y
 _atom_site_fract_z
 _atom_site_occupancy
  Na  Na0  1  0.750000  0.664699  0.914699  1
  Na  Na1  1  0.670601  0.914699  0.664699  1
  Na  Na2  1  0.750000  0.664699  0.335301  1
  Na  Na3  1  0.750000  0.085301  0.914699  1
  Na  Na4  1  0.829399  0.335301  0.085301  1
  Na  Na5  1  0.250000  0.914699  0.664699  1
  Na  Na6  1  0.170601  0.664699  0.914699  1
  Na  Na7  1  0.750000  0.085301  0.335301  1
  Na  Na8  1  0.250000  0.914699  0.085301  1
  Na  Na9  1  0.250000  0.335301  0.664699  1
  Na  Na10  1  0.329399  0.085301  0.335301  1
  Na  Na11  1  0.250000  0.335301  0.085301  1
  Fe  Fe12  1  0.500000  0.500000  0.500000  1
  Fe  Fe13  1  0.500000  0.500000  0.000000  1
  Fe  Fe14  1  0.000000  0.500000  0.500000  1
  Fe  Fe15  1  0.000000  0.000000  0.500000  1
  As  As16  1  0.750000  0.875000  0.125000  1
  As  As17  1  0.250000  0.125000  0.875000  1
  C  C18  1  0.930570  0.284715  0.715285  1
  C  C19  1  0.569430  0.645857  0.715285  1
  C  C20  1  0.930570  0.284715  0.354143  1
  C  C21  1  0.569430  0.284715  0.715285  1
  C  C22  1  0.430570  0.715285  0.284715  1
  C  C23  1  0.069430  0.715285  0.645857  1
  C  C24  1  0.430570  0.354143  0.284715  1
  C  C25  1  0.069430  0.715285  0.284715  1
  O  O26  1  0.954257  0.855987  0.648236  1
  O  O27  1  0.954257  0.689756  0.397507  1
  O  O28  1  0.792250  0.397507  0.855987  1
  O  O29  1  0.707750  0.648236  0.689756  1
  O  O30  1  0.958481  0.144013  0.689756  1
  O  O31  1  0.889385  0.944692  0.055308  1
  O  O32  1  0.958481  0.397507  0.351764  1
  O  O33  1  0.610615  0.944692  0.334077  1
  O  O34  1  0.889385  0.665923  0.055308  1
  O  O35  1  0.454257  0.648236  0.855987  1
  O  O36  1  0.541519  0.648236  0.602493  1
  O  O37  1  0.610615  0.944692  0.055308  1
  O  O38  1  0.541519  0.310244  0.855987  1
  O  O39  1  0.792250  0.310244  0.351764  1
  O  O40  1  0.707750  0.144013  0.602493  1
  O  O41  1  0.545743  0.602493  0.310244  1
  O  O42  1  0.454257  0.397507  0.689756  1
  O  O43  1  0.292249  0.855987  0.397507  1
  O  O44  1  0.207751  0.689756  0.648236  1
  O  O45  1  0.458481  0.689756  0.144013  1
  O  O46  1  0.389385  0.055308  0.944692  1
  O  O47  1  0.458481  0.351764  0.397507  1
  O  O48  1  0.545743  0.351764  0.144013  1
  O  O49  1  0.110615  0.334077  0.944692  1
  O  O50  1  0.389385  0.055308  0.665923  1
  O  O51  1  0.041519  0.602493  0.648236  1
  O  O52  1  0.110615  0.055308  0.944692  1
  O  O53  1  0.041519  0.855987  0.310244  1
  O  O54  1  0.292249  0.351764  0.310244  1
  O  O55  1  0.207751  0.602493  0.144013  1
  O  O56  1  0.045743  0.310244  0.602493  1
  O  O57  1  0.045743  0.144013  0.351764  1
