# generated using pymatgen
data_Li3V4O5F7
_symmetry_space_group_name_H-M   'P 1'
_cell_length_a   5.86359601
_cell_length_b   6.17363143
_cell_length_c   5.77351849
_cell_angle_alpha   98.18051060
_cell_angle_beta   98.08076008
_cell_angle_gamma   100.26414812
_symmetry_Int_Tables_number   1
_chemical_formula_structural   Li3V4O5F7
_chemical_formula_sum   'Li3 V4 O5 F7'
_cell_volume   200.58671856
_cell_formula_units_Z   1
loop_
 _symmetry_equiv_pos_site_id
 _symmetry_equiv_pos_as_xyz
  1  'x, y, z'
loop_
 _atom_site_type_symbol
 _atom_site_label
 _atom_site_symmetry_multiplicity
 _atom_site_fract_x
 _atom_site_fract_y
 _atom_site_fract_z
 _atom_site_occupancy
  Li  Li0  1  0.324954  0.141148  0.592639  1
  Li  Li1  1  0.589768  0.320959  0.133765  1
  Li  Li2  1  0.851526  0.376643  0.663903  1
  V  V3  1  0.145401  0.627143  0.299443  1
  V  V4  1  0.394749  0.662635  0.849087  1
  V  V5  1  0.691636  0.859026  0.381259  1
  V  V6  1  0.993252  0.986115  0.021836  1
  O  O7  1  0.057736  0.936212  0.334993  1
  O  O8  1  0.101172  0.710774  0.950373  1
  O  O9  1  0.424150  0.797952  0.591189  1
  O  O10  1  0.683405  0.890926  0.027499  1
  O  O11  1  0.436316  0.599145  0.175174  1
  F  F12  1  0.179658  0.419602  0.588899  1
  F  F13  1  0.597679  0.442925  0.809622  1
  F  F14  1  0.830681  0.586279  0.436336  1
  F  F15  1  0.286766  0.128505  0.944043  1
  F  F16  1  0.579357  0.154364  0.391517  1
  F  F17  1  0.960218  0.314726  0.114094  1
  F  F18  1  0.871577  0.044922  0.694328  1
