# generated using pymatgen
data_Li2VO2F
_symmetry_space_group_name_H-M   'P 1'
_cell_length_a   3.03221550
_cell_length_b   10.33938365
_cell_length_c   7.37142478
_cell_angle_alpha   91.54846532
_cell_angle_beta   90.15275351
_cell_angle_gamma   89.80417512
_symmetry_Int_Tables_number   1
_chemical_formula_structural   Li2VO2F
_chemical_formula_sum   'Li8 V4 O8 F4'
_cell_volume   231.01679464
_cell_formula_units_Z   4
loop_
 _symmetry_equiv_pos_site_id
 _symmetry_equiv_pos_as_xyz
  1  'x, y, z'
loop_
 _atom_site_type_symbol
 _atom_site_label
 _atom_site_symmetry_multiplicity
 _atom_site_fract_x
 _atom_site_fract_y
 _atom_site_fract_z
 _atom_site_occupancy
  Li  Li0  1  0.000578  0.677154  0.127227  1
  Li  Li1  1  0.000077  0.171499  0.157631  1
  Li  Li2  1  -0.000251  0.334564  0.840908  1
  Li  Li3  1  0.999744  0.812254  0.871801  1
  Li  Li4  1  0.498942  0.420148  0.158208  1
  Li  Li5  1  0.499167  0.915012  0.119836  1
  Li  Li6  1  0.500596  0.086272  0.843335  1
  Li  Li7  1  0.500719  0.591825  0.865596  1
  V  V8  1  -0.001476  0.007153  0.500581  1
  V  V9  1  0.998997  0.496368  0.501967  1
  V  V10  1  0.497324  0.251029  0.499263  1
  V  V11  1  0.511914  0.740110  0.518493  1
  O  O12  1  0.996218  0.666041  0.654794  1
  O  O13  1  0.985005  0.169428  0.653122  1
  O  O14  1  0.010416  0.331282  0.347916  1
  O  O15  1  0.507117  0.414775  0.652254  1
  O  O16  1  0.504582  0.919050  0.629893  1
  O  O17  1  0.489019  0.083254  0.344571  1
  O  O18  1  0.489802  0.581106  0.359898  1
  O  O19  1  0.500104  0.751409  0.003812  1
  F  F20  1  0.011824  0.828127  0.348276  1
  F  F21  1  0.999780  0.010503  0.997039  1
  F  F22  1  0.999851  0.491008  0.003158  1
  F  F23  1  0.499871  0.250627  0.000421  1
