# generated using pymatgen
data_V4O7F5
_symmetry_space_group_name_H-M   'P 1'
_cell_length_a   5.20031207
_cell_length_b   7.58222365
_cell_length_c   5.31326795
_cell_angle_alpha   91.70111799
_cell_angle_beta   88.31674343
_cell_angle_gamma   90.41545037
_symmetry_Int_Tables_number   1
_chemical_formula_structural   V4O7F5
_chemical_formula_sum   'V4 O7 F5'
_cell_volume   209.31481840
_cell_formula_units_Z   1
loop_
 _symmetry_equiv_pos_site_id
 _symmetry_equiv_pos_as_xyz
  1  'x, y, z'
loop_
 _atom_site_type_symbol
 _atom_site_label
 _atom_site_symmetry_multiplicity
 _atom_site_fract_x
 _atom_site_fract_y
 _atom_site_fract_z
 _atom_site_occupancy
  V  V0  1  0.463048  0.531408  0.513613  1
  V  V1  1  0.531636  0.032960  0.477877  1
  V  V2  1  0.985968  0.463959  0.994495  1
  V  V3  1  0.035958  0.969844  0.983942  1
  O  O4  1  0.921380  0.249728  0.002698  1
  O  O5  1  0.713270  0.967675  0.222362  1
  O  O6  1  0.583878  0.247809  0.498731  1
  O  O7  1  0.418057  0.745873  0.502497  1
  O  O8  1  0.278675  0.032408  0.785272  1
  O  O9  1  0.213990  0.462616  0.703507  1
  O  O10  1  0.076367  0.753722  0.001555  1
  F  F11  1  0.789034  0.539785  0.300535  1
  F  F12  1  0.781157  0.957436  0.719225  1
  F  F13  1  0.697909  0.543752  0.793678  1
  F  F14  1  0.300851  0.459768  0.204740  1
  F  F15  1  0.208822  0.041256  0.295276  1
