# generated using pymatgen
data_Sn3(OF)2
_symmetry_space_group_name_H-M   'P 1'
_cell_length_a   11.50599170
_cell_length_b   5.53556071
_cell_length_c   9.35303732
_cell_angle_alpha   90.00000000
_cell_angle_beta   90.00000000
_cell_angle_gamma   90.00000000
_symmetry_Int_Tables_number   1
_chemical_formula_structural   Sn3(OF)2
_chemical_formula_sum   'Sn12 O8 F8'
_cell_volume   595.71473405
_cell_formula_units_Z   4
loop_
 _symmetry_equiv_pos_site_id
 _symmetry_equiv_pos_as_xyz
  1  'x, y, z'
loop_
 _atom_site_type_symbol
 _atom_site_label
 _atom_site_symmetry_multiplicity
 _atom_site_fract_x
 _atom_site_fract_y
 _atom_site_fract_z
 _atom_site_occupancy
  Sn  Sn0  1  0.076525  0.250000  0.698638  1
  Sn  Sn1  1  0.079199  0.250000  0.080517  1
  Sn  Sn2  1  0.223193  0.750000  0.854392  1
  Sn  Sn3  1  0.276807  0.250000  0.354392  1
  Sn  Sn4  1  0.420801  0.750000  0.580517  1
  Sn  Sn5  1  0.423475  0.750000  0.198638  1
  Sn  Sn6  1  0.576525  0.250000  0.801362  1
  Sn  Sn7  1  0.579199  0.250000  0.419483  1
  Sn  Sn8  1  0.723193  0.750000  0.645608  1
  Sn  Sn9  1  0.776807  0.250000  0.145608  1
  Sn  Sn10  1  0.920801  0.750000  0.919483  1
  Sn  Sn11  1  0.923475  0.750000  0.301362  1
  O  O12  1  0.079729  0.005057  0.889167  1
  O  O13  1  0.079729  0.494943  0.889167  1
  O  O14  1  0.420271  0.505057  0.389167  1
  O  O15  1  0.420271  0.994943  0.389167  1
  O  O16  1  0.579729  0.005057  0.610833  1
  O  O17  1  0.579729  0.494943  0.610833  1
  O  O18  1  0.920271  0.505057  0.110833  1
  O  O19  1  0.920271  0.994943  0.110833  1
  F  F20  1  0.149235  0.750000  0.647395  1
  F  F21  1  0.240805  0.750000  0.204330  1
  F  F22  1  0.259195  0.250000  0.704330  1
  F  F23  1  0.350765  0.250000  0.147396  1
  F  F24  1  0.649235  0.750000  0.852605  1
  F  F25  1  0.740805  0.750000  0.295669  1
  F  F26  1  0.759195  0.250000  0.795670  1
  F  F27  1  0.850765  0.250000  0.352604  1
