# generated using pymatgen
data_Na6Sn2P(CO4)4
_symmetry_space_group_name_H-M   'P 1'
_cell_length_a   10.27685719
_cell_length_b   10.27685691
_cell_length_c   10.27685719
_cell_angle_alpha   60.00000242
_cell_angle_beta   119.99999874
_cell_angle_gamma   119.99999758
_symmetry_Int_Tables_number   1
_chemical_formula_structural   Na6Sn2P(CO4)4
_chemical_formula_sum   'Na12 Sn4 P2 C8 O32'
_cell_volume   767.47806915
_cell_formula_units_Z   2
loop_
 _symmetry_equiv_pos_site_id
 _symmetry_equiv_pos_as_xyz
  1  'x, y, z'
loop_
 _atom_site_type_symbol
 _atom_site_label
 _atom_site_symmetry_multiplicity
 _atom_site_fract_x
 _atom_site_fract_y
 _atom_site_fract_z
 _atom_site_occupancy
  Na  Na0  1  0.675382  0.925382  0.824618  1
  Na  Na1  1  0.925382  0.675382  0.574618  1
  Na  Na2  1  0.925382  0.675382  0.175382  1
  Na  Na3  1  0.675382  0.925382  0.425382  1
  Na  Na4  1  0.925382  0.074618  0.175382  1
  Na  Na5  1  0.675382  0.324618  0.425382  1
  Na  Na6  1  0.074618  0.324618  0.824618  1
  Na  Na7  1  0.074618  0.925382  0.824618  1
  Na  Na8  1  0.324618  0.675382  0.574618  1
  Na  Na9  1  0.324618  0.074618  0.574618  1
  Na  Na10  1  0.074618  0.324618  0.425382  1
  Na  Na11  1  0.324618  0.074618  0.175382  1
  Sn  Sn12  1  0.500000  0.500000  0.500000  1
  Sn  Sn13  1  0.500000  0.000000  0.000000  1
  Sn  Sn14  1  0.500000  0.500000  0.000000  1
  Sn  Sn15  1  0.000000  0.500000  0.000000  1
  P  P16  1  0.875000  0.125000  0.625000  1
  P  P17  1  0.125000  0.875000  0.375000  1
  C  C18  1  0.725747  0.274253  0.774253  1
  C  C19  1  0.725747  0.677243  0.774253  1
  C  C20  1  0.322757  0.274253  0.774253  1
  C  C21  1  0.274253  0.725747  0.822757  1
  C  C22  1  0.677243  0.725747  0.225747  1
  C  C23  1  0.725747  0.274253  0.177243  1
  C  C24  1  0.274253  0.322757  0.225747  1
  C  C25  1  0.274253  0.725747  0.225747  1
  O  O26  1  0.855117  0.279002  0.898609  1
  O  O27  1  0.936969  0.063031  0.810907  1
  O  O28  1  0.855117  0.677505  0.779002  1
  O  O29  1  0.720998  0.677505  0.898609  1
  O  O30  1  0.936969  0.063031  0.563031  1
  O  O31  1  0.936969  0.310907  0.563031  1
  O  O32  1  0.601391  0.144883  0.779002  1
  O  O33  1  0.720998  0.398609  0.644883  1
  O  O34  1  0.689093  0.063031  0.563031  1
  O  O35  1  0.322495  0.144883  0.898609  1
  O  O36  1  0.398609  0.720998  0.822495  1
  O  O37  1  0.601391  0.677505  0.644883  1
  O  O38  1  0.322495  0.398609  0.779002  1
  O  O39  1  0.279002  0.855117  0.822495  1
  O  O40  1  0.855117  0.398609  0.177505  1
  O  O41  1  0.677505  0.720998  0.355117  1
  O  O42  1  0.322495  0.279002  0.644883  1
  O  O43  1  0.144883  0.601391  0.822495  1
  O  O44  1  0.720998  0.144883  0.177505  1
  O  O45  1  0.677505  0.601391  0.220998  1
  O  O46  1  0.398609  0.322495  0.355117  1
  O  O47  1  0.601391  0.279002  0.177505  1
  O  O48  1  0.677505  0.855117  0.101391  1
  O  O49  1  0.310907  0.936969  0.436969  1
  O  O50  1  0.279002  0.601391  0.355117  1
  O  O51  1  0.398609  0.855117  0.220998  1
  O  O52  1  0.063031  0.936969  0.436969  1
  O  O53  1  0.063031  0.689093  0.436969  1
  O  O54  1  0.279002  0.322495  0.101391  1
  O  O55  1  0.144883  0.322495  0.220998  1
  O  O56  1  0.063031  0.936969  0.189093  1
  O  O57  1  0.144883  0.720998  0.101391  1
