# generated using pymatgen
data_LiFePO4
_symmetry_space_group_name_H-M   'P 1'
_cell_length_a   6.60129886
_cell_length_b   9.56104653
_cell_length_c   5.94663015
_cell_angle_alpha   97.01297857
_cell_angle_beta   99.69917998
_cell_angle_gamma   72.39298575
_symmetry_Int_Tables_number   1
_chemical_formula_structural   LiFePO4
_chemical_formula_sum   'Li4 Fe4 P4 O16'
_cell_volume   351.61525878
_cell_formula_units_Z   4
loop_
 _symmetry_equiv_pos_site_id
 _symmetry_equiv_pos_as_xyz
  1  'x, y, z'
loop_
 _atom_site_type_symbol
 _atom_site_label
 _atom_site_symmetry_multiplicity
 _atom_site_fract_x
 _atom_site_fract_y
 _atom_site_fract_z
 _atom_site_occupancy
  Li  Li0  1  0.188454  0.277693  0.586630  1
  Li  Li1  1  0.336790  0.680363  0.438067  1
  Li  Li2  1  0.663210  0.319637  0.561933  1
  Li  Li3  1  0.811546  0.722307  0.413370  1
  Fe  Fe4  1  0.079917  0.712386  0.982502  1
  Fe  Fe5  1  0.356287  0.934010  0.793567  1
  Fe  Fe6  1  0.643713  0.065990  0.206433  1
  Fe  Fe7  1  0.920083  0.287614  0.017498  1
  P  P8  1  0.291060  0.384123  0.151078  1
  P  P9  1  0.180834  0.009435  0.284772  1
  P  P10  1  0.819166  0.990565  0.715228  1
  P  P11  1  0.708940  0.615877  0.848922  1
  O  O12  1  0.260540  0.063195  0.531057  1
  O  O13  1  0.125625  0.359323  0.291513  1
  O  O14  1  0.228590  0.332810  0.901387  1
  O  O15  1  0.049441  0.887953  0.788879  1
  O  O16  1  0.333827  0.026405  0.123198  1
  O  O17  1  0.281704  0.550391  0.178838  1
  O  O18  1  0.181366  0.847272  0.275003  1
  O  O19  1  0.476031  0.703244  0.745775  1
  O  O20  1  0.523969  0.296756  0.254225  1
  O  O21  1  0.818634  0.152728  0.724997  1
  O  O22  1  0.718296  0.449609  0.821162  1
  O  O23  1  0.666173  0.973595  0.876802  1
  O  O24  1  0.950559  0.112047  0.211121  1
  O  O25  1  0.771410  0.667190  0.098613  1
  O  O26  1  0.874375  0.640677  0.708487  1
  O  O27  1  0.739460  0.936805  0.468943  1
