# generated using pymatgen
data_Cs2MgH8(CO5)2
_symmetry_space_group_name_H-M   'P 1'
_cell_length_a   6.76497892
_cell_length_b   12.61063271
_cell_length_c   13.11948601
_cell_angle_alpha   90.00000000
_cell_angle_beta   90.00000000
_cell_angle_gamma   90.00000000
_symmetry_Int_Tables_number   1
_chemical_formula_structural   Cs2MgH8(CO5)2
_chemical_formula_sum   'Cs8 Mg4 H32 C8 O40'
_cell_volume   1119.23206877
_cell_formula_units_Z   4
loop_
 _symmetry_equiv_pos_site_id
 _symmetry_equiv_pos_as_xyz
  1  'x, y, z'
loop_
 _atom_site_type_symbol
 _atom_site_label
 _atom_site_symmetry_multiplicity
 _atom_site_fract_x
 _atom_site_fract_y
 _atom_site_fract_z
 _atom_site_occupancy
  Cs  Cs0  1  0.630570  0.272576  0.370608  1
  Cs  Cs1  1  0.130570  0.227424  0.629392  1
  Cs  Cs2  1  0.369430  0.772576  0.129392  1
  Cs  Cs3  1  0.869430  0.727424  0.870608  1
  Cs  Cs4  1  0.369430  0.727424  0.629392  1
  Cs  Cs5  1  0.869430  0.772576  0.370608  1
  Cs  Cs6  1  0.630570  0.227424  0.870608  1
  Cs  Cs7  1  0.130570  0.272576  0.129392  1
  Mg  Mg8  1  0.500000  0.000000  0.500000  1
  Mg  Mg9  1  0.000000  0.500000  0.500000  1
  Mg  Mg10  1  0.500000  0.500000  0.000000  1
  Mg  Mg11  1  0.000000  0.000000  0.000000  1
  H  H12  1  0.721700  0.569986  0.605314  1
  H  H13  1  0.221700  0.930014  0.394686  1
  H  H14  1  0.278300  0.069986  0.894686  1
  H  H15  1  0.778300  0.430014  0.105314  1
  H  H16  1  0.278300  0.430014  0.394686  1
  H  H17  1  0.778300  0.069986  0.605314  1
  H  H18  1  0.721700  0.930014  0.105314  1
  H  H19  1  0.221700  0.569986  0.894686  1
  H  H20  1  0.851665  0.683635  0.597748  1
  H  H21  1  0.351665  0.816365  0.402252  1
  H  H22  1  0.148335  0.183635  0.902252  1
  H  H23  1  0.648335  0.316365  0.097748  1
  H  H24  1  0.148335  0.316365  0.402252  1
  H  H25  1  0.648335  0.183635  0.597748  1
  H  H26  1  0.851665  0.816365  0.097748  1
  H  H27  1  0.351665  0.683635  0.902252  1
  H  H28  1  0.631386  0.482087  0.787622  1
  H  H29  1  0.131386  0.017913  0.212378  1
  H  H30  1  0.368614  0.982087  0.712378  1
  H  H31  1  0.868614  0.517913  0.287622  1
  H  H32  1  0.368614  0.517913  0.212378  1
  H  H33  1  0.868614  0.982087  0.787622  1
  H  H34  1  0.631386  0.017913  0.287622  1
  H  H35  1  0.131386  0.482087  0.712378  1
  H  H36  1  0.818051  0.472357  0.860519  1
  H  H37  1  0.318051  0.027643  0.139481  1
  H  H38  1  0.181949  0.972357  0.639481  1
  H  H39  1  0.681949  0.527643  0.360519  1
  H  H40  1  0.181949  0.527643  0.139481  1
  H  H41  1  0.681949  0.972357  0.860519  1
  H  H42  1  0.818051  0.027643  0.360519  1
  H  H43  1  0.318051  0.472357  0.639481  1
  C  C44  1  0.658242  0.113651  0.118942  1
  C  C45  1  0.158242  0.386349  0.881058  1
  C  C46  1  0.341758  0.613651  0.381058  1
  C  C47  1  0.841758  0.886349  0.618942  1
  C  C48  1  0.341758  0.886349  0.881058  1
  C  C49  1  0.841758  0.613651  0.118942  1
  C  C50  1  0.658242  0.386349  0.618942  1
  C  C51  1  0.158242  0.113651  0.381058  1
  O  O52  1  0.695715  0.887656  0.554542  1
  O  O53  1  0.195715  0.612344  0.445458  1
  O  O54  1  0.304285  0.387656  0.945458  1
  O  O55  1  0.804285  0.112344  0.054542  1
  O  O56  1  0.304285  0.112344  0.445458  1
  O  O57  1  0.804285  0.387656  0.554542  1
  O  O58  1  0.695715  0.612344  0.054542  1
  O  O59  1  0.195715  0.887656  0.945458  1
  O  O60  1  0.578448  0.202067  0.146398  1
  O  O61  1  0.078448  0.297933  0.853602  1
  O  O62  1  0.421552  0.702067  0.353602  1
  O  O63  1  0.921552  0.797933  0.646398  1
  O  O64  1  0.421552  0.797933  0.853602  1
  O  O65  1  0.921552  0.702067  0.146398  1
  O  O66  1  0.578448  0.297933  0.646398  1
  O  O67  1  0.078448  0.202067  0.353602  1
  O  O68  1  0.410368  0.523678  0.343509  1
  O  O69  1  0.910368  0.976322  0.656491  1
  O  O70  1  0.589632  0.023678  0.156491  1
  O  O71  1  0.089632  0.476322  0.843509  1
  O  O72  1  0.589632  0.476322  0.656491  1
  O  O73  1  0.089632  0.023678  0.343509  1
  O  O74  1  0.410368  0.976322  0.843509  1
  O  O75  1  0.910368  0.523678  0.156491  1
  O  O76  1  0.684454  0.114797  0.562864  1
  O  O77  1  0.184454  0.385203  0.437136  1
  O  O78  1  0.315546  0.614797  0.937136  1
  O  O79  1  0.815546  0.885203  0.062864  1
  O  O80  1  0.315546  0.885203  0.437136  1
  O  O81  1  0.815546  0.614797  0.562864  1
  O  O82  1  0.684454  0.385203  0.062864  1
  O  O83  1  0.184454  0.114797  0.937136  1
  O  O84  1  0.672358  0.016430  0.360747  1
  O  O85  1  0.172358  0.483570  0.639253  1
  O  O86  1  0.327642  0.516430  0.139253  1
  O  O87  1  0.827642  0.983570  0.860747  1
  O  O88  1  0.327642  0.983570  0.639253  1
  O  O89  1  0.827642  0.516430  0.360747  1
  O  O90  1  0.672358  0.483570  0.860747  1
  O  O91  1  0.172358  0.016430  0.139253  1
