# generated using pymatgen
data_V8Sn16H85(C8O9)4
_symmetry_space_group_name_H-M   'P 1'
_cell_length_a   12.86740235
_cell_length_b   13.40505350
_cell_length_c   13.64377353
_cell_angle_alpha   90.01620826
_cell_angle_beta   90.13797593
_cell_angle_gamma   89.87685856
_symmetry_Int_Tables_number   1
_chemical_formula_structural   V8Sn16H85(C8O9)4
_chemical_formula_sum   'V8 Sn16 H85 C32 O36'
_cell_volume   2353.37781784
_cell_formula_units_Z   1
loop_
 _symmetry_equiv_pos_site_id
 _symmetry_equiv_pos_as_xyz
  1  'x, y, z'
loop_
 _atom_site_type_symbol
 _atom_site_label
 _atom_site_symmetry_multiplicity
 _atom_site_fract_x
 _atom_site_fract_y
 _atom_site_fract_z
 _atom_site_occupancy
  V  V0  1  0.523527  0.251339  0.630130  1
  V  V1  1  0.023762  0.751517  0.869808  1
  V  V2  1  0.023793  0.248433  0.869757  1
  V  V3  1  0.523271  0.748461  0.630277  1
  V  V4  1  0.476836  0.251616  0.369239  1
  V  V5  1  0.976789  0.751693  0.130938  1
  V  V6  1  0.976529  0.248188  0.130423  1
  V  V7  1  0.475699  0.746524  0.369494  1
  Sn  Sn8  1  0.791898  0.253623  0.730589  1
  Sn  Sn9  1  0.122238  0.000091  0.801501  1
  Sn  Sn10  1  0.291846  0.753665  0.769445  1
  Sn  Sn11  1  0.291863  0.246265  0.769430  1
  Sn  Sn12  1  0.370104  0.999865  0.714419  1
  Sn  Sn13  1  0.622019  0.499902  0.698282  1
  Sn  Sn14  1  0.791620  0.745966  0.730029  1
  Sn  Sn15  1  0.870362  0.499752  0.785681  1
  Sn  Sn16  1  0.208489  0.253627  0.269805  1
  Sn  Sn17  1  0.633726  0.003540  0.284370  1
  Sn  Sn18  1  0.708163  0.755092  0.230006  1
  Sn  Sn19  1  0.708586  0.247693  0.229483  1
  Sn  Sn20  1  0.881530  0.999607  0.195963  1
  Sn  Sn21  1  0.131021  0.500233  0.220229  1
  Sn  Sn22  1  0.208100  0.746313  0.269909  1
  Sn  Sn23  1  0.382367  0.500043  0.303395  1
  H  H24  1  0.512696  0.566407  0.854378  1
  H  H25  1  0.615695  0.433643  0.510926  1
  H  H26  1  0.693891  0.112485  0.837186  1
  H  H27  1  0.696454  0.228246  0.903023  1
  H  H28  1  0.809513  0.149193  0.902212  1
  H  H29  1  0.847193  0.159430  0.561068  1
  H  H30  1  0.890214  0.432635  0.973511  1
  H  H31  1  0.886718  0.287540  0.557725  1
  H  H32  1  0.961935  0.199452  0.626125  1
  H  H33  1  0.012674  0.933508  0.645316  1
  H  H34  1  0.012521  0.066398  0.645300  1
  H  H35  1  0.034384  0.567152  0.681317  1
  H  H36  1  0.124203  0.999861  0.601497  1
  H  H37  1  0.116342  0.933550  0.988918  1
  H  H38  1  0.115838  0.066350  0.988993  1
  H  H39  1  0.193830  0.612526  0.662636  1
  H  H40  1  0.193634  0.387643  0.662569  1
  H  H41  1  0.196225  0.728182  0.596694  1
  H  H42  1  0.196303  0.271910  0.596698  1
  H  H43  1  0.235851  0.000014  0.968471  1
  H  H44  1  0.270852  0.000195  0.540928  1
  H  H45  1  0.309302  0.649225  0.597862  1
  H  H46  1  0.309230  0.350622  0.597898  1
  H  H47  1  0.347327  0.659497  0.938869  1
  H  H48  1  0.347163  0.340548  0.938851  1
  H  H49  1  0.389694  0.932470  0.526628  1
  H  H50  1  0.390008  0.067217  0.526610  1
  H  H51  1  0.387017  0.787516  0.942455  1
  H  H52  1  0.387142  0.212495  0.942526  1
  H  H53  1  0.462088  0.699448  0.874150  1
  H  H54  1  0.461976  0.300393  0.874063  1
  H  H55  1  0.448977  0.000005  0.899252  1
  H  H56  1  0.512809  0.433546  0.854405  1
  H  H57  1  0.534690  0.932698  0.818993  1
  H  H58  1  0.534499  0.067155  0.818879  1
  H  H59  1  0.624418  0.499909  0.898484  1
  H  H60  1  0.615630  0.566321  0.510974  1
  H  H61  1  0.693328  0.887350  0.836971  1
  H  H62  1  0.695747  0.771393  0.902592  1
  H  H63  1  0.735630  0.499869  0.531854  1
  H  H64  1  0.771054  0.500108  0.958751  1
  H  H65  1  0.808756  0.849344  0.901224  1
  H  H66  1  0.847004  0.840574  0.560974  1
  H  H67  1  0.890073  0.567316  0.973472  1
  H  H68  1  0.887059  0.712453  0.557404  1
  H  H69  1  0.961754  0.800331  0.626291  1
  H  H70  1  0.948642  0.499994  0.600809  1
  H  H71  1  0.964901  0.567484  0.319059  1
  H  H72  1  0.034632  0.432670  0.681189  1
  H  H73  1  0.038425  0.195278  0.372632  1
  H  H74  1  0.110599  0.286372  0.441717  1
  H  H75  1  0.153928  0.159252  0.438461  1
  H  H76  1  0.192099  0.149630  0.099595  1
  H  H77  1  0.304334  0.228941  0.097569  1
  H  H78  1  0.308893  0.112967  0.163374  1
  H  H79  1  0.454765  0.941775  0.181901  1
  H  H80  1  0.541896  0.010711  0.096087  1
  H  H81  1  0.538604  0.695404  0.127234  1
  H  H82  1  0.537888  0.305172  0.126440  1
  H  H83  1  0.610069  0.786446  0.057904  1
  H  H84  1  0.610567  0.213859  0.058273  1
  H  H85  1  0.603906  0.939156  0.481170  1
  H  H86  1  0.654200  0.659341  0.061868  1
  H  H87  1  0.653024  0.341189  0.060508  1
  H  H88  1  0.691124  0.650779  0.400476  1
  H  H89  1  0.691376  0.350199  0.401299  1
  H  H90  1  0.726217  0.012205  0.469299  1
  H  H91  1  0.764592  0.009514  0.022909  1
  H  H92  1  0.804324  0.728919  0.402746  1
  H  H93  1  0.804243  0.271109  0.402266  1
  H  H94  1  0.806286  0.613293  0.336215  1
  H  H95  1  0.806711  0.387762  0.337642  1
  H  H96  1  0.891244  0.944262  0.998220  1
  H  H97  1  0.890231  0.999168  0.413551  1
  H  H98  1  0.965187  0.432600  0.318962  1
  H  H99  1  0.049924  0.499974  0.400694  1
  H  H100  1  0.038187  0.804922  0.372797  1
  H  H101  1  0.110570  0.713710  0.441818  1
  H  H102  1  0.153769  0.840717  0.438530  1
  H  H103  1  0.191008  0.849552  0.099013  1
  H  H104  1  0.221056  0.499852  0.021144  1
  H  H105  1  0.264550  0.500170  0.488858  1
  H  H106  1  0.304398  0.771083  0.097534  1
  H  H107  1  0.306173  0.887186  0.163357  1
  H  H108  1  0.389475  0.500020  0.086109  1
  C  C109  1  0.742505  0.175369  0.859733  1
  C  C110  1  0.883413  0.219976  0.602854  1
  C  C111  1  0.060545  0.999912  0.654638  1
  C  C112  1  0.151555  0.000014  0.956687  1
  C  C113  1  0.242374  0.675396  0.640179  1
  C  C114  1  0.242315  0.324649  0.640183  1
  C  C115  1  0.354382  -0.000001  0.557100  1
  C  C116  1  0.383640  0.719974  0.897258  1
  C  C117  1  0.383603  0.279971  0.897254  1
  C  C118  1  0.487407  0.999959  0.827401  1
  C  C119  1  0.560693  0.499927  0.845104  1
  C  C120  1  0.651330  0.499929  0.543282  1
  C  C121  1  0.741609  0.823889  0.858966  1
  C  C122  1  0.854586  0.500009  0.942903  1
  C  C123  1  0.883384  0.779925  0.602691  1
  C  C124  1  0.987282  0.499936  0.672747  1
  C  C125  1  0.115896  0.218825  0.396581  1
  C  C126  1  0.259483  0.175713  0.141251  1
  C  C127  1  0.523053  0.988320  0.170976  1
  C  C128  1  0.615834  0.719049  0.103155  1
  C  C129  1  0.615442  0.281878  0.102716  1
  C  C130  1  0.652783  0.987851  0.437075  1
  C  C131  1  0.758269  0.676674  0.358786  1
  C  C132  1  0.758376  0.324410  0.359196  1
  C  C133  1  0.842398  0.988269  0.046945  1
  C  C134  1  0.930529  0.001180  0.343058  1
  C  C135  1  0.011591  0.500022  0.328726  1
  C  C136  1  0.115695  0.781257  0.396717  1
  C  C137  1  0.152851  0.500082  0.068509  1
  C  C138  1  0.258308  0.823722  0.140995  1
  C  C139  1  0.340056  0.499955  0.452030  1
  C  C140  1  0.430924  0.499785  0.156126  1
  O  O141  1  0.431582  0.178953  0.692325  1
  O  O142  1  0.508477  0.370171  0.668910  1
  O  O143  1  0.648066  0.213315  0.656171  1
  O  O144  1  0.753112  0.401105  0.734841  1
  O  O145  1  0.931783  0.679087  0.807330  1
  O  O146  1  0.931598  0.321036  0.807329  1
  O  O147  1  0.999402  0.744066  0.000591  1
  O  O148  1  0.008051  0.870667  0.831404  1
  O  O149  1  0.008570  0.129556  0.830742  1
  O  O150  1  0.148186  0.713816  0.843890  1
  O  O151  1  0.148046  0.286221  0.843885  1
  O  O152  1  0.253102  0.901256  0.765102  1
  O  O153  1  0.253054  0.098811  0.765085  1
  O  O154  1  0.431334  0.821141  0.692585  1
  O  O155  1  0.500228  0.758039  0.499363  1
  O  O156  1  0.508501  0.629669  0.668863  1
  O  O157  1  0.647731  0.786745  0.655736  1
  O  O158  1  0.753028  0.598618  0.734629  1
  O  O159  1  0.249143  0.401327  0.265164  1
  O  O160  1  0.352846  0.213539  0.345192  1
  O  O161  1  0.490444  0.372370  0.331141  1
  O  O162  1  0.500466  0.242973  0.498931  1
  O  O163  1  0.569163  0.177345  0.306913  1
  O  O164  1  0.750089  0.901745  0.236545  1
  O  O165  1  0.749801  0.099838  0.234550  1
  O  O166  1  0.853095  0.713322  0.156205  1
  O  O167  1  0.852713  0.287751  0.155716  1
  O  O168  1  0.991849  0.871797  0.169792  1
  O  O169  1  0.990178  0.127626  0.168585  1
  O  O170  1  0.999800  0.256460  0.000540  1
  O  O171  1  0.069096  0.678343  0.193052  1
  O  O172  1  0.068879  0.320839  0.192759  1
  O  O173  1  0.249179  0.598543  0.265203  1
  O  O174  1  0.352024  0.786434  0.344384  1
  O  O175  1  0.489700  0.625449  0.331779  1
  O  O176  1  0.566978  0.818791  0.307389  1
