# generated using pymatgen
data_Na3VO3
_symmetry_space_group_name_H-M   'P 1'
_cell_length_a   5.95185296
_cell_length_b   12.75476529
_cell_length_c   5.93627665
_cell_angle_alpha   90.00000000
_cell_angle_beta   115.29287027
_cell_angle_gamma   90.00000000
_symmetry_Int_Tables_number   1
_chemical_formula_structural   Na3VO3
_chemical_formula_sum   'Na12 V4 O12'
_cell_volume   407.44822013
_cell_formula_units_Z   4
loop_
 _symmetry_equiv_pos_site_id
 _symmetry_equiv_pos_as_xyz
  1  'x, y, z'
loop_
 _atom_site_type_symbol
 _atom_site_label
 _atom_site_symmetry_multiplicity
 _atom_site_fract_x
 _atom_site_fract_y
 _atom_site_fract_z
 _atom_site_occupancy
  Na  Na0  1  0.143938  0.221971  0.699120  1
  Na  Na1  1  0.247699  0.483763  0.780592  1
  Na  Na2  1  0.252301  0.983763  0.719408  1
  Na  Na3  1  0.356062  0.721971  0.800880  1
  Na  Na4  1  0.284011  0.593574  0.356975  1
  Na  Na5  1  0.215989  0.093574  0.143025  1
  Na  Na6  1  0.784011  0.906426  0.856975  1
  Na  Na7  1  0.715989  0.406426  0.643025  1
  Na  Na8  1  0.643938  0.278029  0.199120  1
  Na  Na9  1  0.747699  0.016237  0.280592  1
  Na  Na10  1  0.752301  0.516237  0.219408  1
  Na  Na11  1  0.856062  0.778029  0.300880  1
  V  V12  1  0.172112  0.335028  0.252728  1
  V  V13  1  0.327888  0.835028  0.247272  1
  V  V14  1  0.672112  0.164972  0.752728  1
  V  V15  1  0.827888  0.664972  0.747272  1
  O  O16  1  0.004162  0.372601  0.451449  1
  O  O17  1  0.117176  0.935964  0.301104  1
  O  O18  1  0.079154  0.727233  0.049344  1
  O  O19  1  0.504162  0.127399  0.951449  1
  O  O20  1  0.420846  0.227233  0.450656  1
  O  O21  1  0.617176  0.564036  0.801104  1
  O  O22  1  0.382824  0.435964  0.198896  1
  O  O23  1  0.579154  0.772767  0.549344  1
  O  O24  1  0.495838  0.872601  0.048551  1
  O  O25  1  0.920846  0.272767  0.950656  1
  O  O26  1  0.882824  0.064036  0.698896  1
  O  O27  1  0.995838  0.627399  0.548551  1
