# generated using pymatgen
data_Rb2Fe4O7
_symmetry_space_group_name_H-M   'P 1'
_cell_length_a   5.36584780
_cell_length_b   5.36583386
_cell_length_c   7.05631953
_cell_angle_alpha   90.01782357
_cell_angle_beta   89.99109520
_cell_angle_gamma   119.99991475
_symmetry_Int_Tables_number   1
_chemical_formula_structural   Rb2Fe4O7
_chemical_formula_sum   'Rb2 Fe4 O7'
_cell_volume   175.94818589
_cell_formula_units_Z   1
loop_
 _symmetry_equiv_pos_site_id
 _symmetry_equiv_pos_as_xyz
  1  'x, y, z'
loop_
 _atom_site_type_symbol
 _atom_site_label
 _atom_site_symmetry_multiplicity
 _atom_site_fract_x
 _atom_site_fract_y
 _atom_site_fract_z
 _atom_site_occupancy
  Rb  Rb0  1  0.333337  0.666640  0.999972  1
  Rb  Rb1  1  0.666663  0.333304  0.999972  1
  Fe  Fe2  1  0.000000  -0.000022  0.272923  1
  Fe  Fe3  1  1.000000  0.999988  0.727130  1
  Fe  Fe4  1  0.333343  0.666662  0.499999  1
  Fe  Fe5  1  0.666657  0.333319  0.499999  1
  O  O6  1  1.000000  0.650414  0.339462  1
  O  O7  1  0.000000  0.349536  0.660535  1
  O  O8  1  1.000000  0.999982  0.000015  1
  O  O9  1  0.349614  0.349619  0.339469  1
  O  O10  1  0.650408  0.650380  0.660527  1
  O  O11  1  0.349592  0.999973  0.660527  1
  O  O12  1  0.650386  0.000006  0.339469  1
