# generated using pymatgen
data_Li3Fe4(BO3)4
_symmetry_space_group_name_H-M   'P 1'
_cell_length_a   5.25037974
_cell_length_b   9.03181688
_cell_length_c   10.21909640
_cell_angle_alpha   90.92234751
_cell_angle_beta   90.80071773
_cell_angle_gamma   89.65053157
_symmetry_Int_Tables_number   1
_chemical_formula_structural   Li3Fe4(BO3)4
_chemical_formula_sum   'Li6 Fe8 B8 O24'
_cell_volume   484.47587048
_cell_formula_units_Z   2
loop_
 _symmetry_equiv_pos_site_id
 _symmetry_equiv_pos_as_xyz
  1  'x, y, z'
loop_
 _atom_site_type_symbol
 _atom_site_label
 _atom_site_symmetry_multiplicity
 _atom_site_fract_x
 _atom_site_fract_y
 _atom_site_fract_z
 _atom_site_occupancy
  Li  Li0  1  0.819251  0.838012  0.157529  1
  Li  Li1  1  0.681933  0.671807  0.421042  1
  Li  Li2  1  0.660250  0.674733  0.904500  1
  Li  Li3  1  0.348482  0.322646  0.665618  1
  Li  Li4  1  0.313129  0.336574  0.162961  1
  Li  Li5  1  0.175116  0.166019  0.403777  1
  Fe  Fe6  1  0.853121  0.153424  0.633901  1
  Fe  Fe7  1  0.817380  0.499999  0.133000  1
  Fe  Fe8  1  0.676664  0.010244  0.880419  1
  Fe  Fe9  1  0.663300  0.333105  0.384196  1
  Fe  Fe10  1  0.321120  0.666600  0.631824  1
  Fe  Fe11  1  0.318034  0.005558  0.124240  1
  Fe  Fe12  1  0.166104  0.841346  0.378299  1
  Fe  Fe13  1  0.164676  0.491830  0.888387  1
  B  B14  1  0.823190  0.494642  0.626367  1
  B  B15  1  0.826733  0.170728  0.128443  1
  B  B16  1  0.667784  0.000724  0.374311  1
  B  B17  1  0.671595  0.336323  0.873721  1
  B  B18  1  0.349825  0.001725  0.629383  1
  B  B19  1  0.329058  0.669186  0.126313  1
  B  B20  1  0.163862  0.503797  0.381650  1
  B  B21  1  0.173663  0.833009  0.876680  1
  O  O22  1  0.906449  0.515645  0.350854  1
  O  O23  1  0.912575  0.840350  0.884321  1
  O  O24  1  0.812255  0.206483  0.850438  1
  O  O25  1  0.803459  0.123813  0.418268  1
  O  O26  1  0.788511  0.865299  0.358527  1
  O  O27  1  0.795379  0.465962  0.915428  1
  O  O28  1  0.681313  0.624326  0.624049  1
  O  O29  1  0.705696  0.039949  0.083416  1
  O  O30  1  0.705635  0.362054  0.597135  1
  O  O31  1  0.678611  0.292357  0.165602  1
  O  O32  1  0.590598  0.678798  0.110403  1
  O  O33  1  0.589757  0.000285  0.687052  1
  O  O34  1  0.410798  0.013129  0.342546  1
  O  O35  1  0.416996  0.336205  0.852044  1
  O  O36  1  0.297795  0.702972  0.830597  1
  O  O37  1  0.298524  0.628915  0.427789  1
  O  O38  1  0.289359  0.370690  0.365549  1
  O  O39  1  0.326650  0.948336  0.919191  1
  O  O40  1  0.206962  0.535576  0.097917  1
  O  O41  1  0.224577  0.132509  0.605591  1
  O  O42  1  0.238180  0.868603  0.589382  1
  O  O43  1  0.190562  0.792359  0.166261  1
  O  O44  1  0.085268  0.176138  0.139585  1
  O  O45  1  0.085615  0.498067  0.654531  1
