# generated using pymatgen
data_Bi24B2O39
_symmetry_space_group_name_H-M   'P 1'
_cell_length_a   8.88414541
_cell_length_b   8.73859582
_cell_length_c   14.25180562
_cell_angle_alpha   89.82874476
_cell_angle_beta   89.96600688
_cell_angle_gamma   109.73363643
_symmetry_Int_Tables_number   1
_chemical_formula_structural   Bi24B2O39
_chemical_formula_sum   'Bi24 B2 O39'
_cell_volume   1041.45376846
_cell_formula_units_Z   1
loop_
 _symmetry_equiv_pos_site_id
 _symmetry_equiv_pos_as_xyz
  1  'x, y, z'
loop_
 _atom_site_type_symbol
 _atom_site_label
 _atom_site_symmetry_multiplicity
 _atom_site_fract_x
 _atom_site_fract_y
 _atom_site_fract_z
 _atom_site_occupancy
  Bi  Bi0  1  0.790964  0.614824  0.082142  1
  Bi  Bi1  1  0.408388  0.242927  0.089190  1
  Bi  Bi2  1  0.478515  0.188351  0.361399  1
  Bi  Bi3  1  0.826656  0.524408  0.335416  1
  Bi  Bi4  1  0.031435  0.329039  0.164083  1
  Bi  Bi5  1  0.657767  0.992251  0.175738  1
  Bi  Bi6  1  0.738539  0.241823  0.572322  1
  Bi  Bi7  1  0.231368  0.756652  0.073126  1
  Bi  Bi8  1  0.441820  0.580831  0.250957  1
  Bi  Bi9  1  0.940657  0.072694  0.759805  1
  Bi  Bi10  1  0.275083  0.084404  0.584405  1
  Bi  Bi11  1  0.727723  0.887153  0.407938  1
  Bi  Bi12  1  0.891840  0.730861  0.590331  1
  Bi  Bi13  1  0.084453  0.276800  0.420321  1
  Bi  Bi14  1  0.081881  0.948576  0.242530  1
  Bi  Bi15  1  0.566930  0.443908  0.724030  1
  Bi  Bi16  1  0.238421  0.734629  0.427889  1
  Bi  Bi17  1  0.743725  0.272572  0.917557  1
  Bi  Bi18  1  0.323457  0.010795  0.838626  1
  Bi  Bi19  1  0.988299  0.671810  0.852113  1
  Bi  Bi20  1  0.520813  0.828080  0.657999  1
  Bi  Bi21  1  0.149567  0.488026  0.654586  1
  Bi  Bi22  1  0.201501  0.360737  0.914720  1
  Bi  Bi23  1  0.564902  0.735123  0.903323  1
  B  B24  1  0.011662  0.988671  0.996646  1
  B  B25  1  0.509159  0.508267  0.502285  1
  O  O26  1  0.705146  0.318974  0.058338  1
  O  O27  1  0.912787  0.046569  0.298169  1
  O  O28  1  0.183115  0.991688  0.996557  1
  O  O29  1  0.432287  0.037730  0.157883  1
  O  O30  1  0.937761  0.587247  0.193034  1
  O  O31  1  0.928298  0.905977  0.085397  1
  O  O32  1  0.009812  0.163568  0.992472  1
  O  O33  1  0.549957  0.418339  0.197224  1
  O  O34  1  0.821233  0.212996  0.436833  1
  O  O35  1  0.204425  0.202663  0.199126  1
  O  O36  1  0.245916  0.500740  0.112281  1
  O  O37  1  0.528051  0.753959  0.129667  1
  O  O38  1  0.241303  0.024485  0.375359  1
  O  O39  1  0.994227  0.739469  0.390753  1
  O  O40  1  0.500490  0.103103  0.502375  1
  O  O41  1  0.003204  0.605172  0.001292  1
  O  O42  1  0.698384  0.697320  0.299683  1
  O  O43  1  0.677502  0.506181  0.504776  1
  O  O44  1  0.416757  0.405923  0.420293  1
  O  O45  1  0.082605  0.436450  0.308181  1
  O  O46  1  0.925500  0.544811  0.674371  1
  O  O47  1  0.438275  0.082123  0.692154  1
  O  O48  1  0.556767  0.938701  0.318091  1
  O  O49  1  0.506830  0.680839  0.494435  1
  O  O50  1  0.420418  0.431780  0.594184  1
  O  O51  1  0.697785  0.700985  0.697262  1
  O  O52  1  0.105823  0.501031  0.501155  1
  O  O53  1  0.739567  0.994463  0.611233  1
  O  O54  1  0.012724  0.242493  0.629915  1
  O  O55  1  0.487064  0.220900  0.899726  1
  O  O56  1  0.743932  0.517278  0.873758  1
  O  O57  1  0.197102  0.193732  0.801226  1
  O  O58  1  0.213386  0.818900  0.564327  1
  O  O59  1  0.422238  0.551452  0.804118  1
  O  O60  1  0.924460  0.897321  0.909738  1
  O  O61  1  0.577724  0.926558  0.810589  1
  O  O62  1  0.030034  0.417494  0.831234  1
  O  O63  1  0.048614  0.919142  0.694086  1
  O  O64  1  0.332265  0.747228  0.939221  1
