# generated using pymatgen
data_LiFeP2HO7
_symmetry_space_group_name_H-M   'P 1'
_cell_length_a   6.61441315
_cell_length_b   6.49397855
_cell_length_c   6.59822300
_cell_angle_alpha   69.34745971
_cell_angle_beta   92.91434320
_cell_angle_gamma   98.19093383
_symmetry_Int_Tables_number   1
_chemical_formula_structural   LiFeP2HO7
_chemical_formula_sum   'Li2 Fe2 P4 H2 O14'
_cell_volume   262.50015070
_cell_formula_units_Z   2
loop_
 _symmetry_equiv_pos_site_id
 _symmetry_equiv_pos_as_xyz
  1  'x, y, z'
loop_
 _atom_site_type_symbol
 _atom_site_label
 _atom_site_symmetry_multiplicity
 _atom_site_fract_x
 _atom_site_fract_y
 _atom_site_fract_z
 _atom_site_occupancy
  Li  Li0  1  0.136711  0.243984  0.787144  1
  Li  Li1  1  0.863289  0.756016  0.212856  1
  Fe  Fe2  1  0.349264  0.108095  0.277402  1
  Fe  Fe3  1  0.650736  0.891905  0.722598  1
  P  P4  1  0.158846  0.785922  0.755870  1
  P  P5  1  0.386916  0.640570  0.177420  1
  P  P6  1  0.613084  0.359430  0.822580  1
  P  P7  1  0.841154  0.214078  0.244130  1
  H  H8  1  0.177057  0.672559  0.483305  1
  H  H9  1  0.822943  0.327441  0.516695  1
  O  O10  1  0.093637  0.617754  0.630882  1
  O  O11  1  0.015935  0.105480  0.201936  1
  O  O12  1  0.231709  0.620303  0.981302  1
  O  O13  1  0.282228  0.779049  0.280129  1
  O  O14  1  0.337968  0.953403  0.639476  1
  O  O15  1  0.383766  0.402993  0.327054  1
  O  O16  1  0.406991  0.241849  0.925853  1
  O  O17  1  0.593009  0.758151  0.074147  1
  O  O18  1  0.616234  0.597007  0.672946  1
  O  O19  1  0.662032  0.046597  0.360524  1
  O  O20  1  0.717772  0.220951  0.719871  1
  O  O21  1  0.768291  0.379697  0.018698  1
  O  O22  1  0.984065  0.894520  0.798064  1
  O  O23  1  0.906362  0.382246  0.369118  1
