# generated using pymatgen
data_Ba2Nd2Fe4O11
_symmetry_space_group_name_H-M   'P 1'
_cell_length_a   3.96736644
_cell_length_b   8.08873892
_cell_length_c   15.80985333
_cell_angle_alpha   89.99982933
_cell_angle_beta   89.99976774
_cell_angle_gamma   90.00009355
_symmetry_Int_Tables_number   1
_chemical_formula_structural   Ba2Nd2Fe4O11
_chemical_formula_sum   'Ba4 Nd4 Fe8 O22'
_cell_volume   507.35386619
_cell_formula_units_Z   2
loop_
 _symmetry_equiv_pos_site_id
 _symmetry_equiv_pos_as_xyz
  1  'x, y, z'
loop_
 _atom_site_type_symbol
 _atom_site_label
 _atom_site_symmetry_multiplicity
 _atom_site_fract_x
 _atom_site_fract_y
 _atom_site_fract_z
 _atom_site_occupancy
  Ba  Ba0  1  0.500060  0.250094  0.749944  1
  Ba  Ba1  1  0.499954  0.749999  0.249951  1
  Ba  Ba2  1  0.499946  0.749902  0.749941  1
  Ba  Ba3  1  0.500047  0.250007  0.249955  1
  Nd  Nd4  1  0.500493  0.729726  0.999967  1
  Nd  Nd5  1  0.499495  0.229668  0.499969  1
  Nd  Nd6  1  0.500506  0.770334  0.499976  1
  Nd  Nd7  1  0.499508  0.270274  0.999964  1
  Fe  Fe8  1  0.999985  0.000009  0.376778  1
  Fe  Fe9  1  0.000002  0.000006  0.623213  1
  Fe  Fe10  1  0.000006  0.999999  0.874739  1
  Fe  Fe11  1  0.000013  0.000007  0.125293  1
  Fe  Fe12  1  -0.000004  0.499998  0.123199  1
  Fe  Fe13  1  0.000001  0.499983  0.374690  1
  Fe  Fe14  1  0.000011  0.499994  0.625314  1
  Fe  Fe15  1  0.999998  0.499999  0.876787  1
  O  O16  1  0.499995  0.000005  0.616892  1
  O  O17  1  0.499996  0.500005  0.116911  1
  O  O18  1  0.499998  0.000001  0.092041  1
  O  O19  1  0.500004  0.499999  0.592008  1
  O  O20  1  0.500001  0.999993  0.383129  1
  O  O21  1  0.999958  0.740718  0.395704  1
  O  O22  1  0.000003  0.999998  0.247585  1
  O  O23  1  0.000049  0.259278  0.604325  1
  O  O24  1  0.999953  0.759293  0.104348  1
  O  O25  1  0.000034  0.259301  0.395703  1
  O  O26  1  0.999998  1.000000  0.752381  1
  O  O27  1  0.499996  0.999995  0.908073  1
  O  O28  1  0.000035  0.240685  0.895682  1
  O  O29  1  0.999999  0.500000  0.252489  1
  O  O30  1  0.000045  0.240710  0.104347  1
  O  O31  1  0.999965  0.740722  0.604319  1
  O  O32  1  0.000005  0.500001  0.747489  1
  O  O33  1  -0.000006  0.499994  0.000022  1
  O  O34  1  0.999964  0.759307  0.895684  1
  O  O35  1  0.499997  0.500002  0.408081  1
  O  O36  1  0.499997  0.499997  0.883106  1
  O  O37  1  0.999994  -0.000001  0.500000  1
