# generated using pymatgen
data_YNb2NO5
_symmetry_space_group_name_H-M   'P 1'
_cell_length_a   15.02838260
_cell_length_b   5.79674687
_cell_length_c   5.30567717
_cell_angle_alpha   90.27408296
_cell_angle_beta   89.72334335
_cell_angle_gamma   90.27351453
_symmetry_Int_Tables_number   1
_chemical_formula_structural   YNb2NO5
_chemical_formula_sum   'Y4 Nb8 N4 O20'
_cell_volume   462.19204614
_cell_formula_units_Z   4
loop_
 _symmetry_equiv_pos_site_id
 _symmetry_equiv_pos_as_xyz
  1  'x, y, z'
loop_
 _atom_site_type_symbol
 _atom_site_label
 _atom_site_symmetry_multiplicity
 _atom_site_fract_x
 _atom_site_fract_y
 _atom_site_fract_z
 _atom_site_occupancy
  Y  Y0  1  0.002037  0.273725  0.252232  1
  Y  Y1  1  0.002252  0.713575  0.756308  1
  Y  Y2  1  0.499366  0.239919  0.754538  1
  Y  Y3  1  0.501309  0.788016  0.255894  1
  Nb  Nb4  1  0.170287  0.176072  0.689301  1
  Nb  Nb5  1  0.169106  0.813908  0.205497  1
  Nb  Nb6  1  0.330856  0.313247  0.202087  1
  Nb  Nb7  1  0.340985  0.683292  0.720418  1
  Nb  Nb8  1  0.672595  0.315775  0.290491  1
  Nb  Nb9  1  0.665064  0.697303  0.804253  1
  Nb  Nb10  1  0.829879  0.185386  0.804329  1
  Nb  Nb11  1  0.839667  0.808039  0.301138  1
  N  N12  1  0.239459  0.124950  0.371671  1
  N  N13  1  0.406408  0.574970  0.995025  1
  N  N14  1  0.752886  0.133221  0.105600  1
  N  N15  1  0.917916  0.593486  0.408925  1
  O  O16  1  0.087361  0.585916  0.090410  1
  O  O17  1  0.085829  0.395378  0.591378  1
  O  O18  1  0.092224  0.052791  0.982856  1
  O  O19  1  0.090863  0.919023  0.489012  1
  O  O20  1  0.241208  0.864499  0.873457  1
  O  O21  1  0.256199  0.625993  0.367826  1
  O  O22  1  0.256668  0.361837  0.876049  1
  O  O23  1  0.403154  0.429587  0.496258  1
  O  O24  1  0.415700  0.097897  0.087821  1
  O  O25  1  0.418417  0.911602  0.589345  1
  O  O26  1  0.582198  0.112031  0.413715  1
  O  O27  1  0.583668  0.918231  0.915627  1
  O  O28  1  0.594040  0.441939  0.011047  1
  O  O29  1  0.592295  0.585905  0.522856  1
  O  O30  1  0.741529  0.373625  0.619367  1
  O  O31  1  0.738840  0.631488  0.125659  1
  O  O32  1  0.757081  0.867204  0.628054  1
  O  O33  1  0.902066  0.076123  0.496574  1
  O  O34  1  0.903896  0.919895  0.990277  1
  O  O35  1  0.916687  0.394155  0.914704  1
