# generated using pymatgen
data_MoH17C5(NO)4
_symmetry_space_group_name_H-M   'P 1'
_cell_length_a   11.02943853
_cell_length_b   10.99458295
_cell_length_c   11.02256847
_cell_angle_alpha   90.01104403
_cell_angle_beta   90.02801531
_cell_angle_gamma   90.00352452
_symmetry_Int_Tables_number   1
_chemical_formula_structural   MoH17C5(NO)4
_chemical_formula_sum   'Mo4 H68 C20 N16 O16'
_cell_volume   1336.64140265
_cell_formula_units_Z   4
loop_
 _symmetry_equiv_pos_site_id
 _symmetry_equiv_pos_as_xyz
  1  'x, y, z'
loop_
 _atom_site_type_symbol
 _atom_site_label
 _atom_site_symmetry_multiplicity
 _atom_site_fract_x
 _atom_site_fract_y
 _atom_site_fract_z
 _atom_site_occupancy
  Mo  Mo0  1  0.998316  0.501591  0.498110  1
  Mo  Mo1  1  0.001468  0.001634  0.001812  1
  Mo  Mo2  1  0.498335  0.998324  0.502080  1
  Mo  Mo3  1  0.501710  0.497601  0.998567  1
  H  H4  1  0.894065  0.948228  0.455158  1
  H  H5  1  0.929054  0.900961  0.303594  1
  H  H6  1  0.937026  0.792914  0.429428  1
  H  H7  1  0.253917  0.854813  0.367810  1
  H  H8  1  0.393953  0.551725  0.544859  1
  H  H9  1  0.429082  0.598907  0.696338  1
  H  H10  1  0.436982  0.706997  0.570572  1
  H  H11  1  0.551901  0.544725  0.393813  1
  H  H12  1  0.599106  0.696578  0.428923  1
  H  H13  1  0.645290  0.632256  0.754078  1
  H  H14  1  0.644856  0.997314  0.270217  1
  H  H15  1  0.706768  0.570413  0.436941  1
  H  H16  1  0.730371  0.144759  0.502896  1
  H  H17  1  0.754084  0.645142  0.632310  1
  H  H18  1  0.764093  0.998668  0.163662  1
  H  H19  1  0.803331  0.571037  0.099482  1
  H  H20  1  0.836713  0.264121  0.500589  1
  H  H21  1  0.873706  0.244541  0.158183  1
  H  H22  1  0.928834  0.562354  0.207856  1
  H  H23  1  0.954787  0.605647  0.052830  1
  H  H24  1  0.997770  0.269988  0.644330  1
  H  H25  1  0.999743  0.163148  0.763227  1
  H  H26  1  0.001354  0.663395  0.735810  1
  H  H27  1  0.002856  0.769839  0.855328  1
  H  H28  1  0.044907  0.106459  0.448157  1
  H  H29  1  0.052013  0.955305  0.606225  1
  H  H30  1  0.070646  0.063185  0.293163  1
  H  H31  1  0.099011  0.803334  0.571130  1
  H  H32  1  0.132332  0.745517  0.354830  1
  H  H33  1  0.145086  0.867668  0.245926  1
  H  H34  1  0.144507  0.502184  0.729886  1
  H  H35  1  0.163142  0.763843  0.999026  1
  H  H36  1  0.196286  0.071202  0.401116  1
  H  H37  1  0.206720  0.929525  0.563190  1
  H  H38  1  0.230163  0.355490  0.497628  1
  H  H39  1  0.263174  0.500141  0.836669  1
  H  H40  1  0.235903  0.498869  0.336600  1
  H  H41  1  0.269707  0.644387  0.997363  1
  H  H42  1  0.291719  0.071104  0.062363  1
  H  H43  1  0.301147  0.930058  0.899854  1
  H  H44  1  0.336838  0.236574  0.500138  1
  H  H45  1  0.355251  0.497228  0.230366  1
  H  H46  1  0.399842  0.198078  0.072889  1
  H  H47  1  0.428254  0.937521  0.790017  1
  H  H48  1  0.447771  0.045723  0.105813  1
  H  H49  1  0.453958  0.897686  0.946417  1
  H  H50  1  0.497482  0.230101  0.355851  1
  H  H51  1  0.498850  0.336997  0.236842  1
  H  H52  1  0.501567  0.836502  0.264095  1
  H  H53  1  0.502964  0.729817  0.144783  1
  H  H54  1  0.544800  0.393545  0.551937  1
  H  H55  1  0.570595  0.436602  0.706821  1
  H  H56  1  0.632433  0.754365  0.645132  1
  H  H57  1  0.663509  0.735847  0.001351  1
  H  H58  1  0.696358  0.428794  0.599012  1
  H  H59  1  0.736521  0.001100  0.663278  1
  H  H60  1  0.743620  0.361755  0.143559  1
  H  H61  1  0.769962  0.855304  0.002871  1
  H  H62  1  0.793664  0.429873  0.936053  1
  H  H63  1  0.855587  0.002567  0.769904  1
  H  H64  1  0.901571  0.303977  0.927631  1
  H  H65  1  0.949103  0.456569  0.891931  1
  H  H66  1  0.063564  0.292660  0.070574  1
  H  H67  1  0.070628  0.400799  0.196845  1
  H  H68  1  0.105897  0.448013  0.045181  1
  H  H69  1  0.565266  0.208431  0.928739  1
  H  H70  1  0.572102  0.099569  0.803024  1
  H  H71  1  0.608047  0.052391  0.955743  1
  C  C72  1  0.949799  0.887230  0.399871  1
  C  C73  1  0.449836  0.612673  0.600098  1
  C  C74  1  0.612732  0.600088  0.449686  1
  C  C75  1  0.638074  0.862054  0.138191  1
  C  C76  1  0.659216  0.659199  0.659140  1
  C  C77  1  0.861942  0.138694  0.638503  1
  C  C78  1  0.899300  0.549819  0.113676  1
  C  C79  1  0.100099  0.050500  0.387340  1
  C  C80  1  0.112695  0.899822  0.550387  1
  C  C81  1  0.138466  0.638086  0.861415  1
  C  C82  1  0.159070  0.840719  0.340882  1
  C  C83  1  0.341689  0.150001  0.841308  1
  C  C84  1  0.361319  0.361386  0.362001  1
  C  C85  1  0.385830  0.101675  0.051843  1
  C  C86  1  0.397119  0.950717  0.883641  1
  C  C87  1  0.600148  0.449422  0.612731  1
  C  C88  1  0.839525  0.337090  0.146543  1
  C  C89  1  0.888061  0.400714  0.947186  1
  C  C90  1  0.050405  0.386774  0.100449  1
  C  C91  1  0.553340  0.113922  0.899525  1
  N  N92  1  0.580357  0.580306  0.580325  1
  N  N93  1  0.681776  0.962643  0.191386  1
  N  N94  1  0.808273  0.182181  0.537697  1
  N  N95  1  0.961867  0.192144  0.682268  1
  N  N96  1  0.037667  0.691614  0.818053  1
  N  N97  1  0.080316  0.919622  0.419712  1
  N  N98  1  0.182259  0.537896  0.807918  1
  N  N99  1  0.192001  0.682331  0.961791  1
  N  N100  1  0.307922  0.317700  0.462009  1
  N  N101  1  0.317767  0.462266  0.308288  1
  N  N102  1  0.421467  0.082853  0.920749  1
  N  N103  1  0.461567  0.307797  0.317826  1
  N  N104  1  0.537362  0.808754  0.181494  1
  N  N105  1  0.691337  0.818292  0.037394  1
  N  N106  1  0.817755  0.038121  0.691991  1
  N  N107  1  0.919646  0.418882  0.079241  1
  O  O108  1  0.865383  0.417856  0.456312  1
  O  O109  1  0.906453  0.906220  0.906872  1
  O  O110  1  0.917231  0.044969  0.134671  1
  O  O111  1  0.955483  0.634709  0.582631  1
  O  O112  1  0.042350  0.134810  0.918570  1
  O  O113  1  0.082559  0.544747  0.365150  1
  O  O114  1  0.093194  0.406663  0.593173  1
  O  O115  1  0.135567  0.918217  0.044118  1
  O  O116  1  0.365439  0.081223  0.544605  1
  O  O117  1  0.406935  0.593312  0.093036  1
  O  O118  1  0.417849  0.453983  0.866097  1
  O  O119  1  0.455816  0.865447  0.417164  1
  O  O120  1  0.545468  0.364602  0.082856  1
  O  O121  1  0.581779  0.955032  0.635754  1
  O  O122  1  0.593050  0.093317  0.406585  1
  O  O123  1  0.634100  0.582426  0.955526  1
