# generated using pymatgen
data_Fe5(O4F)2
_symmetry_space_group_name_H-M   'P 1'
_cell_length_a   4.63453025
_cell_length_b   7.58441550
_cell_length_c   9.71754679
_cell_angle_alpha   109.55183148
_cell_angle_beta   91.54358739
_cell_angle_gamma   88.97360610
_symmetry_Int_Tables_number   1
_chemical_formula_structural   Fe5(O4F)2
_chemical_formula_sum   'Fe10 O16 F4'
_cell_volume   321.74714756
_cell_formula_units_Z   2
loop_
 _symmetry_equiv_pos_site_id
 _symmetry_equiv_pos_as_xyz
  1  'x, y, z'
loop_
 _atom_site_type_symbol
 _atom_site_label
 _atom_site_symmetry_multiplicity
 _atom_site_fract_x
 _atom_site_fract_y
 _atom_site_fract_z
 _atom_site_occupancy
  Fe  Fe0  1  0.487558  0.314447  0.903052  1
  Fe  Fe1  1  0.475558  0.093011  0.312817  1
  Fe  Fe2  1  0.480174  0.890497  0.692875  1
  Fe  Fe3  1  0.536966  0.709926  0.092948  1
  Fe  Fe4  1  0.513090  0.498642  0.489578  1
  Fe  Fe5  1  0.989747  0.603785  0.804742  1
  Fe  Fe6  1  0.981363  0.189646  0.608120  1
  Fe  Fe7  1  0.984281  0.800655  0.407404  1
  Fe  Fe8  1  0.004927  0.404842  0.193343  1
  Fe  Fe9  1  0.038978  0.995510  0.000354  1
  O  O10  1  0.797667  0.766363  0.985355  1
  O  O11  1  0.785788  0.958354  0.581199  1
  O  O12  1  0.819549  0.562012  0.368991  1
  O  O13  1  0.808170  0.360420  0.778109  1
  O  O14  1  0.691636  0.650151  0.668401  1
  O  O15  1  0.705109  0.473951  0.078847  1
  O  O16  1  0.693265  0.859542  0.276727  1
  O  O17  1  0.685054  0.261560  0.478705  1
  O  O18  1  0.297428  0.139812  0.723799  1
  O  O19  1  0.300307  0.727000  0.510986  1
  O  O20  1  0.308754  0.336753  0.319583  1
  O  O21  1  0.323864  0.934198  0.127788  1
  O  O22  1  0.315551  0.555981  0.927912  1
  O  O23  1  0.173714  0.035672  0.429208  1
  O  O24  1  0.186951  0.836349  0.819517  1
  O  O25  1  0.196909  0.240330  0.023911  1
  F  F26  1  0.807660  0.158888  0.178297  1
  F  F27  1  0.698328  0.060138  0.883092  1
  F  F28  1  0.193561  0.435028  0.619793  1
  F  F29  1  0.218091  0.646537  0.214545  1
