# generated using pymatgen
data_Li7Mn8(BO3)8
_symmetry_space_group_name_H-M   'P 1'
_cell_length_a   5.24560620
_cell_length_b   9.14256797
_cell_length_c   10.46356591
_cell_angle_alpha   91.98811987
_cell_angle_beta   91.13603630
_cell_angle_gamma   89.88602732
_symmetry_Int_Tables_number   1
_chemical_formula_structural   Li7Mn8(BO3)8
_chemical_formula_sum   'Li7 Mn8 B8 O24'
_cell_volume   501.41387604
_cell_formula_units_Z   1
loop_
 _symmetry_equiv_pos_site_id
 _symmetry_equiv_pos_as_xyz
  1  'x, y, z'
loop_
 _atom_site_type_symbol
 _atom_site_label
 _atom_site_symmetry_multiplicity
 _atom_site_fract_x
 _atom_site_fract_y
 _atom_site_fract_z
 _atom_site_occupancy
  Li  Li0  1  0.082276  0.082273  0.600564  1
  Li  Li1  1  0.399719  0.429800  0.835805  1
  Li  Li2  1  0.439929  0.410439  0.329337  1
  Li  Li3  1  0.583778  0.580106  0.583279  1
  Li  Li4  1  0.571771  0.584269  0.084868  1
  Li  Li5  1  0.909432  0.928689  0.838461  1
  Li  Li6  1  0.937785  0.910035  0.336775  1
  Mn  Mn7  1  0.078470  0.750185  0.617592  1
  Mn  Mn8  1  0.077856  0.402328  0.114867  1
  Mn  Mn9  1  0.421614  0.091455  0.867852  1
  Mn  Mn10  1  0.429967  0.748930  0.364935  1
  Mn  Mn11  1  0.576462  0.255092  0.616230  1
  Mn  Mn12  1  0.582336  0.924060  0.121315  1
  Mn  Mn13  1  0.912517  0.592785  0.870930  1
  Mn  Mn14  1  0.926195  0.243230  0.366703  1
  B  B15  1  0.075127  0.422098  0.627276  1
  B  B16  1  0.083013  0.739752  0.130361  1
  B  B17  1  0.408109  0.756397  0.874927  1
  B  B18  1  0.415893  0.079690  0.381419  1
  B  B19  1  0.579863  0.918720  0.633241  1
  B  B20  1  0.595301  0.251426  0.113937  1
  B  B21  1  0.919097  0.253811  0.863852  1
  B  B22  1  0.925959  0.575821  0.376014  1
  O  O23  1  0.040217  0.121460  0.855481  1
  O  O24  1  0.052552  0.379390  0.903062  1
  O  O25  1  0.044310  0.709465  0.409724  1
  O  O26  1  0.072132  0.456829  0.332914  1
  O  O27  1  0.155926  0.770291  0.834218  1
  O  O28  1  0.159781  0.062354  0.404263  1
  O  O29  1  0.337294  0.434985  0.642802  1
  O  O30  1  0.347880  0.733524  0.156964  1
  O  O31  1  0.428044  0.041930  0.674647  1
  O  O32  1  0.463534  0.792453  0.584778  1
  O  O33  1  0.469811  0.383114  0.131278  1
  O  O34  1  0.474400  0.128920  0.052529  1
  O  O35  1  0.518773  0.620861  0.890600  1
  O  O36  1  0.532342  0.215658  0.410648  1
  O  O37  1  0.555030  0.883056  0.903115  1
  O  O38  1  0.564358  0.964730  0.333242  1
  O  O39  1  0.656656  0.265727  0.831970  1
  O  O40  1  0.664052  0.564286  0.389895  1
  O  O41  1  0.839573  0.930794  0.642652  1
  O  O42  1  0.839148  0.232494  0.162097  1
  O  O43  1  0.919921  0.542727  0.658307  1
  O  O44  1  0.965044  0.290196  0.584771  1
  O  O45  1  0.951491  0.865257  0.155515  1
  O  O46  1  0.955936  0.614937  0.079962  1
