# generated using pymatgen
data_Li4Ti3Mn3(CoO8)2
_symmetry_space_group_name_H-M   'P 1'
_cell_length_a   5.87055994
_cell_length_b   5.89961203
_cell_length_c   9.72805862
_cell_angle_alpha   89.71467928
_cell_angle_beta   90.40658475
_cell_angle_gamma   120.06567211
_symmetry_Int_Tables_number   1
_chemical_formula_structural   Li4Ti3Mn3(CoO8)2
_chemical_formula_sum   'Li4 Ti3 Mn3 Co2 O16'
_cell_volume   291.58185135
_cell_formula_units_Z   1
loop_
 _symmetry_equiv_pos_site_id
 _symmetry_equiv_pos_as_xyz
  1  'x, y, z'
loop_
 _atom_site_type_symbol
 _atom_site_label
 _atom_site_symmetry_multiplicity
 _atom_site_fract_x
 _atom_site_fract_y
 _atom_site_fract_z
 _atom_site_occupancy
  Li  Li0  1  0.343442  0.670765  0.890582  1
  Li  Li1  1  0.993580  0.001021  0.997294  1
  Li  Li2  1  0.986488  0.993626  0.498503  1
  Li  Li3  1  0.670667  0.333154  0.393031  1
  Ti  Ti4  1  0.163678  0.822933  0.217030  1
  Ti  Ti5  1  0.179747  0.335765  0.214555  1
  Ti  Ti6  1  0.340431  0.167694  0.713930  1
  Mn  Mn7  1  0.662505  0.835651  0.213573  1
  Mn  Mn8  1  0.832652  0.662107  0.715269  1
  Mn  Mn9  1  0.833088  0.168565  0.715049  1
  Co  Co10  1  0.329925  0.664994  0.492193  1
  Co  Co11  1  0.669546  0.337005  0.989388  1
  O  O12  1  0.155510  0.840453  0.605858  1
  O  O13  1  0.033847  0.519198  0.329266  1
  O  O14  1  0.334570  0.669304  0.104462  1
  O  O15  1  0.991972  0.996897  0.313443  1
  O  O16  1  0.993861  0.994932  0.812157  1
  O  O17  1  0.154790  0.314069  0.605951  1
  O  O18  1  0.485738  0.966558  0.330816  1
  O  O19  1  0.485472  0.520450  0.332175  1
  O  O20  1  0.318234  0.163737  0.106132  1
  O  O21  1  0.678477  0.838959  0.609551  1
  O  O22  1  0.522584  0.483542  0.830109  1
  O  O23  1  0.521702  0.035479  0.830245  1
  O  O24  1  0.674145  0.336916  0.606996  1
  O  O25  1  0.836739  0.686066  0.105694  1
  O  O26  1  0.969905  0.482955  0.828332  1
  O  O27  1  0.836705  0.157504  0.106257  1
