# generated using pymatgen
data_Ca10Ti8NbFeO30
_symmetry_space_group_name_H-M   'P 1'
_cell_length_a   5.43686105
_cell_length_b   5.53379022
_cell_length_c   38.61817858
_cell_angle_alpha   90.07275480
_cell_angle_beta   90.04505867
_cell_angle_gamma   90.23411323
_symmetry_Int_Tables_number   1
_chemical_formula_structural   Ca10Ti8NbFeO30
_chemical_formula_sum   'Ca20 Ti16 Nb2 Fe2 O60'
_cell_volume   1161.87284106
_cell_formula_units_Z   2
loop_
 _symmetry_equiv_pos_site_id
 _symmetry_equiv_pos_as_xyz
  1  'x, y, z'
loop_
 _atom_site_type_symbol
 _atom_site_label
 _atom_site_symmetry_multiplicity
 _atom_site_fract_x
 _atom_site_fract_y
 _atom_site_fract_z
 _atom_site_occupancy
  Ca  Ca0  1  0.008171  0.951873  0.150746  1
  Ca  Ca1  1  0.019032  0.967926  0.546309  1
  Ca  Ca2  1  0.007312  0.968369  0.348306  1
  Ca  Ca3  1  0.008710  0.967854  0.749149  1
  Ca  Ca4  1  0.004303  0.945615  0.952878  1
  Ca  Ca5  1  0.494180  0.464518  0.348173  1
  Ca  Ca6  1  0.489728  0.452899  0.150495  1
  Ca  Ca7  1  0.489348  0.462172  0.546262  1
  Ca  Ca8  1  0.482268  0.457641  0.749832  1
  Ca  Ca9  1  0.486991  0.447397  0.953117  1
  Ca  Ca10  1  0.505820  0.535482  0.051827  1
  Ca  Ca11  1  0.510272  0.547101  0.249505  1
  Ca  Ca12  1  0.517732  0.542359  0.650168  1
  Ca  Ca13  1  0.513009  0.552603  0.446883  1
  Ca  Ca14  1  0.510652  0.537828  0.853738  1
  Ca  Ca15  1  0.991829  0.048127  0.249254  1
  Ca  Ca16  1  0.992688  0.031631  0.051694  1
  Ca  Ca17  1  0.991290  0.032146  0.650851  1
  Ca  Ca18  1  0.995697  0.054385  0.447122  1
  Ca  Ca19  1  0.980968  0.032074  0.853691  1
  Ti  Ti20  1  0.000000  0.500000  0.200000  1
  Ti  Ti21  1  0.995793  0.516260  0.397431  1
  Ti  Ti22  1  0.998635  0.512640  0.495369  1
  Ti  Ti23  1  0.001365  0.487360  0.904631  1
  Ti  Ti24  1  0.504557  0.986778  0.100843  1
  Ti  Ti25  1  0.495443  0.013222  0.299157  1
  Ti  Ti26  1  0.507773  0.988993  0.001799  1
  Ti  Ti27  1  0.503308  0.008571  0.499042  1
  Ti  Ti28  1  0.496692  0.991429  0.900958  1
  Ti  Ti29  1  0.500000  0.000000  0.200000  1
  Ti  Ti30  1  0.492227  0.011007  0.398201  1
  Ti  Ti31  1  0.500000  0.000000  0.700000  1
  Ti  Ti32  1  0.999918  0.483752  0.101889  1
  Ti  Ti33  1  0.004207  0.483740  0.002569  1
  Ti  Ti34  1  0.000082  0.516248  0.298111  1
  Ti  Ti35  1  0.000000  0.500000  0.700000  1
  Nb  Nb36  1  0.995981  0.497979  0.802016  1
  Nb  Nb37  1  0.004019  0.502021  0.597984  1
  Fe  Fe38  1  0.503459  0.001244  0.599268  1
  Fe  Fe39  1  0.496541  0.998757  0.800732  1
  O  O40  1  0.072331  0.477030  0.051667  1
  O  O41  1  0.082594  0.480112  0.249338  1
  O  O42  1  0.088980  0.486755  0.447695  1
  O  O43  1  0.416189  0.971844  0.650819  1
  O  O44  1  0.082808  0.477033  0.852484  1
  O  O45  1  0.209445  0.210504  0.191845  1
  O  O46  1  0.219257  0.213967  0.389734  1
  O  O47  1  0.219494  0.219600  0.588767  1
  O  O48  1  0.208415  0.214472  0.791509  1
  O  O49  1  0.197637  0.205946  0.994082  1
  O  O50  1  0.203061  0.211249  0.109538  1
  O  O51  1  0.216009  0.210274  0.306887  1
  O  O52  1  0.223170  0.221411  0.505680  1
  O  O53  1  0.214985  0.218790  0.707906  1
  O  O54  1  0.198776  0.204309  0.911179  1
  O  O55  1  0.285501  0.710009  0.109528  1
  O  O56  1  0.289343  0.710210  0.191652  1
  O  O57  1  0.294544  0.710338  0.306710  1
  O  O58  1  0.299035  0.714499  0.389655  1
  O  O59  1  0.289676  0.717443  0.587610  1
  O  O60  1  0.277896  0.701566  0.911953  1
  O  O61  1  0.279583  0.717065  0.709912  1
  O  O62  1  0.277411  0.714427  0.790741  1
  O  O63  1  0.295848  0.721765  0.505923  1
  O  O64  1  0.280255  0.703973  0.994089  1
  O  O65  1  0.416410  0.976542  0.051864  1
  O  O66  1  0.422671  0.979662  0.249359  1
  O  O67  1  0.090899  0.491225  0.649843  1
  O  O68  1  0.430495  0.985224  0.447257  1
  O  O69  1  0.404902  0.968152  0.853606  1
  O  O70  1  0.583590  0.023458  0.348136  1
  O  O71  1  0.577329  0.020338  0.150641  1
  O  O72  1  0.595098  0.031848  0.546394  1
  O  O73  1  0.909101  0.508775  0.750157  1
  O  O74  1  0.569505  0.014776  0.952743  1
  O  O75  1  0.700965  0.285501  0.010345  1
  O  O76  1  0.705456  0.289662  0.093290  1
  O  O77  1  0.710657  0.289790  0.208348  1
  O  O78  1  0.714499  0.289991  0.290472  1
  O  O79  1  0.722589  0.285573  0.609259  1
  O  O80  1  0.719745  0.296027  0.405911  1
  O  O81  1  0.722104  0.298434  0.488047  1
  O  O82  1  0.710324  0.282557  0.812390  1
  O  O83  1  0.720417  0.282935  0.690088  1
  O  O84  1  0.704152  0.278235  0.894077  1
  O  O85  1  0.783991  0.789726  0.093113  1
  O  O86  1  0.785015  0.781210  0.692094  1
  O  O87  1  0.796939  0.788751  0.290462  1
  O  O88  1  0.801224  0.795691  0.488821  1
  O  O89  1  0.776830  0.778589  0.894320  1
  O  O90  1  0.780743  0.786033  0.010266  1
  O  O91  1  0.790555  0.789496  0.208155  1
  O  O92  1  0.802363  0.794054  0.405918  1
  O  O93  1  0.791585  0.785528  0.608491  1
  O  O94  1  0.780506  0.780400  0.811233  1
  O  O95  1  0.917406  0.519888  0.150662  1
  O  O96  1  0.927669  0.522970  0.348333  1
  O  O97  1  0.917192  0.522967  0.547516  1
  O  O98  1  0.583811  0.028156  0.749181  1
  O  O99  1  0.911020  0.513245  0.952305  1
