# generated using pymatgen
data_SrPt3O4
_symmetry_space_group_name_H-M   'P 1'
_cell_length_a   5.94223955
_cell_length_b   5.94214574
_cell_length_c   5.94212267
_cell_angle_alpha   89.99999103
_cell_angle_beta   89.99991023
_cell_angle_gamma   89.99996760
_symmetry_Int_Tables_number   1
_chemical_formula_structural   SrPt3O4
_chemical_formula_sum   'Sr2 Pt6 O8'
_cell_volume   209.81429210
_cell_formula_units_Z   2
loop_
 _symmetry_equiv_pos_site_id
 _symmetry_equiv_pos_as_xyz
  1  'x, y, z'
loop_
 _atom_site_type_symbol
 _atom_site_label
 _atom_site_symmetry_multiplicity
 _atom_site_fract_x
 _atom_site_fract_y
 _atom_site_fract_z
 _atom_site_occupancy
  Sr  Sr0  1  0.000000  0.000000  0.000000  1
  Sr  Sr1  1  0.500000  0.500000  0.500000  1
  Pt  Pt2  1  0.000000  0.500000  0.249997  1
  Pt  Pt3  1  1.000000  0.500000  0.750003  1
  Pt  Pt4  1  0.249999  1.000000  0.500000  1
  Pt  Pt5  1  0.500000  0.250005  0.000000  1
  Pt  Pt6  1  0.500000  0.749995  1.000000  1
  Pt  Pt7  1  0.750001  0.000000  0.500000  1
  O  O8  1  0.249996  0.250013  0.249991  1
  O  O9  1  0.249996  0.749987  0.249992  1
  O  O10  1  0.249995  0.250013  0.750008  1
  O  O11  1  0.249996  0.749987  0.750008  1
  O  O12  1  0.750005  0.250013  0.249991  1
  O  O13  1  0.750004  0.250013  0.750009  1
  O  O14  1  0.750004  0.749986  0.249991  1
  O  O15  1  0.750004  0.749986  0.750009  1
