# generated using pymatgen
data_KRe3Os3(Se4Cl3)2
_symmetry_space_group_name_H-M   'P 1'
_cell_length_a   13.27007836
_cell_length_b   13.24614833
_cell_length_c   13.22772631
_cell_angle_alpha   90.09324595
_cell_angle_beta   89.99936026
_cell_angle_gamma   89.99866741
_symmetry_Int_Tables_number   1
_chemical_formula_structural   KRe3Os3(Se4Cl3)2
_chemical_formula_sum   'K4 Re12 Os12 Se32 Cl24'
_cell_volume   2325.13260796
_cell_formula_units_Z   4
loop_
 _symmetry_equiv_pos_site_id
 _symmetry_equiv_pos_as_xyz
  1  'x, y, z'
loop_
 _atom_site_type_symbol
 _atom_site_label
 _atom_site_symmetry_multiplicity
 _atom_site_fract_x
 _atom_site_fract_y
 _atom_site_fract_z
 _atom_site_occupancy
  K  K0  1  0.000378  0.000011  0.999598  1
  K  K1  1  0.000355  0.499867  0.500545  1
  K  K2  1  0.499561  0.000178  0.500150  1
  K  K3  1  0.499845  0.500064  0.999907  1
  Re  Re4  1  0.031574  0.541454  0.868370  1
  Re  Re5  1  0.031562  0.958568  0.631683  1
  Re  Re6  1  0.041525  0.131676  0.531709  1
  Re  Re7  1  0.041574  0.368311  0.968340  1
  Re  Re8  1  0.131470  0.531481  0.041781  1
  Re  Re9  1  0.131426  0.968481  0.458357  1
  Re  Re10  1  0.458466  0.368543  0.531462  1
  Re  Re11  1  0.468560  0.541604  0.631277  1
  Re  Re12  1  0.468647  0.958315  0.868634  1
  Re  Re13  1  0.531468  0.041498  0.131408  1
  Re  Re14  1  0.531377  0.458375  0.368533  1
  Re  Re15  1  0.541583  0.868407  0.031483  1
  Os  Os16  1  0.368210  0.532196  0.457895  1
  Os  Os17  1  0.367888  0.968839  0.041770  1
  Os  Os18  1  0.458555  0.131260  0.968521  1
  Os  Os19  1  0.541510  0.631449  0.468457  1
  Os  Os20  1  0.631798  0.032171  0.958029  1
  Os  Os21  1  0.632109  0.468877  0.541640  1
  Os  Os22  1  0.868325  0.468742  0.959077  1
  Os  Os23  1  0.868255  0.031221  0.541055  1
  Os  Os24  1  0.957831  0.631224  0.032168  1
  Os  Os25  1  0.957800  0.868773  0.467886  1
  Os  Os26  1  0.967835  0.041177  0.368286  1
  Os  Os27  1  0.967818  0.458820  0.131779  1
  Se  Se28  1  0.054944  0.616548  0.195509  1
  Se  Se29  1  0.054935  0.883405  0.304512  1
  Se  Se30  1  0.115607  0.695721  0.945067  1
  Se  Se31  1  0.115576  0.804223  0.555048  1
  Se  Se32  1  0.134575  0.135589  0.363190  1
  Se  Se33  1  0.134579  0.364370  0.136863  1
  Se  Se34  1  0.195515  0.056170  0.617425  1
  Se  Se35  1  0.195600  0.443772  0.882685  1
  Se  Se36  1  0.304924  0.055887  0.884683  1
  Se  Se37  1  0.304167  0.444957  0.615352  1
  Se  Se38  1  0.363491  0.135386  0.134640  1
  Se  Se39  1  0.363042  0.365269  0.364224  1
  Se  Se40  1  0.383274  0.695084  0.554287  1
  Se  Se41  1  0.382136  0.805123  0.945037  1
  Se  Se42  1  0.443209  0.617427  0.305718  1
  Se  Se43  1  0.442658  0.883165  0.194761  1
  Se  Se44  1  0.556815  0.117367  0.805781  1
  Se  Se45  1  0.557410  0.383260  0.694748  1
  Se  Se46  1  0.616695  0.195057  0.054371  1
  Se  Se47  1  0.617860  0.305194  0.444947  1
  Se  Se48  1  0.636608  0.635432  0.634629  1
  Se  Se49  1  0.637108  0.865238  0.864238  1
  Se  Se50  1  0.695886  0.944740  0.115286  1
  Se  Se51  1  0.695142  0.556114  0.384754  1
  Se  Se52  1  0.805543  0.944173  0.383272  1
  Se  Se53  1  0.805541  0.555800  0.116788  1
  Se  Se54  1  0.864058  0.635302  0.865384  1
  Se  Se55  1  0.864038  0.864649  0.634665  1
  Se  Se56  1  0.882916  0.194168  0.443748  1
  Se  Se57  1  0.882937  0.305764  0.056299  1
  Se  Se58  1  0.943147  0.116890  0.695225  1
  Se  Se59  1  0.943192  0.383079  0.804798  1
  Cl  Cl60  1  0.076614  0.904293  0.799388  1
  Cl  Cl61  1  0.076191  0.595907  0.700780  1
  Cl  Cl62  1  0.096982  0.299020  0.576216  1
  Cl  Cl63  1  0.097003  0.200946  0.923772  1
  Cl  Cl64  1  0.200815  0.924002  0.097038  1
  Cl  Cl65  1  0.200408  0.574970  0.403234  1
  Cl  Cl66  1  0.299781  0.574916  0.095889  1
  Cl  Cl67  1  0.299371  0.925215  0.404583  1
  Cl  Cl68  1  0.403951  0.200843  0.575625  1
  Cl  Cl69  1  0.403889  0.298381  0.924402  1
  Cl  Cl70  1  0.424590  0.595892  0.799229  1
  Cl  Cl71  1  0.425003  0.902662  0.701057  1
  Cl  Cl72  1  0.575836  0.095768  0.299428  1
  Cl  Cl73  1  0.575407  0.402808  0.200860  1
  Cl  Cl74  1  0.596609  0.798875  0.424254  1
  Cl  Cl75  1  0.596675  0.700348  0.075751  1
  Cl  Cl76  1  0.701689  0.075741  0.597281  1
  Cl  Cl77  1  0.702139  0.424361  0.903064  1
  Cl  Cl78  1  0.798874  0.423756  0.596384  1
  Cl  Cl79  1  0.799315  0.075190  0.903835  1
  Cl  Cl80  1  0.904222  0.799017  0.075076  1
  Cl  Cl81  1  0.904196  0.700980  0.424935  1
  Cl  Cl82  1  0.924790  0.403020  0.299341  1
  Cl  Cl83  1  0.925222  0.097184  0.200842  1
