# generated using pymatgen
data_PrHfO4
_symmetry_space_group_name_H-M   'P 1'
_cell_length_a   10.74801640
_cell_length_b   7.69335545
_cell_length_c   10.86376344
_cell_angle_alpha   45.07743975
_cell_angle_beta   89.97912995
_cell_angle_gamma   89.97379170
_symmetry_Int_Tables_number   1
_chemical_formula_structural   PrHfO4
_chemical_formula_sum   'Pr8 Hf8 O32'
_cell_volume   636.05631065
_cell_formula_units_Z   8
loop_
 _symmetry_equiv_pos_site_id
 _symmetry_equiv_pos_as_xyz
  1  'x, y, z'
loop_
 _atom_site_type_symbol
 _atom_site_label
 _atom_site_symmetry_multiplicity
 _atom_site_fract_x
 _atom_site_fract_y
 _atom_site_fract_z
 _atom_site_occupancy
  Pr  Pr0  1  0.125433  0.244824  0.753890  1
  Pr  Pr1  1  0.123434  0.746874  0.253237  1
  Pr  Pr2  1  0.374969  0.247853  0.502841  1
  Pr  Pr3  1  0.372463  0.752073  0.500195  1
  Pr  Pr4  1  0.625211  0.750498  0.750986  1
  Pr  Pr5  1  0.622319  0.249514  0.249447  1
  Pr  Pr6  1  0.876019  0.747289  0.001554  1
  Pr  Pr7  1  0.873451  0.244811  0.003159  1
  Hf  Hf8  1  0.123758  0.765184  0.746811  1
  Hf  Hf9  1  0.123933  0.238487  0.249591  1
  Hf  Hf10  1  0.373118  0.755526  0.990525  1
  Hf  Hf11  1  0.372333  0.233730  0.012620  1
  Hf  Hf12  1  0.626269  0.232626  0.755134  1
  Hf  Hf13  1  0.624451  0.757485  0.252671  1
  Hf  Hf14  1  0.873929  0.239135  0.514196  1
  Hf  Hf15  1  0.872756  0.761498  0.489685  1
  O  O16  1  0.031578  0.507062  0.997414  1
  O  O17  1  0.001277  0.005021  0.271039  1
  O  O18  1  0.001250  0.559081  0.720366  1
  O  O19  1  0.999482  0.994777  0.004156  1
  O  O20  1  0.991895  0.949136  0.527799  1
  O  O21  1  0.999643  0.007732  0.725965  1
  O  O22  1  0.000102  0.397887  0.301938  1
  O  O23  1  0.250276  0.498966  0.800545  1
  O  O24  1  0.249742  0.956216  0.767079  1
  O  O25  1  0.245273  0.499508  0.023440  1
  O  O26  1  0.213683  0.995708  0.497382  1
  O  O27  1  0.250580  0.495224  0.222661  1
  O  O28  1  0.249542  0.498434  0.503260  1
  O  O29  1  0.280461  0.997856  0.996669  1
  O  O30  1  0.250777  0.041693  0.225664  1
  O  O31  1  0.463501  0.485855  0.008693  1
  O  O32  1  0.499252  0.001335  0.500196  1
  O  O33  1  0.498703  0.056026  0.972395  1
  O  O34  1  0.500591  0.988345  0.233177  1
  O  O35  1  0.500422  0.600181  0.199643  1
  O  O36  1  0.500420  0.442142  0.779542  1
  O  O37  1  0.499439  0.987158  0.780497  1
  O  O38  1  0.532039  0.486360  0.506255  1
  O  O39  1  0.750894  0.495740  0.704928  1
  O  O40  1  0.749894  0.039744  0.735480  1
  O  O41  1  0.744133  0.497385  0.479865  1
  O  O42  1  0.717264  0.996867  0.006809  1
  O  O43  1  0.750157  0.495733  0.283882  1
  O  O44  1  0.749114  0.497573  0.001080  1
  O  O45  1  0.779690  0.996269  0.507693  1
  O  O46  1  0.750507  0.955357  0.276968  1
  O  O47  1  0.963368  0.507708  0.495530  1
