# generated using pymatgen
data_Li2Cr(PO3)4
_symmetry_space_group_name_H-M   'P 1'
_cell_length_a   7.93545700
_cell_length_b   11.15171891
_cell_length_c   13.85584255
_cell_angle_alpha   90.00000000
_cell_angle_beta   63.88381779
_cell_angle_gamma   90.00000000
_symmetry_Int_Tables_number   1
_chemical_formula_structural   Li2Cr(PO3)4
_chemical_formula_sum   'Li8 Cr4 P16 O48'
_cell_volume   1100.97195791
_cell_formula_units_Z   4
loop_
 _symmetry_equiv_pos_site_id
 _symmetry_equiv_pos_as_xyz
  1  'x, y, z'
loop_
 _atom_site_type_symbol
 _atom_site_label
 _atom_site_symmetry_multiplicity
 _atom_site_fract_x
 _atom_site_fract_y
 _atom_site_fract_z
 _atom_site_occupancy
  Li  Li0  1  0.239674  0.124193  0.216971  1
  Li  Li1  1  0.260326  0.624193  0.283029  1
  Li  Li2  1  0.157466  0.961055  0.428566  1
  Li  Li3  1  0.342535  0.461055  0.071434  1
  Li  Li4  1  0.657466  0.538945  0.928566  1
  Li  Li5  1  0.842534  0.038945  0.571434  1
  Li  Li6  1  0.739674  0.375807  0.716971  1
  Li  Li7  1  0.760326  0.875807  0.783029  1
  Cr  Cr8  1  0.295766  0.260554  0.682015  1
  Cr  Cr9  1  0.204234  0.760554  0.817985  1
  Cr  Cr10  1  0.795766  0.239446  0.182015  1
  Cr  Cr11  1  0.704234  0.739446  0.317985  1
  P  P12  1  0.997279  0.739830  0.067554  1
  P  P13  1  0.076869  0.377726  0.291197  1
  P  P14  1  0.415183  0.764929  0.011063  1
  P  P15  1  0.084817  0.264929  0.488937  1
  P  P16  1  0.002721  0.260170  0.932446  1
  P  P17  1  0.423131  0.877726  0.208803  1
  P  P18  1  0.195799  0.043286  0.825322  1
  P  P19  1  0.304201  0.543286  0.674678  1
  P  P20  1  0.502721  0.239830  0.432446  1
  P  P21  1  0.497279  0.760170  0.567554  1
  P  P22  1  0.695799  0.456714  0.325322  1
  P  P23  1  0.804201  0.956714  0.174678  1
  P  P24  1  0.576869  0.122274  0.791197  1
  P  P25  1  0.915184  0.735071  0.511063  1
  P  P26  1  0.584816  0.235071  0.988937  1
  P  P27  1  0.923131  0.622274  0.708803  1
  O  O28  1  0.194227  0.793349  0.055690  1
  O  O29  1  0.043332  0.360620  0.413900  1
  O  O30  1  0.248556  0.453777  0.228125  1
  O  O31  1  0.059871  0.135203  0.462960  1
  O  O32  1  0.975988  0.306362  0.602296  1
  O  O33  1  0.440129  0.635203  0.037040  1
  O  O34  1  0.943842  0.741301  0.753828  1
  O  O35  1  0.092250  0.531773  0.690826  1
  O  O36  1  0.251444  0.953777  0.271875  1
  O  O37  1  0.097069  0.329195  0.829099  1
  O  O38  1  0.024368  0.681129  0.964177  1
  O  O39  1  0.456668  0.860620  0.086100  1
  O  O40  1  0.305773  0.293349  0.444310  1
  O  O41  1  0.100401  0.926151  0.864806  1
  O  O42  1  0.115776  0.137708  0.923127  1
  O  O43  1  0.186937  0.094995  0.727263  1
  O  O44  1  0.313063  0.594995  0.772737  1
  O  O45  1  0.475988  0.193638  0.102296  1
  O  O46  1  0.384224  0.637708  0.576873  1
  O  O47  1  0.399599  0.426151  0.635194  1
  O  O48  1  0.443842  0.758699  0.253828  1
  O  O49  1  0.592250  0.968227  0.190826  1
  O  O50  1  0.475632  0.181129  0.535823  1
  O  O51  1  0.402931  0.829195  0.670901  1
  O  O52  1  0.597069  0.170805  0.329099  1
  O  O53  1  0.524368  0.818871  0.464177  1
  O  O54  1  0.407750  0.031773  0.809174  1
  O  O55  1  0.556158  0.241301  0.746172  1
  O  O56  1  0.600401  0.573849  0.364806  1
  O  O57  1  0.615776  0.362292  0.423127  1
  O  O58  1  0.524012  0.806362  0.897704  1
  O  O59  1  0.686937  0.405005  0.227263  1
  O  O60  1  0.813063  0.905005  0.272737  1
  O  O61  1  0.884224  0.862292  0.076873  1
  O  O62  1  0.899599  0.073849  0.135194  1
  O  O63  1  0.694227  0.706651  0.555690  1
  O  O64  1  0.543332  0.139380  0.913900  1
  O  O65  1  0.975632  0.318871  0.035823  1
  O  O66  1  0.902931  0.670805  0.170901  1
  O  O67  1  0.748556  0.046223  0.728125  1
  O  O68  1  0.907750  0.468227  0.309174  1
  O  O69  1  0.056158  0.258699  0.246172  1
  O  O70  1  0.559871  0.364797  0.962960  1
  O  O71  1  0.024012  0.693638  0.397704  1
  O  O72  1  0.940129  0.864797  0.537040  1
  O  O73  1  0.751444  0.546223  0.771875  1
  O  O74  1  0.956668  0.639380  0.586100  1
  O  O75  1  0.805773  0.206651  0.944310  1
