# generated using pymatgen
data_Ba2LaI7
_symmetry_space_group_name_H-M   'P 1'
_cell_length_a   15.91160725
_cell_length_b   12.39567653
_cell_length_c   10.01326257
_cell_angle_alpha   90.00000000
_cell_angle_beta   88.73547196
_cell_angle_gamma   90.00000000
_symmetry_Int_Tables_number   1
_chemical_formula_structural   Ba2LaI7
_chemical_formula_sum   'Ba8 La4 I28'
_cell_volume   1974.48623400
_cell_formula_units_Z   4
loop_
 _symmetry_equiv_pos_site_id
 _symmetry_equiv_pos_as_xyz
  1  'x, y, z'
loop_
 _atom_site_type_symbol
 _atom_site_label
 _atom_site_symmetry_multiplicity
 _atom_site_fract_x
 _atom_site_fract_y
 _atom_site_fract_z
 _atom_site_occupancy
  Ba  Ba0  1  0.016236  0.739209  0.759121  1
  Ba  Ba1  1  0.281687  0.191771  0.340760  1
  Ba  Ba2  1  0.218313  0.691771  0.159240  1
  Ba  Ba3  1  0.483764  0.239209  0.740879  1
  Ba  Ba4  1  0.516236  0.760791  0.259121  1
  Ba  Ba5  1  0.781687  0.308229  0.840760  1
  Ba  Ba6  1  0.718313  0.808229  0.659240  1
  Ba  Ba7  1  0.983764  0.260791  0.240879  1
  La  La8  1  0.183756  0.137831  0.827829  1
  La  La9  1  0.316244  0.637831  0.672171  1
  La  La10  1  0.683756  0.362169  0.327829  1
  La  La11  1  0.816244  0.862169  0.172171  1
  I  I12  1  0.122710  0.066803  0.131809  1
  I  I13  1  0.152047  0.425223  0.269508  1
  I  I14  1  0.989066  0.727098  0.118007  1
  I  I15  1  0.099071  0.134839  0.538990  1
  I  I16  1  0.160578  0.554914  0.865190  1
  I  I17  1  0.171981  0.744142  0.498811  1
  I  I18  1  0.292958  0.372772  0.639224  1
  I  I19  1  0.400929  0.634839  0.961010  1
  I  I20  1  0.510934  0.227098  0.381993  1
  I  I21  1  0.347953  0.925223  0.230492  1
  I  I22  1  0.207042  0.872772  0.860776  1
  I  I23  1  0.328019  0.244142  0.001189  1
  I  I24  1  0.339422  0.054914  0.634810  1
  I  I25  1  0.377290  0.566803  0.368191  1
  I  I26  1  0.622710  0.433197  0.631809  1
  I  I27  1  0.660578  0.945086  0.365190  1
  I  I28  1  0.671981  0.755858  0.998811  1
  I  I29  1  0.792958  0.127228  0.139224  1
  I  I30  1  0.652047  0.074777  0.769508  1
  I  I31  1  0.489066  0.772902  0.618007  1
  I  I32  1  0.599071  0.365161  0.038990  1
  I  I33  1  0.707042  0.627228  0.360776  1
  I  I34  1  0.828019  0.255858  0.501189  1
  I  I35  1  0.839422  0.445086  0.134810  1
  I  I36  1  0.900929  0.865161  0.461010  1
  I  I37  1  0.010934  0.272902  0.881993  1
  I  I38  1  0.847953  0.574777  0.730492  1
  I  I39  1  0.877290  0.933197  0.868191  1
