# generated using pymatgen
data_NaVP2O7
_symmetry_space_group_name_H-M   'P 1'
_cell_length_a   4.90228480
_cell_length_b   8.36264208
_cell_length_c   7.19684291
_cell_angle_alpha   90.00000000
_cell_angle_beta   107.77429522
_cell_angle_gamma   90.00000000
_symmetry_Int_Tables_number   1
_chemical_formula_structural   NaVP2O7
_chemical_formula_sum   'Na2 V2 P4 O14'
_cell_volume   280.95874286
_cell_formula_units_Z   2
loop_
 _symmetry_equiv_pos_site_id
 _symmetry_equiv_pos_as_xyz
  1  'x, y, z'
loop_
 _atom_site_type_symbol
 _atom_site_label
 _atom_site_symmetry_multiplicity
 _atom_site_fract_x
 _atom_site_fract_y
 _atom_site_fract_z
 _atom_site_occupancy
  Na  Na0  1  0.228536  0.903784  0.733707  1
  Na  Na1  1  0.771464  0.403784  0.266293  1
  V  V2  1  0.218899  0.496915  0.730088  1
  V  V3  1  0.781101  0.996915  0.269912  1
  P  P4  1  0.389845  0.187762  0.503552  1
  P  P5  1  0.225995  0.767803  0.106543  1
  P  P6  1  0.774005  0.267803  0.893457  1
  P  P7  1  0.610155  0.687762  0.496448  1
  O  O8  1  0.029515  0.314545  0.827748  1
  O  O9  1  0.143802  0.672508  0.918346  1
  O  O10  1  0.163105  0.055639  0.461573  1
  O  O11  1  0.266801  0.355230  0.501747  1
  O  O12  1  0.412130  0.677264  0.624149  1
  O  O13  1  0.590898  0.414830  0.911181  1
  O  O14  1  0.576038  0.146510  0.728949  1
  O  O15  1  0.423962  0.646510  0.271051  1
  O  O16  1  0.409102  0.914830  0.088819  1
  O  O17  1  0.587870  0.177264  0.375851  1
  O  O18  1  0.733199  0.855230  0.498253  1
  O  O19  1  0.836895  0.555639  0.538427  1
  O  O20  1  0.856198  0.172508  0.081654  1
  O  O21  1  0.970485  0.814545  0.172252  1
