# generated using pymatgen
data_LiVSiO4
_symmetry_space_group_name_H-M   'P 1'
_cell_length_a   5.14574267
_cell_length_b   10.31654470
_cell_length_c   6.90699564
_cell_angle_alpha   90.00000000
_cell_angle_beta   88.32562006
_cell_angle_gamma   90.00000000
_symmetry_Int_Tables_number   1
_chemical_formula_structural   LiVSiO4
_chemical_formula_sum   'Li4 V4 Si4 O16'
_cell_volume   366.51017657
_cell_formula_units_Z   4
loop_
 _symmetry_equiv_pos_site_id
 _symmetry_equiv_pos_as_xyz
  1  'x, y, z'
loop_
 _atom_site_type_symbol
 _atom_site_label
 _atom_site_symmetry_multiplicity
 _atom_site_fract_x
 _atom_site_fract_y
 _atom_site_fract_z
 _atom_site_occupancy
  Li  Li0  1  0.199469  0.141539  0.504428  1
  Li  Li1  1  0.300531  0.641539  0.995572  1
  Li  Li2  1  0.699469  0.358461  0.004428  1
  Li  Li3  1  0.800531  0.858461  0.495572  1
  V  V4  1  0.190032  0.174050  0.007339  1
  V  V5  1  0.309968  0.674050  0.492661  1
  V  V6  1  0.690032  0.325950  0.507339  1
  V  V7  1  0.809968  0.825950  0.992661  1
  Si  Si8  1  0.196887  0.406199  0.265597  1
  Si  Si9  1  0.303113  0.906199  0.234403  1
  Si  Si10  1  0.696887  0.093801  0.765597  1
  Si  Si11  1  0.803113  0.593801  0.734403  1
  O  O12  1  0.117101  0.625777  0.730175  1
  O  O13  1  0.173003  0.826240  0.054673  1
  O  O14  1  0.181485  0.848067  0.440750  1
  O  O15  1  0.243743  0.061767  0.226296  1
  O  O16  1  0.256257  0.561767  0.273704  1
  O  O17  1  0.318515  0.348067  0.059250  1
  O  O18  1  0.326997  0.326240  0.445327  1
  O  O19  1  0.382899  0.125777  0.769825  1
  O  O20  1  0.617101  0.874223  0.230175  1
  O  O21  1  0.673003  0.673760  0.554673  1
  O  O22  1  0.681485  0.651933  0.940750  1
  O  O23  1  0.743743  0.438233  0.726296  1
  O  O24  1  0.756257  0.938233  0.773704  1
  O  O25  1  0.818515  0.151933  0.559250  1
  O  O26  1  0.826997  0.173760  0.945327  1
  O  O27  1  0.882899  0.374223  0.269825  1
