# generated using pymatgen
data_CsKNaLi13(SiO4)4
_symmetry_space_group_name_H-M   'P 1'
_cell_length_a   6.46719098
_cell_length_b   8.62323515
_cell_length_c   17.22053564
_cell_angle_alpha   82.39699986
_cell_angle_beta   68.12955128
_cell_angle_gamma   68.08085345
_symmetry_Int_Tables_number   1
_chemical_formula_structural   CsKNaLi13(SiO4)4
_chemical_formula_sum   'Cs2 K2 Na2 Li26 Si8 O32'
_cell_volume   826.78676054
_cell_formula_units_Z   2
loop_
 _symmetry_equiv_pos_site_id
 _symmetry_equiv_pos_as_xyz
  1  'x, y, z'
loop_
 _atom_site_type_symbol
 _atom_site_label
 _atom_site_symmetry_multiplicity
 _atom_site_fract_x
 _atom_site_fract_y
 _atom_site_fract_z
 _atom_site_occupancy
  Cs  Cs0  1  0.000357  0.999070  0.999412  1
  Cs  Cs1  1  -0.000357  0.000930  0.500588  1
  K  K2  1  0.499928  0.999385  -0.000506  1
  K  K3  1  0.500072  0.000615  0.500506  1
  Na  Na4  1  0.247474  0.498015  0.751191  1
  Na  Na5  1  0.752526  0.501985  0.748809  1
  Li  Li6  1  0.008823  0.341526  0.069030  1
  Li  Li7  1  0.076911  0.651597  0.096376  1
  Li  Li8  1  0.018863  0.338840  0.563458  1
  Li  Li9  1  0.148822  0.864582  0.171606  1
  Li  Li10  1  0.358453  0.131399  0.327640  1
  Li  Li11  1  0.505839  0.342038  0.069298  1
  Li  Li12  1  0.080530  0.650667  0.595147  1
  Li  Li13  1  0.268740  0.813386  0.325720  1
  Li  Li14  1  0.500000  0.500000  0.250000  1
  Li  Li15  1  0.731260  0.186614  0.174280  1
  Li  Li16  1  0.152773  0.868124  0.667874  1
  Li  Li17  1  0.356644  0.127450  0.830982  1
  Li  Li18  1  0.511664  0.340576  0.564484  1
  Li  Li19  1  0.494161  0.657962  0.430702  1
  Li  Li20  1  0.641547  0.868601  0.172360  1
  Li  Li21  1  0.851178  0.135418  0.328394  1
  Li  Li22  1  0.273700  0.805053  0.824050  1
  Li  Li23  1  0.726300  0.194947  0.675950  1
  Li  Li24  1  0.923089  0.348403  0.403624  1
  Li  Li25  1  0.000000  0.500000  0.250000  1
  Li  Li26  1  0.488336  0.659424  0.935516  1
  Li  Li27  1  0.643356  0.872550  0.669018  1
  Li  Li28  1  0.847227  0.131876  0.832126  1
  Li  Li29  1  0.991177  0.658474  0.430970  1
  Li  Li30  1  0.919470  0.349333  0.904853  1
  Li  Li31  1  0.981137  0.661160  0.936542  1
  Si  Si32  1  0.244269  0.127057  0.189624  1
  Si  Si33  1  0.241398  0.128407  0.691984  1
  Si  Si34  1  0.373693  0.379836  0.435588  1
  Si  Si35  1  0.626307  0.620164  0.064412  1
  Si  Si36  1  0.367157  0.381210  0.939377  1
  Si  Si37  1  0.632843  0.618790  0.560623  1
  Si  Si38  1  0.755731  0.872943  0.310376  1
  Si  Si39  1  0.758602  0.871593  0.808016  1
  O  O40  1  0.080212  0.141356  0.133040  1
  O  O41  1  0.095196  0.263546  0.270422  1
  O  O42  1  0.234371  0.449924  0.037664  1
  O  O43  1  0.076761  0.146815  0.634802  1
  O  O44  1  0.227850  0.264699  0.426379  1
  O  O45  1  0.506283  0.143914  0.133766  1
  O  O46  1  0.347964  0.732666  0.071838  1
  O  O47  1  0.091533  0.259189  0.774677  1
  O  O48  1  0.239908  0.453407  0.532214  1
  O  O49  1  0.361656  0.541026  0.368182  1
  O  O50  1  0.304929  0.934975  0.227378  1
  O  O51  1  0.695071  0.065025  0.272622  1
  O  O52  1  0.638344  0.458974  0.131818  1
  O  O53  1  0.224426  0.265675  0.927998  1
  O  O54  1  0.499627  0.151341  0.636111  1
  O  O55  1  0.352967  0.731336  0.569783  1
  O  O56  1  0.652036  0.267334  0.428162  1
  O  O57  1  0.493717  0.856086  0.366234  1
  O  O58  1  0.772150  0.735301  0.073621  1
  O  O59  1  0.351988  0.544757  0.874099  1
  O  O60  1  0.308029  0.933343  0.725620  1
  O  O61  1  0.691971  0.066657  0.774380  1
  O  O62  1  0.648011  0.455243  0.625901  1
  O  O63  1  0.765629  0.550076  0.462336  1
  O  O64  1  0.904804  0.736454  0.229578  1
  O  O65  1  0.647033  0.268664  0.930217  1
  O  O66  1  0.500373  0.848659  0.863889  1
  O  O67  1  0.775574  0.734325  0.572002  1
  O  O68  1  0.919788  0.858644  0.366960  1
  O  O69  1  0.760092  0.546593  0.967786  1
  O  O70  1  0.908467  0.740811  0.725323  1
  O  O71  1  0.923239  0.853185  0.865198  1
