# generated using pymatgen
data_LiVCr(P2O7)2
_symmetry_space_group_name_H-M   'P 1'
_cell_length_a   13.65595103
_cell_length_b   8.06506190
_cell_length_c   7.16441904
_cell_angle_alpha   90.09660923
_cell_angle_beta   97.21437606
_cell_angle_gamma   89.88317365
_symmetry_Int_Tables_number   1
_chemical_formula_structural   LiVCr(P2O7)2
_chemical_formula_sum   'Li3 V3 Cr3 P12 O42'
_cell_volume   782.81184108
_cell_formula_units_Z   3
loop_
 _symmetry_equiv_pos_site_id
 _symmetry_equiv_pos_as_xyz
  1  'x, y, z'
loop_
 _atom_site_type_symbol
 _atom_site_label
 _atom_site_symmetry_multiplicity
 _atom_site_fract_x
 _atom_site_fract_y
 _atom_site_fract_z
 _atom_site_occupancy
  Li  Li0  1  0.166245  0.864405  0.841241  1
  Li  Li1  1  0.500627  0.864288  0.175820  1
  Li  Li2  1  0.833089  0.362183  0.161363  1
  V  V3  1  0.162442  0.494855  0.883928  1
  V  V4  1  0.494583  0.495407  0.219267  1
  V  V5  1  0.828814  0.507057  0.557051  1
  Cr  Cr6  1  0.169819  0.006185  0.443456  1
  Cr  Cr7  1  0.505120  0.005497  0.774893  1
  Cr  Cr8  1  0.837738  0.997132  0.113261  1
  P  P9  1  0.043297  0.781577  0.132253  1
  P  P10  1  0.041770  0.677787  0.520231  1
  P  P11  1  0.287704  0.281140  0.203930  1
  P  P12  1  0.294577  0.179808  0.814561  1
  P  P13  1  0.376061  0.782797  0.465319  1
  P  P14  1  0.375372  0.679145  0.852660  1
  P  P15  1  0.626941  0.180592  0.149605  1
  P  P16  1  0.623141  0.282638  0.538187  1
  P  P17  1  0.707101  0.682839  0.182667  1
  P  P18  1  0.709921  0.783354  0.795548  1
  P  P19  1  0.959497  0.176455  0.478179  1
  P  P20  1  0.955197  0.281481  0.866506  1
  O  O21  1  0.053415  0.646931  0.303125  1
  O  O22  1  0.106218  0.934139  0.188274  1
  O  O23  1  0.068591  0.180588  0.461292  1
  O  O24  1  0.085017  0.847795  0.576833  1
  O  O25  1  0.099099  0.538250  0.629424  1
  O  O26  1  0.226661  0.435051  0.132501  1
  O  O27  1  0.064418  0.330920  0.916236  1
  O  O28  1  0.283212  0.147011  0.035222  1
  O  O29  1  0.086123  0.687740  0.972284  1
  O  O30  1  0.253875  0.189733  0.365647  1
  O  O31  1  0.267969  0.823555  0.413048  1
  O  O32  1  0.230703  0.042212  0.715709  1
  O  O33  1  0.248764  0.352531  0.768139  1
  O  O34  1  0.263374  0.677294  0.869630  1
  O  O35  1  0.396964  0.333785  0.250580  1
  O  O36  1  0.418097  0.688827  0.304354  1
  O  O37  1  0.387020  0.647816  0.635800  1
  O  O38  1  0.440257  0.934095  0.520896  1
  O  O39  1  0.402112  0.178254  0.790257  1
  O  O40  1  0.566035  0.041703  0.048914  1
  O  O41  1  0.581567  0.352577  0.101455  1
  O  O42  1  0.419853  0.848747  0.909357  1
  O  O43  1  0.430716  0.538717  0.962597  1
  O  O44  1  0.595758  0.674974  0.204392  1
  O  O45  1  0.560412  0.434690  0.466128  1
  O  O46  1  0.617440  0.147597  0.369048  1
  O  O47  1  0.589435  0.190591  0.699682  1
  O  O48  1  0.601703  0.824722  0.744191  1
  O  O49  1  0.735978  0.182403  0.124665  1
  O  O50  1  0.747406  0.852711  0.235280  1
  O  O51  1  0.766461  0.540783  0.287843  1
  O  O52  1  0.731814  0.338314  0.581512  1
  O  O53  1  0.747813  0.682851  0.636681  1
  O  O54  1  0.917284  0.196894  0.032213  1
  O  O55  1  0.718456  0.645275  0.966591  1
  O  O56  1  0.935003  0.818696  0.077670  1
  O  O57  1  0.773214  0.932211  0.859666  1
  O  O58  1  0.900510  0.038965  0.375548  1
  O  O59  1  0.910626  0.348194  0.428103  1
  O  O60  1  0.930699  0.667548  0.538561  1
  O  O61  1  0.892691  0.436746  0.806308  1
  O  O62  1  0.947970  0.148285  0.700628  1
