# generated using pymatgen
data_LiTiSiO4
_symmetry_space_group_name_H-M   'P 1'
_cell_length_a   5.93272450
_cell_length_b   10.34762833
_cell_length_c   4.80163595
_cell_angle_alpha   90.00000000
_cell_angle_beta   89.95312135
_cell_angle_gamma   90.00000000
_symmetry_Int_Tables_number   1
_chemical_formula_structural   LiTiSiO4
_chemical_formula_sum   'Li4 Ti4 Si4 O16'
_cell_volume   294.77054627
_cell_formula_units_Z   4
loop_
 _symmetry_equiv_pos_site_id
 _symmetry_equiv_pos_as_xyz
  1  'x, y, z'
loop_
 _atom_site_type_symbol
 _atom_site_label
 _atom_site_symmetry_multiplicity
 _atom_site_fract_x
 _atom_site_fract_y
 _atom_site_fract_z
 _atom_site_occupancy
  Li  Li0  1  0.254605  0.292188  0.250292  1
  Li  Li1  1  0.246332  0.799482  0.749534  1
  Li  Li2  1  0.753668  0.299482  0.250466  1
  Li  Li3  1  0.745395  0.792188  0.749708  1
  Ti  Ti4  1  0.998640  0.022591  0.248396  1
  Ti  Ti5  1  0.500585  0.071637  0.748978  1
  Ti  Ti6  1  0.499415  0.571637  0.251022  1
  Ti  Ti7  1  0.001360  0.522591  0.751604  1
  Si  Si8  1  0.000515  0.202503  0.801757  1
  Si  Si9  1  0.498670  0.892040  0.302567  1
  Si  Si10  1  0.501330  0.392040  0.697433  1
  Si  Si11  1  0.999485  0.702503  0.198243  1
  O  O12  1  0.999672  0.347542  0.940550  1
  O  O13  1  0.001120  0.199244  0.465793  1
  O  O14  1  0.212915  0.621910  0.048774  1
  O  O15  1  0.213628  0.122265  0.951959  1
  O  O16  1  0.285150  0.972296  0.452624  1
  O  O17  1  0.500630  0.247039  0.558342  1
  O  O18  1  0.499775  0.894854  0.966319  1
  O  O19  1  0.288321  0.473329  0.549282  1
  O  O20  1  0.711679  0.973329  0.450718  1
  O  O21  1  0.500225  0.394854  0.033681  1
  O  O22  1  0.499370  0.747039  0.441658  1
  O  O23  1  0.714850  0.472296  0.547377  1
  O  O24  1  0.786372  0.622265  0.048041  1
  O  O25  1  0.787085  0.121910  0.951226  1
  O  O26  1  0.998880  0.699244  0.534207  1
  O  O27  1  0.000328  0.847542  0.059450  1
