# generated using pymatgen
data_Fe10O11F9
_symmetry_space_group_name_H-M   'P 1'
_cell_length_a   4.77428538
_cell_length_b   4.77803732
_cell_length_c   15.30077060
_cell_angle_alpha   90.08634219
_cell_angle_beta   89.89311995
_cell_angle_gamma   95.01000299
_symmetry_Int_Tables_number   1
_chemical_formula_structural   Fe10O11F9
_chemical_formula_sum   'Fe10 O11 F9'
_cell_volume   347.70237089
_cell_formula_units_Z   1
loop_
 _symmetry_equiv_pos_site_id
 _symmetry_equiv_pos_as_xyz
  1  'x, y, z'
loop_
 _atom_site_type_symbol
 _atom_site_label
 _atom_site_symmetry_multiplicity
 _atom_site_fract_x
 _atom_site_fract_y
 _atom_site_fract_z
 _atom_site_occupancy
  Fe  Fe0  1  0.006547  0.984450  0.005137  1
  Fe  Fe1  1  0.009367  0.989205  0.195790  1
  Fe  Fe2  1  0.998296  0.999073  0.398916  1
  Fe  Fe3  1  0.005377  0.983612  0.604632  1
  Fe  Fe4  1  0.039303  0.015755  0.795904  1
  Fe  Fe5  1  0.469488  0.529243  0.100946  1
  Fe  Fe6  1  0.503540  0.493066  0.498957  1
  Fe  Fe7  1  0.502720  0.495051  0.299425  1
  Fe  Fe8  1  0.456877  0.522891  0.692894  1
  Fe  Fe9  1  0.502638  0.479950  0.906647  1
  O  O10  1  0.186128  0.809048  0.102370  1
  O  O11  1  0.191130  0.812828  0.701107  1
  O  O12  1  0.295845  0.300047  0.001782  1
  O  O13  1  0.302963  0.304875  0.205369  1
  O  O14  1  0.304980  0.298046  0.396791  1
  O  O15  1  0.293551  0.300550  0.594862  1
  O  O16  1  0.320136  0.321831  0.800773  1
  O  O17  1  0.693750  0.697228  0.999510  1
  O  O18  1  0.692900  0.695306  0.205357  1
  O  O19  1  0.698824  0.692108  0.396928  1
  O  O20  1  0.691593  0.696402  0.597003  1
  F  F21  1  0.192275  0.805667  0.301215  1
  F  F22  1  0.189389  0.803461  0.497115  1
  F  F23  1  0.198187  0.809518  0.898441  1
  F  F24  1  0.708284  0.711846  0.802181  1
  F  F25  1  0.803517  0.191260  0.102053  1
  F  F26  1  0.807386  0.185690  0.498461  1
  F  F27  1  0.810567  0.187629  0.299620  1
  F  F28  1  0.814626  0.189530  0.897921  1
  F  F29  1  0.809818  0.194835  0.701891  1
