# generated using pymatgen
data_CuH5Pb4SO11
_symmetry_space_group_name_H-M   'P 1'
_cell_length_a   14.21864937
_cell_length_b   11.73524540
_cell_length_c   14.75473548
_cell_angle_alpha   90.00000000
_cell_angle_beta   100.08581190
_cell_angle_gamma   90.00000000
_symmetry_Int_Tables_number   1
_chemical_formula_structural   CuH5Pb4SO11
_chemical_formula_sum   'Cu8 H40 Pb32 S8 O88'
_cell_volume   2423.91962199
_cell_formula_units_Z   8
loop_
 _symmetry_equiv_pos_site_id
 _symmetry_equiv_pos_as_xyz
  1  'x, y, z'
loop_
 _atom_site_type_symbol
 _atom_site_label
 _atom_site_symmetry_multiplicity
 _atom_site_fract_x
 _atom_site_fract_y
 _atom_site_fract_z
 _atom_site_occupancy
  Cu  Cu0  1  0.761871  0.493575  0.792258  1
  Cu  Cu1  1  0.238129  0.993575  0.707742  1
  Cu  Cu2  1  0.238129  0.506425  0.207742  1
  Cu  Cu3  1  0.761871  0.006425  0.292258  1
  Cu  Cu4  1  0.494585  0.746717  0.979334  1
  Cu  Cu5  1  0.505415  0.246717  0.520666  1
  Cu  Cu6  1  0.505415  0.253283  0.020666  1
  Cu  Cu7  1  0.494585  0.753283  0.479334  1
  H  H8  1  0.606602  0.569994  0.722128  1
  H  H9  1  0.393398  0.069994  0.777872  1
  H  H10  1  0.393398  0.430006  0.277872  1
  H  H11  1  0.606602  0.930006  0.222128  1
  H  H12  1  0.605610  0.422249  0.811054  1
  H  H13  1  0.394390  0.922249  0.688946  1
  H  H14  1  0.394390  0.577751  0.188946  1
  H  H15  1  0.605610  0.077751  0.311054  1
  H  H16  1  0.911345  0.408710  0.854561  1
  H  H17  1  0.088655  0.908710  0.645439  1
  H  H18  1  0.088655  0.591290  0.145439  1
  H  H19  1  0.911345  0.091290  0.354561  1
  H  H20  1  0.907449  0.590442  0.784068  1
  H  H21  1  0.092551  0.090442  0.715932  1
  H  H22  1  0.092551  0.409558  0.215932  1
  H  H23  1  0.907449  0.909558  0.284068  1
  H  H24  1  0.537472  0.671550  0.841313  1
  H  H25  1  0.462528  0.171550  0.658687  1
  H  H26  1  0.462528  0.328450  0.158687  1
  H  H27  1  0.537472  0.828450  0.341313  1
  H  H28  1  0.446020  0.824575  0.115992  1
  H  H29  1  0.553980  0.324575  0.384008  1
  H  H30  1  0.553980  0.175425  0.884008  1
  H  H31  1  0.446020  0.675425  0.615992  1
  H  H32  1  0.551376  0.677425  0.133317  1
  H  H33  1  0.448624  0.177425  0.366683  1
  H  H34  1  0.448624  0.322575  0.866683  1
  H  H35  1  0.551376  0.822575  0.633317  1
  H  H36  1  0.448265  0.818734  0.828410  1
  H  H37  1  0.551735  0.318734  0.671590  1
  H  H38  1  0.551735  0.181266  0.171590  1
  H  H39  1  0.448265  0.681266  0.328410  1
  H  H40  1  0.032190  0.264308  0.895395  1
  H  H41  1  0.967810  0.764308  0.604605  1
  H  H42  1  0.967810  0.735692  0.104605  1
  H  H43  1  0.032190  0.235692  0.395395  1
  H  H44  1  0.883897  0.991088  0.759730  1
  H  H45  1  0.116103  0.491088  0.740270  1
  H  H46  1  0.116103  0.008912  0.240270  1
  H  H47  1  0.883897  0.508912  0.259730  1
  Pb  Pb48  1  0.780293  0.223120  0.680100  1
  Pb  Pb49  1  0.219707  0.723120  0.819900  1
  Pb  Pb50  1  0.219707  0.776880  0.319900  1
  Pb  Pb51  1  0.780293  0.276880  0.180100  1
  Pb  Pb52  1  0.891571  0.522359  0.581961  1
  Pb  Pb53  1  0.108429  0.022359  0.918039  1
  Pb  Pb54  1  0.108429  0.477641  0.418039  1
  Pb  Pb55  1  0.891571  0.977641  0.081961  1
  Pb  Pb56  1  0.900046  0.505511  0.065073  1
  Pb  Pb57  1  0.099954  0.005511  0.434927  1
  Pb  Pb58  1  0.099954  0.494489  0.934927  1
  Pb  Pb59  1  0.900046  0.994489  0.565073  1
  Pb  Pb60  1  0.745829  0.752509  0.907139  1
  Pb  Pb61  1  0.254171  0.252509  0.592861  1
  Pb  Pb62  1  0.254171  0.247491  0.092861  1
  Pb  Pb63  1  0.745829  0.747491  0.407139  1
  Pb  Pb64  1  0.765097  0.267594  0.433697  1
  Pb  Pb65  1  0.234903  0.767594  0.066303  1
  Pb  Pb66  1  0.234903  0.732406  0.566303  1
  Pb  Pb67  1  0.765097  0.232406  0.933697  1
  Pb  Pb68  1  0.770824  0.721668  0.154479  1
  Pb  Pb69  1  0.229176  0.221668  0.345521  1
  Pb  Pb70  1  0.229176  0.278332  0.845521  1
  Pb  Pb71  1  0.770824  0.778332  0.654479  1
  Pb  Pb72  1  0.634385  0.490893  0.006066  1
  Pb  Pb73  1  0.365615  0.990893  0.493934  1
  Pb  Pb74  1  0.365615  0.509107  0.993934  1
  Pb  Pb75  1  0.634385  0.009107  0.506066  1
  Pb  Pb76  1  0.637146  0.499108  0.542315  1
  Pb  Pb77  1  0.362854  0.999108  0.957685  1
  Pb  Pb78  1  0.362854  0.500892  0.457685  1
  Pb  Pb79  1  0.637146  0.000892  0.042315  1
  S  S80  1  0.581154  0.503202  0.264749  1
  S  S81  1  0.418846  0.003202  0.235251  1
  S  S82  1  0.418846  0.496798  0.735251  1
  S  S83  1  0.581154  0.996798  0.764749  1
  S  S84  1  0.011903  0.282107  0.585086  1
  S  S85  1  0.988097  0.782107  0.914914  1
  S  S86  1  0.988097  0.717893  0.414914  1
  S  S87  1  0.011903  0.217893  0.085086  1
  O  O88  1  0.517420  0.402645  0.277152  1
  O  O89  1  0.482580  0.902644  0.222848  1
  O  O90  1  0.482580  0.597356  0.722848  1
  O  O91  1  0.517420  0.097355  0.777152  1
  O  O92  1  0.637912  0.475377  0.192304  1
  O  O93  1  0.362088  0.975377  0.307696  1
  O  O94  1  0.362088  0.524623  0.807696  1
  O  O95  1  0.637912  0.024623  0.692304  1
  O  O96  1  0.517713  0.605098  0.235341  1
  O  O97  1  0.482287  0.105098  0.264659  1
  O  O98  1  0.482287  0.394902  0.764659  1
  O  O99  1  0.517713  0.894902  0.735341  1
  O  O100  1  0.644935  0.528675  0.353825  1
  O  O101  1  0.355065  0.028675  0.146175  1
  O  O102  1  0.355065  0.471325  0.646175  1
  O  O103  1  0.644935  0.971325  0.853825  1
  O  O104  1  0.066593  0.172566  0.588277  1
  O  O105  1  0.933407  0.672566  0.911723  1
  O  O106  1  0.933407  0.827434  0.411723  1
  O  O107  1  0.066593  0.327434  0.088277  1
  O  O108  1  0.082360  0.378424  0.602900  1
  O  O109  1  0.917640  0.878424  0.897100  1
  O  O110  1  0.917640  0.621576  0.397100  1
  O  O111  1  0.082360  0.121576  0.102900  1
  O  O112  1  0.948815  0.281596  0.655566  1
  O  O113  1  0.051185  0.781596  0.844434  1
  O  O114  1  0.051185  0.718404  0.344434  1
  O  O115  1  0.948815  0.218404  0.155566  1
  O  O116  1  0.952394  0.298794  0.490597  1
  O  O117  1  0.047606  0.798794  0.009403  1
  O  O118  1  0.047606  0.701206  0.509403  1
  O  O119  1  0.952394  0.201206  0.990597  1
  O  O120  1  0.762358  0.139245  0.545272  1
  O  O121  1  0.237642  0.639245  0.954728  1
  O  O122  1  0.237642  0.860755  0.454728  1
  O  O123  1  0.762358  0.360755  0.045272  1
  O  O124  1  0.770950  0.395242  0.563497  1
  O  O125  1  0.229050  0.895242  0.936503  1
  O  O126  1  0.229050  0.604758  0.436503  1
  O  O127  1  0.770950  0.104758  0.063497  1
  O  O128  1  0.761545  0.643592  0.537529  1
  O  O129  1  0.238455  0.143592  0.962471  1
  O  O130  1  0.238455  0.356408  0.462471  1
  O  O131  1  0.761545  0.856408  0.037529  1
  O  O132  1  0.758785  0.608646  0.018978  1
  O  O133  1  0.241215  0.108646  0.481022  1
  O  O134  1  0.241215  0.391354  0.981022  1
  O  O135  1  0.758785  0.891354  0.518978  1
  O  O136  1  0.671221  0.564776  0.705035  1
  O  O137  1  0.328779  0.064776  0.794965  1
  O  O138  1  0.328779  0.435224  0.294965  1
  O  O139  1  0.671221  0.935224  0.205035  1
  O  O140  1  0.669384  0.429243  0.851247  1
  O  O141  1  0.330616  0.929243  0.648753  1
  O  O142  1  0.330616  0.570757  0.148753  1
  O  O143  1  0.669384  0.070757  0.351247  1
  O  O144  1  0.852715  0.422850  0.879434  1
  O  O145  1  0.147285  0.922850  0.620566  1
  O  O146  1  0.147285  0.577150  0.120566  1
  O  O147  1  0.852715  0.077150  0.379434  1
  O  O148  1  0.857403  0.558959  0.735923  1
  O  O149  1  0.142597  0.058959  0.764077  1
  O  O150  1  0.142597  0.441041  0.264077  1
  O  O151  1  0.857403  0.941041  0.235923  1
  O  O152  1  0.574285  0.687211  0.903484  1
  O  O153  1  0.425715  0.187211  0.596516  1
  O  O154  1  0.425715  0.312789  0.096516  1
  O  O155  1  0.574285  0.812789  0.403484  1
  O  O156  1  0.411773  0.800410  0.054306  1
  O  O157  1  0.588227  0.300410  0.445694  1
  O  O158  1  0.588227  0.199590  0.945694  1
  O  O159  1  0.411773  0.699590  0.554306  1
  O  O160  1  0.582515  0.697862  0.080218  1
  O  O161  1  0.417485  0.197862  0.419782  1
  O  O162  1  0.417485  0.302138  0.919782  1
  O  O163  1  0.582515  0.802138  0.580218  1
  O  O164  1  0.410832  0.803708  0.877663  1
  O  O165  1  0.589168  0.303708  0.622337  1
  O  O166  1  0.589168  0.196292  0.122337  1
  O  O167  1  0.410832  0.696292  0.377663  1
  O  O168  1  0.066286  0.314138  0.857936  1
  O  O169  1  0.933714  0.814138  0.642064  1
  O  O170  1  0.933714  0.685862  0.142064  1
  O  O171  1  0.066286  0.185862  0.357936  1
  O  O172  1  0.851561  0.030665  0.704400  1
  O  O173  1  0.148439  0.530665  0.795600  1
  O  O174  1  0.148439  0.969335  0.295600  1
  O  O175  1  0.851561  0.469335  0.204400  1
