# generated using pymatgen
data_Li5V3P8O29
_symmetry_space_group_name_H-M   'P 1'
_cell_length_a   9.77597608
_cell_length_b   9.78511969
_cell_length_c   14.09332387
_cell_angle_alpha   90.20998461
_cell_angle_beta   90.39906553
_cell_angle_gamma   60.39273680
_symmetry_Int_Tables_number   1
_chemical_formula_structural   Li5V3P8O29
_chemical_formula_sum   'Li10 V6 P16 O58'
_cell_volume   1172.10071326
_cell_formula_units_Z   2
loop_
 _symmetry_equiv_pos_site_id
 _symmetry_equiv_pos_as_xyz
  1  'x, y, z'
loop_
 _atom_site_type_symbol
 _atom_site_label
 _atom_site_symmetry_multiplicity
 _atom_site_fract_x
 _atom_site_fract_y
 _atom_site_fract_z
 _atom_site_occupancy
  Li  Li0  1  0.674811  0.665030  0.392014  1
  Li  Li1  1  0.772305  0.312579  0.057999  1
  Li  Li2  1  0.316714  0.909263  0.061928  1
  Li  Li3  1  0.673461  0.231558  0.443318  1
  Li  Li4  1  0.321719  0.772070  0.563249  1
  Li  Li5  1  0.688408  0.082527  0.934482  1
  Li  Li6  1  0.227924  0.678138  0.941492  1
  Li  Li7  1  0.099616  0.666691  0.441318  1
  Li  Li8  1  0.096243  0.229874  0.938601  1
  Li  Li9  1  0.989970  0.059787  0.510196  1
  V  V10  1  0.565934  0.431058  0.251765  1
  V  V11  1  0.433560  0.566415  0.751522  1
  V  V12  1  0.568959  0.995958  0.746331  1
  V  V13  1  0.429235  0.006836  0.252176  1
  V  V14  1  0.999149  0.569025  0.249039  1
  V  V15  1  0.998730  0.434656  0.742870  1
  P  P16  1  0.915904  0.768864  0.837879  1
  P  P17  1  0.778588  0.914027  0.337924  1
  P  P18  1  0.915459  0.306693  0.344541  1
  P  P19  1  0.663378  0.664331  0.130913  1
  P  P20  1  0.665530  0.667198  0.629222  1
  P  P21  1  0.771285  0.320984  0.839274  1
  P  P22  1  0.683800  0.228747  0.658121  1
  P  P23  1  0.320305  0.913156  0.844833  1
  P  P24  1  0.683831  0.083064  0.153155  1
  P  P25  1  0.320373  0.772533  0.340755  1
  P  P26  1  0.230864  0.678630  0.159723  1
  P  P27  1  0.328701  0.340082  0.371267  1
  P  P28  1  0.331855  0.331470  0.868688  1
  P  P29  1  0.086092  0.687073  0.654706  1
  P  P30  1  0.220643  0.083375  0.661353  1
  P  P31  1  0.082871  0.233121  0.158975  1
  O  O32  1  0.015523  0.762821  0.562166  1
  O  O33  1  0.921201  0.741105  0.340927  1
  O  O34  1  0.744487  0.007953  0.060239  1
  O  O35  1  0.748130  0.912824  0.838738  1
  O  O36  1  0.908718  0.615878  0.818493  1
  O  O37  1  0.812208  0.660411  0.182853  1
  O  O38  1  0.909954  0.469140  0.334087  1
  O  O39  1  0.997061  0.251169  0.067026  1
  O  O40  1  0.919594  0.339262  0.839870  1
  O  O41  1  0.675278  0.807474  0.671656  1
  O  O42  1  0.627924  0.899473  0.331785  1
  O  O43  1  0.812756  0.514212  0.673183  1
  O  O44  1  0.679568  0.649091  0.026515  1
  O  O45  1  0.672053  0.660232  0.523236  1
  O  O46  1  0.664497  0.514049  0.174076  1
  O  O47  1  0.479010  0.903181  0.822919  1
  O  O48  1  0.513676  0.814173  0.166860  1
  O  O49  1  0.743394  0.339229  0.343620  1
  O  O50  1  0.794376  0.211315  0.748910  1
  O  O51  1  0.771642  0.212438  0.568765  1
  O  O52  1  0.758613  0.243055  0.928156  1
  O  O53  1  0.622012  0.481238  0.821254  1
  O  O54  1  0.510887  0.674815  0.665127  1
  O  O55  1  0.665861  0.248619  0.161327  1
  O  O56  1  0.485086  0.625371  0.329111  1
  O  O57  1  0.343111  0.917799  0.335136  1
  O  O58  1  0.801551  0.980250  0.237882  1
  O  O59  1  0.789957  0.010214  0.416510  1
  O  O60  1  0.195340  0.996388  0.581762  1
  O  O61  1  0.652535  0.089360  0.669820  1
  O  O62  1  0.529938  0.383963  0.670048  1
  O  O63  1  0.338962  0.746502  0.843401  1
  O  O64  1  0.482611  0.336560  0.330350  1
  O  O65  1  0.378136  0.519001  0.175828  1
  O  O66  1  0.237585  0.757993  0.070499  1
  O  O67  1  0.237845  0.768322  0.429125  1
  O  O68  1  0.212452  0.790386  0.249403  1
  O  O69  1  0.255752  0.661197  0.664825  1
  O  O70  1  0.483462  0.184272  0.831635  1
  O  O71  1  0.525138  0.091642  0.180718  1
  O  O72  1  0.329985  0.484632  0.830788  1
  O  O73  1  0.316774  0.336241  0.974043  1
  O  O74  1  0.327532  0.357029  0.475940  1
  O  O75  1  0.181868  0.493598  0.327873  1
  O  O76  1  0.379476  0.077618  0.666076  1
  O  O77  1  0.326412  0.196556  0.328009  1
  O  O78  1  0.081360  0.660558  0.166218  1
  O  O79  1  0.991379  0.796874  0.741788  1
  O  O80  1  0.012387  0.758634  0.921567  1
  O  O81  1  0.089996  0.527181  0.670549  1
  O  O82  1  0.183835  0.329917  0.821506  1
  O  O83  1  0.095405  0.382358  0.182075  1
  O  O84  1  0.248231  0.086198  0.160086  1
  O  O85  1  0.248101  0.999578  0.935564  1
  O  O86  1  0.201382  0.007805  0.759653  1
  O  O87  1  0.082514  0.256041  0.665409  1
  O  O88  1  0.006475  0.205485  0.425073  1
  O  O89  1  0.987459  0.214066  0.244353  1
