# generated using pymatgen
data_Na4Cu6O5
_symmetry_space_group_name_H-M   'P 1'
_cell_length_a   7.81177400
_cell_length_b   7.81030474
_cell_length_c   8.05252347
_cell_angle_alpha   89.99909075
_cell_angle_beta   89.98954543
_cell_angle_gamma   120.00790354
_symmetry_Int_Tables_number   1
_chemical_formula_structural   Na4Cu6O5
_chemical_formula_sum   'Na8 Cu12 O10'
_cell_volume   425.44720687
_cell_formula_units_Z   2
loop_
 _symmetry_equiv_pos_site_id
 _symmetry_equiv_pos_as_xyz
  1  'x, y, z'
loop_
 _atom_site_type_symbol
 _atom_site_label
 _atom_site_symmetry_multiplicity
 _atom_site_fract_x
 _atom_site_fract_y
 _atom_site_fract_z
 _atom_site_occupancy
  Na  Na0  1  0.120829  0.408425  0.749998  1
  Na  Na1  1  0.287597  0.879188  0.750000  1
  Na  Na2  1  -0.000000  0.000006  0.000004  1
  Na  Na3  1  0.000003  0.999995  0.500002  1
  Na  Na4  1  0.591576  0.712403  0.750006  1
  Na  Na5  1  0.712416  0.591594  0.250002  1
  Na  Na6  1  0.408419  0.120839  0.250002  1
  Na  Na7  1  0.879186  0.287600  0.249999  1
  Cu  Cu8  1  0.167918  0.712406  0.409364  1
  Cu  Cu9  1  0.167903  0.712431  0.090668  1
  Cu  Cu10  1  0.287603  0.455505  0.409347  1
  Cu  Cu11  1  0.287613  0.455510  0.090621  1
  Cu  Cu12  1  0.544474  0.832097  0.090644  1
  Cu  Cu13  1  0.544506  0.832112  0.409350  1
  Cu  Cu14  1  0.455517  0.287607  0.590652  1
  Cu  Cu15  1  0.455532  0.287598  0.909340  1
  Cu  Cu16  1  0.832119  0.544502  0.590640  1
  Cu  Cu17  1  0.832111  0.544512  0.909369  1
  Cu  Cu18  1  0.712405  0.167910  0.590649  1
  Cu  Cu19  1  0.712392  0.167898  0.909345  1
  O  O20  1  0.051507  0.789947  0.250035  1
  O  O21  1  0.333326  0.666728  0.945806  1
  O  O22  1  0.333329  0.666670  0.554193  1
  O  O23  1  0.210032  0.261535  0.250019  1
  O  O24  1  0.261579  0.210071  0.750036  1
  O  O25  1  0.738440  0.948484  0.249952  1
  O  O26  1  0.666632  0.333323  0.054190  1
  O  O27  1  0.666662  0.333327  0.445801  1
  O  O28  1  0.948515  0.738468  0.749993  1
  O  O29  1  0.789958  0.051510  0.749974  1
