# generated using pymatgen
data_LiCoPO4
_symmetry_space_group_name_H-M   'P 1'
_cell_length_a   9.99400648
_cell_length_b   9.99400711
_cell_length_c   22.71320618
_cell_angle_alpha   90.00000000
_cell_angle_beta   90.00000000
_cell_angle_gamma   119.99999640
_symmetry_Int_Tables_number   1
_chemical_formula_structural   LiCoPO4
_chemical_formula_sum   'Li24 Co24 P24 O96'
_cell_volume   1964.66438026
_cell_formula_units_Z   24
loop_
 _symmetry_equiv_pos_site_id
 _symmetry_equiv_pos_as_xyz
  1  'x, y, z'
loop_
 _atom_site_type_symbol
 _atom_site_label
 _atom_site_symmetry_multiplicity
 _atom_site_fract_x
 _atom_site_fract_y
 _atom_site_fract_z
 _atom_site_occupancy
  Li  Li0  1  0.007742  0.947722  0.418730  1
  Li  Li1  1  0.062131  0.561701  0.916984  1
  Li  Li2  1  0.061252  0.515475  0.256377  1
  Li  Li3  1  0.024427  0.480806  0.587190  1
  Li  Li4  1  0.456378  0.975573  0.920523  1
  Li  Li5  1  0.454224  0.938748  0.589711  1
  Li  Li6  1  0.052278  0.060019  0.085397  1
  Li  Li7  1  0.499570  0.937869  0.250317  1
  Li  Li8  1  0.060019  0.007742  0.252064  1
  Li  Li9  1  0.438299  0.500430  0.583651  1
  Li  Li10  1  0.484525  0.545776  0.923044  1
  Li  Li11  1  0.519194  0.543622  0.253857  1
  Li  Li12  1  0.480806  0.456378  0.753857  1
  Li  Li13  1  0.515475  0.454224  0.423044  1
  Li  Li14  1  0.561701  0.499570  0.083651  1
  Li  Li15  1  0.939981  0.992258  0.752064  1
  Li  Li16  1  0.500430  0.062131  0.750317  1
  Li  Li17  1  0.947722  0.939981  0.585397  1
  Li  Li18  1  0.545776  0.061252  0.089711  1
  Li  Li19  1  0.543622  0.024427  0.420523  1
  Li  Li20  1  0.975573  0.519194  0.087190  1
  Li  Li21  1  0.938748  0.484525  0.756377  1
  Li  Li22  1  0.937869  0.438299  0.416984  1
  Li  Li23  1  0.992258  0.052278  0.918730  1
  Co  Co24  1  0.146937  0.834324  0.679483  1
  Co  Co25  1  0.189385  0.884968  0.010692  1
  Co  Co26  1  0.176723  0.789331  0.375952  1
  Co  Co27  1  0.115032  0.304418  0.677358  1
  Co  Co28  1  0.329734  0.673305  0.820013  1
  Co  Co29  1  0.326695  0.656429  0.486680  1
  Co  Co30  1  0.343571  0.670266  0.153346  1
  Co  Co31  1  0.165676  0.312613  0.346150  1
  Co  Co32  1  0.210669  0.387391  0.042618  1
  Co  Co33  1  0.612609  0.823277  0.709285  1
  Co  Co34  1  0.304418  0.189385  0.844025  1
  Co  Co35  1  0.312613  0.146937  0.512816  1
  Co  Co36  1  0.687387  0.853063  0.012816  1
  Co  Co37  1  0.695582  0.810615  0.344025  1
  Co  Co38  1  0.387391  0.176723  0.209285  1
  Co  Co39  1  0.789331  0.612609  0.542618  1
  Co  Co40  1  0.834324  0.687387  0.846150  1
  Co  Co41  1  0.656429  0.329734  0.653346  1
  Co  Co42  1  0.673305  0.343571  0.986680  1
  Co  Co43  1  0.670266  0.326695  0.320013  1
  Co  Co44  1  0.884968  0.695582  0.177358  1
  Co  Co45  1  0.823277  0.210669  0.875952  1
  Co  Co46  1  0.810615  0.115032  0.510692  1
  Co  Co47  1  0.853063  0.165676  0.179483  1
  P  P48  1  0.171931  0.856274  0.813047  1
  P  P49  1  0.131956  0.778922  0.509032  1
  P  P50  1  0.217977  0.881357  0.146335  1
  P  P51  1  0.118643  0.336620  0.813001  1
  P  P52  1  0.328208  0.687397  0.009593  1
  P  P53  1  0.143726  0.315657  0.479713  1
  P  P54  1  0.312603  0.640811  0.676260  1
  P  P55  1  0.359189  0.671792  0.342926  1
  P  P56  1  0.221078  0.353033  0.175699  1
  P  P57  1  0.646967  0.868044  0.842366  1
  P  P58  1  0.336620  0.217977  0.979668  1
  P  P59  1  0.315657  0.171931  0.646380  1
  P  P60  1  0.684343  0.828069  0.146380  1
  P  P61  1  0.663380  0.782023  0.479668  1
  P  P62  1  0.353033  0.131956  0.342366  1
  P  P63  1  0.778922  0.646967  0.675699  1
  P  P64  1  0.640811  0.328208  0.842926  1
  P  P65  1  0.687397  0.359189  0.176260  1
  P  P66  1  0.856274  0.684343  0.979714  1
  P  P67  1  0.671792  0.312603  0.509593  1
  P  P68  1  0.881357  0.663380  0.313001  1
  P  P69  1  0.782023  0.118643  0.646335  1
  P  P70  1  0.868044  0.221078  0.009032  1
  P  P71  1  0.828069  0.143726  0.313047  1
  O  O72  1  0.015524  0.707311  0.798514  1
  O  O73  1  0.134372  0.973975  0.842769  1
  O  O74  1  0.012392  0.678726  0.556975  1
  O  O75  1  0.132996  0.933794  0.498352  1
  O  O76  1  0.180528  0.990300  0.183037  1
  O  O77  1  0.066208  0.728052  0.131939  1
  O  O78  1  0.084258  0.680075  0.451584  1
  O  O79  1  0.260565  0.923337  0.754138  1
  O  O80  1  0.293504  0.961077  0.087111  1
  O  O81  1  0.157364  0.640281  0.674313  1
  O  O82  1  0.206175  0.709675  0.975629  1
  O  O83  1  0.277045  0.823874  0.854125  1
  O  O84  1  0.208748  0.656572  0.316658  1
  O  O85  1  0.295199  0.812814  0.528361  1
  O  O86  1  0.038923  0.332427  0.753778  1
  O  O87  1  0.334759  0.852865  0.181663  1
  O  O88  1  0.147135  0.481894  0.848329  1
  O  O89  1  0.009700  0.190228  0.849704  1
  O  O90  1  0.076663  0.337229  0.420804  1
  O  O91  1  0.026025  0.160397  0.509436  1
  O  O92  1  0.261929  0.630663  0.072644  1
  O  O93  1  0.066206  0.199203  0.165019  1
  O  O94  1  0.176126  0.453170  0.520792  1
  O  O95  1  0.187186  0.482386  0.195028  1
  O  O96  1  0.368734  0.738071  0.405977  1
  O  O97  1  0.290325  0.496501  0.642295  1
  O  O98  1  0.369337  0.631266  0.739311  1
  O  O99  1  0.343428  0.552176  0.983324  1
  O  O100  1  0.447824  0.791252  0.649991  1
  O  O101  1  0.482916  0.842636  0.007646  1
  O  O102  1  0.359719  0.517084  0.340979  1
  O  O103  1  0.160397  0.134372  0.676102  1
  O  O104  1  0.190228  0.180528  0.016370  1
  O  O105  1  0.271948  0.338156  0.798606  1
  O  O106  1  0.319925  0.404183  0.118251  1
  O  O107  1  0.503499  0.793825  0.308962  1
  O  O108  1  0.199203  0.132996  0.331686  1
  O  O109  1  0.292689  0.308212  0.465181  1
  O  O110  1  0.321274  0.333667  0.223642  1
  O  O111  1  0.517614  0.704801  0.861695  1
  O  O112  1  0.595817  0.915742  0.784918  1
  O  O113  1  0.546830  0.722955  0.187458  1
  O  O114  1  0.332427  0.293504  0.920444  1
  O  O115  1  0.666333  0.987608  0.890309  1
  O  O116  1  0.518106  0.665241  0.514996  1
  O  O117  1  0.337229  0.260565  0.587471  1
  O  O118  1  0.661844  0.933792  0.465273  1
  O  O119  1  0.691788  0.984476  0.131847  1
  O  O120  1  0.308212  0.015524  0.631847  1
  O  O121  1  0.338156  0.066208  0.965273  1
  O  O122  1  0.662771  0.739435  0.087471  1
  O  O123  1  0.481894  0.334759  0.014996  1
  O  O124  1  0.333667  0.012392  0.390309  1
  O  O125  1  0.667573  0.706496  0.420444  1
  O  O126  1  0.453170  0.277045  0.687458  1
  O  O127  1  0.404183  0.084258  0.284918  1
  O  O128  1  0.482386  0.295199  0.361695  1
  O  O129  1  0.678726  0.666333  0.723642  1
  O  O130  1  0.707311  0.691788  0.965181  1
  O  O131  1  0.800797  0.867004  0.831686  1
  O  O132  1  0.496501  0.206175  0.808962  1
  O  O133  1  0.680075  0.595817  0.618251  1
  O  O134  1  0.728052  0.661844  0.298606  1
  O  O135  1  0.809772  0.819472  0.516370  1
  O  O136  1  0.839603  0.865628  0.176102  1
  O  O137  1  0.640281  0.482916  0.840979  1
  O  O138  1  0.517084  0.157364  0.507646  1
  O  O139  1  0.552176  0.208748  0.149991  1
  O  O140  1  0.656572  0.447824  0.483324  1
  O  O141  1  0.630663  0.368734  0.239311  1
  O  O142  1  0.709675  0.503499  0.142295  1
  O  O143  1  0.631266  0.261929  0.905977  1
  O  O144  1  0.812814  0.517614  0.695028  1
  O  O145  1  0.823874  0.546830  0.020792  1
  O  O146  1  0.933794  0.800797  0.665019  1
  O  O147  1  0.738071  0.369337  0.572644  1
  O  O148  1  0.973975  0.839603  0.009436  1
  O  O149  1  0.923337  0.662771  0.920804  1
  O  O150  1  0.990300  0.809772  0.349704  1
  O  O151  1  0.852865  0.518106  0.348329  1
  O  O152  1  0.665241  0.147135  0.681663  1
  O  O153  1  0.961077  0.667573  0.253778  1
  O  O154  1  0.704801  0.187186  0.028361  1
  O  O155  1  0.791252  0.343428  0.816658  1
  O  O156  1  0.722955  0.176126  0.354125  1
  O  O157  1  0.793825  0.290325  0.475629  1
  O  O158  1  0.842636  0.359719  0.174313  1
  O  O159  1  0.706496  0.038923  0.587111  1
  O  O160  1  0.739435  0.076663  0.254138  1
  O  O161  1  0.915742  0.319925  0.951584  1
  O  O162  1  0.933792  0.271948  0.631939  1
  O  O163  1  0.819472  0.009700  0.683037  1
  O  O164  1  0.867004  0.066206  0.998352  1
  O  O165  1  0.987608  0.321274  0.056975  1
  O  O166  1  0.865628  0.026025  0.342769  1
  O  O167  1  0.984476  0.292689  0.298514  1
