# generated using pymatgen
data_Ti2O3
_symmetry_space_group_name_H-M   'P 1'
_cell_length_a   5.16693664
_cell_length_b   5.16866861
_cell_length_c   9.60760334
_cell_angle_alpha   89.98733516
_cell_angle_beta   90.00452771
_cell_angle_gamma   120.00824169
_symmetry_Int_Tables_number   1
_chemical_formula_structural   Ti2O3
_chemical_formula_sum   'Ti8 O12'
_cell_volume   222.18842758
_cell_formula_units_Z   4
loop_
 _symmetry_equiv_pos_site_id
 _symmetry_equiv_pos_as_xyz
  1  'x, y, z'
loop_
 _atom_site_type_symbol
 _atom_site_label
 _atom_site_symmetry_multiplicity
 _atom_site_fract_x
 _atom_site_fract_y
 _atom_site_fract_z
 _atom_site_occupancy
  Ti  Ti0  1  0.333654  0.666875  0.976548  1
  Ti  Ti1  1  0.333165  0.666549  0.250224  1
  Ti  Ti2  1  0.999997  0.999981  0.000045  1
  Ti  Ti3  1  0.999983  0.000005  0.499997  1
  Ti  Ti4  1  0.333752  0.666965  0.523037  1
  Ti  Ti5  1  0.666833  0.333432  0.749827  1
  Ti  Ti6  1  0.666231  0.333075  0.023524  1
  Ti  Ti7  1  0.666261  0.333078  0.476863  1
  O  O8  1  0.026178  0.675764  0.116417  1
  O  O9  1  0.974065  0.649913  0.616415  1
  O  O10  1  0.025890  0.350035  0.383489  1
  O  O11  1  0.973825  0.324210  0.883658  1
  O  O12  1  0.324027  0.350406  0.116605  1
  O  O13  1  0.350152  0.324294  0.616577  1
  O  O14  1  0.324035  0.973987  0.383275  1
  O  O15  1  0.350438  0.026182  0.883440  1
  O  O16  1  0.649967  0.675769  0.383317  1
  O  O17  1  0.675912  0.649568  0.883469  1
  O  O18  1  0.649498  0.973780  0.116612  1
  O  O19  1  0.675938  0.026134  0.616659  1
