# generated using pymatgen
data_Na8SnO6
_symmetry_space_group_name_H-M   'P 1'
_cell_length_a   6.48927370
_cell_length_b   6.48947845
_cell_length_c   12.86983614
_cell_angle_alpha   89.99984104
_cell_angle_beta   89.99988296
_cell_angle_gamma   120.00233318
_symmetry_Int_Tables_number   1
_chemical_formula_structural   Na8SnO6
_chemical_formula_sum   'Na16 Sn2 O12'
_cell_volume   469.35270491
_cell_formula_units_Z   2
loop_
 _symmetry_equiv_pos_site_id
 _symmetry_equiv_pos_as_xyz
  1  'x, y, z'
loop_
 _atom_site_type_symbol
 _atom_site_label
 _atom_site_symmetry_multiplicity
 _atom_site_fract_x
 _atom_site_fract_y
 _atom_site_fract_z
 _atom_site_occupancy
  Na  Na0  1  0.999984  0.698052  0.768955  1
  Na  Na1  1  0.999992  0.602077  0.125402  1
  Na  Na2  1  0.999992  0.397910  0.625401  1
  Na  Na3  1  0.999997  0.301950  0.268956  1
  Na  Na4  1  0.333323  0.666680  0.410170  1
  Na  Na5  1  0.333319  0.666663  0.910171  1
  Na  Na6  1  0.301919  0.301904  0.768960  1
  Na  Na7  1  0.397931  0.397937  0.125398  1
  Na  Na8  1  0.602059  0.602074  0.625397  1
  Na  Na9  1  0.301931  0.000015  0.268971  1
  Na  Na10  1  0.698059  0.698085  0.268959  1
  Na  Na11  1  0.397904  0.999978  0.625395  1
  Na  Na12  1  0.666664  0.333325  0.910171  1
  Na  Na13  1  0.666674  0.333338  0.410170  1
  Na  Na14  1  0.602072  0.000025  0.125398  1
  Na  Na15  1  0.698058  0.999987  0.768973  1
  Sn  Sn16  1  -0.000013  0.999979  0.996305  1
  Sn  Sn17  1  0.000006  0.000018  0.496285  1
  O  O18  1  0.000003  0.706579  0.950896  1
  O  O19  1  0.000000  0.293436  0.450890  1
  O  O20  1  0.333326  0.666685  0.219588  1
  O  O21  1  0.999991  0.000010  0.154085  1
  O  O22  1  0.999980  0.999984  0.654061  1
  O  O23  1  0.333312  0.666654  0.719591  1
  O  O24  1  0.293401  0.293408  0.950886  1
  O  O25  1  0.293414  -0.000001  0.450881  1
  O  O26  1  0.706590  0.706579  0.450877  1
  O  O27  1  0.666652  0.333314  0.719590  1
  O  O28  1  0.666668  0.333346  0.219587  1
  O  O29  1  0.706591  0.000004  0.950892  1
