# generated using pymatgen
data_LiVOF2
_symmetry_space_group_name_H-M   'P 1'
_cell_length_a   10.12959631
_cell_length_b   8.97287050
_cell_length_c   5.47583174
_cell_angle_alpha   89.60964453
_cell_angle_beta   89.79959264
_cell_angle_gamma   90.38528193
_symmetry_Int_Tables_number   1
_chemical_formula_structural   LiVOF2
_chemical_formula_sum   'Li8 V8 O8 F16'
_cell_volume   497.68093809
_cell_formula_units_Z   8
loop_
 _symmetry_equiv_pos_site_id
 _symmetry_equiv_pos_as_xyz
  1  'x, y, z'
loop_
 _atom_site_type_symbol
 _atom_site_label
 _atom_site_symmetry_multiplicity
 _atom_site_fract_x
 _atom_site_fract_y
 _atom_site_fract_z
 _atom_site_occupancy
  Li  Li0  1  0.210268  0.419662  0.531831  1
  Li  Li1  1  0.212064  0.589831  0.035789  1
  Li  Li2  1  0.285208  0.079552  0.034616  1
  Li  Li3  1  0.293461  0.907624  0.548344  1
  Li  Li4  1  0.696222  0.078530  0.470466  1
  Li  Li5  1  0.695782  0.922679  0.965591  1
  Li  Li6  1  0.792998  0.415077  0.960646  1
  Li  Li7  1  0.808503  0.576089  0.461742  1
  V  V8  1  0.011296  0.905700  0.249471  1
  V  V9  1  0.012341  0.261057  0.259826  1
  V  V10  1  0.011866  0.739190  0.766365  1
  V  V11  1  0.011137  0.095001  0.745787  1
  V  V12  1  0.495943  0.418766  0.232948  1
  V  V13  1  0.491232  0.762201  0.269449  1
  V  V14  1  0.492314  0.246801  0.741013  1
  V  V15  1  0.497466  0.585080  0.756062  1
  O  O16  1  0.090820  0.086465  0.091650  1
  O  O17  1  0.091656  0.914607  0.595551  1
  O  O18  1  0.095047  0.246615  0.568471  1
  O  O19  1  0.092543  0.753787  0.075566  1
  O  O20  1  0.417704  0.745229  0.581534  1
  O  O21  1  0.409098  0.416405  0.574684  1
  O  O22  1  0.404683  0.591220  0.097577  1
  O  O23  1  0.597697  0.407685  0.921406  1
  F  F24  1  0.145849  0.418122  0.186310  1
  F  F25  1  0.149802  0.589331  0.688934  1
  F  F26  1  0.355193  0.919792  0.204774  1
  F  F27  1  0.363289  0.083657  0.694620  1
  F  F28  1  0.386921  0.259761  0.062008  1
  F  F29  1  0.618585  0.580691  0.411281  1
  F  F30  1  0.592743  0.247128  0.405640  1
  F  F31  1  0.610931  0.736944  0.934375  1
  F  F32  1  0.632743  0.918254  0.295516  1
  F  F33  1  0.632382  0.091272  0.804475  1
  F  F34  1  0.867225  0.409840  0.293183  1
  F  F35  1  0.872527  0.580131  0.793215  1
  F  F36  1  0.892287  0.236840  0.921560  1
  F  F37  1  0.889871  0.764143  0.428527  1
  F  F38  1  0.886248  0.086007  0.419056  1
  F  F39  1  0.886049  0.913235  0.920145  1
