# generated using pymatgen
data_NaTi4O8
_symmetry_space_group_name_H-M   'P 1'
_cell_length_a   9.69815322
_cell_length_b   11.31069164
_cell_length_c   5.93846499
_cell_angle_alpha   90.00000000
_cell_angle_beta   90.22214705
_cell_angle_gamma   90.00000000
_symmetry_Int_Tables_number   1
_chemical_formula_structural   NaTi4O8
_chemical_formula_sum   'Na4 Ti16 O32'
_cell_volume   651.40207842
_cell_formula_units_Z   4
loop_
 _symmetry_equiv_pos_site_id
 _symmetry_equiv_pos_as_xyz
  1  'x, y, z'
loop_
 _atom_site_type_symbol
 _atom_site_label
 _atom_site_symmetry_multiplicity
 _atom_site_fract_x
 _atom_site_fract_y
 _atom_site_fract_z
 _atom_site_occupancy
  Na  Na0  1  0.098590  0.573596  0.348084  1
  Na  Na1  1  0.401410  0.073596  0.151916  1
  Na  Na2  1  0.598590  0.926404  0.848084  1
  Na  Na3  1  0.901410  0.426404  0.651916  1
  Ti  Ti4  1  0.016126  0.124718  0.122331  1
  Ti  Ti5  1  0.021159  0.123269  0.627697  1
  Ti  Ti6  1  0.243250  0.330249  0.374995  1
  Ti  Ti7  1  0.235413  0.345560  0.874544  1
  Ti  Ti8  1  0.256750  0.830249  0.125005  1
  Ti  Ti9  1  0.264587  0.845560  0.625456  1
  Ti  Ti10  1  0.478841  0.623269  0.872303  1
  Ti  Ti11  1  0.483874  0.624718  0.377669  1
  Ti  Ti12  1  0.521159  0.376731  0.127697  1
  Ti  Ti13  1  0.516126  0.375282  0.622331  1
  Ti  Ti14  1  0.743250  0.169751  0.874995  1
  Ti  Ti15  1  0.735413  0.154440  0.374544  1
  Ti  Ti16  1  0.764587  0.654440  0.125456  1
  Ti  Ti17  1  0.756750  0.669751  0.625005  1
  Ti  Ti18  1  0.978841  0.876731  0.372303  1
  Ti  Ti19  1  0.983874  0.875282  0.877669  1
  O  O20  1  0.097890  0.958273  0.125840  1
  O  O21  1  0.098956  0.958665  0.625509  1
  O  O22  1  0.132539  0.769407  0.376582  1
  O  O23  1  0.135595  0.770505  0.873913  1
  O  O24  1  0.130383  0.187505  0.372821  1
  O  O25  1  0.126780  0.194119  0.877469  1
  O  O26  1  0.154151  0.409469  0.129505  1
  O  O27  1  0.146504  0.408259  0.616747  1
  O  O28  1  0.345849  0.909469  0.370495  1
  O  O29  1  0.353496  0.908259  0.883253  1
  O  O30  1  0.369617  0.687505  0.127179  1
  O  O31  1  0.373220  0.694119  0.622531  1
  O  O32  1  0.367461  0.269407  0.123418  1
  O  O33  1  0.364405  0.270505  0.626087  1
  O  O34  1  0.402110  0.458272  0.374160  1
  O  O35  1  0.401044  0.458665  0.874491  1
  O  O36  1  0.598956  0.541335  0.125509  1
  O  O37  1  0.597890  0.541727  0.625840  1
  O  O38  1  0.635595  0.729495  0.373913  1
  O  O39  1  0.632539  0.730593  0.876582  1
  O  O40  1  0.626780  0.305881  0.377469  1
  O  O41  1  0.630383  0.312495  0.872821  1
  O  O42  1  0.646504  0.091741  0.116747  1
  O  O43  1  0.654151  0.090531  0.629505  1
  O  O44  1  0.853496  0.591741  0.383253  1
  O  O45  1  0.845849  0.590531  0.870495  1
  O  O46  1  0.873220  0.805881  0.122531  1
  O  O47  1  0.869617  0.812495  0.627179  1
  O  O48  1  0.864405  0.229495  0.126087  1
  O  O49  1  0.867461  0.230593  0.623418  1
  O  O50  1  0.901044  0.041335  0.374491  1
  O  O51  1  0.902110  0.041727  0.874160  1
