# generated using pymatgen
data_Li7Mn2P7O24
_symmetry_space_group_name_H-M   'P 1'
_cell_length_a   14.86060163
_cell_length_b   5.00097909
_cell_length_c   12.61555296
_cell_angle_alpha   90.00000000
_cell_angle_beta   98.59460731
_cell_angle_gamma   90.00000000
_symmetry_Int_Tables_number   1
_chemical_formula_structural   Li7Mn2P7O24
_chemical_formula_sum   'Li14 Mn4 P14 O48'
_cell_volume   927.02874581
_cell_formula_units_Z   2
loop_
 _symmetry_equiv_pos_site_id
 _symmetry_equiv_pos_as_xyz
  1  'x, y, z'
loop_
 _atom_site_type_symbol
 _atom_site_label
 _atom_site_symmetry_multiplicity
 _atom_site_fract_x
 _atom_site_fract_y
 _atom_site_fract_z
 _atom_site_occupancy
  Li  Li0  1  0.055481  0.747419  0.519363  1
  Li  Li1  1  0.139037  0.825111  0.894077  1
  Li  Li2  1  0.055481  0.252581  0.019363  1
  Li  Li3  1  0.139037  0.174889  0.394077  1
  Li  Li4  1  0.402118  0.186868  0.566511  1
  Li  Li5  1  0.402118  0.813132  0.066511  1
  Li  Li6  1  0.500000  0.708507  0.750000  1
  Li  Li7  1  0.500000  0.291493  0.250000  1
  Li  Li8  1  0.597882  0.186868  0.933489  1
  Li  Li9  1  0.597882  0.813132  0.433489  1
  Li  Li10  1  0.860963  0.825111  0.605923  1
  Li  Li11  1  0.944519  0.747419  0.980637  1
  Li  Li12  1  0.860963  0.174889  0.105923  1
  Li  Li13  1  0.944519  0.252581  0.480637  1
  Mn  Mn14  1  0.280977  0.643852  0.705709  1
  Mn  Mn15  1  0.280977  0.356148  0.205709  1
  Mn  Mn16  1  0.719023  0.643852  0.794291  1
  Mn  Mn17  1  0.719023  0.356148  0.294291  1
  P  P18  1  0.000000  0.464373  0.750000  1
  P  P19  1  0.000000  0.535627  0.250000  1
  P  P20  1  0.136747  0.143734  0.658274  1
  P  P21  1  0.136747  0.856266  0.158274  1
  P  P22  1  0.270139  0.377172  0.951460  1
  P  P23  1  0.270139  0.622828  0.451460  1
  P  P24  1  0.393929  0.144223  0.811770  1
  P  P25  1  0.393929  0.855777  0.311770  1
  P  P26  1  0.606071  0.144223  0.688230  1
  P  P27  1  0.606071  0.855777  0.188230  1
  P  P28  1  0.729861  0.377172  0.548540  1
  P  P29  1  0.729861  0.622828  0.048540  1
  P  P30  1  0.863252  0.143734  0.841726  1
  P  P31  1  0.863252  0.856266  0.341726  1
  O  O32  1  0.018695  0.613144  0.854846  1
  O  O33  1  0.018695  0.386856  0.354846  1
  O  O34  1  0.082916  0.254732  0.751688  1
  O  O35  1  0.072831  0.143293  0.552760  1
  O  O36  1  0.082916  0.745268  0.251688  1
  O  O37  1  0.072831  0.856707  0.052760  1
  O  O38  1  0.167114  0.864614  0.700255  1
  O  O39  1  0.186675  0.237514  0.980433  1
  O  O40  1  0.218330  0.327228  0.656223  1
  O  O41  1  0.167114  0.135386  0.200255  1
  O  O42  1  0.186675  0.762486  0.480433  1
  O  O43  1  0.249378  0.606544  0.871063  1
  O  O44  1  0.218330  0.672772  0.156223  1
  O  O45  1  0.249378  0.393456  0.371063  1
  O  O46  1  0.318634  0.137481  0.889305  1
  O  O47  1  0.318634  0.862519  0.389305  1
  O  O48  1  0.359085  0.950367  0.717306  1
  O  O49  1  0.342046  0.544961  0.547434  1
  O  O50  1  0.398718  0.429734  0.765786  1
  O  O51  1  0.359085  0.049633  0.217306  1
  O  O52  1  0.342046  0.455039  0.047434  1
  O  O53  1  0.398718  0.570266  0.265786  1
  O  O54  1  0.482204  0.040913  0.872046  1
  O  O55  1  0.482204  0.959087  0.372046  1
  O  O56  1  0.517796  0.040913  0.627954  1
  O  O57  1  0.517796  0.959087  0.127954  1
  O  O58  1  0.601282  0.429734  0.734214  1
  O  O59  1  0.657954  0.544961  0.952566  1
  O  O60  1  0.640915  0.950367  0.782694  1
  O  O61  1  0.601282  0.570266  0.234214  1
  O  O62  1  0.657954  0.455039  0.452566  1
  O  O63  1  0.640915  0.049633  0.282694  1
  O  O64  1  0.681366  0.137481  0.610695  1
  O  O65  1  0.681366  0.862519  0.110695  1
  O  O66  1  0.750622  0.606544  0.628937  1
  O  O67  1  0.781670  0.327228  0.843777  1
  O  O68  1  0.750622  0.393456  0.128937  1
  O  O69  1  0.813325  0.237514  0.519567  1
  O  O70  1  0.832886  0.864614  0.799745  1
  O  O71  1  0.781670  0.672772  0.343777  1
  O  O72  1  0.813325  0.762486  0.019567  1
  O  O73  1  0.832886  0.135386  0.299745  1
  O  O74  1  0.927169  0.143293  0.947240  1
  O  O75  1  0.917084  0.254732  0.748312  1
  O  O76  1  0.927169  0.856707  0.447240  1
  O  O77  1  0.917084  0.745268  0.248312  1
  O  O78  1  0.981305  0.613144  0.645154  1
  O  O79  1  0.981305  0.386856  0.145154  1
