# generated using pymatgen
data_Ti2N2O
_symmetry_space_group_name_H-M   'P 1'
_cell_length_a   8.24023467
_cell_length_b   8.23533165
_cell_length_c   8.19294280
_cell_angle_alpha   109.40120914
_cell_angle_beta   109.42795988
_cell_angle_gamma   109.60100907
_symmetry_Int_Tables_number   1
_chemical_formula_structural   Ti2N2O
_chemical_formula_sum   'Ti16 N16 O8'
_cell_volume   427.90659785
_cell_formula_units_Z   8
loop_
 _symmetry_equiv_pos_site_id
 _symmetry_equiv_pos_as_xyz
  1  'x, y, z'
loop_
 _atom_site_type_symbol
 _atom_site_label
 _atom_site_symmetry_multiplicity
 _atom_site_fract_x
 _atom_site_fract_y
 _atom_site_fract_z
 _atom_site_occupancy
  Ti  Ti0  1  0.499432  0.998463  0.986508  1
  Ti  Ti1  1  0.759891  0.304170  0.545821  1
  Ti  Ti2  1  0.208408  0.950006  0.249286  1
  Ti  Ti3  1  0.712081  0.465904  0.249987  1
  Ti  Ti4  1  0.238761  0.203226  0.947561  1
  Ti  Ti5  1  0.009905  0.511334  0.008344  1
  Ti  Ti6  1  0.964421  0.260389  0.204923  1
  Ti  Ti7  1  0.499379  0.507585  0.511799  1
  Ti  Ti8  1  0.544139  0.750432  0.300232  1
  Ti  Ti9  1  0.008803  0.996533  0.505367  1
  Ti  Ti10  1  0.451130  0.250015  0.716286  1
  Ti  Ti11  1  0.035711  0.740118  0.784657  1
  Ti  Ti12  1  0.750935  0.789136  0.040644  1
  Ti  Ti13  1  0.797020  0.041733  0.758158  1
  Ti  Ti14  1  0.288819  0.539448  0.742677  1
  Ti  Ti15  1  0.250819  0.707202  0.459670  1
  N  N16  1  0.723169  0.992219  0.951222  1
  N  N17  1  0.509910  0.232759  0.960096  1
  N  N18  1  0.771068  0.725617  0.263808  1
  N  N19  1  0.231753  0.960445  0.507738  1
  N  N20  1  0.771656  0.545613  0.535928  1
  N  N21  1  0.051628  0.275419  0.011275  1
  N  N22  1  0.278647  0.737004  0.223216  1
  N  N23  1  0.223724  0.446270  0.458511  1
  N  N24  1  0.550013  0.541311  0.775408  1
  N  N25  1  0.953215  0.727165  0.994971  1
  N  N26  1  0.957482  0.507257  0.232792  1
  N  N27  1  0.541436  0.771171  0.547486  1
  N  N28  1  0.988740  0.949870  0.724211  1
  N  N29  1  0.222895  0.273789  0.735522  1
  N  N30  1  0.034518  0.483391  0.757542  1
  N  N31  1  0.268240  0.777838  0.729661  1
  O  O32  1  0.761277  0.039656  0.489131  1
  O  O33  1  0.276618  0.011055  0.054165  1
  O  O34  1  0.732720  0.222137  0.278456  1
  O  O35  1  0.458201  0.222666  0.450013  1
  O  O36  1  0.448539  0.461190  0.222506  1
  O  O37  1  0.723733  0.262524  0.767637  1
  O  O38  1  0.009017  0.049941  0.274008  1
  O  O39  1  0.492144  0.767997  0.042775  1
