# generated using pymatgen
data_Fe3O4
_symmetry_space_group_name_H-M   'P 1'
_cell_length_a   2.94267138
_cell_length_b   5.09881552
_cell_length_c   9.99026161
_cell_angle_alpha   90.10936498
_cell_angle_beta   90.23296315
_cell_angle_gamma   73.27709387
_symmetry_Int_Tables_number   1
_chemical_formula_structural   Fe3O4
_chemical_formula_sum   'Fe6 O8'
_cell_volume   143.55459907
_cell_formula_units_Z   2
loop_
 _symmetry_equiv_pos_site_id
 _symmetry_equiv_pos_as_xyz
  1  'x, y, z'
loop_
 _atom_site_type_symbol
 _atom_site_label
 _atom_site_symmetry_multiplicity
 _atom_site_fract_x
 _atom_site_fract_y
 _atom_site_fract_z
 _atom_site_occupancy
  Fe  Fe0  1  0.870626  0.254699  0.573300  1
  Fe  Fe1  1  0.131228  0.727940  0.423911  1
  Fe  Fe2  1  0.863838  0.272427  0.924768  1
  Fe  Fe3  1  0.128822  0.749838  0.075200  1
  Fe  Fe4  1  0.617950  0.764849  0.739782  1
  Fe  Fe5  1  0.384119  0.238238  0.239456  1
  O  O6  1  0.964403  0.072402  0.753351  1
  O  O7  1  0.041048  0.922900  0.254256  1
  O  O8  1  0.769255  0.469800  0.109987  1
  O  O9  1  0.224780  0.550474  0.886051  1
  O  O10  1  0.770606  0.446589  0.385496  1
  O  O11  1  0.234554  0.528245  0.613827  1
  O  O12  1  0.506616  0.981699  0.509689  1
  O  O13  1  0.492154  0.019899  0.010926  1
