# generated using pymatgen
data_Li4Mn3OF11
_symmetry_space_group_name_H-M   'P 1'
_cell_length_a   6.01374319
_cell_length_b   5.92455286
_cell_length_c   6.07725219
_cell_angle_alpha   97.22342687
_cell_angle_beta   98.30200283
_cell_angle_gamma   97.68312383
_symmetry_Int_Tables_number   1
_chemical_formula_structural   Li4Mn3OF11
_chemical_formula_sum   'Li4 Mn3 O1 F11'
_cell_volume   209.99697541
_cell_formula_units_Z   1
loop_
 _symmetry_equiv_pos_site_id
 _symmetry_equiv_pos_as_xyz
  1  'x, y, z'
loop_
 _atom_site_type_symbol
 _atom_site_label
 _atom_site_symmetry_multiplicity
 _atom_site_fract_x
 _atom_site_fract_y
 _atom_site_fract_z
 _atom_site_occupancy
  Li  Li0  1  0.025370  0.009528  0.995898  1
  Li  Li1  1  0.607158  0.246541  0.077478  1
  Li  Li2  1  0.288506  0.138685  0.601992  1
  Li  Li3  1  0.879986  0.406655  0.722055  1
  Mn  Mn4  1  0.118062  0.600378  0.301137  1
  Mn  Mn5  1  0.663943  0.871984  0.406389  1
  Mn  Mn6  1  0.406828  0.713407  0.911053  1
  O  O7  1  0.408793  0.643721  0.206782  1
  F  F8  1  0.108797  0.920862  0.323013  1
  F  F9  1  0.075509  0.680863  0.892155  1
  F  F10  1  0.430085  0.795405  0.622333  1
  F  F11  1  0.706755  0.915802  0.065472  1
  F  F12  1  0.160431  0.402014  0.547894  1
  F  F13  1  0.818463  0.602497  0.412056  1
  F  F14  1  0.323862  0.078194  0.920285  1
  F  F15  1  0.598171  0.464703  0.849547  1
  F  F16  1  0.541221  0.145986  0.389976  1
  F  F17  1  0.969053  0.320558  0.097412  1
  F  F18  1  0.869004  0.042216  0.657074  1
