# generated using pymatgen
data_LiFeP2O7
_symmetry_space_group_name_H-M   'P 1'
_cell_length_a   5.09927996
_cell_length_b   8.05071406
_cell_length_c   13.40039456
_cell_angle_alpha   90.00000000
_cell_angle_beta   91.41224141
_cell_angle_gamma   90.00000000
_symmetry_Int_Tables_number   1
_chemical_formula_structural   LiFeP2O7
_chemical_formula_sum   'Li4 Fe4 P8 O28'
_cell_volume   549.95721684
_cell_formula_units_Z   4
loop_
 _symmetry_equiv_pos_site_id
 _symmetry_equiv_pos_as_xyz
  1  'x, y, z'
loop_
 _atom_site_type_symbol
 _atom_site_label
 _atom_site_symmetry_multiplicity
 _atom_site_fract_x
 _atom_site_fract_y
 _atom_site_fract_z
 _atom_site_occupancy
  Li  Li0  1  0.209715  0.779437  0.253409  1
  Li  Li1  1  0.290285  0.279437  0.246591  1
  Li  Li2  1  0.709715  0.720563  0.753409  1
  Li  Li3  1  0.790285  0.220563  0.746591  1
  Fe  Fe4  1  0.193828  0.847866  0.883188  1
  Fe  Fe5  1  0.306172  0.347866  0.616812  1
  Fe  Fe6  1  0.693828  0.652134  0.383188  1
  Fe  Fe7  1  0.806172  0.152134  0.116812  1
  P  P8  1  0.201508  0.706856  0.523998  1
  P  P9  1  0.255554  0.466453  0.821098  1
  P  P10  1  0.244446  0.966453  0.678902  1
  P  P11  1  0.298492  0.206856  0.976002  1
  P  P12  1  0.701508  0.793144  0.023998  1
  P  P13  1  0.755554  0.033547  0.321098  1
  P  P14  1  0.744446  0.533547  0.178902  1
  P  P15  1  0.798492  0.293144  0.476002  1
  O  O16  1  0.020658  0.542784  0.222430  1
  O  O17  1  0.051912  0.863625  0.741239  1
  O  O18  1  0.091304  0.327950  0.492423  1
  O  O19  1  0.169468  0.090922  0.898501  1
  O  O20  1  0.132105  0.142107  0.663166  1
  O  O21  1  0.236101  0.891616  0.565980  1
  O  O22  1  0.154820  0.210104  0.075870  1
  O  O23  1  0.263899  0.391616  0.934020  1
  O  O24  1  0.345180  0.710104  0.424130  1
  O  O25  1  0.367895  0.642107  0.836834  1
  O  O26  1  0.330532  0.590922  0.601499  1
  O  O27  1  0.448088  0.363625  0.758761  1
  O  O28  1  0.408696  0.827950  0.007577  1
  O  O29  1  0.479342  0.042784  0.277570  1
  O  O30  1  0.520658  0.957216  0.722430  1
  O  O31  1  0.591304  0.172050  0.992423  1
  O  O32  1  0.551912  0.636375  0.241239  1
  O  O33  1  0.669468  0.409078  0.398501  1
  O  O34  1  0.632105  0.357893  0.163166  1
  O  O35  1  0.654820  0.289896  0.575870  1
  O  O36  1  0.736101  0.608384  0.065980  1
  O  O37  1  0.845180  0.789896  0.924130  1
  O  O38  1  0.763899  0.108384  0.434020  1
  O  O39  1  0.867895  0.857893  0.336834  1
  O  O40  1  0.830532  0.909078  0.101499  1
  O  O41  1  0.908696  0.672050  0.507577  1
  O  O42  1  0.948088  0.136375  0.258761  1
  O  O43  1  0.979342  0.457216  0.777570  1
