# generated using pymatgen
data_Na2TiPCO7
_symmetry_space_group_name_H-M   'P 1'
_cell_length_a   9.06394557
_cell_length_b   6.55741980
_cell_length_c   5.29011184
_cell_angle_alpha   90.00000000
_cell_angle_beta   89.71132909
_cell_angle_gamma   90.00000000
_symmetry_Int_Tables_number   1
_chemical_formula_structural   Na2TiPCO7
_chemical_formula_sum   'Na4 Ti2 P2 C2 O14'
_cell_volume   314.41960513
_cell_formula_units_Z   2
loop_
 _symmetry_equiv_pos_site_id
 _symmetry_equiv_pos_as_xyz
  1  'x, y, z'
loop_
 _atom_site_type_symbol
 _atom_site_label
 _atom_site_symmetry_multiplicity
 _atom_site_fract_x
 _atom_site_fract_y
 _atom_site_fract_z
 _atom_site_occupancy
  Na  Na0  1  0.231056  0.001683  0.235912  1
  Na  Na1  1  0.231056  0.498317  0.235912  1
  Na  Na2  1  0.768944  0.501683  0.764088  1
  Na  Na3  1  0.768944  0.998317  0.764088  1
  Ti  Ti4  1  0.347844  0.750000  0.780260  1
  Ti  Ti5  1  0.652156  0.250000  0.219740  1
  P  P6  1  0.425694  0.250000  0.707829  1
  P  P7  1  0.574306  0.750000  0.292171  1
  C  C8  1  0.072502  0.750000  0.728294  1
  C  C9  1  0.927498  0.250000  0.271706  1
  O  O10  1  0.064783  0.250000  0.290727  1
  O  O11  1  0.142154  0.750000  0.947881  1
  O  O12  1  0.164842  0.750000  0.532776  1
  O  O13  1  0.337295  0.057076  0.787827  1
  O  O14  1  0.337295  0.442924  0.787827  1
  O  O15  1  0.422610  0.750000  0.156871  1
  O  O16  1  0.446453  0.250000  0.414766  1
  O  O17  1  0.553547  0.750000  0.585234  1
  O  O18  1  0.577390  0.250000  0.843129  1
  O  O19  1  0.662705  0.557076  0.212173  1
  O  O20  1  0.662705  0.942924  0.212173  1
  O  O21  1  0.835158  0.250000  0.467224  1
  O  O22  1  0.857846  0.250000  0.052119  1
  O  O23  1  0.935217  0.750000  0.709273  1
