# generated using pymatgen
data_Li3CrBAsO7
_symmetry_space_group_name_H-M   'P 1'
_cell_length_a   8.55053021
_cell_length_b   6.53086644
_cell_length_c   5.09317226
_cell_angle_alpha   90.00000000
_cell_angle_beta   85.28440907
_cell_angle_gamma   90.00000000
_symmetry_Int_Tables_number   1
_chemical_formula_structural   Li3CrBAsO7
_chemical_formula_sum   'Li6 Cr2 B2 As2 O14'
_cell_volume   283.45208483
_cell_formula_units_Z   2
loop_
 _symmetry_equiv_pos_site_id
 _symmetry_equiv_pos_as_xyz
  1  'x, y, z'
loop_
 _atom_site_type_symbol
 _atom_site_label
 _atom_site_symmetry_multiplicity
 _atom_site_fract_x
 _atom_site_fract_y
 _atom_site_fract_z
 _atom_site_occupancy
  Li  Li0  1  0.083790  0.250000  0.745458  1
  Li  Li1  1  0.227714  0.992031  0.247436  1
  Li  Li2  1  0.227714  0.507969  0.247436  1
  Li  Li3  1  0.772286  0.492031  0.752564  1
  Li  Li4  1  0.772286  0.007969  0.752564  1
  Li  Li5  1  0.916210  0.750000  0.254542  1
  Cr  Cr6  1  0.314707  0.750000  0.790466  1
  Cr  Cr7  1  0.685293  0.250000  0.209534  1
  B  B8  1  0.038460  0.750000  0.713228  1
  B  B9  1  0.961540  0.250000  0.286772  1
  As  As10  1  0.420344  0.250000  0.720694  1
  As  As11  1  0.579656  0.750000  0.279306  1
  O  O12  1  0.112640  0.250000  0.346862  1
  O  O13  1  0.090985  0.750000  0.967767  1
  O  O14  1  0.163325  0.750000  0.514565  1
  O  O15  1  0.293930  0.054673  0.819862  1
  O  O16  1  0.293930  0.445327  0.819862  1
  O  O17  1  0.463010  0.250000  0.384666  1
  O  O18  1  0.402095  0.750000  0.147492  1
  O  O19  1  0.597905  0.250000  0.852508  1
  O  O20  1  0.536990  0.750000  0.615334  1
  O  O21  1  0.706070  0.554673  0.180138  1
  O  O22  1  0.706070  0.945327  0.180138  1
  O  O23  1  0.836675  0.250000  0.485435  1
  O  O24  1  0.909015  0.250000  0.032233  1
  O  O25  1  0.887360  0.750000  0.653138  1
