# generated using pymatgen
data_Li2V(CO3)2
_symmetry_space_group_name_H-M   'P 1'
_cell_length_a   4.82455888
_cell_length_b   6.57981068
_cell_length_c   8.13034219
_cell_angle_alpha   89.99967590
_cell_angle_beta   87.12692226
_cell_angle_gamma   89.99933942
_symmetry_Int_Tables_number   1
_chemical_formula_structural   Li2V(CO3)2
_chemical_formula_sum   'Li4 V2 C4 O12'
_cell_volume   257.77072337
_cell_formula_units_Z   2
loop_
 _symmetry_equiv_pos_site_id
 _symmetry_equiv_pos_as_xyz
  1  'x, y, z'
loop_
 _atom_site_type_symbol
 _atom_site_label
 _atom_site_symmetry_multiplicity
 _atom_site_fract_x
 _atom_site_fract_y
 _atom_site_fract_z
 _atom_site_occupancy
  Li  Li0  1  0.021675  0.224759  0.619466  1
  Li  Li1  1  0.478325  0.724755  0.880533  1
  Li  Li2  1  0.521708  0.275260  0.119367  1
  Li  Li3  1  0.978294  0.775269  0.380638  1
  V  V4  1  0.000061  0.999988  0.000024  1
  V  V5  1  0.499952  0.499956  0.499966  1
  C  C6  1  0.008078  0.330983  0.278571  1
  C  C7  1  0.491927  0.830994  0.221409  1
  C  C8  1  0.508168  0.169010  0.778618  1
  C  C9  1  0.991827  0.669013  0.721400  1
  O  O10  1  0.122589  0.263937  0.141130  1
  O  O11  1  0.149622  0.334331  0.409712  1
  O  O12  1  0.251536  0.106668  0.784256  1
  O  O13  1  0.248449  0.606627  0.715746  1
  O  O14  1  0.350373  0.834340  0.090302  1
  O  O15  1  0.377434  0.763898  0.358876  1
  O  O16  1  0.622574  0.236125  0.641127  1
  O  O17  1  0.649831  0.165619  0.909692  1
  O  O18  1  0.751465  0.393331  0.284175  1
  O  O19  1  0.748519  0.893362  0.215826  1
  O  O20  1  0.850138  0.665599  0.590310  1
  O  O21  1  0.877456  0.736174  0.858856  1
