# generated using pymatgen
data_LiMn2P2H5O11
_symmetry_space_group_name_H-M   'P 1'
_cell_length_a   9.81918043
_cell_length_b   9.80316568
_cell_length_c   9.13933316
_cell_angle_alpha   90.00000000
_cell_angle_beta   102.81010648
_cell_angle_gamma   90.00000000
_symmetry_Int_Tables_number   1
_chemical_formula_structural   LiMn2P2H5O11
_chemical_formula_sum   'Li4 Mn8 P8 H20 O44'
_cell_volume   857.84696299
_cell_formula_units_Z   4
loop_
 _symmetry_equiv_pos_site_id
 _symmetry_equiv_pos_as_xyz
  1  'x, y, z'
loop_
 _atom_site_type_symbol
 _atom_site_label
 _atom_site_symmetry_multiplicity
 _atom_site_fract_x
 _atom_site_fract_y
 _atom_site_fract_z
 _atom_site_occupancy
  Li  Li0  1  0.013566  0.303429  0.456051  1
  Li  Li1  1  0.513566  0.196571  0.956051  1
  Li  Li2  1  0.486434  0.803429  0.043949  1
  Li  Li3  1  0.986434  0.696571  0.543949  1
  Mn  Mn4  1  0.087646  0.279418  0.796818  1
  Mn  Mn5  1  0.094048  0.079076  0.133046  1
  Mn  Mn6  1  0.412354  0.779418  0.703182  1
  Mn  Mn7  1  0.405952  0.579076  0.366954  1
  Mn  Mn8  1  0.594048  0.420924  0.633046  1
  Mn  Mn9  1  0.587646  0.220582  0.296818  1
  Mn  Mn10  1  0.905952  0.920924  0.866954  1
  Mn  Mn11  1  0.912354  0.720582  0.203182  1
  P  P12  1  0.219092  0.975129  0.864519  1
  P  P13  1  0.204094  0.842164  0.382700  1
  P  P14  1  0.280908  0.475129  0.635481  1
  P  P15  1  0.295906  0.342164  0.117300  1
  P  P16  1  0.704094  0.657836  0.882700  1
  P  P17  1  0.719092  0.524871  0.364519  1
  P  P18  1  0.795906  0.157836  0.617300  1
  P  P19  1  0.780908  0.024871  0.135481  1
  H  H20  1  0.037448  0.545965  0.879650  1
  H  H21  1  0.208705  0.653929  0.878350  1
  H  H22  1  0.076179  0.776375  0.030391  1
  H  H23  1  0.118104  0.502182  0.201261  1
  H  H24  1  0.291295  0.153929  0.621650  1
  H  H25  1  0.271462  0.105310  0.452681  1
  H  H26  1  0.228538  0.605310  0.047319  1
  H  H27  1  0.381896  0.002182  0.298739  1
  H  H28  1  0.423821  0.276375  0.469609  1
  H  H29  1  0.462552  0.045965  0.620350  1
  H  H30  1  0.537448  0.954035  0.379650  1
  H  H31  1  0.576179  0.723625  0.530391  1
  H  H32  1  0.618104  0.997818  0.701261  1
  H  H33  1  0.771462  0.394690  0.952681  1
  H  H34  1  0.728538  0.894690  0.547319  1
  H  H35  1  0.708705  0.846071  0.378350  1
  H  H36  1  0.881896  0.497818  0.798739  1
  H  H37  1  0.923821  0.223625  0.969609  1
  H  H38  1  0.791295  0.346071  0.121650  1
  H  H39  1  0.962552  0.454035  0.120350  1
  O  O40  1  0.078098  0.901639  0.794737  1
  O  O41  1  0.018478  0.520023  0.192453  1
  O  O42  1  0.166400  0.658524  0.967369  1
  O  O43  1  0.056111  0.779970  0.375992  1
  O  O44  1  -0.000043  0.833636  0.059984  1
  O  O45  1  0.230756  0.358727  0.948022  1
  O  O46  1  0.156978  0.374839  0.632428  1
  O  O47  1  0.233950  0.108834  0.781289  1
  O  O48  1  0.266050  0.608834  0.718711  1
  O  O49  1  0.343022  0.874839  0.867572  1
  O  O50  1  0.189038  0.991937  0.321474  1
  O  O51  1  0.269244  0.858727  0.551978  1
  O  O52  1  0.207884  0.259100  0.203019  1
  O  O53  1  0.267899  0.506347  0.465659  1
  O  O54  1  0.333600  0.158524  0.532631  1
  O  O55  1  0.232101  0.006347  0.034342  1
  O  O56  1  0.292115  0.759100  0.296981  1
  O  O57  1  0.310962  0.491937  0.178526  1
  O  O58  1  0.421902  0.401639  0.705263  1
  O  O59  1  0.518478  0.979977  0.692453  1
  O  O60  1  0.556111  0.720030  0.875992  1
  O  O61  1  0.499957  0.666364  0.559984  1
  O  O62  1  0.500043  0.333636  0.440016  1
  O  O63  1  0.443889  0.279970  0.124008  1
  O  O64  1  0.481522  0.020023  0.307547  1
  O  O65  1  0.578098  0.598361  0.294737  1
  O  O66  1  0.689038  0.508063  0.821474  1
  O  O67  1  0.707885  0.240900  0.703019  1
  O  O68  1  0.767899  0.993653  0.965658  1
  O  O69  1  0.666400  0.841476  0.467369  1
  O  O70  1  0.732101  0.493653  0.534342  1
  O  O71  1  0.792115  0.740900  0.796981  1
  O  O72  1  0.730756  0.141273  0.448022  1
  O  O73  1  0.810962  0.008063  0.678526  1
  O  O74  1  0.656978  0.125161  0.132428  1
  O  O75  1  0.733950  0.391166  0.281289  1
  O  O76  1  0.766050  0.891166  0.218711  1
  O  O77  1  0.843022  0.625161  0.367572  1
  O  O78  1  0.769244  0.641273  0.051978  1
  O  O79  1  0.000043  0.166364  0.940016  1
  O  O80  1  0.943889  0.220030  0.624008  1
  O  O81  1  0.833600  0.341476  0.032631  1
  O  O82  1  0.981522  0.479977  0.807547  1
  O  O83  1  0.921902  0.098361  0.205263  1
