# generated using pymatgen
data_FeOF
_symmetry_space_group_name_H-M   'P 1'
_cell_length_a   9.46097333
_cell_length_b   14.24753002
_cell_length_c   3.08523331
_cell_angle_alpha   90.00000000
_cell_angle_beta   90.00000000
_cell_angle_gamma   90.29495363
_symmetry_Int_Tables_number   1
_chemical_formula_structural   FeOF
_chemical_formula_sum   'Fe12 O12 F12'
_cell_volume   415.87006076
_cell_formula_units_Z   12
loop_
 _symmetry_equiv_pos_site_id
 _symmetry_equiv_pos_as_xyz
  1  'x, y, z'
loop_
 _atom_site_type_symbol
 _atom_site_label
 _atom_site_symmetry_multiplicity
 _atom_site_fract_x
 _atom_site_fract_y
 _atom_site_fract_z
 _atom_site_occupancy
  Fe  Fe0  1  0.000417  0.000761  0.000000  1
  Fe  Fe1  1  0.019391  0.331724  0.000000  1
  Fe  Fe2  1  0.003177  0.667012  0.000000  1
  Fe  Fe3  1  0.256591  0.182262  0.500000  1
  Fe  Fe4  1  0.251755  0.483480  0.500000  1
  Fe  Fe5  1  0.221750  0.833023  0.500000  1
  Fe  Fe6  1  0.488369  0.337216  0.000000  1
  Fe  Fe7  1  0.515345  0.001255  0.000000  1
  Fe  Fe8  1  0.514460  0.661803  0.000000  1
  Fe  Fe9  1  0.752660  0.151850  0.500000  1
  Fe  Fe10  1  0.757999  0.515678  0.500000  1
  Fe  Fe11  1  0.719410  0.832124  0.500000  1
  O  O12  1  0.095967  0.267107  0.500000  1
  O  O13  1  0.094905  0.935945  0.500000  1
  O  O14  1  0.146439  0.762168  0.000000  1
  O  O15  1  0.151701  0.435001  0.000000  1
  O  O16  1  0.356446  0.232176  0.000000  1
  O  O17  1  0.409445  0.403084  0.500000  1
  O  O18  1  0.591761  0.936512  0.500000  1
  O  O19  1  0.592326  0.596066  0.500000  1
  O  O20  1  0.645530  0.106694  0.000000  1
  O  O21  1  0.648749  0.765278  0.000000  1
  O  O22  1  0.857364  0.569640  0.000000  1
  O  O23  1  0.905541  0.064547  0.500000  1
  F  F24  1  0.103138  0.599931  0.500000  1
  F  F25  1  0.161732  0.103671  0.000000  1
  F  F26  1  0.342873  0.567607  0.000000  1
  F  F27  1  0.344589  0.894875  0.000000  1
  F  F28  1  0.393304  0.061877  0.500000  1
  F  F29  1  0.397515  0.728286  0.500000  1
  F  F30  1  0.604701  0.276812  0.500000  1
  F  F31  1  0.663940  0.435180  0.000000  1
  F  F32  1  0.844623  0.235987  0.000000  1
  F  F33  1  0.842418  0.891998  0.000000  1
  F  F34  1  0.900867  0.399498  0.500000  1
  F  F35  1  0.902802  0.731870  0.500000  1
