# generated using pymatgen
data_Li8Mn7Fe(BO3)8
_symmetry_space_group_name_H-M   'P 1'
_cell_length_a   5.25215228
_cell_length_b   9.12466528
_cell_length_c   10.52645171
_cell_angle_alpha   91.74909326
_cell_angle_beta   90.94446387
_cell_angle_gamma   89.85814190
_symmetry_Int_Tables_number   1
_chemical_formula_structural   Li8Mn7Fe(BO3)8
_chemical_formula_sum   'Li8 Mn7 Fe1 B8 O24'
_cell_volume   504.16652325
_cell_formula_units_Z   1
loop_
 _symmetry_equiv_pos_site_id
 _symmetry_equiv_pos_as_xyz
  1  'x, y, z'
loop_
 _atom_site_type_symbol
 _atom_site_label
 _atom_site_symmetry_multiplicity
 _atom_site_fract_x
 _atom_site_fract_y
 _atom_site_fract_z
 _atom_site_occupancy
  Li  Li0  1  0.853489  0.825514  0.667946  1
  Li  Li1  1  0.812691  0.838647  0.168270  1
  Li  Li2  1  0.679647  0.668712  0.417301  1
  Li  Li3  1  0.664748  0.673358  0.916926  1
  Li  Li4  1  0.353397  0.325778  0.668123  1
  Li  Li5  1  0.311613  0.340140  0.168056  1
  Li  Li6  1  0.179782  0.169436  0.417883  1
  Li  Li7  1  0.164022  0.174314  0.917603  1
  Mn  Mn8  1  0.840882  0.162050  0.632725  1
  Mn  Mn9  1  0.669775  0.337011  0.381295  1
  Mn  Mn10  1  0.668940  0.002143  0.882901  1
  Mn  Mn11  1  0.341291  0.661155  0.633173  1
  Mn  Mn12  1  0.322016  0.001701  0.133454  1
  Mn  Mn13  1  0.168456  0.835499  0.383718  1
  Mn  Mn14  1  0.167433  0.501857  0.885328  1
  Fe  Fe15  1  0.814691  0.501812  0.132213  1
  B  B16  1  0.828523  0.171706  0.124916  1
  B  B17  1  0.842949  0.498625  0.625825  1
  B  B18  1  0.663328  0.002605  0.375475  1
  B  B19  1  0.670811  0.332748  0.876515  1
  B  B20  1  0.325366  0.668300  0.127179  1
  B  B21  1  0.342803  0.998574  0.625856  1
  B  B22  1  0.163168  0.502598  0.374635  1
  B  B23  1  0.172034  0.832639  0.876096  1
  O  O24  1  0.904097  0.519025  0.343446  1
  O  O25  1  0.910314  0.820749  0.861426  1
  O  O26  1  0.825259  0.211321  0.845543  1
  O  O27  1  0.805223  0.124394  0.417299  1
  O  O28  1  0.776005  0.865945  0.360768  1
  O  O29  1  0.781405  0.464369  0.919303  1
  O  O30  1  0.734964  0.635933  0.611111  1
  O  O31  1  0.711495  0.036319  0.096547  1
  O  O32  1  0.697044  0.373443  0.595625  1
  O  O33  1  0.682598  0.292406  0.164533  1
  O  O34  1  0.588185  0.679954  0.113017  1
  O  O35  1  0.595608  0.983687  0.666886  1
  O  O36  1  0.403414  0.018485  0.345205  1
  O  O37  1  0.409342  0.320938  0.861421  1
  O  O38  1  0.325952  0.710762  0.846053  1
  O  O39  1  0.305766  0.623691  0.417615  1
  O  O40  1  0.275975  0.365723  0.360785  1
  O  O41  1  0.282728  0.964709  0.917892  1
  O  O42  1  0.205301  0.534452  0.098058  1
  O  O43  1  0.234598  0.135792  0.611345  1
  O  O44  1  0.197303  0.873119  0.595892  1
  O  O45  1  0.181804  0.789640  0.166375  1
  O  O46  1  0.088978  0.185115  0.110800  1
  O  O47  1  0.095390  0.483706  0.667242  1
