# generated using pymatgen
data_Ba2In2O5
_symmetry_space_group_name_H-M   'P 1'
_cell_length_a   10.59019752
_cell_length_b   6.10107503
_cell_length_c   6.10107503
_cell_angle_alpha   59.21758423
_cell_angle_beta   69.56365424
_cell_angle_gamma   69.56365424
_symmetry_Int_Tables_number   1
_chemical_formula_structural   Ba2In2O5
_chemical_formula_sum   'Ba4 In4 O10'
_cell_volume   310.15234671
_cell_formula_units_Z   2
loop_
 _symmetry_equiv_pos_site_id
 _symmetry_equiv_pos_as_xyz
  1  'x, y, z'
loop_
 _atom_site_type_symbol
 _atom_site_label
 _atom_site_symmetry_multiplicity
 _atom_site_fract_x
 _atom_site_fract_y
 _atom_site_fract_z
 _atom_site_occupancy
  Ba  Ba0  1  0.625000  0.108646  0.141354  1
  Ba  Ba1  1  0.125000  0.641354  0.608646  1
  Ba  Ba2  1  0.875000  0.375000  0.375000  1
  Ba  Ba3  1  0.375000  0.875000  0.875000  1
  In  In4  1  0.013974  0.966332  0.005506  1
  In  In5  1  0.236026  0.244494  0.283668  1
  In  In6  1  0.513974  0.505506  0.466332  1
  In  In7  1  0.736026  0.783668  0.744494  1
  O  O8  1  0.125000  0.136681  0.113319  1
  O  O9  1  0.077626  0.234395  0.616347  1
  O  O10  1  0.172374  0.633653  0.015605  1
  O  O11  1  0.375000  0.375000  0.375000  1
  O  O12  1  0.672374  0.515605  0.133653  1
  O  O13  1  0.577626  0.116347  0.734395  1
  O  O14  1  0.375000  0.875000  0.375000  1
  O  O15  1  0.625000  0.613319  0.636681  1
  O  O16  1  0.875000  0.875000  0.375000  1
  O  O17  1  0.875000  0.875000  0.875000  1
