# generated using pymatgen
data_Ti3Nb2Cr(PO4)6
_symmetry_space_group_name_H-M   'P 1'
_cell_length_a   8.63732097
_cell_length_b   8.63732052
_cell_length_c   8.63732047
_cell_angle_alpha   60.55716461
_cell_angle_beta   60.55716570
_cell_angle_gamma   60.55717049
_symmetry_Int_Tables_number   1
_chemical_formula_structural   Ti3Nb2Cr(PO4)6
_chemical_formula_sum   'Ti3 Nb2 Cr1 P6 O24'
_cell_volume   461.37553757
_cell_formula_units_Z   1
loop_
 _symmetry_equiv_pos_site_id
 _symmetry_equiv_pos_as_xyz
  1  'x, y, z'
loop_
 _atom_site_type_symbol
 _atom_site_label
 _atom_site_symmetry_multiplicity
 _atom_site_fract_x
 _atom_site_fract_y
 _atom_site_fract_z
 _atom_site_occupancy
  Ti  Ti0  1  0.143198  0.143198  0.143198  1
  Ti  Ti1  1  0.357851  0.357851  0.357851  1
  Ti  Ti2  1  0.641007  0.641007  0.641007  1
  Nb  Nb3  1  0.002082  0.002082  0.002082  1
  Nb  Nb4  1  0.500061  0.500061  0.500061  1
  Cr  Cr5  1  0.856001  0.856001  0.856001  1
  P  P6  1  0.039104  0.749315  0.462140  1
  P  P7  1  0.462140  0.039104  0.749315  1
  P  P8  1  0.246233  0.542463  0.961276  1
  P  P9  1  0.542463  0.961276  0.246233  1
  P  P10  1  0.961276  0.246233  0.542463  1
  P  P11  1  0.749315  0.462140  0.039104  1
  O  O12  1  0.118128  0.309151  0.502911  1
  O  O13  1  0.309151  0.502911  0.118128  1
  O  O14  1  0.057989  0.911993  0.265801  1
  O  O15  1  0.502911  0.118128  0.309151  1
  O  O16  1  0.008252  0.807515  0.616396  1
  O  O17  1  0.235942  0.588198  0.439973  1
  O  O18  1  0.265801  0.057989  0.911993  1
  O  O19  1  0.439973  0.235942  0.588198  1
  O  O20  1  0.185746  0.383723  -0.000040  1
  O  O21  1  0.588198  0.439973  0.235942  1
  O  O22  1  0.086577  0.737920  0.943457  1
  O  O23  1  0.383723  -0.000040  0.185746  1
  O  O24  1  0.616396  0.008252  0.807515  1
  O  O25  1  0.911993  0.265801  0.057989  1
  O  O26  1  0.408340  0.557318  0.766603  1
  O  O27  1  0.807515  0.616396  0.008252  1
  O  O28  1  0.557318  0.766603  0.408340  1
  O  O29  1  0.737920  0.943457  0.086577  1
  O  O30  1  0.766603  0.408340  0.557318  1
  O  O31  1  -0.000040  0.185746  0.383723  1
  O  O32  1  0.495929  0.883022  0.688421  1
  O  O33  1  0.943457  0.086577  0.737920  1
  O  O34  1  0.688421  0.495929  0.883022  1
  O  O35  1  0.883022  0.688421  0.495929  1
