# generated using pymatgen
data_H2RuC8S3N(ClO)3
_symmetry_space_group_name_H-M   'P 1'
_cell_length_a   28.50039096
_cell_length_b   10.59768517
_cell_length_c   14.79054718
_cell_angle_alpha   90.00000000
_cell_angle_beta   90.00000000
_cell_angle_gamma   90.00000000
_symmetry_Int_Tables_number   1
_chemical_formula_structural   H2RuC8S3N(ClO)3
_chemical_formula_sum   'H16 Ru8 C64 S24 N8 Cl24 O24'
_cell_volume   4467.30981266
_cell_formula_units_Z   8
loop_
 _symmetry_equiv_pos_site_id
 _symmetry_equiv_pos_as_xyz
  1  'x, y, z'
loop_
 _atom_site_type_symbol
 _atom_site_label
 _atom_site_symmetry_multiplicity
 _atom_site_fract_x
 _atom_site_fract_y
 _atom_site_fract_z
 _atom_site_occupancy
  H  H0  1  0.883406  0.883848  0.217470  1
  H  H1  1  0.116594  0.383848  0.782530  1
  H  H2  1  0.616594  0.383848  0.717470  1
  H  H3  1  0.383406  0.883848  0.282530  1
  H  H4  1  0.852309  0.774115  0.152927  1
  H  H5  1  0.147691  0.274115  0.847073  1
  H  H6  1  0.647691  0.274115  0.652927  1
  H  H7  1  0.352309  0.774115  0.347073  1
  H  H8  1  0.677468  0.266077  0.075614  1
  H  H9  1  0.322532  0.766077  0.924386  1
  H  H10  1  0.822532  0.766077  0.575614  1
  H  H11  1  0.177468  0.266077  0.424386  1
  H  H12  1  0.591724  0.184376  0.147240  1
  H  H13  1  0.408276  0.684376  0.852760  1
  H  H14  1  0.908276  0.684376  0.647240  1
  H  H15  1  0.091724  0.184376  0.352760  1
  Ru  Ru16  1  0.755927  0.481194  0.106742  1
  Ru  Ru17  1  0.244073  0.981194  0.893258  1
  Ru  Ru18  1  0.744073  0.981194  0.606742  1
  Ru  Ru19  1  0.255927  0.481194  0.393258  1
  Ru  Ru20  1  0.529867  0.991695  0.215977  1
  Ru  Ru21  1  0.470133  0.491695  0.784023  1
  Ru  Ru22  1  0.970133  0.491695  0.715977  1
  Ru  Ru23  1  0.029867  0.991695  0.284023  1
  C  C24  1  0.858955  0.946490  0.096703  1
  C  C25  1  0.141045  0.446490  0.903297  1
  C  C26  1  0.641045  0.446490  0.596703  1
  C  C27  1  0.358955  0.946490  0.403297  1
  C  C28  1  0.868717  0.369946  0.115675  1
  C  C29  1  0.131283  0.869946  0.884325  1
  C  C30  1  0.631283  0.869946  0.615675  1
  C  C31  1  0.368717  0.369946  0.384325  1
  C  C32  1  0.888873  0.307614  0.179494  1
  C  C33  1  0.111127  0.807614  0.820506  1
  C  C34  1  0.611127  0.807614  0.679494  1
  C  C35  1  0.388873  0.307614  0.320506  1
  C  C36  1  0.850757  0.031512  0.034478  1
  C  C37  1  0.149243  0.531512  0.965522  1
  C  C38  1  0.649243  0.531512  0.534478  1
  C  C39  1  0.350757  0.031512  0.465522  1
  C  C40  1  0.751554  0.653527  0.835184  1
  C  C41  1  0.248446  0.153527  0.164816  1
  C  C42  1  0.748446  0.153527  0.335184  1
  C  C43  1  0.251554  0.653527  0.664816  1
  C  C44  1  0.735542  0.662831  0.915756  1
  C  C45  1  0.264458  0.162831  0.084244  1
  C  C46  1  0.764458  0.162831  0.415756  1
  C  C47  1  0.235542  0.662831  0.584244  1
  C  C48  1  0.717568  0.629712  0.299679  1
  C  C49  1  0.282432  0.129712  0.700321  1
  C  C50  1  0.782432  0.129712  0.799679  1
  C  C51  1  0.217568  0.629712  0.200321  1
  C  C52  1  0.681743  0.703094  0.307995  1
  C  C53  1  0.318257  0.203094  0.692005  1
  C  C54  1  0.818257  0.203094  0.807995  1
  C  C55  1  0.181743  0.703094  0.192005  1
  C  C56  1  0.682292  0.052525  0.050588  1
  C  C57  1  0.317708  0.552525  0.949412  1
  C  C58  1  0.817708  0.552525  0.550588  1
  C  C59  1  0.182292  0.052525  0.449412  1
  C  C60  1  0.444799  0.092565  0.073537  1
  C  C61  1  0.555201  0.592565  0.926463  1
  C  C62  1  0.055201  0.592565  0.573537  1
  C  C63  1  0.944799  0.092565  0.426463  1
  C  C64  1  0.429605  0.203019  0.051915  1
  C  C65  1  0.570395  0.703019  0.948085  1
  C  C66  1  0.070395  0.703019  0.551915  1
  C  C67  1  0.929605  0.203019  0.448085  1
  C  C68  1  0.650464  0.113432  0.979644  1
  C  C69  1  0.349536  0.613432  0.020356  1
  C  C70  1  0.849536  0.613432  0.479644  1
  C  C71  1  0.150464  0.113432  0.520356  1
  C  C72  1  0.547127  0.266277  0.424006  1
  C  C73  1  0.452873  0.766277  0.575994  1
  C  C74  1  0.952873  0.766277  0.924006  1
  C  C75  1  0.047127  0.266277  0.075994  1
  C  C76  1  0.528513  0.155766  0.418542  1
  C  C77  1  0.471487  0.655766  0.581458  1
  C  C78  1  0.971487  0.655766  0.918542  1
  C  C79  1  0.028513  0.155766  0.081458  1
  C  C80  1  0.531488  0.580053  0.201312  1
  C  C81  1  0.468512  0.080053  0.798688  1
  C  C82  1  0.968512  0.080053  0.701312  1
  C  C83  1  0.031488  0.580053  0.298688  1
  C  C84  1  0.535805  0.677588  0.252383  1
  C  C85  1  0.464195  0.177588  0.747617  1
  C  C86  1  0.964195  0.177588  0.752383  1
  C  C87  1  0.035805  0.677588  0.247617  1
  S  S88  1  0.834935  0.486438  0.092983  1
  S  S89  1  0.165065  0.986438  0.907017  1
  S  S90  1  0.665065  0.986438  0.592983  1
  S  S91  1  0.334935  0.486438  0.407017  1
  S  S92  1  0.747920  0.661028  0.022320  1
  S  S93  1  0.252080  0.161028  0.977680  1
  S  S94  1  0.752080  0.161028  0.522320  1
  S  S95  1  0.247920  0.661028  0.477680  1
  S  S96  1  0.760803  0.598309  0.234599  1
  S  S97  1  0.239197  0.098309  0.765401  1
  S  S98  1  0.739197  0.098309  0.734599  1
  S  S99  1  0.260803  0.598309  0.265401  1
  S  S100  1  0.459295  0.987890  0.146437  1
  S  S101  1  0.540705  0.487890  0.853563  1
  S  S102  1  0.040705  0.487890  0.646437  1
  S  S103  1  0.959295  0.987890  0.353563  1
  S  S104  1  0.497430  0.091473  0.340527  1
  S  S105  1  0.502570  0.591473  0.659473  1
  S  S106  1  0.002570  0.591473  0.840527  1
  S  S107  1  0.997430  0.091473  0.159473  1
  S  S108  1  0.516273  0.810914  0.284975  1
  S  S109  1  0.483727  0.310914  0.715025  1
  S  S110  1  0.983727  0.310914  0.784975  1
  S  S111  1  0.016273  0.810914  0.215025  1
  N  N112  1  0.865135  0.864242  0.159095  1
  N  N113  1  0.134865  0.364242  0.840905  1
  N  N114  1  0.634865  0.364242  0.659095  1
  N  N115  1  0.365135  0.864242  0.340905  1
  N  N116  1  0.672260  0.174996  0.046991  1
  N  N117  1  0.327740  0.674996  0.953009  1
  N  N118  1  0.827740  0.674996  0.546991  1
  N  N119  1  0.172260  0.174996  0.453009  1
  Cl  Cl120  1  0.673050  0.459296  0.115297  1
  Cl  Cl121  1  0.326950  0.959296  0.884703  1
  Cl  Cl122  1  0.826950  0.959296  0.615297  1
  Cl  Cl123  1  0.173050  0.459296  0.384703  1
  Cl  Cl124  1  0.752438  0.360675  0.973447  1
  Cl  Cl125  1  0.247562  0.860675  0.026553  1
  Cl  Cl126  1  0.747562  0.860675  0.473447  1
  Cl  Cl127  1  0.252438  0.360675  0.526553  1
  Cl  Cl128  1  0.760993  0.290233  0.187492  1
  Cl  Cl129  1  0.239007  0.790233  0.812508  1
  Cl  Cl130  1  0.739007  0.790233  0.687492  1
  Cl  Cl131  1  0.260993  0.290233  0.312508  1
  Cl  Cl132  1  0.605439  0.013330  0.275295  1
  Cl  Cl133  1  0.394561  0.513330  0.724705  1
  Cl  Cl134  1  0.894561  0.513330  0.775295  1
  Cl  Cl135  1  0.105439  0.013330  0.224705  1
  Cl  Cl136  1  0.546889  0.205416  0.142352  1
  Cl  Cl137  1  0.453111  0.705416  0.857648  1
  Cl  Cl138  1  0.953111  0.705416  0.642352  1
  Cl  Cl139  1  0.046889  0.205416  0.357648  1
  Cl  Cl140  1  0.563814  0.897703  0.088513  1
  Cl  Cl141  1  0.436186  0.397703  0.911487  1
  Cl  Cl142  1  0.936186  0.397703  0.588513  1
  Cl  Cl143  1  0.063814  0.897703  0.411487  1
  O  O144  1  0.858686  0.603433  0.065542  1
  O  O145  1  0.141314  0.103433  0.934458  1
  O  O146  1  0.641314  0.103433  0.565542  1
  O  O147  1  0.358686  0.603433  0.434458  1
  O  O148  1  0.761004  0.783646  0.060628  1
  O  O149  1  0.238996  0.283646  0.939372  1
  O  O150  1  0.738996  0.283646  0.560628  1
  O  O151  1  0.261004  0.783646  0.439372  1
  O  O152  1  0.805578  0.660015  0.256899  1
  O  O153  1  0.194422  0.160015  0.743101  1
  O  O154  1  0.694422  0.160015  0.756899  1
  O  O155  1  0.305578  0.660015  0.243101  1
  O  O156  1  0.423292  0.893595  0.169638  1
  O  O157  1  0.576708  0.393595  0.830362  1
  O  O158  1  0.076708  0.393595  0.669638  1
  O  O159  1  0.923292  0.893595  0.330362  1
  O  O160  1  0.446433  0.104330  0.347631  1
  O  O161  1  0.553567  0.604330  0.652369  1
  O  O162  1  0.053567  0.604330  0.847631  1
  O  O163  1  0.946433  0.104330  0.152369  1
  O  O164  1  0.484710  0.809583  0.362967  1
  O  O165  1  0.515290  0.309583  0.637033  1
  O  O166  1  0.015290  0.309583  0.862967  1
  O  O167  1  0.984710  0.809583  0.137033  1
