# generated using pymatgen
data_Sr4Ta2O9
_symmetry_space_group_name_H-M   'P 1'
_cell_length_a   10.22895584
_cell_length_b   5.81199344
_cell_length_c   14.84174923
_cell_angle_alpha   90.00000000
_cell_angle_beta   90.81570000
_cell_angle_gamma   90.00000000
_symmetry_Int_Tables_number   1
_chemical_formula_structural   Sr4Ta2O9
_chemical_formula_sum   'Sr16 Ta8 O36'
_cell_volume   882.26183936
_cell_formula_units_Z   4
loop_
 _symmetry_equiv_pos_site_id
 _symmetry_equiv_pos_as_xyz
  1  'x, y, z'
loop_
 _atom_site_type_symbol
 _atom_site_label
 _atom_site_symmetry_multiplicity
 _atom_site_fract_x
 _atom_site_fract_y
 _atom_site_fract_z
 _atom_site_occupancy
  Sr  Sr0  1  0.000000  0.000000  0.500000  1
  Sr  Sr1  1  0.000000  0.000000  0.000000  1
  Sr  Sr2  1  0.011313  0.000369  0.233794  1
  Sr  Sr3  1  0.152466  0.483061  0.603891  1
  Sr  Sr4  1  0.189458  0.514461  0.076481  1
  Sr  Sr5  1  0.310542  0.014461  0.423519  1
  Sr  Sr6  1  0.347534  0.983061  0.896109  1
  Sr  Sr7  1  0.488687  0.500369  0.266206  1
  Sr  Sr8  1  0.500000  0.500000  0.500000  1
  Sr  Sr9  1  0.511313  0.499631  0.733794  1
  Sr  Sr10  1  0.500000  0.500000  0.000000  1
  Sr  Sr11  1  0.652466  0.016939  0.103891  1
  Sr  Sr12  1  0.689458  0.985539  0.576481  1
  Sr  Sr13  1  0.810542  0.485539  0.923519  1
  Sr  Sr14  1  0.847534  0.516939  0.396109  1
  Sr  Sr15  1  0.988687  -0.000369  0.766206  1
  Ta  Ta16  1  0.162486  0.491920  0.832820  1
  Ta  Ta17  1  0.167949  0.509233  0.332634  1
  Ta  Ta18  1  0.337514  0.991920  0.667180  1
  Ta  Ta19  1  0.332051  0.009233  0.167366  1
  Ta  Ta20  1  0.667949  0.990767  0.832634  1
  Ta  Ta21  1  0.662486  0.008080  0.332820  1
  Ta  Ta22  1  0.832051  0.490767  0.667366  1
  Ta  Ta23  1  0.837514  0.508080  0.167180  1
  O  O24  1  0.007156  0.569003  0.739165  1
  O  O25  1  0.031900  0.319579  0.895954  1
  O  O26  1  0.075304  0.782422  0.372545  1
  O  O27  1  0.115390  0.329569  0.436004  1
  O  O28  1  0.134595  0.773845  0.899708  1
  O  O29  1  0.170464  0.101023  0.107885  1
  O  O30  1  0.199060  0.901172  0.583831  1
  O  O31  1  0.214562  0.210330  0.750965  1
  O  O32  1  0.241306  0.723185  0.223234  1
  O  O33  1  0.258694  0.223185  0.276766  1
  O  O34  1  0.285438  0.710330  0.749035  1
  O  O35  1  0.300940  0.401172  0.916169  1
  O  O36  1  0.329536  0.601023  0.392115  1
  O  O37  1  0.365405  0.273844  0.600292  1
  O  O38  1  0.384610  0.829569  0.063996  1
  O  O39  1  0.424696  0.282422  0.127455  1
  O  O40  1  0.468100  0.819579  0.604046  1
  O  O41  1  0.492844  0.069003  0.760835  1
  O  O42  1  0.507156  0.930997  0.239165  1
  O  O43  1  0.531900  0.180421  0.395954  1
  O  O44  1  0.575304  0.717578  0.872545  1
  O  O45  1  0.615390  0.170431  0.936004  1
  O  O46  1  0.634595  0.726155  0.399708  1
  O  O47  1  0.670464  0.398977  0.607885  1
  O  O48  1  0.699060  0.598828  0.083831  1
  O  O49  1  0.714562  0.289670  0.250965  1
  O  O50  1  0.741306  0.776815  0.723234  1
  O  O51  1  0.758694  0.276815  0.776766  1
  O  O52  1  0.785438  0.789670  0.249035  1
  O  O53  1  0.800940  0.098828  0.416169  1
  O  O54  1  0.829536  0.898977  0.892115  1
  O  O55  1  0.865405  0.226156  0.100292  1
  O  O56  1  0.884610  0.670431  0.563996  1
  O  O57  1  0.924696  0.217578  0.627455  1
  O  O58  1  0.968100  0.680421  0.104046  1
  O  O59  1  0.992844  0.430997  0.260835  1
