# generated using pymatgen
data_Zr3N2O3
_symmetry_space_group_name_H-M   'P 1'
_cell_length_a   4.08702775
_cell_length_b   5.74666392
_cell_length_c   10.78118212
_cell_angle_alpha   90.00000000
_cell_angle_beta   90.00000000
_cell_angle_gamma   110.83022350
_symmetry_Int_Tables_number   1
_chemical_formula_structural   Zr3N2O3
_chemical_formula_sum   'Zr6 N4 O6'
_cell_volume   236.66460357
_cell_formula_units_Z   2
loop_
 _symmetry_equiv_pos_site_id
 _symmetry_equiv_pos_as_xyz
  1  'x, y, z'
loop_
 _atom_site_type_symbol
 _atom_site_label
 _atom_site_symmetry_multiplicity
 _atom_site_fract_x
 _atom_site_fract_y
 _atom_site_fract_z
 _atom_site_occupancy
  Zr  Zr0  1  0.192095  0.384188  0.250000  1
  Zr  Zr1  1  0.143279  0.286556  0.943394  1
  Zr  Zr2  1  0.143279  0.286556  0.556606  1
  Zr  Zr3  1  0.807905  0.615812  0.750000  1
  Zr  Zr4  1  0.856721  0.713444  0.056606  1
  Zr  Zr5  1  0.856721  0.713444  0.443394  1
  N  N6  1  0.298962  0.597923  0.421225  1
  N  N7  1  0.298962  0.597923  0.078775  1
  N  N8  1  0.701038  0.402077  0.578775  1
  N  N9  1  0.701038  0.402077  0.921225  1
  O  O10  1  0.245697  0.491396  0.750000  1
  O  O11  1  0.043663  0.087325  0.115947  1
  O  O12  1  0.043663  0.087325  0.384053  1
  O  O13  1  0.754303  0.508604  0.250000  1
  O  O14  1  0.956337  0.912675  0.884053  1
  O  O15  1  0.956337  0.912675  0.615947  1
