# generated using pymatgen
data_Li6NiOF6
_symmetry_space_group_name_H-M   'P 1'
_cell_length_a   2.90488956
_cell_length_b   2.90488956
_cell_length_c   14.59230193
_cell_angle_alpha   95.71239439
_cell_angle_beta   95.71239439
_cell_angle_gamma   90.00000000
_symmetry_Int_Tables_number   1
_chemical_formula_structural   Li6NiOF6
_chemical_formula_sum   'Li6 Ni1 O1 F6'
_cell_volume   121.90940501
_cell_formula_units_Z   1
loop_
 _symmetry_equiv_pos_site_id
 _symmetry_equiv_pos_as_xyz
  1  'x, y, z'
loop_
 _atom_site_type_symbol
 _atom_site_label
 _atom_site_symmetry_multiplicity
 _atom_site_fract_x
 _atom_site_fract_y
 _atom_site_fract_z
 _atom_site_occupancy
  Li  Li0  1  0.572741  0.572741  0.145482  1
  Li  Li1  1  0.144766  0.144766  0.289530  1
  Li  Li2  1  0.714618  0.714618  0.429236  1
  Li  Li3  1  0.285382  0.285382  0.570764  1
  Li  Li4  1  0.855234  0.855234  0.710470  1
  Li  Li5  1  0.427259  0.427259  0.854518  1
  Ni  Ni6  1  0.000000  0.000000  0.000000  1
  O  O7  1  0.500000  0.500000  0.000000  1
  F  F8  1  0.074802  0.074802  0.149603  1
  F  F9  1  0.644380  0.644380  0.288760  1
  F  F10  1  0.214768  0.214768  0.429536  1
  F  F11  1  0.785232  0.785232  0.570464  1
  F  F12  1  0.355620  0.355620  0.711240  1
  F  F13  1  0.925198  0.925198  0.850397  1
