# generated using pymatgen
data_Cu8O
_symmetry_space_group_name_H-M   'P 1'
_cell_length_a   4.57481750
_cell_length_b   4.57481748
_cell_length_c   5.36333518
_cell_angle_alpha   90.00000000
_cell_angle_beta   90.00000000
_cell_angle_gamma   105.86061951
_symmetry_Int_Tables_number   1
_chemical_formula_structural   Cu8O
_chemical_formula_sum   'Cu8 O1'
_cell_volume   107.97561186
_cell_formula_units_Z   1
loop_
 _symmetry_equiv_pos_site_id
 _symmetry_equiv_pos_as_xyz
  1  'x, y, z'
loop_
 _atom_site_type_symbol
 _atom_site_label
 _atom_site_symmetry_multiplicity
 _atom_site_fract_x
 _atom_site_fract_y
 _atom_site_fract_z
 _atom_site_occupancy
  Cu  Cu0  1  0.430121  0.147648  0.000000  1
  Cu  Cu1  1  0.852352  0.569879  0.000000  1
  Cu  Cu2  1  0.364435  0.128865  0.500000  1
  Cu  Cu3  1  0.871135  0.635565  0.500000  1
  Cu  Cu4  1  0.377013  0.622987  0.735049  1
  Cu  Cu5  1  0.377013  0.622987  0.264951  1
  Cu  Cu6  1  0.857332  0.142668  0.283909  1
  Cu  Cu7  1  0.857332  0.142668  0.716091  1
  O  O8  1  0.013267  0.986733  0.000000  1
