# generated using pymatgen
data_LiCoSiO4
_symmetry_space_group_name_H-M   'P 1'
_cell_length_a   5.08607991
_cell_length_b   10.08304077
_cell_length_c   6.78546168
_cell_angle_alpha   90.00000000
_cell_angle_beta   89.50555023
_cell_angle_gamma   90.00000000
_symmetry_Int_Tables_number   1
_chemical_formula_structural   LiCoSiO4
_chemical_formula_sum   'Li4 Co4 Si4 O16'
_cell_volume   347.96689851
_cell_formula_units_Z   4
loop_
 _symmetry_equiv_pos_site_id
 _symmetry_equiv_pos_as_xyz
  1  'x, y, z'
loop_
 _atom_site_type_symbol
 _atom_site_label
 _atom_site_symmetry_multiplicity
 _atom_site_fract_x
 _atom_site_fract_y
 _atom_site_fract_z
 _atom_site_occupancy
  Li  Li0  1  0.198556  0.359513  0.008405  1
  Li  Li1  1  0.301444  0.859513  0.491595  1
  Li  Li2  1  0.698556  0.140487  0.508405  1
  Li  Li3  1  0.801444  0.640487  0.991595  1
  Co  Co4  1  0.194452  0.323609  0.504473  1
  Co  Co5  1  0.305548  0.823609  0.995527  1
  Co  Co6  1  0.694452  0.176391  0.004473  1
  Co  Co7  1  0.805548  0.676391  0.495527  1
  Si  Si8  1  0.198562  0.092819  0.772099  1
  Si  Si9  1  0.301438  0.592819  0.727901  1
  Si  Si10  1  0.698562  0.407181  0.272099  1
  Si  Si11  1  0.801438  0.907181  0.227901  1
  O  O12  1  0.119576  0.875772  0.220818  1
  O  O13  1  0.163592  0.674976  0.547208  1
  O  O14  1  0.189047  0.649768  0.940399  1
  O  O15  1  0.240405  0.433662  0.722531  1
  O  O16  1  0.259595  0.933662  0.777469  1
  O  O17  1  0.310953  0.149768  0.559601  1
  O  O18  1  0.336408  0.174976  0.952792  1
  O  O19  1  0.380424  0.375772  0.279182  1
  O  O20  1  0.619576  0.624228  0.720818  1
  O  O21  1  0.663592  0.825024  0.047208  1
  O  O22  1  0.689047  0.850232  0.440399  1
  O  O23  1  0.740405  0.066338  0.222531  1
  O  O24  1  0.759595  0.566338  0.277469  1
  O  O25  1  0.810953  0.350232  0.059601  1
  O  O26  1  0.836408  0.325024  0.452792  1
  O  O27  1  0.880424  0.124228  0.779182  1
