# generated using pymatgen
data_Li4Ti4V4CoO18
_symmetry_space_group_name_H-M   'P 1'
_cell_length_a   9.28099891
_cell_length_b   24.36862441
_cell_length_c   2.97834795
_cell_angle_alpha   90.00004438
_cell_angle_beta   90.00001200
_cell_angle_gamma   89.99375578
_symmetry_Int_Tables_number   1
_chemical_formula_structural   Li4Ti4V4CoO18
_chemical_formula_sum   'Li8 Ti8 V8 Co2 O36'
_cell_volume   673.59858614
_cell_formula_units_Z   2
loop_
 _symmetry_equiv_pos_site_id
 _symmetry_equiv_pos_as_xyz
  1  'x, y, z'
loop_
 _atom_site_type_symbol
 _atom_site_label
 _atom_site_symmetry_multiplicity
 _atom_site_fract_x
 _atom_site_fract_y
 _atom_site_fract_z
 _atom_site_occupancy
  Li  Li0  1  0.196476  0.992743  1.000000  1
  Li  Li1  1  0.186640  0.189924  1.000000  1
  Li  Li2  1  0.312979  0.689914  0.000000  1
  Li  Li3  1  0.304543  0.492912  1.000000  1
  Li  Li4  1  0.695495  0.507112  1.000000  1
  Li  Li5  1  0.686782  0.310038  1.000000  1
  Li  Li6  1  0.813327  0.810130  0.000000  1
  Li  Li7  1  0.803666  0.007251  0.000001  1
  Ti  Ti8  1  0.985682  0.100704  0.999999  1
  Ti  Ti9  1  0.168853  0.805557  0.499999  1
  Ti  Ti10  1  0.331137  0.305605  0.500000  1
  Ti  Ti11  1  0.514050  0.600705  0.000002  1
  Ti  Ti12  1  0.485911  0.399287  0.999999  1
  Ti  Ti13  1  0.668882  0.694376  0.500001  1
  Ti  Ti14  1  0.831191  0.194426  0.499999  1
  Ti  Ti15  1  0.014343  0.899291  0.000001  1
  V  V16  1  0.989605  0.318318  0.000001  1
  V  V17  1  0.162109  0.587564  0.499999  1
  V  V18  1  0.337247  0.087486  0.500002  1
  V  V19  1  0.510360  0.818270  -0.000000  1
  V  V20  1  0.489684  0.181705  0.000000  1
  V  V21  1  0.662729  0.912528  0.499998  1
  V  V22  1  0.837760  0.412511  0.500000  1
  V  V23  1  0.010324  0.681647  0.999998  1
  Co  Co24  1  0.000077  0.499978  0.000000  1
  Co  Co25  1  0.500083  -0.000001  0.000002  1
  O  O26  1  0.979162  0.404169  0.000002  1
  O  O27  1  0.020681  0.595817  0.999999  1
  O  O28  1  0.068341  0.944827  0.500001  1
  O  O29  1  0.030075  0.158003  0.500001  1
  O  O30  1  0.162487  0.665327  0.499999  1
  O  O31  1  0.120947  0.755276  0.999999  1
  O  O32  1  0.148542  0.510356  0.500001  1
  O  O33  1  0.124630  0.295641  0.500000  1
  O  O34  1  0.194550  0.858140  -0.000001  1
  O  O35  1  0.191920  0.082355  0.000002  1
  O  O36  1  0.307774  0.582225  0.000000  1
  O  O37  1  0.305534  0.358169  0.999999  1
  O  O38  1  0.375499  0.795648  0.499998  1
  O  O39  1  0.350708  0.010333  0.500000  1
  O  O40  1  0.379296  0.255333  1.000000  1
  O  O41  1  0.337955  0.165261  0.500002  1
  O  O42  1  0.469931  0.657910  0.500000  1
  O  O43  1  0.431548  0.444911  0.499999  1
  O  O44  1  0.479163  0.095507  0.000003  1
  O  O45  1  0.520810  0.904510  0.999998  1
  O  O46  1  0.568369  0.555087  0.500000  1
  O  O47  1  0.530132  0.342086  0.500000  1
  O  O48  1  0.662026  0.834744  0.500000  1
  O  O49  1  0.620904  0.744661  0.000000  1
  O  O50  1  0.649361  0.989693  0.500003  1
  O  O51  1  0.624577  0.204370  0.500000  1
  O  O52  1  0.694518  0.641790  0.000000  1
  O  O53  1  0.692078  0.417827  -0.000000  1
  O  O54  1  0.808082  0.917632  0.000000  1
  O  O55  1  0.805415  0.141843  0.999999  1
  O  O56  1  0.875370  0.704302  0.499999  1
  O  O57  1  0.851342  0.489696  0.499997  1
  O  O58  1  0.879116  0.244710  0.999999  1
  O  O59  1  0.837670  0.334719  0.500001  1
  O  O60  1  0.969883  0.841972  0.499998  1
  O  O61  1  0.931669  0.055169  0.499999  1
