# generated using pymatgen
data_LiTi(PO3)4
_symmetry_space_group_name_H-M   'P 1'
_cell_length_a   6.91846474
_cell_length_b   7.12500517
_cell_length_c   8.96115669
_cell_angle_alpha   90.00000000
_cell_angle_beta   90.00000000
_cell_angle_gamma   82.23691317
_symmetry_Int_Tables_number   1
_chemical_formula_structural   LiTi(PO3)4
_chemical_formula_sum   'Li2 Ti2 P8 O24'
_cell_volume   437.68368392
_cell_formula_units_Z   2
loop_
 _symmetry_equiv_pos_site_id
 _symmetry_equiv_pos_as_xyz
  1  'x, y, z'
loop_
 _atom_site_type_symbol
 _atom_site_label
 _atom_site_symmetry_multiplicity
 _atom_site_fract_x
 _atom_site_fract_y
 _atom_site_fract_z
 _atom_site_occupancy
  Li  Li0  1  0.176206  0.180085  0.070758  1
  Li  Li1  1  0.823794  0.819915  0.570758  1
  Ti  Ti2  1  0.217593  0.727109  0.361307  1
  Ti  Ti3  1  0.782407  0.272891  0.861307  1
  P  P4  1  0.976019  0.444141  0.360249  1
  P  P5  1  0.092143  0.126775  0.560161  1
  P  P6  1  0.424293  0.569896  0.710242  1
  P  P7  1  0.457568  0.085163  0.399506  1
  P  P8  1  0.542432  0.914837  0.899506  1
  P  P9  1  0.575707  0.430104  0.210242  1
  P  P10  1  0.907857  0.873225  0.060161  1
  P  P11  1  0.023981  0.555859  0.860249  1
  O  O12  1  0.045074  0.752954  0.938529  1
  O  O13  1  0.085946  0.920278  0.522552  1
  O  O14  1  0.021385  0.395638  0.970996  1
  O  O15  1  0.016812  0.184100  0.712074  1
  O  O16  1  0.213424  0.530442  0.762617  1
  O  O17  1  0.156326  0.431773  0.266058  1
  O  O18  1  0.305746  0.183979  0.531283  1
  O  O19  1  0.328269  0.989044  0.295590  1
  O  O20  1  0.554542  0.386216  0.742045  1
  O  O21  1  0.469197  0.734475  0.820101  1
  O  O22  1  0.371477  0.024509  0.971527  1
  O  O23  1  0.407366  0.634226  0.551114  1
  O  O24  1  0.592634  0.365774  0.051114  1
  O  O25  1  0.628523  0.975491  0.471527  1
  O  O26  1  0.530803  0.265525  0.320101  1
  O  O27  1  0.445458  0.613784  0.242045  1
  O  O28  1  0.671731  0.010956  0.795590  1
  O  O29  1  0.694254  0.816021  0.031283  1
  O  O30  1  0.843674  0.568227  0.766058  1
  O  O31  1  0.786576  0.469558  0.262617  1
  O  O32  1  0.983188  0.815900  0.212074  1
  O  O33  1  0.978615  0.604362  0.470996  1
  O  O34  1  0.914054  0.079722  0.022552  1
  O  O35  1  0.954926  0.247046  0.438529  1
