# generated using pymatgen
data_Li3MnV(PO4)3
_symmetry_space_group_name_H-M   'P 1'
_cell_length_a   9.36154725
_cell_length_b   8.33622056
_cell_length_c   8.44594381
_cell_angle_alpha   60.13724516
_cell_angle_beta   62.99800511
_cell_angle_gamma   90.36532193
_symmetry_Int_Tables_number   1
_chemical_formula_structural   Li3MnV(PO4)3
_chemical_formula_sum   'Li6 Mn2 V2 P6 O24'
_cell_volume   485.70206831
_cell_formula_units_Z   2
loop_
 _symmetry_equiv_pos_site_id
 _symmetry_equiv_pos_as_xyz
  1  'x, y, z'
loop_
 _atom_site_type_symbol
 _atom_site_label
 _atom_site_symmetry_multiplicity
 _atom_site_fract_x
 _atom_site_fract_y
 _atom_site_fract_z
 _atom_site_occupancy
  Li  Li0  1  0.134195  0.745299  0.184382  1
  Li  Li1  1  0.086248  0.046819  0.657541  1
  Li  Li2  1  0.400897  0.210630  0.331131  1
  Li  Li3  1  0.599103  0.789370  0.668869  1
  Li  Li4  1  0.913752  0.953181  0.342459  1
  Li  Li5  1  0.865805  0.254701  0.815618  1
  Mn  Mn6  1  0.565732  0.845875  0.290110  1
  Mn  Mn7  1  0.434268  0.154125  0.709890  1
  V  V8  1  0.037025  0.356335  0.297319  1
  V  V9  1  0.962975  0.643665  0.702681  1
  P  P10  1  0.246053  0.045743  0.220975  1
  P  P11  1  0.240857  0.458673  0.489451  1
  P  P12  1  0.242082  0.741260  0.801087  1
  P  P13  1  0.757918  0.258740  0.198913  1
  P  P14  1  0.759143  0.541327  0.510549  1
  P  P15  1  0.753947  0.954257  0.779025  1
  O  O16  1  0.103010  0.838464  0.380643  1
  O  O17  1  0.259703  0.122000  0.009370  1
  O  O18  1  0.175728  0.173008  0.313074  1
  O  O19  1  0.178983  0.496884  0.331155  1
  O  O20  1  0.093913  0.462486  0.677292  1
  O  O21  1  0.118805  0.790612  0.716111  1
  O  O22  1  0.405311  0.033495  0.228840  1
  O  O23  1  0.254909  0.249176  0.582370  1
  O  O24  1  0.403309  0.609383  0.371724  1
  O  O25  1  0.164845  0.523608  0.000469  1
  O  O26  1  0.246458  0.870322  0.879886  1
  O  O27  1  0.415374  0.769564  0.629057  1
  O  O28  1  0.584626  0.230436  0.370943  1
  O  O29  1  0.753542  0.129678  0.120114  1
  O  O30  1  0.835155  0.476392  -0.000469  1
  O  O31  1  0.596691  0.390617  0.628276  1
  O  O32  1  0.745091  0.750824  0.417630  1
  O  O33  1  0.594689  0.966505  0.771160  1
  O  O34  1  0.881195  0.209388  0.283889  1
  O  O35  1  0.906087  0.537514  0.322708  1
  O  O36  1  0.821017  0.503116  0.668845  1
  O  O37  1  0.824272  0.826992  0.686926  1
  O  O38  1  0.740297  0.878000  0.990630  1
  O  O39  1  0.896990  0.161536  0.619357  1
