# generated using pymatgen
data_V4OF11
_symmetry_space_group_name_H-M   'P 1'
_cell_length_a   5.28513523
_cell_length_b   5.44732778
_cell_length_c   9.03157924
_cell_angle_alpha   74.62377858
_cell_angle_beta   90.00000000
_cell_angle_gamma   60.98014075
_symmetry_Int_Tables_number   1
_chemical_formula_structural   V4OF11
_chemical_formula_sum   'V4 O1 F11'
_cell_volume   216.66811769
_cell_formula_units_Z   1
loop_
 _symmetry_equiv_pos_site_id
 _symmetry_equiv_pos_as_xyz
  1  'x, y, z'
loop_
 _atom_site_type_symbol
 _atom_site_label
 _atom_site_symmetry_multiplicity
 _atom_site_fract_x
 _atom_site_fract_y
 _atom_site_fract_z
 _atom_site_occupancy
  V  V0  1  0.764813  0.485358  0.242636  1
  V  V1  1  0.501693  0.997584  0.498525  1
  V  V2  1  0.249278  0.502416  0.751475  1
  V  V3  1  0.000171  0.014642  0.007364  1
  O  O4  1  0.950583  0.250000  0.125000  1
  F  F5  1  0.927869  0.748336  0.575546  1
  F  F6  1  0.929098  0.747476  0.175844  1
  F  F7  1  0.530910  0.743207  0.370709  1
  F  F8  1  0.426575  0.752524  0.074156  1
  F  F9  1  0.426205  0.751664  0.674454  1
  F  F10  1  0.571093  0.252233  0.325076  1
  F  F11  1  0.573326  0.247767  0.924924  1
  F  F12  1  0.476383  0.250000  0.625000  1
  F  F13  1  0.024116  0.756793  0.879291  1
  F  F14  1  0.074679  0.248530  0.825099  1
  F  F15  1  0.073209  0.251470  0.424901  1
