# generated using pymatgen
data_Li2FeF4
_symmetry_space_group_name_H-M   'P 1'
_cell_length_a   9.79552262
_cell_length_b   7.39964895
_cell_length_c   8.91004167
_cell_angle_alpha   89.98378410
_cell_angle_beta   89.96327513
_cell_angle_gamma   89.99400845
_symmetry_Int_Tables_number   1
_chemical_formula_structural   Li2FeF4
_chemical_formula_sum   'Li16 Fe8 F32'
_cell_volume   645.83020834
_cell_formula_units_Z   8
loop_
 _symmetry_equiv_pos_site_id
 _symmetry_equiv_pos_as_xyz
  1  'x, y, z'
loop_
 _atom_site_type_symbol
 _atom_site_label
 _atom_site_symmetry_multiplicity
 _atom_site_fract_x
 _atom_site_fract_y
 _atom_site_fract_z
 _atom_site_occupancy
  Li  Li0  1  0.085522  0.809608  0.252194  1
  Li  Li1  1  0.101322  0.209922  0.249984  1
  Li  Li2  1  0.140263  0.783824  0.920329  1
  Li  Li3  1  0.162141  0.266843  0.921400  1
  Li  Li4  1  0.337950  0.766473  0.421246  1
  Li  Li5  1  0.359869  0.283735  0.420689  1
  Li  Li6  1  0.398657  0.709470  0.750306  1
  Li  Li7  1  0.414313  0.309681  0.752342  1
  Li  Li8  1  0.585502  0.690198  0.252077  1
  Li  Li9  1  0.601392  0.290428  0.250213  1
  Li  Li10  1  0.640210  0.716287  0.920571  1
  Li  Li11  1  0.662064  0.233300  0.921432  1
  Li  Li12  1  0.837999  0.733446  0.421202  1
  Li  Li13  1  0.859909  0.216071  0.420309  1
  Li  Li14  1  0.898602  0.790415  0.750295  1
  Li  Li15  1  0.914390  0.190528  0.752320  1
  Fe  Fe16  1  0.115937  0.477120  0.579333  1
  Fe  Fe17  1  0.202193  0.980233  0.638928  1
  Fe  Fe18  1  0.297548  0.480518  0.139456  1
  Fe  Fe19  1  0.384202  0.977439  0.079351  1
  Fe  Fe20  1  0.615831  0.022849  0.579384  1
  Fe  Fe21  1  0.702083  0.519655  0.638777  1
  Fe  Fe22  1  0.797853  0.019617  0.139182  1
  Fe  Fe23  1  0.884149  0.522586  0.079283  1
  F  F24  1  0.995891  0.017274  0.188579  1
  F  F25  1  0.040558  0.283675  0.435447  1
  F  F26  1  0.054710  0.355387  0.768968  1
  F  F27  1  0.086917  0.390407  0.095594  1
  F  F28  1  0.166861  0.879967  0.428652  1
  F  F29  1  0.234511  0.022578  0.910256  1
  F  F30  1  0.219247  0.735399  0.110836  1
  F  F31  1  0.202326  0.698889  0.719308  1
  F  F32  1  0.297954  0.199871  0.219209  1
  F  F33  1  0.280859  0.236477  0.611103  1
  F  F34  1  0.265797  0.522370  0.409963  1
  F  F35  1  0.332922  0.380390  0.928819  1
  F  F36  1  0.412223  0.890564  0.595912  1
  F  F37  1  0.445180  0.855253  0.268652  1
  F  F38  1  0.459518  0.783739  0.935480  1
  F  F39  1  0.504151  0.517225  0.688395  1
  F  F40  1  0.495736  0.482264  0.188868  1
  F  F41  1  0.540499  0.216109  0.435445  1
  F  F42  1  0.554632  0.144631  0.768961  1
  F  F43  1  0.587586  0.109254  0.095846  1
  F  F44  1  0.667081  0.620292  0.428365  1
  F  F45  1  0.734338  0.477425  0.910284  1
  F  F46  1  0.719229  0.763966  0.111204  1
  F  F47  1  0.702175  0.800906  0.719247  1
  F  F48  1  0.797767  0.300871  0.219292  1
  F  F49  1  0.780916  0.263930  0.610958  1
  F  F50  1  0.765626  0.977592  0.409959  1
  F  F51  1  0.833164  0.119683  0.928669  1
  F  F52  1  0.912476  0.609529  0.595610  1
  F  F53  1  0.945482  0.644502  0.268642  1
  F  F54  1  0.959617  0.716344  0.935518  1
  F  F55  1  0.004155  0.982991  0.688162  1
