# generated using pymatgen
data_Ti3FeSb2(PO4)6
_symmetry_space_group_name_H-M   'P 1'
_cell_length_a   8.89058471
_cell_length_b   8.89058454
_cell_length_c   8.89058499
_cell_angle_alpha   59.06686492
_cell_angle_beta   59.06686185
_cell_angle_gamma   59.06686657
_symmetry_Int_Tables_number   1
_chemical_formula_structural   Ti3FeSb2(PO4)6
_chemical_formula_sum   'Ti3 Fe1 Sb2 P6 O24'
_cell_volume   486.33531340
_cell_formula_units_Z   1
loop_
 _symmetry_equiv_pos_site_id
 _symmetry_equiv_pos_as_xyz
  1  'x, y, z'
loop_
 _atom_site_type_symbol
 _atom_site_label
 _atom_site_symmetry_multiplicity
 _atom_site_fract_x
 _atom_site_fract_y
 _atom_site_fract_z
 _atom_site_occupancy
  Ti  Ti0  1  0.145712  0.145712  0.145712  1
  Ti  Ti1  1  0.351357  0.351357  0.351357  1
  Ti  Ti2  1  0.649432  0.649432  0.649432  1
  Fe  Fe3  1  0.848801  0.848801  0.848801  1
  Sb  Sb4  1  0.991639  0.991639  0.991639  1
  Sb  Sb5  1  0.497156  0.497156  0.497156  1
  P  P6  1  0.253587  0.538671  0.959091  1
  P  P7  1  0.538671  0.959091  0.253587  1
  P  P8  1  0.959091  0.253587  0.538671  1
  P  P9  1  0.043935  0.751567  0.457559  1
  P  P10  1  0.457559  0.043935  0.751567  1
  P  P11  1  0.751567  0.457559  0.043935  1
  O  O12  1  0.116004  0.311329  0.497837  1
  O  O13  1  0.311329  0.497837  0.116004  1
  O  O14  1  0.064064  0.914155  0.265332  1
  O  O15  1  0.497837  0.116004  0.311329  1
  O  O16  1  0.019906  0.800883  0.609307  1
  O  O17  1  0.235055  0.581997  0.432372  1
  O  O18  1  0.265332  0.064064  0.914155  1
  O  O19  1  0.432372  0.235055  0.581997  1
  O  O20  1  0.195939  0.383543  0.996166  1
  O  O21  1  0.581997  0.432372  0.235055  1
  O  O22  1  0.090113  0.731207  0.942911  1
  O  O23  1  0.383543  0.996166  0.195939  1
  O  O24  1  0.609307  0.019906  0.800883  1
  O  O25  1  0.914155  0.265332  0.064064  1
  O  O26  1  0.419362  0.558359  0.769152  1
  O  O27  1  0.800883  0.609307  0.019906  1
  O  O28  1  0.558359  0.769152  0.419362  1
  O  O29  1  0.731207  0.942911  0.090113  1
  O  O30  1  0.769152  0.419362  0.558359  1
  O  O31  1  0.996166  0.195939  0.383543  1
  O  O32  1  0.494731  0.885457  0.696314  1
  O  O33  1  0.942911  0.090113  0.731207  1
  O  O34  1  0.696314  0.494731  0.885457  1
  O  O35  1  0.885457  0.696314  0.494731  1
