# generated using pymatgen
data_Li2MnF4
_symmetry_space_group_name_H-M   'P 1'
_cell_length_a   8.85617796
_cell_length_b   7.33047212
_cell_length_c   15.55586351
_cell_angle_alpha   90.00000000
_cell_angle_beta   91.03751969
_cell_angle_gamma   90.00000000
_symmetry_Int_Tables_number   1
_chemical_formula_structural   Li2MnF4
_chemical_formula_sum   'Li24 Mn12 F48'
_cell_volume   1009.72055514
_cell_formula_units_Z   12
loop_
 _symmetry_equiv_pos_site_id
 _symmetry_equiv_pos_as_xyz
  1  'x, y, z'
loop_
 _atom_site_type_symbol
 _atom_site_label
 _atom_site_symmetry_multiplicity
 _atom_site_fract_x
 _atom_site_fract_y
 _atom_site_fract_z
 _atom_site_occupancy
  Li  Li0  1  0.066720  0.652704  0.908800  1
  Li  Li1  1  0.065059  0.250919  0.908882  1
  Li  Li2  1  0.076741  0.806833  0.253765  1
  Li  Li3  1  0.077071  0.252467  0.264660  1
  Li  Li4  1  0.097274  0.676143  0.579144  1
  Li  Li5  1  0.113743  0.257334  0.579776  1
  Li  Li6  1  0.386257  0.757334  0.920224  1
  Li  Li7  1  0.402726  0.176143  0.920856  1
  Li  Li8  1  0.422929  0.752467  0.235340  1
  Li  Li9  1  0.423259  0.306833  0.246235  1
  Li  Li10  1  0.434941  0.750919  0.591118  1
  Li  Li11  1  0.433280  0.152704  0.591200  1
  Li  Li12  1  0.566720  0.847296  0.408800  1
  Li  Li13  1  0.565059  0.249081  0.408882  1
  Li  Li14  1  0.576741  0.693167  0.753766  1
  Li  Li15  1  0.577071  0.247533  0.764660  1
  Li  Li16  1  0.597274  0.823857  0.079144  1
  Li  Li17  1  0.613743  0.242666  0.079776  1
  Li  Li18  1  0.886257  0.742666  0.420224  1
  Li  Li19  1  0.902726  0.323857  0.420856  1
  Li  Li20  1  0.922929  0.747533  0.735340  1
  Li  Li21  1  0.923259  0.193167  0.746234  1
  Li  Li22  1  0.934941  0.749081  0.091118  1
  Li  Li23  1  0.933280  0.347296  0.091200  1
  Mn  Mn24  1  0.233699  0.961910  0.412497  1
  Mn  Mn25  1  0.239235  0.974140  0.745430  1
  Mn  Mn26  1  0.237849  0.036938  0.079581  1
  Mn  Mn27  1  0.260765  0.474140  0.754570  1
  Mn  Mn28  1  0.262151  0.536938  0.420419  1
  Mn  Mn29  1  0.266301  0.461910  0.087503  1
  Mn  Mn30  1  0.733699  0.538090  0.912497  1
  Mn  Mn31  1  0.737849  0.463062  0.579581  1
  Mn  Mn32  1  0.739235  0.525860  0.245430  1
  Mn  Mn33  1  0.762151  0.963062  0.920419  1
  Mn  Mn34  1  0.760765  0.025860  0.254570  1
  Mn  Mn35  1  0.766301  0.038090  0.587503  1
  F  F36  1  0.058305  0.553725  0.129563  1
  F  F37  1  0.055097  0.925922  0.145867  1
  F  F38  1  0.086331  0.756620  0.463444  1
  F  F39  1  0.054039  0.028762  0.324953  1
  F  F40  1  0.084953  0.389889  0.367544  1
  F  F41  1  0.115451  0.705427  0.791188  1
  F  F42  1  0.092626  0.246907  0.028587  1
  F  F43  1  0.104920  0.284461  0.702418  1
  F  F44  1  0.220738  0.469901  0.550655  1
  F  F45  1  0.246307  0.599169  0.971687  1
  F  F46  1  0.249254  0.789449  0.645917  1
  F  F47  1  0.242423  0.240711  0.188754  1
  F  F48  1  0.250746  0.289449  0.854083  1
  F  F49  1  0.257577  0.740711  0.311246  1
  F  F50  1  0.253693  0.099169  0.528313  1
  F  F51  1  0.279262  0.969901  0.949345  1
  F  F52  1  0.395080  0.784461  0.797582  1
  F  F53  1  0.384549  0.205427  0.708812  1
  F  F54  1  0.407374  0.746907  0.471413  1
  F  F55  1  0.415047  0.889889  0.132456  1
  F  F56  1  0.445961  0.528762  0.175047  1
  F  F57  1  0.413669  0.256620  0.036556  1
  F  F58  1  0.444903  0.425922  0.354133  1
  F  F59  1  0.441695  0.053725  0.370437  1
  F  F60  1  0.558305  0.946275  0.629563  1
  F  F61  1  0.555097  0.574078  0.645867  1
  F  F62  1  0.586331  0.743380  0.963444  1
  F  F63  1  0.554039  0.471238  0.824953  1
  F  F64  1  0.584953  0.110111  0.867544  1
  F  F65  1  0.592626  0.253093  0.528587  1
  F  F66  1  0.615451  0.794573  0.291188  1
  F  F67  1  0.604920  0.215538  0.202418  1
  F  F68  1  0.720738  0.030099  0.050655  1
  F  F69  1  0.746307  0.900831  0.471687  1
  F  F70  1  0.742423  0.259289  0.688754  1
  F  F71  1  0.749254  0.710551  0.145917  1
  F  F72  1  0.757577  0.759289  0.811246  1
  F  F73  1  0.750746  0.210551  0.354083  1
  F  F74  1  0.753693  0.400831  0.028313  1
  F  F75  1  0.779262  0.530099  0.449345  1
  F  F76  1  0.895080  0.715539  0.297582  1
  F  F77  1  0.907374  0.753093  0.971413  1
  F  F78  1  0.884549  0.294573  0.208812  1
  F  F79  1  0.915047  0.610111  0.632456  1
  F  F80  1  0.945961  0.971238  0.675047  1
  F  F81  1  0.913669  0.243380  0.536556  1
  F  F82  1  0.944903  0.074078  0.854133  1
  F  F83  1  0.941695  0.446275  0.870437  1
