# generated using pymatgen
data_Li11Mn12(BO3)12
_symmetry_space_group_name_H-M   'P 1'
_cell_length_a   9.42435100
_cell_length_b   9.74213535
_cell_length_c   9.90262560
_cell_angle_alpha   64.68358167
_cell_angle_beta   69.60932622
_cell_angle_gamma   87.70075395
_symmetry_Int_Tables_number   1
_chemical_formula_structural   Li11Mn12(BO3)12
_chemical_formula_sum   'Li11 Mn12 B12 O36'
_cell_volume   763.98851539
_cell_formula_units_Z   1
loop_
 _symmetry_equiv_pos_site_id
 _symmetry_equiv_pos_as_xyz
  1  'x, y, z'
loop_
 _atom_site_type_symbol
 _atom_site_label
 _atom_site_symmetry_multiplicity
 _atom_site_fract_x
 _atom_site_fract_y
 _atom_site_fract_z
 _atom_site_occupancy
  Li  Li0  1  0.029188  0.031774  0.672054  1
  Li  Li1  1  0.303484  0.968343  0.661291  1
  Li  Li2  1  0.362700  0.534350  0.503368  1
  Li  Li3  1  0.289312  0.467654  0.165996  1
  Li  Li4  1  0.362570  0.033585  0.005367  1
  Li  Li5  1  0.696147  0.535643  0.837247  1
  Li  Li6  1  0.637655  0.964847  0.996347  1
  Li  Li7  1  0.637546  0.466553  0.494797  1
  Li  Li8  1  0.696999  0.034031  0.338539  1
  Li  Li9  1  0.969525  0.967564  0.329786  1
  Li  Li10  1  0.969966  0.466293  0.828765  1
  Mn  Mn11  1  0.121750  0.793714  0.565039  1
  Mn  Mn12  1  0.204282  0.701402  0.266509  1
  Mn  Mn13  1  0.212684  0.204312  0.771809  1
  Mn  Mn14  1  0.116138  0.305310  0.065147  1
  Mn  Mn15  1  0.454196  0.794722  0.898180  1
  Mn  Mn16  1  0.544490  0.705641  0.601482  1
  Mn  Mn17  1  0.452655  0.295863  0.398521  1
  Mn  Mn18  1  0.541639  0.205965  0.102200  1
  Mn  Mn19  1  0.884676  0.698928  0.942083  1
  Mn  Mn20  1  0.790695  0.792596  0.231636  1
  Mn  Mn21  1  0.788758  0.294780  0.731976  1
  Mn  Mn22  1  0.883541  0.213792  0.431228  1
  B  B23  1  0.110786  0.870928  0.979674  1
  B  B24  1  0.225717  0.632507  0.848739  1
  B  B25  1  0.112141  0.365020  0.486471  1
  B  B26  1  0.221887  0.133725  0.350941  1
  B  B27  1  0.443519  0.866260  0.314070  1
  B  B28  1  0.442473  0.368630  0.816335  1
  B  B29  1  0.554229  0.632905  0.185112  1
  B  B30  1  0.557927  0.132974  0.683925  1
  B  B31  1  0.778456  0.867708  0.649568  1
  B  B32  1  0.888621  0.632889  0.518985  1
  B  B33  1  0.777461  0.361917  0.144785  1
  B  B34  1  0.888826  0.132474  0.020014  1
  O  O35  1  0.121196  0.986435  0.831064  1
  O  O36  1  0.009451  0.753292  0.428446  1
  O  O37  1  0.010413  0.252590  0.930800  1
  O  O38  1  0.104301  0.635490  0.798162  1
  O  O39  1  0.235035  0.512136  0.982917  1
  O  O40  1  0.117157  0.479288  0.344679  1
  O  O41  1  0.343189  0.756775  0.759371  1
  O  O42  1  0.104967  0.137879  0.294217  1
  O  O43  1  0.229817  0.865606  0.035315  1
  O  O44  1  0.229921  0.359395  0.543783  1
  O  O45  1  0.322099  0.746827  0.402032  1
  O  O46  1  0.318970  0.249166  0.909498  1
  O  O47  1  0.217110  0.017348  0.495773  1
  O  O48  1  0.449776  0.983209  0.168885  1
  O  O49  1  0.449010  0.481725  0.669559  1
  O  O50  1  0.342070  0.254450  0.262090  1
  O  O51  1  0.436631  0.636332  0.129152  1
  O  O52  1  0.440738  0.136087  0.627921  1
  O  O53  1  0.561080  0.863084  0.370537  1
  O  O54  1  0.561885  0.363757  0.869956  1
  O  O55  1  0.655597  0.748669  0.736893  1
  O  O56  1  0.548937  0.517331  0.330865  1
  O  O57  1  0.551434  0.018195  0.830238  1
  O  O58  1  0.785156  0.985531  0.504668  1
  O  O59  1  0.676517  0.751551  0.095878  1
  O  O60  1  0.679057  0.253443  0.594267  1
  O  O61  1  0.769468  0.636420  0.465088  1
  O  O62  1  0.772017  0.136519  0.962760  1
  O  O63  1  0.894903  0.859800  0.708196  1
  O  O64  1  0.651724  0.246724  0.238047  1
  O  O65  1  0.884430  0.517672  0.663952  1
  O  O66  1  0.782401  0.480494  0.002784  1
  O  O67  1  0.899173  0.346203  0.197597  1
  O  O68  1  0.986199  0.759266  0.068720  1
  O  O69  1  0.990218  0.244033  0.575890  1
  O  O70  1  0.882746  0.017304  0.165297  1
