# generated using pymatgen
data_LiFeB2O5
_symmetry_space_group_name_H-M   'P 1'
_cell_length_a   12.02367384
_cell_length_b   5.48391773
_cell_length_c   10.83602364
_cell_angle_alpha   90.00000000
_cell_angle_beta   90.00000000
_cell_angle_gamma   79.41101162
_symmetry_Int_Tables_number   1
_chemical_formula_structural   LiFeB2O5
_chemical_formula_sum   'Li8 Fe8 B16 O40'
_cell_volume   702.32580738
_cell_formula_units_Z   8
loop_
 _symmetry_equiv_pos_site_id
 _symmetry_equiv_pos_as_xyz
  1  'x, y, z'
loop_
 _atom_site_type_symbol
 _atom_site_label
 _atom_site_symmetry_multiplicity
 _atom_site_fract_x
 _atom_site_fract_y
 _atom_site_fract_z
 _atom_site_occupancy
  Li  Li0  1  0.061359  0.367532  0.374879  1
  Li  Li1  1  0.061359  0.867532  0.125121  1
  Li  Li2  1  0.439146  0.118743  0.887787  1
  Li  Li3  1  0.439146  0.618743  0.612213  1
  Li  Li4  1  0.560854  0.381257  0.387787  1
  Li  Li5  1  0.560854  0.881257  0.112213  1
  Li  Li6  1  0.938641  0.132468  0.874879  1
  Li  Li7  1  0.938641  0.632468  0.625121  1
  Fe  Fe8  1  0.238199  0.270651  0.623226  1
  Fe  Fe9  1  0.258801  0.249405  0.125312  1
  Fe  Fe10  1  0.238199  0.770651  0.876774  1
  Fe  Fe11  1  0.258801  0.749405  0.374688  1
  Fe  Fe12  1  0.741199  0.250595  0.625312  1
  Fe  Fe13  1  0.761801  0.229349  0.123226  1
  Fe  Fe14  1  0.741199  0.750595  0.874688  1
  Fe  Fe15  1  0.761801  0.729349  0.376774  1
  B  B16  1  0.003331  0.143681  0.630063  1
  B  B17  1  0.003331  0.643681  0.869937  1
  B  B18  1  0.165471  0.308957  0.880827  1
  B  B19  1  0.165471  0.808957  0.619173  1
  B  B20  1  0.336243  0.204690  0.372328  1
  B  B21  1  0.336243  0.704690  0.127672  1
  B  B22  1  0.507919  0.157222  0.611939  1
  B  B23  1  0.492081  0.342778  0.111939  1
  B  B24  1  0.507919  0.657222  0.888061  1
  B  B25  1  0.492081  0.842778  0.388061  1
  B  B26  1  0.663757  0.295310  0.872328  1
  B  B27  1  0.663757  0.795310  0.627672  1
  B  B28  1  0.834529  0.191043  0.380827  1
  B  B29  1  0.834529  0.691043  0.119173  1
  B  B30  1  0.996669  0.356319  0.130063  1
  B  B31  1  0.996669  0.856319  0.369937  1
  O  O32  1  0.067182  0.318906  0.603796  1
  O  O33  1  0.048661  0.385963  0.888855  1
  O  O34  1  0.102556  0.298699  0.178809  1
  O  O35  1  0.067182  0.818906  0.896204  1
  O  O36  1  0.048661  0.885963  0.611145  1
  O  O37  1  0.102556  0.798699  0.321191  1
  O  O38  1  0.219658  0.120095  0.955013  1
  O  O39  1  0.257788  0.115128  0.445622  1
  O  O40  1  0.226530  0.430945  0.801090  1
  O  O41  1  0.219658  0.620095  0.544987  1
  O  O42  1  0.298797  0.402864  0.294997  1
  O  O43  1  0.257788  0.615128  0.054378  1
  O  O44  1  0.226530  0.930945  0.698910  1
  O  O45  1  0.298797  0.902864  0.205003  1
  O  O46  1  0.399589  0.255419  0.643806  1
  O  O47  1  0.452297  0.102314  0.372267  1
  O  O48  1  0.421201  0.190060  0.072060  1
  O  O49  1  0.399589  0.755419  0.856194  1
  O  O50  1  0.452297  0.602314  0.127733  1
  O  O51  1  0.421201  0.690060  0.427940  1
  O  O52  1  0.578799  0.309940  0.572060  1
  O  O53  1  0.547703  0.397686  0.872267  1
  O  O54  1  0.600411  0.244581  0.143806  1
  O  O55  1  0.578799  0.809940  0.927940  1
  O  O56  1  0.547703  0.897686  0.627733  1
  O  O57  1  0.600411  0.744581  0.356194  1
  O  O58  1  0.701203  0.097136  0.794997  1
  O  O59  1  0.773470  0.069055  0.301090  1
  O  O60  1  0.742212  0.384872  0.945622  1
  O  O61  1  0.701203  0.597136  0.705003  1
  O  O62  1  0.780342  0.379905  0.455012  1
  O  O63  1  0.773470  0.569055  0.198910  1
  O  O64  1  0.742212  0.884872  0.554378  1
  O  O65  1  0.780342  0.879905  0.044987  1
  O  O66  1  0.897444  0.201301  0.678809  1
  O  O67  1  0.951340  0.114037  0.388855  1
  O  O68  1  0.932818  0.181094  0.103796  1
  O  O69  1  0.897444  0.701301  0.821191  1
  O  O70  1  0.951340  0.614037  0.111145  1
  O  O71  1  0.932818  0.681094  0.396204  1
