# generated using pymatgen
data_Sm(ClO4)3
_symmetry_space_group_name_H-M   'P 1'
_cell_length_a   9.38205876
_cell_length_b   9.38208497
_cell_length_c   5.82014455
_cell_angle_alpha   90.00000000
_cell_angle_beta   90.00000000
_cell_angle_gamma   119.99996962
_symmetry_Int_Tables_number   1
_chemical_formula_structural   Sm(ClO4)3
_chemical_formula_sum   'Sm2 Cl6 O24'
_cell_volume   443.67202543
_cell_formula_units_Z   2
loop_
 _symmetry_equiv_pos_site_id
 _symmetry_equiv_pos_as_xyz
  1  'x, y, z'
loop_
 _atom_site_type_symbol
 _atom_site_label
 _atom_site_symmetry_multiplicity
 _atom_site_fract_x
 _atom_site_fract_y
 _atom_site_fract_z
 _atom_site_occupancy
  Sm  Sm0  1  0.333367  0.666680  0.750000  1
  Sm  Sm1  1  0.666687  0.333321  0.250000  1
  Cl  Cl2  1  0.090727  0.709117  0.250000  1
  Cl  Cl3  1  0.290890  0.381612  0.250000  1
  Cl  Cl4  1  0.618397  0.909277  0.250000  1
  Cl  Cl5  1  0.381609  0.090725  0.750000  1
  Cl  Cl6  1  0.709118  0.618389  0.750000  1
  Cl  Cl7  1  0.909283  0.290888  0.750000  1
  O  O8  1  0.019768  0.811538  0.250000  1
  O  O9  1  0.032524  0.467449  0.750000  1
  O  O10  1  0.195887  0.742571  0.046473  1
  O  O11  1  0.195887  0.742571  0.453527  1
  O  O12  1  0.434929  0.967480  0.750000  1
  O  O13  1  0.257429  0.453316  0.453525  1
  O  O14  1  0.257429  0.453316  0.046475  1
  O  O15  1  0.188460  0.208230  0.250000  1
  O  O16  1  0.546692  0.804116  0.046478  1
  O  O17  1  0.546692  0.804116  0.453522  1
  O  O18  1  0.208228  0.019768  0.750000  1
  O  O19  1  0.467449  0.434925  0.250000  1
  O  O20  1  0.532553  0.565073  0.750000  1
  O  O21  1  0.791775  0.980236  0.250000  1
  O  O22  1  0.453314  0.195885  0.546474  1
  O  O23  1  0.453314  0.195885  0.953526  1
  O  O24  1  0.811538  0.791770  0.750000  1
  O  O25  1  0.742572  0.546685  0.953526  1
  O  O26  1  0.742572  0.546685  0.546474  1
  O  O27  1  0.565071  0.032517  0.250000  1
  O  O28  1  0.804114  0.257425  0.953522  1
  O  O29  1  0.804114  0.257425  0.546478  1
  O  O30  1  0.967479  0.532552  0.250000  1
  O  O31  1  0.980233  0.188460  0.750000  1
