# generated using pymatgen
data_CaH2I2O7
_symmetry_space_group_name_H-M   'P 1'
_cell_length_a   8.60601105
_cell_length_b   10.16259526
_cell_length_c   7.62754927
_cell_angle_alpha   90.00000000
_cell_angle_beta   95.07420378
_cell_angle_gamma   90.00000000
_symmetry_Int_Tables_number   1
_chemical_formula_structural   CaH2I2O7
_chemical_formula_sum   'Ca4 H8 I8 O28'
_cell_volume   664.48655974
_cell_formula_units_Z   4
loop_
 _symmetry_equiv_pos_site_id
 _symmetry_equiv_pos_as_xyz
  1  'x, y, z'
loop_
 _atom_site_type_symbol
 _atom_site_label
 _atom_site_symmetry_multiplicity
 _atom_site_fract_x
 _atom_site_fract_y
 _atom_site_fract_z
 _atom_site_occupancy
  Ca  Ca0  1  0.787342  0.991940  0.836447  1
  Ca  Ca1  1  0.212658  0.491940  0.663553  1
  Ca  Ca2  1  0.212658  0.008060  0.163553  1
  Ca  Ca3  1  0.787342  0.508060  0.336447  1
  H  H4  1  0.631082  0.994762  0.181281  1
  H  H5  1  0.368918  0.494762  0.318719  1
  H  H6  1  0.368918  0.005238  0.818719  1
  H  H7  1  0.631082  0.505238  0.681281  1
  H  H8  1  0.778711  0.901991  0.220778  1
  H  H9  1  0.221289  0.401991  0.279222  1
  H  H10  1  0.221289  0.098009  0.779222  1
  H  H11  1  0.778711  0.598009  0.720778  1
  I  I12  1  0.971975  0.309919  0.956741  1
  I  I13  1  0.028025  0.809919  0.543259  1
  I  I14  1  0.028025  0.690081  0.043259  1
  I  I15  1  0.971975  0.190081  0.456741  1
  I  I16  1  0.485206  0.813504  0.554338  1
  I  I17  1  0.514794  0.313504  0.945662  1
  I  I18  1  0.514794  0.186496  0.445662  1
  I  I19  1  0.485206  0.686496  0.054338  1
  O  O20  1  0.978129  0.140348  0.042140  1
  O  O21  1  0.021871  0.640348  0.457860  1
  O  O22  1  0.021871  0.859652  0.957860  1
  O  O23  1  0.978129  0.359652  0.542140  1
  O  O24  1  0.169864  0.330141  0.895977  1
  O  O25  1  0.830136  0.830141  0.604023  1
  O  O26  1  0.830136  0.669859  0.104023  1
  O  O27  1  0.169864  0.169859  0.395977  1
  O  O28  1  0.991506  0.397733  0.168943  1
  O  O29  1  0.008494  0.897733  0.331057  1
  O  O30  1  0.008494  0.602267  0.831057  1
  O  O31  1  0.991506  0.102267  0.668943  1
  O  O32  1  0.649803  0.186655  0.885235  1
  O  O33  1  0.350197  0.686655  0.614765  1
  O  O34  1  0.350197  0.813345  0.114765  1
  O  O35  1  0.649803  0.313345  0.385235  1
  O  O36  1  0.661455  0.063234  0.519663  1
  O  O37  1  0.338545  0.563234  0.980337  1
  O  O38  1  0.338545  0.936766  0.480337  1
  O  O39  1  0.661455  0.436766  0.019663  1
  O  O40  1  0.538688  0.877840  0.777349  1
  O  O41  1  0.461312  0.377840  0.722651  1
  O  O42  1  0.461312  0.122160  0.222651  1
  O  O43  1  0.538688  0.622160  0.277349  1
  O  O44  1  0.696296  0.928061  0.129749  1
  O  O45  1  0.303704  0.428061  0.370251  1
  O  O46  1  0.303704  0.071939  0.870251  1
  O  O47  1  0.696296  0.571939  0.629749  1
