# generated using pymatgen
data_Mn3CrTe2(PO4)6
_symmetry_space_group_name_H-M   'P 1'
_cell_length_a   8.78284288
_cell_length_b   8.78284328
_cell_length_c   8.78284261
_cell_angle_alpha   60.29346770
_cell_angle_beta   60.29347010
_cell_angle_gamma   60.29347185
_symmetry_Int_Tables_number   1
_chemical_formula_structural   Mn3CrTe2(PO4)6
_chemical_formula_sum   'Mn3 Cr1 Te2 P6 O24'
_cell_volume   482.24205655
_cell_formula_units_Z   1
loop_
 _symmetry_equiv_pos_site_id
 _symmetry_equiv_pos_as_xyz
  1  'x, y, z'
loop_
 _atom_site_type_symbol
 _atom_site_label
 _atom_site_symmetry_multiplicity
 _atom_site_fract_x
 _atom_site_fract_y
 _atom_site_fract_z
 _atom_site_occupancy
  Mn  Mn0  1  0.155021  0.155021  0.155021  1
  Mn  Mn1  1  0.346216  0.346216  0.346216  1
  Mn  Mn2  1  0.650688  0.650688  0.650688  1
  Cr  Cr3  1  0.854338  0.854338  0.854338  1
  Te  Te4  1  0.007326  0.007326  0.007326  1
  Te  Te5  1  0.500659  0.500659  0.500659  1
  P  P6  1  0.043737  0.750032  0.458152  1
  P  P7  1  0.458152  0.043737  0.750032  1
  P  P8  1  0.750032  0.458152  0.043737  1
  P  P9  1  0.246778  0.552908  0.946852  1
  P  P10  1  0.552908  0.946852  0.246778  1
  P  P11  1  0.946852  0.246778  0.552908  1
  O  O12  1  0.094193  0.307566  0.525770  1
  O  O13  1  0.307566  0.525770  0.094193  1
  O  O14  1  0.064670  0.911954  0.255562  1
  O  O15  1  0.525770  0.094193  0.307566  1
  O  O16  1  0.243878  0.598754  0.434315  1
  O  O17  1  0.999516  0.820003  0.606784  1
  O  O18  1  0.255562  0.064670  0.911954  1
  O  O19  1  0.434315  0.243878  0.598754  1
  O  O20  1  0.598754  0.434315  0.243878  1
  O  O21  1  0.189398  0.399698  0.979554  1
  O  O22  1  0.087095  0.748703  0.922425  1
  O  O23  1  0.399698  0.979554  0.189398  1
  O  O24  1  0.606784  0.999516  0.820003  1
  O  O25  1  0.911954  0.255562  0.064670  1
  O  O26  1  0.820003  0.606784  0.999516  1
  O  O27  1  0.405400  0.575274  0.747656  1
  O  O28  1  0.575274  0.747656  0.405400  1
  O  O29  1  0.748703  0.922425  0.087095  1
  O  O30  1  0.979554  0.189398  0.399698  1
  O  O31  1  0.747656  0.405400  0.575274  1
  O  O32  1  0.485060  0.900427  0.683638  1
  O  O33  1  0.922425  0.087095  0.748703  1
  O  O34  1  0.683638  0.485060  0.900427  1
  O  O35  1  0.900427  0.683638  0.485060  1
