# generated using pymatgen
data_Fe6O7F5
_symmetry_space_group_name_H-M   'P 1'
_cell_length_a   4.75285030
_cell_length_b   4.75376634
_cell_length_c   9.18157648
_cell_angle_alpha   90.00000000
_cell_angle_beta   90.00000000
_cell_angle_gamma   93.83276280
_symmetry_Int_Tables_number   1
_chemical_formula_structural   Fe6O7F5
_chemical_formula_sum   'Fe6 O7 F5'
_cell_volume   206.98400925
_cell_formula_units_Z   1
loop_
 _symmetry_equiv_pos_site_id
 _symmetry_equiv_pos_as_xyz
  1  'x, y, z'
loop_
 _atom_site_type_symbol
 _atom_site_label
 _atom_site_symmetry_multiplicity
 _atom_site_fract_x
 _atom_site_fract_y
 _atom_site_fract_z
 _atom_site_occupancy
  Fe  Fe0  1  0.004549  0.984795  0.993911  1
  Fe  Fe1  1  0.004549  0.984795  0.339423  1
  Fe  Fe2  1  0.044595  0.005701  0.666667  1
  Fe  Fe3  1  0.506988  0.488869  0.166667  1
  Fe  Fe4  1  0.462921  0.516979  0.841899  1
  Fe  Fe5  1  0.462921  0.516979  0.491434  1
  O  O6  1  0.191994  0.814007  0.497956  1
  O  O7  1  0.191994  0.814007  0.835377  1
  O  O8  1  0.304757  0.298382  0.010544  1
  O  O9  1  0.304757  0.298382  0.322790  1
  O  O10  1  0.314533  0.324273  0.666667  1
  O  O11  1  0.692742  0.687346  0.007731  1
  O  O12  1  0.692742  0.687346  0.325603  1
  F  F13  1  0.188851  0.797643  0.166667  1
  F  F14  1  0.702141  0.710108  0.666667  1
  F  F15  1  0.812280  0.179058  0.166667  1
  F  F16  1  0.808342  0.195663  0.832050  1
  F  F17  1  0.808342  0.195663  0.501283  1
