# generated using pymatgen
data_Y2Si2O7
_symmetry_space_group_name_H-M   'P 1'
_cell_length_a   4.75992297
_cell_length_b   5.64885512
_cell_length_c   10.93920622
_cell_angle_alpha   90.00000000
_cell_angle_beta   90.00000000
_cell_angle_gamma   83.88605259
_symmetry_Int_Tables_number   1
_chemical_formula_structural   Y2Si2O7
_chemical_formula_sum   'Y4 Si4 O14'
_cell_volume   292.46161354
_cell_formula_units_Z   2
loop_
 _symmetry_equiv_pos_site_id
 _symmetry_equiv_pos_as_xyz
  1  'x, y, z'
loop_
 _atom_site_type_symbol
 _atom_site_label
 _atom_site_symmetry_multiplicity
 _atom_site_fract_x
 _atom_site_fract_y
 _atom_site_fract_z
 _atom_site_occupancy
  O  O0  1  0.794576  0.864531  0.050555  1
  O  O1  1  0.205424  0.635469  0.550555  1
  O  O2  1  0.205424  0.135469  0.949445  1
  O  O3  1  0.794576  0.364531  0.449445  1
  O  O4  1  0.873604  0.960845  0.317254  1
  O  O5  1  0.126396  0.539155  0.817254  1
  O  O6  1  0.126396  0.039155  0.682746  1
  O  O7  1  0.873604  0.460845  0.182746  1
  O  O8  1  0.500000  0.500000  0.000000  1
  O  O9  1  0.500000  0.000000  0.500000  1
  O  O10  1  0.379517  0.253037  0.298852  1
  O  O11  1  0.620483  0.246963  0.798852  1
  O  O12  1  0.620483  0.746963  0.701148  1
  O  O13  1  0.379517  0.753037  0.201148  1
  Si  Si14  1  0.638429  0.644557  0.111579  1
  Si  Si15  1  0.361571  0.855443  0.611579  1
  Si  Si16  1  0.361571  0.355443  0.888421  1
  Si  Si17  1  0.638429  0.144557  0.388421  1
  Y  Y18  1  0.108225  0.593606  0.348858  1
  Y  Y19  1  0.891775  0.906394  0.848858  1
  Y  Y20  1  0.891775  0.406394  0.651142  1
  Y  Y21  1  0.108225  0.093606  0.151142  1
