# generated using pymatgen
data_Li3Mn3(OF)4
_symmetry_space_group_name_H-M   'P 1'
_cell_length_a   5.79075075
_cell_length_b   6.04071180
_cell_length_c   6.06731496
_cell_angle_alpha   61.12457121
_cell_angle_beta   90.00000000
_cell_angle_gamma   118.64036617
_symmetry_Int_Tables_number   1
_chemical_formula_structural   Li3Mn3(OF)4
_chemical_formula_sum   'Li3 Mn3 O4 F4'
_cell_volume   155.53637387
_cell_formula_units_Z   1
loop_
 _symmetry_equiv_pos_site_id
 _symmetry_equiv_pos_as_xyz
  1  'x, y, z'
loop_
 _atom_site_type_symbol
 _atom_site_label
 _atom_site_symmetry_multiplicity
 _atom_site_fract_x
 _atom_site_fract_y
 _atom_site_fract_z
 _atom_site_occupancy
  Li  Li0  1  0.972940  0.945878  0.041103  1
  Li  Li1  1  0.625000  0.250000  0.625000  1
  Li  Li2  1  0.277060  0.554122  0.208897  1
  Mn  Mn3  1  0.625000  0.250000  0.125000  1
  Mn  Mn4  1  0.625000  0.750000  0.625000  1
  Mn  Mn5  1  0.125000  0.750000  0.625000  1
  O  O6  1  0.864472  0.728944  0.430406  1
  O  O7  1  0.840184  0.680369  0.880273  1
  O  O8  1  0.409816  0.819631  0.369727  1
  O  O9  1  0.385528  0.771056  0.819594  1
  F  F10  1  0.877744  0.272866  0.363103  1
  F  F11  1  0.395123  0.272866  0.363103  1
  F  F12  1  0.854877  0.227134  0.886897  1
  F  F13  1  0.372256  0.227134  0.886897  1
