# generated using pymatgen
data_Li3V2(O2F)2
_symmetry_space_group_name_H-M   'P 1'
_cell_length_a   8.95202640
_cell_length_b   5.13998018
_cell_length_c   7.37529049
_cell_angle_alpha   88.49295248
_cell_angle_beta   90.00000000
_cell_angle_gamma   90.00000000
_symmetry_Int_Tables_number   1
_chemical_formula_structural   Li3V2(O2F)2
_chemical_formula_sum   'Li9 V6 O12 F6'
_cell_volume   339.24361269
_cell_formula_units_Z   3
loop_
 _symmetry_equiv_pos_site_id
 _symmetry_equiv_pos_as_xyz
  1  'x, y, z'
loop_
 _atom_site_type_symbol
 _atom_site_label
 _atom_site_symmetry_multiplicity
 _atom_site_fract_x
 _atom_site_fract_y
 _atom_site_fract_z
 _atom_site_occupancy
  Li  Li0  1  0.000492  0.317335  0.630830  1
  Li  Li1  1  0.000001  0.689014  0.375137  1
  Li  Li2  1  0.166667  0.862473  0.638632  1
  Li  Li3  1  0.332842  0.317335  0.630830  1
  Li  Li4  1  0.333332  0.689014  0.375137  1
  Li  Li5  1  0.488879  0.149008  0.354505  1
  Li  Li6  1  0.666667  0.288718  0.634872  1
  Li  Li7  1  0.666667  0.683054  0.400667  1
  Li  Li8  1  0.844454  0.149008  0.354505  1
  V  V9  1  0.000204  0.996222  0.998367  1
  V  V10  1  0.166667  0.492071  0.009251  1
  V  V11  1  0.333130  0.996222  0.998367  1
  V  V12  1  0.499558  0.504972  0.996725  1
  V  V13  1  0.666667  0.002304  0.990846  1
  V  V14  1  0.833775  0.504972  0.996725  1
  O  O15  1  0.995058  0.312359  0.138391  1
  O  O16  1  0.005786  0.682174  0.863181  1
  O  O17  1  0.166667  0.832905  0.145640  1
  O  O18  1  0.166667  0.158789  0.850840  1
  O  O19  1  0.338275  0.312359  0.138391  1
  O  O20  1  0.327548  0.682174  0.863181  1
  O  O21  1  0.498687  0.843852  0.145368  1
  O  O22  1  0.499280  0.169612  0.851878  1
  O  O23  1  0.666667  0.317811  0.134101  1
  O  O24  1  0.666667  0.687888  0.863698  1
  O  O25  1  0.834646  0.843852  0.145368  1
  O  O26  1  0.834053  0.169612  0.851878  1
  F  F27  1  0.000420  0.002560  0.501996  1
  F  F28  1  0.166667  0.528151  0.517603  1
  F  F29  1  0.332913  0.002560  0.501996  1
  F  F30  1  0.498247  0.477763  0.487081  1
  F  F31  1  0.666667  0.022760  0.467647  1
  F  F32  1  0.835086  0.477763  0.487081  1
