# generated using pymatgen
data_RbAl11O17
_symmetry_space_group_name_H-M   'P 1'
_cell_length_a   5.65482542
_cell_length_b   5.65481771
_cell_length_c   23.05340637
_cell_angle_alpha   90.00012362
_cell_angle_beta   90.00006611
_cell_angle_gamma   120.00016061
_symmetry_Int_Tables_number   1
_chemical_formula_structural   RbAl11O17
_chemical_formula_sum   'Rb2 Al22 O34'
_cell_volume   638.41465189
_cell_formula_units_Z   2
loop_
 _symmetry_equiv_pos_site_id
 _symmetry_equiv_pos_as_xyz
  1  'x, y, z'
loop_
 _atom_site_type_symbol
 _atom_site_label
 _atom_site_symmetry_multiplicity
 _atom_site_fract_x
 _atom_site_fract_y
 _atom_site_fract_z
 _atom_site_occupancy
  Rb  Rb0  1  0.333313  0.666627  0.750000  1
  Rb  Rb1  1  0.666692  0.333303  0.250000  1
  Al  Al2  1  0.167281  0.832714  0.894494  1
  Al  Al3  1  0.167282  0.832714  0.605507  1
  Al  Al4  1  0.333336  0.666675  0.175081  1
  Al  Al5  1  0.333331  0.666666  0.024968  1
  Al  Al6  1  0.333324  0.666656  0.324919  1
  Al  Al7  1  0.999996  -0.000001  -0.000000  1
  Al  Al8  1  0.999999  0.000001  0.500000  1
  Al  Al9  1  0.333331  0.666668  0.475032  1
  Al  Al10  1  0.167292  0.334573  0.605506  1
  Al  Al11  1  0.167292  0.334574  0.894494  1
  Al  Al12  1  0.665427  0.832729  0.605506  1
  Al  Al13  1  0.665426  0.832728  0.894493  1
  Al  Al14  1  0.334571  0.167277  0.394494  1
  Al  Al15  1  0.334583  0.167288  0.105507  1
  Al  Al16  1  0.832705  0.665430  0.394494  1
  Al  Al17  1  0.666673  0.333351  0.675082  1
  Al  Al18  1  0.666673  0.333351  0.824918  1
  Al  Al19  1  0.666667  0.333337  0.524969  1
  Al  Al20  1  0.666666  0.333333  0.975031  1
  Al  Al21  1  0.832721  0.665430  0.105506  1
  Al  Al22  1  0.832716  0.167290  0.394495  1
  Al  Al23  1  0.832727  0.167289  0.105504  1
  O  O24  1  0.156871  0.843110  0.049219  1
  O  O25  1  0.156873  0.843115  0.450780  1
  O  O26  1  0.003564  0.501782  0.856118  1
  O  O27  1  0.003564  0.501783  0.643882  1
  O  O28  1  0.333314  0.666677  0.250000  1
  O  O29  1  0.156883  0.313762  0.049219  1
  O  O30  1  0.000010  0.000002  0.140236  1
  O  O31  1  0.333323  0.666649  0.945338  1
  O  O32  1  0.333324  0.666650  0.554662  1
  O  O33  1  0.999999  0.000001  0.359766  1
  O  O34  1  1.000000  0.000002  0.859766  1
  O  O35  1  0.999998  0.000001  0.640233  1
  O  O36  1  0.498221  0.996454  0.643882  1
  O  O37  1  0.498221  0.996454  0.856118  1
  O  O38  1  0.156895  0.313763  0.450781  1
  O  O39  1  0.313761  0.156859  0.549218  1
  O  O40  1  0.313761  0.156864  0.950782  1
  O  O41  1  0.498223  0.501790  0.856118  1
  O  O42  1  0.498225  0.501792  0.643882  1
  O  O43  1  0.501784  0.498232  0.143883  1
  O  O44  1  0.501771  0.498212  0.356115  1
  O  O45  1  0.686237  0.843127  0.049219  1
  O  O46  1  0.686237  0.843144  0.450781  1
  O  O47  1  0.843105  0.686238  0.950782  1
  O  O48  1  0.843104  0.686241  0.549219  1
  O  O49  1  0.501778  0.003550  0.356119  1
  O  O50  1  0.666674  0.333357  0.445337  1
  O  O51  1  0.666685  0.333374  0.750000  1
  O  O52  1  0.501794  0.003565  0.143883  1
  O  O53  1  0.666671  0.333325  0.054662  1
  O  O54  1  0.996446  0.498221  0.143885  1
  O  O55  1  0.996437  0.498221  0.356117  1
  O  O56  1  0.843125  0.156885  0.950781  1
  O  O57  1  0.843126  0.156890  0.549219  1
