# generated using pymatgen
data_Sr20P12Br(O16F)3
_symmetry_space_group_name_H-M   'P 1'
_cell_length_a   9.90943826
_cell_length_b   9.90943781
_cell_length_c   29.41626814
_cell_angle_alpha   90.00000000
_cell_angle_beta   90.00000000
_cell_angle_gamma   120.00000150
_symmetry_Int_Tables_number   1
_chemical_formula_structural   Sr20P12Br(O16F)3
_chemical_formula_sum   'Sr40 P24 Br2 O96 F6'
_cell_volume   2501.59069941
_cell_formula_units_Z   2
loop_
 _symmetry_equiv_pos_site_id
 _symmetry_equiv_pos_as_xyz
  1  'x, y, z'
loop_
 _atom_site_type_symbol
 _atom_site_label
 _atom_site_symmetry_multiplicity
 _atom_site_fract_x
 _atom_site_fract_y
 _atom_site_fract_z
 _atom_site_occupancy
  Sr  Sr0  1  0.259804  0.988148  0.062612  1
  Sr  Sr1  1  0.242979  0.991765  0.561644  1
  Sr  Sr2  1  0.238646  0.993020  0.313421  1
  Sr  Sr3  1  0.243220  0.991745  0.811693  1
  Sr  Sr4  1  0.011852  0.271656  0.062612  1
  Sr  Sr5  1  0.006980  0.245625  0.313421  1
  Sr  Sr6  1  0.008235  0.251214  0.561644  1
  Sr  Sr7  1  0.008255  0.251475  0.811693  1
  Sr  Sr8  1  0.333333  0.666667  0.126433  1
  Sr  Sr9  1  0.333333  0.666667  0.375170  1
  Sr  Sr10  1  0.333333  0.666667  0.250850  1
  Sr  Sr11  1  0.333333  0.666667  0.624744  1
  Sr  Sr12  1  0.333333  0.666667  0.499312  1
  Sr  Sr13  1  0.333333  0.666667  0.874722  1
  Sr  Sr14  1  0.333333  0.666667  0.749136  1
  Sr  Sr15  1  0.333333  0.666667  0.999426  1
  Sr  Sr16  1  0.266497  0.254615  0.187232  1
  Sr  Sr17  1  0.249778  0.241635  0.436470  1
  Sr  Sr18  1  0.251465  0.243218  0.686688  1
  Sr  Sr19  1  0.251052  0.242895  0.937055  1
  Sr  Sr20  1  0.728344  0.740196  0.062612  1
  Sr  Sr21  1  0.748525  0.756780  0.811693  1
  Sr  Sr22  1  0.754375  0.761354  0.313421  1
  Sr  Sr23  1  0.748786  0.757021  0.561644  1
  Sr  Sr24  1  0.666667  0.333333  0.997697  1
  Sr  Sr25  1  0.666667  0.333333  0.124466  1
  Sr  Sr26  1  0.666667  0.333333  0.251960  1
  Sr  Sr27  1  0.666667  0.333333  0.500021  1
  Sr  Sr28  1  0.666667  0.333333  0.375320  1
  Sr  Sr29  1  0.666667  0.333333  0.873721  1
  Sr  Sr30  1  0.666667  0.333333  0.749649  1
  Sr  Sr31  1  0.666667  0.333333  0.624157  1
  Sr  Sr32  1  0.988118  0.733503  0.187232  1
  Sr  Sr33  1  0.991858  0.750222  0.436470  1
  Sr  Sr34  1  0.991753  0.748535  0.686688  1
  Sr  Sr35  1  0.991844  0.748948  0.937055  1
  Sr  Sr36  1  0.745385  0.011882  0.187232  1
  Sr  Sr37  1  0.758365  0.008142  0.436470  1
  Sr  Sr38  1  0.756782  0.008247  0.686688  1
  Sr  Sr39  1  0.757105  0.008156  0.937055  1
  P  P40  1  0.035378  0.406202  0.187641  1
  P  P41  1  0.029653  0.398570  0.437794  1
  P  P42  1  0.029342  0.397777  0.687606  1
  P  P43  1  0.029624  0.397549  0.937447  1
  P  P44  1  0.370824  0.964622  0.187641  1
  P  P45  1  0.368917  0.970347  0.437794  1
  P  P46  1  0.368435  0.970658  0.687606  1
  P  P47  1  0.367925  0.970376  0.937447  1
  P  P48  1  0.398278  0.365440  0.061749  1
  P  P49  1  0.404410  0.373309  0.312957  1
  P  P50  1  0.397710  0.368411  0.562565  1
  P  P51  1  0.397713  0.368416  0.812637  1
  P  P52  1  0.593798  0.629176  0.187641  1
  P  P53  1  0.601430  0.631083  0.437794  1
  P  P54  1  0.602223  0.631565  0.687606  1
  P  P55  1  0.602451  0.632075  0.937447  1
  P  P56  1  0.634560  0.032838  0.061749  1
  P  P57  1  0.626691  0.031101  0.312957  1
  P  P58  1  0.631589  0.029300  0.562565  1
  P  P59  1  0.631584  0.029297  0.812637  1
  P  P60  1  0.967162  0.601722  0.061749  1
  P  P61  1  0.968899  0.595590  0.312957  1
  P  P62  1  0.970700  0.602290  0.562565  1
  P  P63  1  0.970703  0.602287  0.812637  1
  Br  Br64  1  0.000000  0.000000  0.111180  1
  Br  Br65  1  0.000000  0.000000  0.236924  1
  O  O66  1  0.264995  0.913076  0.144643  1
  O  O67  1  0.268149  0.910279  0.230819  1
  O  O68  1  0.262216  0.918917  0.394998  1
  O  O69  1  0.261533  0.919647  0.644882  1
  O  O70  1  0.262118  0.918234  0.730538  1
  O  O71  1  0.262263  0.917606  0.480587  1
  O  O72  1  0.261113  0.918908  0.894723  1
  O  O73  1  0.261421  0.917547  0.980326  1
  O  O74  1  0.147146  0.667904  0.062795  1
  O  O75  1  0.149425  0.668798  0.312878  1
  O  O76  1  0.150847  0.670824  0.562818  1
  O  O77  1  0.150853  0.670747  0.812857  1
  O  O78  1  0.123240  0.588293  0.186537  1
  O  O79  1  0.117105  0.580639  0.437615  1
  O  O80  1  0.117318  0.579919  0.687496  1
  O  O81  1  0.116654  0.579628  0.937642  1
  O  O82  1  0.086924  0.351919  0.144643  1
  O  O83  1  0.081083  0.343299  0.394998  1
  O  O84  1  0.089721  0.357871  0.230819  1
  O  O85  1  0.080353  0.341886  0.644882  1
  O  O86  1  0.082394  0.344657  0.480587  1
  O  O87  1  0.081092  0.342205  0.894723  1
  O  O88  1  0.081766  0.343884  0.730538  1
  O  O89  1  0.082453  0.343874  0.980326  1
  O  O90  1  0.463534  0.882895  0.437615  1
  O  O91  1  0.465053  0.876760  0.186537  1
  O  O92  1  0.462973  0.883346  0.937642  1
  O  O93  1  0.462601  0.882682  0.687496  1
  O  O94  1  0.332096  0.479243  0.062795  1
  O  O95  1  0.331202  0.480627  0.312878  1
  O  O96  1  0.329176  0.480023  0.562818  1
  O  O97  1  0.329253  0.480106  0.812857  1
  O  O98  1  0.520757  0.852854  0.062795  1
  O  O99  1  0.519373  0.850575  0.312878  1
  O  O100  1  0.519894  0.849147  0.812857  1
  O  O101  1  0.519977  0.849153  0.562818  1
  O  O102  1  0.411707  0.534947  0.186537  1
  O  O103  1  0.419361  0.536466  0.437615  1
  O  O104  1  0.420081  0.537399  0.687496  1
  O  O105  1  0.420372  0.537027  0.937642  1
  O  O106  1  0.365879  0.270795  0.106451  1
  O  O107  1  0.325342  0.249763  0.021351  1
  O  O108  1  0.347516  0.264328  0.355171  1
  O  O109  1  0.357426  0.270366  0.269319  1
  O  O110  1  0.341925  0.261637  0.519816  1
  O  O111  1  0.343827  0.262030  0.605488  1
  O  O112  1  0.341923  0.261675  0.769865  1
  O  O113  1  0.343837  0.262042  0.855545  1
  O  O114  1  0.648081  0.735005  0.144643  1
  O  O115  1  0.642129  0.731851  0.230819  1
  O  O116  1  0.656701  0.737784  0.394998  1
  O  O117  1  0.655343  0.737737  0.480587  1
  O  O118  1  0.658114  0.738467  0.644882  1
  O  O119  1  0.656116  0.737882  0.730538  1
  O  O120  1  0.657795  0.738887  0.894723  1
  O  O121  1  0.656126  0.738579  0.980326  1
  O  O122  1  0.579380  0.458967  0.056355  1
  O  O123  1  0.586214  0.469644  0.314209  1
  O  O124  1  0.579897  0.462628  0.562484  1
  O  O125  1  0.579885  0.462596  0.812473  1
  O  O126  1  0.482802  0.145006  0.187277  1
  O  O127  1  0.479802  0.150599  0.438003  1
  O  O128  1  0.480032  0.150821  0.687806  1
  O  O129  1  0.478760  0.150592  0.937398  1
  O  O130  1  0.662204  0.517198  0.187277  1
  O  O131  1  0.670797  0.520198  0.438003  1
  O  O132  1  0.670790  0.519968  0.687806  1
  O  O133  1  0.671832  0.521240  0.937398  1
  O  O134  1  0.541033  0.120413  0.056355  1
  O  O135  1  0.530356  0.116569  0.314209  1
  O  O136  1  0.537404  0.117289  0.812473  1
  O  O137  1  0.537372  0.117269  0.562484  1
  O  O138  1  0.924421  0.674658  0.021351  1
  O  O139  1  0.912940  0.642574  0.269319  1
  O  O140  1  0.904917  0.634121  0.106451  1
  O  O141  1  0.919752  0.658077  0.769865  1
  O  O142  1  0.916812  0.652484  0.355171  1
  O  O143  1  0.919712  0.658075  0.519816  1
  O  O144  1  0.918202  0.656173  0.605488  1
  O  O145  1  0.918206  0.656163  0.855545  1
  O  O146  1  0.879587  0.420620  0.056355  1
  O  O147  1  0.883431  0.413786  0.314209  1
  O  O148  1  0.882731  0.420103  0.562484  1
  O  O149  1  0.882711  0.420115  0.812473  1
  O  O150  1  0.854994  0.337796  0.187277  1
  O  O151  1  0.849401  0.329203  0.438003  1
  O  O152  1  0.849408  0.328168  0.937398  1
  O  O153  1  0.849179  0.329210  0.687806  1
  O  O154  1  0.750237  0.075579  0.021351  1
  O  O155  1  0.729205  0.095083  0.106451  1
  O  O156  1  0.729634  0.087060  0.269319  1
  O  O157  1  0.738363  0.080288  0.519816  1
  O  O158  1  0.735672  0.083188  0.355171  1
  O  O159  1  0.737970  0.081798  0.605488  1
  O  O160  1  0.738325  0.080248  0.769865  1
  O  O161  1  0.737958  0.081794  0.855545  1
  F  F162  1  0.000000  0.000000  0.442446  1
  F  F163  1  0.000000  0.000000  0.337785  1
  F  F164  1  0.000000  0.000000  0.563477  1
  F  F165  1  0.000000  0.000000  0.688264  1
  F  F166  1  0.000000  0.000000  0.813361  1
  F  F167  1  0.000000  0.000000  0.939646  1
