# generated using pymatgen
data_Li2AlCoO4
_symmetry_space_group_name_H-M   'P 1'
_cell_length_a   6.35804721
_cell_length_b   10.83177253
_cell_length_c   5.13440226
_cell_angle_alpha   90.00000000
_cell_angle_beta   88.86071173
_cell_angle_gamma   90.00000000
_symmetry_Int_Tables_number   1
_chemical_formula_structural   Li2AlCoO4
_chemical_formula_sum   'Li8 Al4 Co4 O16'
_cell_volume   353.53084191
_cell_formula_units_Z   4
loop_
 _symmetry_equiv_pos_site_id
 _symmetry_equiv_pos_as_xyz
  1  'x, y, z'
loop_
 _atom_site_type_symbol
 _atom_site_label
 _atom_site_symmetry_multiplicity
 _atom_site_fract_x
 _atom_site_fract_y
 _atom_site_fract_z
 _atom_site_occupancy
  Li  Li0  1  0.006901  0.832760  0.688159  1
  Li  Li1  1  0.240071  0.080796  0.708613  1
  Li  Li2  1  0.259929  0.580796  0.791387  1
  Li  Li3  1  0.493099  0.332760  0.811841  1
  Li  Li4  1  0.506901  0.667240  0.188159  1
  Li  Li5  1  0.740071  0.419204  0.208613  1
  Li  Li6  1  0.759929  0.919204  0.291387  1
  Li  Li7  1  0.993099  0.167240  0.311841  1
  Al  Al8  1  0.999588  0.664444  0.179525  1
  Al  Al9  1  0.500412  0.164444  0.320476  1
  Al  Al10  1  0.499588  0.835556  0.679524  1
  Al  Al11  1  0.000412  0.335556  0.820476  1
  Co  Co12  1  0.246239  0.413656  0.315138  1
  Co  Co13  1  0.253761  0.913656  0.184862  1
  Co  Co14  1  0.746239  0.086344  0.815138  1
  Co  Co15  1  0.753761  0.586344  0.684862  1
  O  O16  1  0.015470  0.334183  0.167255  1
  O  O17  1  0.020927  0.819776  0.290415  1
  O  O18  1  0.263932  0.078426  0.276853  1
  O  O19  1  0.228248  0.407896  0.683718  1
  O  O20  1  0.271752  0.907896  0.816282  1
  O  O21  1  0.236068  0.578426  0.223147  1
  O  O22  1  0.479073  0.319776  0.209585  1
  O  O23  1  0.484530  0.834183  0.332745  1
  O  O24  1  0.515470  0.165817  0.667255  1
  O  O25  1  0.520927  0.680224  0.790415  1
  O  O26  1  0.763932  0.421574  0.776853  1
  O  O27  1  0.728248  0.092104  0.183718  1
  O  O28  1  0.771752  0.592104  0.316282  1
  O  O29  1  0.736068  0.921574  0.723147  1
  O  O30  1  0.979073  0.180224  0.709585  1
  O  O31  1  0.984530  0.665817  0.832745  1
