# generated using pymatgen
data_Li6Sn2B4SO16
_symmetry_space_group_name_H-M   'P 1'
_cell_length_a   9.56676786
_cell_length_b   9.56676735
_cell_length_c   9.56676739
_cell_angle_alpha   59.99999897
_cell_angle_beta   59.99999837
_cell_angle_gamma   59.99999824
_symmetry_Int_Tables_number   1
_chemical_formula_structural   Li6Sn2B4SO16
_chemical_formula_sum   'Li12 Sn4 B8 S2 O32'
_cell_volume   619.12829245
_cell_formula_units_Z   2
loop_
 _symmetry_equiv_pos_site_id
 _symmetry_equiv_pos_as_xyz
  1  'x, y, z'
loop_
 _atom_site_type_symbol
 _atom_site_label
 _atom_site_symmetry_multiplicity
 _atom_site_fract_x
 _atom_site_fract_y
 _atom_site_fract_z
 _atom_site_occupancy
  Li  Li0  1  0.091599  0.658401  0.091599  1
  Li  Li1  1  0.091599  0.091599  0.658401  1
  Li  Li2  1  0.091599  0.658401  0.658401  1
  Li  Li3  1  0.658401  0.091599  0.091599  1
  Li  Li4  1  0.341599  0.908401  0.341599  1
  Li  Li5  1  0.341599  0.341599  0.908401  1
  Li  Li6  1  0.658401  0.658401  0.091599  1
  Li  Li7  1  0.658401  0.091599  0.658401  1
  Li  Li8  1  0.341599  0.908401  0.908401  1
  Li  Li9  1  0.908401  0.341599  0.341599  1
  Li  Li10  1  0.908401  0.341599  0.908401  1
  Li  Li11  1  0.908401  0.908401  0.341599  1
  Sn  Sn12  1  0.000000  0.500000  0.500000  1
  Sn  Sn13  1  0.500000  0.000000  0.500000  1
  Sn  Sn14  1  0.500000  0.500000  0.000000  1
  Sn  Sn15  1  0.500000  0.500000  0.500000  1
  B  B16  1  0.278123  0.278123  0.278123  1
  B  B17  1  0.278123  0.278123  0.665631  1
  B  B18  1  0.278123  0.665631  0.278123  1
  B  B19  1  0.665631  0.278123  0.278123  1
  B  B20  1  0.334369  0.721877  0.721877  1
  B  B21  1  0.721877  0.334369  0.721877  1
  B  B22  1  0.721877  0.721877  0.334369  1
  B  B23  1  0.721877  0.721877  0.721877  1
  S  S24  1  0.125000  0.125000  0.125000  1
  S  S25  1  0.875000  0.875000  0.875000  1
  O  O26  1  0.061040  0.061040  0.061040  1
  O  O27  1  0.061040  0.316881  0.061040  1
  O  O28  1  0.061040  0.061040  0.316881  1
  O  O29  1  0.316881  0.061040  0.061040  1
  O  O30  1  0.129044  0.417888  0.287731  1
  O  O31  1  0.287731  0.129044  0.417888  1
  O  O32  1  0.129044  0.287731  0.665338  1
  O  O33  1  0.417888  0.287731  0.129044  1
  O  O34  1  0.129044  0.665338  0.417888  1
  O  O35  1  0.287731  0.665338  0.129044  1
  O  O36  1  0.417888  0.129044  0.665338  1
  O  O37  1  0.287731  0.417888  0.665338  1
  O  O38  1  0.665338  0.129044  0.287731  1
  O  O39  1  0.417888  0.665338  0.287731  1
  O  O40  1  0.665338  0.417888  0.129044  1
  O  O41  1  0.334662  0.712269  0.582112  1
  O  O42  1  0.665338  0.287731  0.417888  1
  O  O43  1  0.334662  0.582112  0.870956  1
  O  O44  1  0.582112  0.334662  0.712269  1
  O  O45  1  0.334662  0.870956  0.712269  1
  O  O46  1  0.712269  0.582112  0.334662  1
  O  O47  1  0.582112  0.870956  0.334662  1
  O  O48  1  0.712269  0.334662  0.870956  1
  O  O49  1  0.870956  0.334662  0.582112  1
  O  O50  1  0.582112  0.712269  0.870956  1
  O  O51  1  0.870956  0.712269  0.334662  1
  O  O52  1  0.712269  0.870956  0.582112  1
  O  O53  1  0.870956  0.582112  0.712269  1
  O  O54  1  0.683119  0.938960  0.938960  1
  O  O55  1  0.938960  0.683119  0.938960  1
  O  O56  1  0.938960  0.938960  0.683119  1
  O  O57  1  0.938960  0.938960  0.938960  1
