# generated using pymatgen
data_Y2TeO6
_symmetry_space_group_name_H-M   'P 1'
_cell_length_a   9.90855236
_cell_length_b   9.90855236
_cell_length_c   5.44070215
_cell_angle_alpha   75.97850155
_cell_angle_beta   104.02149845
_cell_angle_gamma   110.89928372
_symmetry_Int_Tables_number   1
_chemical_formula_structural   Y2TeO6
_chemical_formula_sum   'Y8 Te4 O24'
_cell_volume   476.94162403
_cell_formula_units_Z   4
loop_
 _symmetry_equiv_pos_site_id
 _symmetry_equiv_pos_as_xyz
  1  'x, y, z'
loop_
 _atom_site_type_symbol
 _atom_site_label
 _atom_site_symmetry_multiplicity
 _atom_site_fract_x
 _atom_site_fract_y
 _atom_site_fract_z
 _atom_site_occupancy
  Y  Y0  1  0.214656  0.564094  0.615426  1
  Y  Y1  1  0.435906  0.785344  0.115426  1
  Y  Y2  1  0.603232  0.603232  0.750000  1
  Y  Y3  1  0.122815  0.122815  0.750000  1
  Y  Y4  1  0.396768  0.396768  0.250000  1
  Y  Y5  1  0.877185  0.877185  0.250000  1
  Y  Y6  1  0.564094  0.214656  0.884574  1
  Y  Y7  1  0.785344  0.435906  0.384574  1
  Te  Te8  1  0.000167  0.694378  0.936705  1
  Te  Te9  1  0.305622  -0.000167  0.436705  1
  Te  Te10  1  0.694378  0.000167  0.563295  1
  Te  Te11  1  -0.000167  0.305622  0.063295  1
  O  O12  1  0.041843  0.886373  0.992055  1
  O  O13  1  0.113627  0.958156  0.492055  1
  O  O14  1  0.183900  0.712916  0.859791  1
  O  O15  1  0.443640  0.970457  0.740509  1
  O  O16  1  0.287084  0.816100  0.359791  1
  O  O17  1  0.029543  0.556360  0.240509  1
  O  O18  1  0.681447  0.880877  0.892877  1
  O  O19  1  0.424217  0.607173  0.924894  1
  O  O20  1  0.184994  0.344595  0.927715  1
  O  O21  1  0.119123  0.318553  0.392877  1
  O  O22  1  0.392827  0.575783  0.424894  1
  O  O23  1  0.655405  0.815006  0.427715  1
  O  O24  1  0.344595  0.184994  0.572285  1
  O  O25  1  0.607173  0.424217  0.575106  1
  O  O26  1  0.880877  0.681447  0.607123  1
  O  O27  1  0.815006  0.655405  0.072285  1
  O  O28  1  0.575783  0.392827  0.075106  1
  O  O29  1  0.318553  0.119123  0.107123  1
  O  O30  1  0.970457  0.443640  0.759491  1
  O  O31  1  0.712916  0.183900  0.640209  1
  O  O32  1  0.556360  0.029543  0.259491  1
  O  O33  1  0.816100  0.287084  0.140209  1
  O  O34  1  0.886373  0.041843  0.507945  1
  O  O35  1  0.958156  0.113627  0.007945  1
