# generated using pymatgen
data_Ni5(TeO6)2
_symmetry_space_group_name_H-M   'P 1'
_cell_length_a   5.18533646
_cell_length_b   5.18533723
_cell_length_c   9.94938680
_cell_angle_alpha   83.60187391
_cell_angle_beta   96.39812752
_cell_angle_gamma   58.66202739
_symmetry_Int_Tables_number   1
_chemical_formula_structural   Ni5(TeO6)2
_chemical_formula_sum   'Ni5 Te2 O12'
_cell_volume   222.49867225
_cell_formula_units_Z   1
loop_
 _symmetry_equiv_pos_site_id
 _symmetry_equiv_pos_as_xyz
  1  'x, y, z'
loop_
 _atom_site_type_symbol
 _atom_site_label
 _atom_site_symmetry_multiplicity
 _atom_site_fract_x
 _atom_site_fract_y
 _atom_site_fract_z
 _atom_site_occupancy
  Ni  Ni0  1  0.081866  0.081866  0.250000  1
  Ni  Ni1  1  0.001475  0.528079  0.993069  1
  Ni  Ni2  1  0.528079  0.001475  0.506931  1
  Ni  Ni3  1  0.421465  0.421465  0.250000  1
  Ni  Ni4  1  0.576071  0.576071  0.750000  1
  Te  Te5  1  0.247966  0.247966  0.750000  1
  Te  Te6  1  0.749899  0.749899  0.250000  1
  O  O7  1  0.959406  0.255317  0.866637  1
  O  O8  1  0.255317  0.959406  0.633363  1
  O  O9  1  0.128340  0.374535  0.360701  1
  O  O10  1  0.374535  0.128340  0.139299  1
  O  O11  1  0.318486  0.496532  0.861899  1
  O  O12  1  0.496532  0.318486  0.638101  1
  O  O13  1  0.483850  0.715574  0.363830  1
  O  O14  1  0.715574  0.483850  0.136170  1
  O  O15  1  0.591117  0.843289  0.859780  1
  O  O16  1  0.843289  0.591117  0.640220  1
  O  O17  1  0.789885  0.015425  0.364533  1
  O  O18  1  0.015425  0.789885  0.135467  1
