# generated using pymatgen
data_K2MnH8(SO6)2
_symmetry_space_group_name_H-M   'P 1'
_cell_length_a   13.05206796
_cell_length_b   12.20937368
_cell_length_c   13.05206796
_cell_angle_alpha   122.72090081
_cell_angle_beta   136.73260879
_cell_angle_gamma   75.52556776
_symmetry_Int_Tables_number   1
_chemical_formula_structural   K2MnH8(SO6)2
_chemical_formula_sum   'K8 Mn4 H32 S8 O48'
_cell_volume   1161.56302657
_cell_formula_units_Z   4
loop_
 _symmetry_equiv_pos_site_id
 _symmetry_equiv_pos_as_xyz
  1  'x, y, z'
loop_
 _atom_site_type_symbol
 _atom_site_label
 _atom_site_symmetry_multiplicity
 _atom_site_fract_x
 _atom_site_fract_y
 _atom_site_fract_z
 _atom_site_occupancy
  K  K0  1  0.362259  0.459950  0.063451  1
  K  K1  1  0.603501  0.040050  0.402309  1
  K  K2  1  0.637741  0.540050  0.936549  1
  K  K3  1  0.396499  0.959950  0.597691  1
  K  K4  1  0.881324  0.452180  0.589699  1
  K  K5  1  0.137519  0.047820  0.929144  1
  K  K6  1  0.118676  0.547820  0.410301  1
  K  K7  1  0.862481  0.952180  0.070856  1
  Mn  Mn8  1  0.750843  0.750000  0.500843  1
  Mn  Mn9  1  0.249157  0.250000  0.499157  1
  Mn  Mn10  1  0.000000  0.500000  0.000000  1
  Mn  Mn11  1  0.500000  0.000000  0.000000  1
  H  H12  1  0.297881  0.634806  0.321801  1
  H  H13  1  0.686995  0.865194  0.163075  1
  H  H14  1  0.702119  0.365194  0.678199  1
  H  H15  1  0.313005  0.134806  0.836925  1
  H  H16  1  0.255985  0.700171  0.222491  1
  H  H17  1  0.522319  0.799829  0.055814  1
  H  H18  1  0.744015  0.299829  0.777509  1
  H  H19  1  0.477681  0.200171  0.944186  1
  H  H20  1  0.804909  0.632769  0.825768  1
  H  H21  1  0.192999  0.867231  0.672139  1
  H  H22  1  0.195091  0.367231  0.174232  1
  H  H23  1  0.807001  0.132769  0.327861  1
  H  H24  1  0.973501  0.701388  0.943652  1
  H  H25  1  0.242264  0.798612  0.772113  1
  H  H26  1  0.026499  0.298612  0.056348  1
  H  H27  1  0.757736  0.201388  0.227887  1
  H  H28  1  0.443356  0.786811  0.269372  1
  H  H29  1  0.482561  0.713189  0.156546  1
  H  H30  1  0.556644  0.213189  0.730628  1
  H  H31  1  0.517439  0.286811  0.843454  1
  H  H32  1  0.018357  0.787237  0.844367  1
  H  H33  1  0.057130  0.712763  0.731121  1
  H  H34  1  0.981643  0.212763  0.155633  1
  H  H35  1  0.942870  0.287237  0.268879  1
  H  H36  1  0.632131  0.683122  0.591928  1
  H  H37  1  0.908805  0.816878  0.449009  1
  H  H38  1  0.367869  0.316878  0.408072  1
  H  H39  1  0.091195  0.183122  0.550991  1
  H  H40  1  0.600828  0.550945  0.434093  1
  H  H41  1  0.883148  0.949055  0.549883  1
  H  H42  1  0.399172  0.449055  0.565907  1
  H  H43  1  0.116852  0.050945  0.450117  1
  S  S44  1  0.269952  0.565931  0.790768  1
  S  S45  1  0.224837  0.934069  0.204021  1
  S  S46  1  0.730048  0.434069  0.209232  1
  S  S47  1  0.775163  0.065931  0.795979  1
  S  S48  1  0.018403  0.221625  0.720442  1
  S  S49  1  0.498817  0.278375  0.296778  1
  S  S50  1  0.981597  0.778375  0.279558  1
  S  S51  1  0.501183  0.721625  0.703222  1
  O  O52  1  0.431956  0.648562  0.969056  1
  O  O53  1  0.320495  0.851438  0.283394  1
  O  O54  1  0.568044  0.351438  0.030944  1
  O  O55  1  0.679505  0.148562  0.716606  1
  O  O56  1  0.062435  0.849952  0.029154  1
  O  O57  1  0.179202  0.650048  0.712483  1
  O  O58  1  0.937565  0.150048  0.970846  1
  O  O59  1  0.820798  0.349952  0.287517  1
  O  O60  1  0.642361  0.699445  0.742476  1
  O  O61  1  0.043031  0.800555  0.442916  1
  O  O62  1  0.357639  0.300555  0.257524  1
  O  O63  1  0.956969  0.199445  0.557084  1
  O  O64  1  0.370431  0.699884  0.523467  1
  O  O65  1  0.823583  0.800116  0.170547  1
  O  O66  1  0.629569  0.300116  0.476533  1
  O  O67  1  0.176417  0.199884  0.829453  1
  O  O68  1  0.780578  0.952509  0.672795  1
  O  O69  1  0.720286  0.547491  0.328069  1
  O  O70  1  0.219422  0.047491  0.327205  1
  O  O71  1  0.279714  0.452509  0.671931  1
  O  O72  1  0.194507  0.517480  0.809502  1
  O  O73  1  0.292022  0.982520  0.177027  1
  O  O74  1  0.805493  0.482520  0.190498  1
  O  O75  1  0.707978  0.017480  0.822973  1
  O  O76  1  0.027072  0.365404  0.826676  1
  O  O77  1  0.461272  0.134596  0.161668  1
  O  O78  1  0.972928  0.634596  0.173324  1
  O  O79  1  0.538728  0.865404  0.838332  1
  O  O80  1  0.915923  0.129271  0.672014  1
  O  O81  1  0.542743  0.370729  0.286651  1
  O  O82  1  0.084077  0.870729  0.327986  1
  O  O83  1  0.457257  0.629271  0.713349  1
  O  O84  1  0.240895  0.612098  0.202919  1
  O  O85  1  0.590821  0.887902  0.128798  1
  O  O86  1  0.759105  0.387902  0.797081  1
  O  O87  1  0.409179  0.112098  0.871202  1
  O  O88  1  0.905629  0.613621  0.873128  1
  O  O89  1  0.259507  0.886379  0.792008  1
  O  O90  1  0.094371  0.386379  0.126872  1
  O  O91  1  0.740493  0.113621  0.207992  1
  O  O92  1  0.522471  0.750000  0.272471  1
  O  O93  1  0.477529  0.250000  0.727529  1
  O  O94  1  0.978504  0.750000  0.728504  1
  O  O95  1  0.021496  0.250000  0.271496  1
  O  O96  1  0.637488  0.650363  0.508133  1
  O  O97  1  0.857770  0.849637  0.487125  1
  O  O98  1  0.362512  0.349637  0.491867  1
  O  O99  1  0.142230  0.150363  0.512875  1
