# generated using pymatgen
data_Li4Mn3Fe(BO3)4
_symmetry_space_group_name_H-M   'P 1'
_cell_length_a   7.96155311
_cell_length_b   5.28293566
_cell_length_c   6.24850943
_cell_angle_alpha   88.72725505
_cell_angle_beta   77.55414990
_cell_angle_gamma   88.06124180
_symmetry_Int_Tables_number   1
_chemical_formula_structural   Li4Mn3Fe(BO3)4
_chemical_formula_sum   'Li4 Mn3 Fe1 B4 O12'
_cell_volume   256.46163823
_cell_formula_units_Z   1
loop_
 _symmetry_equiv_pos_site_id
 _symmetry_equiv_pos_as_xyz
  1  'x, y, z'
loop_
 _atom_site_type_symbol
 _atom_site_label
 _atom_site_symmetry_multiplicity
 _atom_site_fract_x
 _atom_site_fract_y
 _atom_site_fract_z
 _atom_site_occupancy
  Li  Li0  1  0.802727  0.566205  0.870150  1
  Li  Li1  1  0.697295  0.932776  0.630434  1
  Li  Li2  1  0.301552  0.065332  0.368481  1
  Li  Li3  1  0.197797  0.432061  0.130354  1
  Mn  Mn4  1  0.823773  0.428407  0.410308  1
  Mn  Mn5  1  0.676868  0.069137  0.091698  1
  Mn  Mn6  1  0.177233  0.573186  0.590864  1
  Fe  Fe7  1  0.326699  0.931951  0.907493  1
  B  B8  1  0.495933  0.430599  0.765272  1
  B  B9  1  0.000049  0.926388  0.261562  1
  B  B10  1  0.002382  0.072926  0.737643  1
  B  B11  1  0.500994  0.571677  0.235532  1
  O  O12  1  0.973977  0.330967  0.703624  1
  O  O13  1  0.867306  0.921176  0.834070  1
  O  O14  1  0.834899  0.035273  0.340220  1
  O  O15  1  0.519763  0.169241  0.794825  1
  O  O16  1  0.632195  0.576885  0.666244  1
  O  O17  1  0.332979  0.543886  0.845072  1
  O  O18  1  0.666282  0.463351  0.158331  1
  O  O19  1  0.367672  0.419592  0.335538  1
  O  O20  1  0.472782  0.829963  0.202924  1
  O  O21  1  0.167599  0.964929  0.662252  1
  O  O22  1  0.133919  0.075803  0.160302  1
  O  O23  1  0.027323  0.668288  0.296805  1
