# generated using pymatgen
data_Fe3(OF2)2
_symmetry_space_group_name_H-M   'P 1'
_cell_length_a   7.44762350
_cell_length_b   5.71705067
_cell_length_c   5.74684866
_cell_angle_alpha   73.73218517
_cell_angle_beta   72.03257776
_cell_angle_gamma   71.61674281
_symmetry_Int_Tables_number   1
_chemical_formula_structural   Fe3(OF2)2
_chemical_formula_sum   'Fe6 O4 F8'
_cell_volume   216.30205241
_cell_formula_units_Z   2
loop_
 _symmetry_equiv_pos_site_id
 _symmetry_equiv_pos_as_xyz
  1  'x, y, z'
loop_
 _atom_site_type_symbol
 _atom_site_label
 _atom_site_symmetry_multiplicity
 _atom_site_fract_x
 _atom_site_fract_y
 _atom_site_fract_z
 _atom_site_occupancy
  Fe  Fe0  1  0.840969  0.677639  0.699774  1
  Fe  Fe1  1  0.670438  0.360263  0.308691  1
  Fe  Fe2  1  0.314049  0.647234  0.650138  1
  Fe  Fe3  1  0.166914  0.326841  0.331752  1
  Fe  Fe4  1  0.501092  0.986348  0.998929  1
  Fe  Fe5  1  0.000939  0.003013  0.014414  1
  O  O6  1  0.958280  0.225975  0.228008  1
  O  O7  1  0.036194  0.777429  0.779698  1
  O  O8  1  0.380851  0.427545  0.430833  1
  O  O9  1  0.670682  0.635530  0.021569  1
  F  F10  1  0.674779  0.030205  0.616844  1
  F  F11  1  0.341733  0.360565  0.956315  1
  F  F12  1  0.290638  0.897356  0.891831  1
  F  F13  1  0.632805  0.571662  0.566983  1
  F  F14  1  0.705469  0.101668  0.098981  1
  F  F15  1  0.335647  0.953894  0.375020  1
  F  F16  1  0.990888  0.312115  0.709048  1
  F  F17  1  0.987632  0.704716  0.321170  1
