# generated using pymatgen
data_Li2Mn(SiO3)2
_symmetry_space_group_name_H-M   'P 1'
_cell_length_a   10.27872644
_cell_length_b   10.14167949
_cell_length_c   7.20112367
_cell_angle_alpha   90.00000000
_cell_angle_beta   90.00000000
_cell_angle_gamma   90.00000000
_symmetry_Int_Tables_number   1
_chemical_formula_structural   Li2Mn(SiO3)2
_chemical_formula_sum   'Li12 Mn6 Si12 O36'
_cell_volume   750.67068901
_cell_formula_units_Z   6
loop_
 _symmetry_equiv_pos_site_id
 _symmetry_equiv_pos_as_xyz
  1  'x, y, z'
loop_
 _atom_site_type_symbol
 _atom_site_label
 _atom_site_symmetry_multiplicity
 _atom_site_fract_x
 _atom_site_fract_y
 _atom_site_fract_z
 _atom_site_occupancy
  Li  Li0  1  0.000000  0.495530  0.497924  1
  Li  Li1  1  0.000000  0.739985  0.725495  1
  Li  Li2  1  0.210309  0.450990  0.292960  1
  Li  Li3  1  0.227039  0.508219  0.749483  1
  Li  Li4  1  0.272961  0.008219  0.250517  1
  Li  Li5  1  0.289691  0.950990  0.707040  1
  Li  Li6  1  0.500000  0.239985  0.274505  1
  Li  Li7  1  0.500000  0.995530  0.502076  1
  Li  Li8  1  0.710309  0.950990  0.707040  1
  Li  Li9  1  0.727039  0.008219  0.250517  1
  Li  Li10  1  0.772961  0.508219  0.749483  1
  Li  Li11  1  0.789691  0.450990  0.292960  1
  Mn  Mn12  1  0.000000  0.004894  0.982690  1
  Mn  Mn13  1  0.000000  0.241913  0.249689  1
  Mn  Mn14  1  0.000000  0.255631  0.735551  1
  Mn  Mn15  1  0.500000  0.504894  0.017310  1
  Mn  Mn16  1  0.500000  0.755631  0.264449  1
  Mn  Mn17  1  0.500000  0.741913  0.750311  1
  Si  Si18  1  0.000000  0.534375  0.993069  1
  Si  Si19  1  0.000000  0.959974  0.508489  1
  Si  Si20  1  0.226612  0.754239  0.021658  1
  Si  Si21  1  0.223106  0.745008  0.468938  1
  Si  Si22  1  0.276894  0.245008  0.531062  1
  Si  Si23  1  0.273388  0.254239  0.978342  1
  Si  Si24  1  0.500000  0.459974  0.491511  1
  Si  Si25  1  0.500000  0.034375  0.006931  1
  Si  Si26  1  0.726612  0.254239  0.978342  1
  Si  Si27  1  0.723106  0.245008  0.531062  1
  Si  Si28  1  0.776894  0.745008  0.468938  1
  Si  Si29  1  0.773388  0.754239  0.021658  1
  O  O30  1  0.000000  0.018623  0.300007  1
  O  O31  1  0.000000  0.466784  0.195150  1
  O  O32  1  0.000000  0.061702  0.682507  1
  O  O33  1  0.000000  0.447692  0.802528  1
  O  O34  1  0.121330  0.856021  0.557100  1
  O  O35  1  0.126660  0.633636  0.955190  1
  O  O36  1  0.128674  0.198793  0.021055  1
  O  O37  1  0.134868  0.295920  0.461860  1
  O  O38  1  0.175225  0.597925  0.519661  1
  O  O39  1  0.179034  0.891824  0.930094  1
  O  O40  1  0.217908  0.779871  0.246440  1
  O  O41  1  0.282092  0.279871  0.753560  1
  O  O42  1  0.320966  0.391824  0.069906  1
  O  O43  1  0.324775  0.097925  0.480339  1
  O  O44  1  0.365132  0.795920  0.538140  1
  O  O45  1  0.371326  0.698793  0.978945  1
  O  O46  1  0.373340  0.133636  0.044810  1
  O  O47  1  0.378670  0.356021  0.442900  1
  O  O48  1  0.500000  0.518623  0.699993  1
  O  O49  1  0.500000  0.561702  0.317493  1
  O  O50  1  0.500000  0.966784  0.804850  1
  O  O51  1  0.500000  0.947692  0.197472  1
  O  O52  1  0.621330  0.356021  0.442900  1
  O  O53  1  0.626660  0.133636  0.044810  1
  O  O54  1  0.628674  0.698793  0.978945  1
  O  O55  1  0.634868  0.795920  0.538140  1
  O  O56  1  0.675225  0.097925  0.480339  1
  O  O57  1  0.679034  0.391824  0.069906  1
  O  O58  1  0.717908  0.279871  0.753560  1
  O  O59  1  0.782092  0.779871  0.246440  1
  O  O60  1  0.820966  0.891824  0.930094  1
  O  O61  1  0.824775  0.597925  0.519661  1
  O  O62  1  0.865132  0.295920  0.461860  1
  O  O63  1  0.871326  0.198793  0.021055  1
  O  O64  1  0.873340  0.633636  0.955190  1
  O  O65  1  0.878670  0.856021  0.557100  1
