# generated using pymatgen
data_Gd2P4O13
_symmetry_space_group_name_H-M   'P 1'
_cell_length_a   6.85509731
_cell_length_b   6.93601989
_cell_length_c   13.13238955
_cell_angle_alpha   76.24407555
_cell_angle_beta   90.00000000
_cell_angle_gamma   60.38520158
_symmetry_Int_Tables_number   1
_chemical_formula_structural   Gd2P4O13
_chemical_formula_sum   'Gd4 P8 O26'
_cell_volume   522.13906440
_cell_formula_units_Z   2
loop_
 _symmetry_equiv_pos_site_id
 _symmetry_equiv_pos_as_xyz
  1  'x, y, z'
loop_
 _atom_site_type_symbol
 _atom_site_label
 _atom_site_symmetry_multiplicity
 _atom_site_fract_x
 _atom_site_fract_y
 _atom_site_fract_z
 _atom_site_occupancy
  Gd  Gd0  1  0.311793  0.380969  0.949283  1
  Gd  Gd1  1  0.692764  0.619031  0.550717  1
  Gd  Gd2  1  0.307236  0.380969  0.449283  1
  Gd  Gd3  1  0.688207  0.619031  0.050717  1
  P  P4  1  0.156494  0.978394  0.865047  1
  P  P5  1  0.865111  0.978394  0.365047  1
  P  P6  1  0.773697  0.465370  0.841030  1
  P  P7  1  0.239066  0.534630  0.658970  1
  P  P8  1  0.760934  0.465370  0.341030  1
  P  P9  1  0.226303  0.534630  0.158970  1
  P  P10  1  0.134889  0.021606  0.634953  1
  P  P11  1  0.843506  0.021606  0.134953  1
  O  O12  1  0.320915  0.993155  0.937264  1
  O  O13  1  0.122059  0.776934  0.895945  1
  O  O14  1  0.685930  0.993155  0.437264  1
  O  O15  1  0.101400  0.805182  0.653816  1
  O  O16  1  0.925088  0.509826  0.906440  1
  O  O17  1  0.576491  0.499491  0.904518  1
  O  O18  1  0.706049  0.600342  0.725978  1
  O  O19  1  0.101007  0.776934  0.395945  1
  O  O20  1  0.093417  0.805182  0.153816  1
  O  O21  1  0.306391  0.399658  0.774022  1
  O  O22  1  0.075983  0.500509  0.595482  1
  O  O23  1  0.434915  0.490174  0.593560  1
  O  O24  1  0.565085  0.509826  0.406440  1
  O  O25  1  0.924017  0.499491  0.404518  1
  O  O26  1  0.693609  0.600342  0.225978  1
  O  O27  1  0.906583  0.194818  0.846184  1
  O  O28  1  0.898993  0.223066  0.604055  1
  O  O29  1  0.293951  0.399658  0.274022  1
  O  O30  1  0.423509  0.500509  0.095482  1
  O  O31  1  0.074912  0.490174  0.093560  1
  O  O32  1  0.239538  0.000000  0.750000  1
  O  O33  1  0.898600  0.194818  0.346184  1
  O  O34  1  0.314070  0.006845  0.562736  1
  O  O35  1  0.877941  0.223066  0.104055  1
  O  O36  1  0.760462  1.000000  0.250000  1
  O  O37  1  0.679085  0.006845  0.062736  1
