# generated using pymatgen
data_ZnP2H11C2NO8
_symmetry_space_group_name_H-M   'P 1'
_cell_length_a   8.51163974
_cell_length_b   8.51163974
_cell_length_c   14.67617845
_cell_angle_alpha   83.05294949
_cell_angle_beta   96.94705051
_cell_angle_gamma   97.08380842
_symmetry_Int_Tables_number   1
_chemical_formula_structural   ZnP2H11C2NO8
_chemical_formula_sum   'Zn4 P8 H44 C8 N4 O32'
_cell_volume   1041.31172592
_cell_formula_units_Z   4
loop_
 _symmetry_equiv_pos_site_id
 _symmetry_equiv_pos_as_xyz
  1  'x, y, z'
loop_
 _atom_site_type_symbol
 _atom_site_label
 _atom_site_symmetry_multiplicity
 _atom_site_fract_x
 _atom_site_fract_y
 _atom_site_fract_z
 _atom_site_occupancy
  Zn  Zn0  1  0.773418  0.988231  0.928166  1
  Zn  Zn1  1  0.011769  0.226582  0.428166  1
  Zn  Zn2  1  0.521462  0.211661  0.492974  1
  Zn  Zn3  1  0.788339  0.478538  0.992974  1
  P  P4  1  0.029724  0.762348  0.887165  1
  P  P5  1  0.237652  0.970276  0.387165  1
  P  P6  1  0.295669  0.458985  0.539132  1
  P  P7  1  0.541015  0.704331  0.039132  1
  P  P8  1  0.656437  0.302265  0.813376  1
  P  P9  1  0.697735  0.343563  0.313376  1
  P  P10  1  0.834164  0.095334  0.612997  1
  P  P11  1  0.904666  0.165836  0.112997  1
  H  H12  1  0.196125  0.853403  0.677448  1
  H  H13  1  0.360661  0.965600  0.624407  1
  H  H14  1  0.146597  0.803875  0.177448  1
  H  H15  1  0.034400  0.639339  0.124407  1
  H  H16  1  0.379044  0.650134  0.739724  1
  H  H17  1  0.198158  0.379095  0.929115  1
  H  H18  1  0.542876  0.770215  0.692325  1
  H  H19  1  0.554782  0.706742  0.814159  1
  H  H20  1  0.100547  0.236819  0.853343  1
  H  H21  1  0.349866  0.620956  0.239724  1
  H  H22  1  0.620905  0.801842  0.429115  1
  H  H23  1  0.229785  0.457124  0.192325  1
  H  H24  1  0.313445  0.286025  0.861369  1
  H  H25  1  0.293258  0.445218  0.314159  1
  H  H26  1  0.763181  0.899453  0.353343  1
  H  H27  1  0.713975  0.686555  0.361369  1
  H  H28  1  0.718820  0.638930  0.574225  1
  H  H29  1  0.253597  0.055808  0.698643  1
  H  H30  1  0.361070  0.281180  0.074225  1
  H  H31  1  0.927505  0.621355  0.597268  1
  H  H32  1  0.810006  0.524020  0.505405  1
  H  H33  1  0.944192  0.746403  0.198643  1
  H  H34  1  0.378645  0.072495  0.097268  1
  H  H35  1  0.475980  0.189994  0.005405  1
  H  H36  1  0.069411  0.579941  0.802624  1
  H  H37  1  0.345158  0.867836  0.825148  1
  H  H38  1  0.499133  0.981540  0.782358  1
  H  H39  1  0.420059  0.930589  0.302624  1
  H  H40  1  0.132164  0.654842  0.325148  1
  H  H41  1  0.287686  0.701916  0.471607  1
  H  H42  1  0.018460  0.500867  0.282358  1
  H  H43  1  0.244432  0.393696  0.680257  1
  H  H44  1  0.298084  0.712314  0.971607  1
  H  H45  1  0.873747  0.918357  0.736047  1
  H  H46  1  0.606304  0.755568  0.180257  1
  H  H47  1  0.876675  0.877363  0.508818  1
  H  H48  1  0.229672  0.030197  0.950711  1
  H  H49  1  0.081643  0.126253  0.236047  1
  H  H50  1  0.496136  0.333222  0.682230  1
  H  H51  1  0.122637  0.123325  0.008819  1
  H  H52  1  0.969803  0.770328  0.450711  1
  H  H53  1  0.666778  0.503864  0.182230  1
  H  H54  1  0.865025  0.291325  0.712063  1
  H  H55  1  0.708675  0.134975  0.212063  1
  C  C56  1  0.296932  0.945425  0.685939  1
  C  C57  1  0.054575  0.703068  0.185939  1
  C  C58  1  0.476413  0.743874  0.752739  1
  C  C59  1  0.208325  0.269171  0.899209  1
  C  C60  1  0.256126  0.523587  0.252739  1
  C  C61  1  0.730829  0.791675  0.399209  1
  C  C62  1  0.827414  0.629079  0.543258  1
  C  C63  1  0.370921  0.172586  0.043258  1
  N  N64  1  0.407394  0.890546  0.767099  1
  N  N65  1  0.109454  0.592606  0.267099  1
  N  N66  1  0.227397  0.139858  0.976429  1
  N  N67  1  0.860142  0.772603  0.476429  1
  O  O68  1  0.200854  0.833630  0.919969  1
  O  O69  1  0.041571  0.688946  0.791873  1
  O  O70  1  0.166370  0.799146  0.419969  1
  O  O71  1  0.311054  0.958429  0.291873  1
  O  O72  1  0.595089  0.834289  0.965858  1
  O  O73  1  0.220633  0.479910  0.631987  1
  O  O74  1  0.372509  0.629901  0.505681  1
  O  O75  1  0.165711  0.404911  0.465858  1
  O  O76  1  0.520090  0.779367  0.131987  1
  O  O77  1  0.853635  0.923627  0.667381  1
  O  O78  1  0.370099  0.627491  0.005681  1
  O  O79  1  0.919844  0.894746  0.856761  1
  O  O80  1  0.076373  0.146365  0.167381  1
  O  O81  1  0.425990  0.348560  0.568122  1
  O  O82  1  0.105254  0.080156  0.356761  1
  O  O83  1  0.494546  0.338900  0.749753  1
  O  O84  1  0.643120  0.378198  0.900958  1
  O  O85  1  0.968189  0.630331  0.958062  1
  O  O86  1  0.651440  0.574010  0.068122  1
  O  O87  1  0.661100  0.505454  0.249753  1
  O  O88  1  0.621802  0.356880  0.400958  1
  O  O89  1  0.800830  0.373207  0.763096  1
  O  O90  1  0.369669  0.031811  0.458062  1
  O  O91  1  0.646821  0.117477  0.832877  1
  O  O92  1  0.656966  0.115093  0.596327  1
  O  O93  1  0.626793  0.199170  0.263096  1
  O  O94  1  0.882523  0.353179  0.332877  1
  O  O95  1  0.931746  0.224154  0.669304  1
  O  O96  1  0.884907  0.343034  0.096327  1
  O  O97  1  0.907776  0.084848  0.522799  1
  O  O98  1  0.775846  0.068254  0.169304  1
  O  O99  1  0.915152  0.092224  0.022799  1
