# generated using pymatgen
data_Fe6O5F7
_symmetry_space_group_name_H-M   'P 1'
_cell_length_a   4.79540127
_cell_length_b   4.79540127
_cell_length_c   9.25405945
_cell_angle_alpha   90.00000000
_cell_angle_beta   90.00000000
_cell_angle_gamma   94.97720765
_symmetry_Int_Tables_number   1
_chemical_formula_structural   Fe6O5F7
_chemical_formula_sum   'Fe6 O5 F7'
_cell_volume   212.00275234
_cell_formula_units_Z   1
loop_
 _symmetry_equiv_pos_site_id
 _symmetry_equiv_pos_as_xyz
  1  'x, y, z'
loop_
 _atom_site_type_symbol
 _atom_site_label
 _atom_site_symmetry_multiplicity
 _atom_site_fract_x
 _atom_site_fract_y
 _atom_site_fract_z
 _atom_site_occupancy
  Fe  Fe0  1  0.994011  0.994011  0.998510  1
  Fe  Fe1  1  0.994011  0.994011  0.334823  1
  Fe  Fe2  1  0.023667  0.023667  0.666667  1
  Fe  Fe3  1  0.498061  0.498061  0.166667  1
  Fe  Fe4  1  0.488892  0.488892  0.841792  1
  Fe  Fe5  1  0.488892  0.488892  0.491541  1
  O  O6  1  0.293831  0.293831  0.003359  1
  O  O7  1  0.293831  0.293831  0.329975  1
  O  O8  1  0.330260  0.330260  0.666667  1
  O  O9  1  0.697012  0.697012  0.000102  1
  O  O10  1  0.697012  0.697012  0.333232  1
  F  F11  1  0.186310  0.803944  0.166667  1
  F  F12  1  0.200402  0.800511  0.494256  1
  F  F13  1  0.200402  0.800511  0.839077  1
  F  F14  1  0.708442  0.708442  0.666667  1
  F  F15  1  0.803944  0.186310  0.166667  1
  F  F16  1  0.800511  0.200402  0.839077  1
  F  F17  1  0.800511  0.200402  0.494256  1
