# generated using pymatgen
data_Ba4Ce2O7
_symmetry_space_group_name_H-M   'P 1'
_cell_length_a   19.19785121
_cell_length_b   11.37933552
_cell_length_c   7.86691282
_cell_angle_alpha   90.00000000
_cell_angle_beta   91.26491590
_cell_angle_gamma   90.00000000
_symmetry_Int_Tables_number   1
_chemical_formula_structural   Ba4Ce2O7
_chemical_formula_sum   'Ba24 Ce12 O42'
_cell_volume   1718.17746079
_cell_formula_units_Z   6
loop_
 _symmetry_equiv_pos_site_id
 _symmetry_equiv_pos_as_xyz
  1  'x, y, z'
loop_
 _atom_site_type_symbol
 _atom_site_label
 _atom_site_symmetry_multiplicity
 _atom_site_fract_x
 _atom_site_fract_y
 _atom_site_fract_z
 _atom_site_occupancy
  Ba  Ba0  1  0.085761  0.400867  0.836695  1
  Ba  Ba1  1  0.089119  0.752166  0.974396  1
  Ba  Ba2  1  0.085761  0.099133  0.336695  1
  Ba  Ba3  1  0.089119  0.747834  0.474396  1
  Ba  Ba4  1  0.248851  0.944236  0.698664  1
  Ba  Ba5  1  0.254145  0.271907  0.531296  1
  Ba  Ba6  1  0.248851  0.555764  0.198664  1
  Ba  Ba7  1  0.254145  0.228093  0.031296  1
  Ba  Ba8  1  0.419682  0.779230  0.016068  1
  Ba  Ba9  1  0.410151  0.445159  0.832773  1
  Ba  Ba10  1  0.419682  0.720770  0.516068  1
  Ba  Ba11  1  0.410151  0.054841  0.332773  1
  Ba  Ba12  1  0.589849  0.945159  0.667227  1
  Ba  Ba13  1  0.580318  0.279230  0.483932  1
  Ba  Ba14  1  0.589849  0.554841  0.167227  1
  Ba  Ba15  1  0.580318  0.220770  0.983932  1
  Ba  Ba16  1  0.745855  0.771907  0.968704  1
  Ba  Ba17  1  0.751149  0.444236  0.801336  1
  Ba  Ba18  1  0.745855  0.728093  0.468704  1
  Ba  Ba19  1  0.751149  0.055764  0.301336  1
  Ba  Ba20  1  0.910881  0.252166  0.525604  1
  Ba  Ba21  1  0.914239  0.900867  0.663305  1
  Ba  Ba22  1  0.910881  0.247834  0.025604  1
  Ba  Ba23  1  0.914239  0.599133  0.163305  1
  Ce  Ce24  1  0.081286  0.075252  0.826156  1
  Ce  Ce25  1  0.081286  0.424748  0.326156  1
  Ce  Ce26  1  0.240843  0.577552  0.689287  1
  Ce  Ce27  1  0.240843  0.922448  0.189287  1
  Ce  Ce28  1  0.417056  0.079762  0.822497  1
  Ce  Ce29  1  0.417056  0.420238  0.322497  1
  Ce  Ce30  1  0.582944  0.579762  0.677503  1
  Ce  Ce31  1  0.582944  0.920238  0.177503  1
  Ce  Ce32  1  0.759157  0.077552  0.810713  1
  Ce  Ce33  1  0.759157  0.422448  0.310713  1
  Ce  Ce34  1  0.918714  0.575252  0.673844  1
  Ce  Ce35  1  0.918714  0.924748  0.173844  1
  O  O36  1  0.002393  0.208458  0.786591  1
  O  O37  1  0.002393  0.291542  0.286591  1
  O  O38  1  0.078085  0.959081  0.611938  1
  O  O39  1  0.078085  0.540919  0.111938  1
  O  O40  1  0.162574  0.194307  0.764715  1
  O  O41  1  0.147928  0.504904  0.551791  1
  O  O42  1  0.162574  0.305693  0.264715  1
  O  O43  1  0.147928  0.995096  0.051791  1
  O  O44  1  0.195673  0.744290  0.754831  1
  O  O45  1  0.237591  0.456369  0.899786  1
  O  O46  1  0.195673  0.755710  0.254831  1
  O  O47  1  0.237591  0.043631  0.399786  1
  O  O48  1  0.331490  0.500946  0.529502  1
  O  O49  1  0.349906  0.232456  0.783734  1
  O  O50  1  0.331490  0.999054  0.029502  1
  O  O51  1  0.349906  0.267544  0.283734  1
  O  O52  1  0.389932  0.937222  0.644704  1
  O  O53  1  0.389932  0.562778  0.144704  1
  O  O54  1  0.489474  0.653575  0.810328  1
  O  O55  1  0.510526  0.153575  0.689672  1
  O  O56  1  0.500000  0.500000  0.500000  1
  O  O57  1  0.489474  0.846425  0.310328  1
  O  O58  1  0.510526  0.346425  0.189672  1
  O  O59  1  0.500000  0.000000  0.000000  1
  O  O60  1  0.610068  0.437222  0.855296  1
  O  O61  1  0.610068  0.062778  0.355296  1
  O  O62  1  0.650094  0.732456  0.716266  1
  O  O63  1  0.668510  0.000946  0.970498  1
  O  O64  1  0.650094  0.767544  0.216266  1
  O  O65  1  0.668510  0.499054  0.470498  1
  O  O66  1  0.762409  0.956369  0.600214  1
  O  O67  1  0.804327  0.244290  0.745169  1
  O  O68  1  0.762409  0.543631  0.100214  1
  O  O69  1  0.804327  0.255710  0.245169  1
  O  O70  1  0.852072  0.004904  0.948209  1
  O  O71  1  0.837426  0.694307  0.735285  1
  O  O72  1  0.852072  0.495096  0.448209  1
  O  O73  1  0.837426  0.805693  0.235285  1
  O  O74  1  0.921915  0.459081  0.888062  1
  O  O75  1  0.921915  0.040919  0.388062  1
  O  O76  1  0.997607  0.708458  0.713409  1
  O  O77  1  0.997607  0.791542  0.213409  1
