# generated using pymatgen
data_Mn2O3F
_symmetry_space_group_name_H-M   'P 1'
_cell_length_a   4.59186451
_cell_length_b   10.18173052
_cell_length_c   5.52356672
_cell_angle_alpha   83.12713195
_cell_angle_beta   90.00000000
_cell_angle_gamma   90.00000000
_symmetry_Int_Tables_number   1
_chemical_formula_structural   Mn2O3F
_chemical_formula_sum   'Mn8 O12 F4'
_cell_volume   256.38830593
_cell_formula_units_Z   4
loop_
 _symmetry_equiv_pos_site_id
 _symmetry_equiv_pos_as_xyz
  1  'x, y, z'
loop_
 _atom_site_type_symbol
 _atom_site_label
 _atom_site_symmetry_multiplicity
 _atom_site_fract_x
 _atom_site_fract_y
 _atom_site_fract_z
 _atom_site_occupancy
  Mn  Mn0  1  0.522120  0.989246  0.504883  1
  Mn  Mn1  1  0.477880  0.510754  0.995117  1
  Mn  Mn2  1  0.500000  0.750000  0.250000  1
  Mn  Mn3  1  0.500000  0.250000  0.750000  1
  Mn  Mn4  1  0.000000  0.750000  0.750000  1
  Mn  Mn5  1  0.977880  0.489246  0.504883  1
  Mn  Mn6  1  0.000000  0.250000  0.250000  1
  Mn  Mn7  1  0.022120  0.010754  0.995117  1
  O  O8  1  0.796632  0.574425  0.767087  1
  O  O9  1  0.805803  0.322234  0.526693  1
  O  O10  1  0.801333  0.078751  0.258995  1
  O  O11  1  0.694197  0.822234  0.526693  1
  O  O12  1  0.703368  0.074425  0.767087  1
  O  O13  1  0.698667  0.578751  0.258995  1
  O  O14  1  0.296632  0.425575  0.732913  1
  O  O15  1  0.301333  0.921249  0.241005  1
  O  O16  1  0.305803  0.677766  0.973307  1
  O  O17  1  0.194197  0.177766  0.973307  1
  O  O18  1  0.198667  0.421249  0.241005  1
  O  O19  1  0.203368  0.925575  0.732913  1
  F  F20  1  0.816564  0.840130  0.030616  1
  F  F21  1  0.683436  0.340130  0.030616  1
  F  F22  1  0.316564  0.159870  0.469384  1
  F  F23  1  0.183436  0.659870  0.469384  1
