# generated using pymatgen
data_LiAgF4
_symmetry_space_group_name_H-M   'P 1'
_cell_length_a   7.75370970
_cell_length_b   8.13192529
_cell_length_c   5.48991919
_cell_angle_alpha   90.00000000
_cell_angle_beta   71.70707627
_cell_angle_gamma   90.00000000
_symmetry_Int_Tables_number   1
_chemical_formula_structural   LiAgF4
_chemical_formula_sum   'Li4 Ag4 F16'
_cell_volume   328.66048036
_cell_formula_units_Z   4
loop_
 _symmetry_equiv_pos_site_id
 _symmetry_equiv_pos_as_xyz
  1  'x, y, z'
loop_
 _atom_site_type_symbol
 _atom_site_label
 _atom_site_symmetry_multiplicity
 _atom_site_fract_x
 _atom_site_fract_y
 _atom_site_fract_z
 _atom_site_occupancy
  Li  Li0  1  0.141708  0.250000  0.421467  1
  Li  Li1  1  0.448429  0.750000  0.975481  1
  Li  Li2  1  0.551571  0.250000  0.024519  1
  Li  Li3  1  0.858292  0.750000  0.578533  1
  Ag  Ag4  1  0.000000  0.000000  0.000000  1
  Ag  Ag5  1  0.000000  0.500000  0.000000  1
  Ag  Ag6  1  0.500000  0.000000  0.500000  1
  Ag  Ag7  1  0.500000  0.500000  0.500000  1
  F  F8  1  0.012151  0.592362  0.319767  1
  F  F9  1  0.012151  0.907638  0.319767  1
  F  F10  1  0.279165  0.571942  0.816685  1
  F  F11  1  0.279165  0.928058  0.816685  1
  F  F12  1  0.075233  0.250000  0.105542  1
  F  F13  1  0.508412  0.250000  0.691040  1
  F  F14  1  0.363110  0.406957  0.278554  1
  F  F15  1  0.363110  0.093043  0.278554  1
  F  F16  1  0.636890  0.593043  0.721446  1
  F  F17  1  0.636890  0.906957  0.721446  1
  F  F18  1  0.491588  0.750000  0.308960  1
  F  F19  1  0.924767  0.750000  0.894458  1
  F  F20  1  0.720835  0.071942  0.183315  1
  F  F21  1  0.720835  0.428058  0.183315  1
  F  F22  1  0.987849  0.092362  0.680233  1
  F  F23  1  0.987849  0.407638  0.680233  1
