# generated using pymatgen
data_CrP4O11
_symmetry_space_group_name_H-M   'P 1'
_cell_length_a   8.50788628
_cell_length_b   12.63133669
_cell_length_c   8.51761586
_cell_angle_alpha   90.00000000
_cell_angle_beta   95.02384853
_cell_angle_gamma   90.00000000
_symmetry_Int_Tables_number   1
_chemical_formula_structural   CrP4O11
_chemical_formula_sum   'Cr4 P16 O44'
_cell_volume   911.83741964
_cell_formula_units_Z   4
loop_
 _symmetry_equiv_pos_site_id
 _symmetry_equiv_pos_as_xyz
  1  'x, y, z'
loop_
 _atom_site_type_symbol
 _atom_site_label
 _atom_site_symmetry_multiplicity
 _atom_site_fract_x
 _atom_site_fract_y
 _atom_site_fract_z
 _atom_site_occupancy
  Cr  Cr0  1  0.227550  0.467575  0.738056  1
  Cr  Cr1  1  0.272450  0.967575  0.761944  1
  Cr  Cr2  1  0.727550  0.032425  0.238056  1
  Cr  Cr3  1  0.772450  0.532425  0.261944  1
  P  P4  1  0.100854  0.211378  0.601252  1
  P  P5  1  0.118501  0.165843  0.263935  1
  P  P6  1  0.182836  0.495746  0.341052  1
  P  P7  1  0.246429  0.846898  0.400906  1
  P  P8  1  0.253571  0.346898  0.099094  1
  P  P9  1  0.317164  0.995746  0.158948  1
  P  P10  1  0.399146  0.711378  0.898748  1
  P  P11  1  0.381499  0.665843  0.236065  1
  P  P12  1  0.618501  0.334157  0.763935  1
  P  P13  1  0.600854  0.288622  0.101252  1
  P  P14  1  0.682836  0.004254  0.841052  1
  P  P15  1  0.746429  0.653102  0.900906  1
  P  P16  1  0.753571  0.153102  0.599094  1
  P  P17  1  0.817164  0.504254  0.658948  1
  P  P18  1  0.881499  0.834157  0.736065  1
  P  P19  1  0.899146  0.788622  0.398748  1
  O  O20  1  0.027541  0.896058  0.757106  1
  O  O21  1  0.015400  0.468167  0.298909  1
  O  O22  1  0.094256  0.781810  0.427621  1
  O  O23  1  0.149635  0.103109  0.651360  1
  O  O24  1  0.153141  0.308278  0.688142  1
  O  O25  1  0.190308  0.416127  0.968460  1
  O  O26  1  0.144072  0.233183  0.419898  1
  O  O27  1  0.127821  0.256130  0.131336  1
  O  O28  1  0.205713  0.906235  0.238946  1
  O  O29  1  0.222196  0.600761  0.236479  1
  O  O30  1  0.255307  0.512402  0.505343  1
  O  O31  1  0.244693  0.012402  0.994657  1
  O  O32  1  0.277804  0.100761  0.263521  1
  O  O33  1  0.309692  0.916127  0.531540  1
  O  O34  1  0.346859  0.808278  0.811858  1
  O  O35  1  0.294287  0.406235  0.261054  1
  O  O36  1  0.350365  0.603109  0.848640  1
  O  O37  1  0.372179  0.756130  0.368664  1
  O  O38  1  0.355928  0.733183  0.080102  1
  O  O39  1  0.405744  0.281810  0.072379  1
  O  O40  1  0.472459  0.396058  0.742894  1
  O  O41  1  0.515400  0.031833  0.798909  1
  O  O42  1  0.484600  0.968167  0.201091  1
  O  O43  1  0.527541  0.603942  0.257106  1
  O  O44  1  0.594256  0.718190  0.927621  1
  O  O45  1  0.644072  0.266817  0.919898  1
  O  O46  1  0.627821  0.243870  0.631336  1
  O  O47  1  0.649635  0.396891  0.151360  1
  O  O48  1  0.705713  0.593765  0.738946  1
  O  O49  1  0.653141  0.191722  0.188142  1
  O  O50  1  0.690308  0.083873  0.468460  1
  O  O51  1  0.722196  0.899239  0.736479  1
  O  O52  1  0.755307  0.987598  0.005343  1
  O  O53  1  0.744693  0.487598  0.494657  1
  O  O54  1  0.777804  0.399239  0.763521  1
  O  O55  1  0.794287  0.093765  0.761054  1
  O  O56  1  0.872179  0.743870  0.868664  1
  O  O57  1  0.855928  0.766817  0.580102  1
  O  O58  1  0.809692  0.583873  0.031540  1
  O  O59  1  0.846859  0.691722  0.311858  1
  O  O60  1  0.850365  0.896891  0.348640  1
  O  O61  1  0.905744  0.218190  0.572379  1
  O  O62  1  0.984600  0.531833  0.701091  1
  O  O63  1  0.972459  0.103942  0.242894  1
