# generated using pymatgen
data_Fe5(OF4)2
_symmetry_space_group_name_H-M   'P 1'
_cell_length_a   4.80366143
_cell_length_b   13.54452587
_cell_length_c   5.80071749
_cell_angle_alpha   101.15726886
_cell_angle_beta   88.86104968
_cell_angle_gamma   90.85342311
_symmetry_Int_Tables_number   1
_chemical_formula_structural   Fe5(OF4)2
_chemical_formula_sum   'Fe10 O4 F16'
_cell_volume   370.18405825
_cell_formula_units_Z   2
loop_
 _symmetry_equiv_pos_site_id
 _symmetry_equiv_pos_as_xyz
  1  'x, y, z'
loop_
 _atom_site_type_symbol
 _atom_site_label
 _atom_site_symmetry_multiplicity
 _atom_site_fract_x
 _atom_site_fract_y
 _atom_site_fract_z
 _atom_site_occupancy
  Fe  Fe0  1  0.480657  0.010177  0.502050  1
  Fe  Fe1  1  0.527045  0.402678  0.289976  1
  Fe  Fe2  1  0.489847  0.197241  0.887547  1
  Fe  Fe3  1  0.509821  0.604282  0.692727  1
  Fe  Fe4  1  0.510471  0.802311  0.095014  1
  Fe  Fe5  1  0.998005  0.405652  0.813479  1
  Fe  Fe6  1  0.963620  0.795027  0.618601  1
  Fe  Fe7  1  0.021139  0.197539  0.407185  1
  Fe  Fe8  1  0.972239  0.597826  0.218975  1
  Fe  Fe9  1  0.989394  0.990362  0.993519  1
  O  O10  1  0.804888  0.853540  0.904451  1
  O  O11  1  0.809101  0.661384  0.509342  1
  O  O12  1  0.803275  0.465378  0.133741  1
  O  O13  1  0.307903  0.131739  0.578439  1
  F  F14  1  0.810057  0.264115  0.724097  1
  F  F15  1  0.792390  0.057930  0.316383  1
  F  F16  1  0.703180  0.053797  0.802453  1
  F  F17  1  0.685137  0.454473  0.609157  1
  F  F18  1  0.707743  0.656480  0.022583  1
  F  F19  1  0.703398  0.869120  0.427411  1
  F  F20  1  0.693737  0.265517  0.226391  1
  F  F21  1  0.314972  0.345270  0.997751  1
  F  F22  1  0.289747  0.740533  0.772623  1
  F  F23  1  0.305523  0.945451  0.196366  1
  F  F24  1  0.298167  0.534137  0.371261  1
  F  F25  1  0.187184  0.138418  0.077672  1
  F  F26  1  0.207284  0.928461  0.659405  1
  F  F27  1  0.201451  0.547453  0.896909  1
  F  F28  1  0.215003  0.347185  0.477253  1
  F  F29  1  0.197623  0.736525  0.277238  1
