# generated using pymatgen
data_Li2Fe3NiO8
_symmetry_space_group_name_H-M   'P 1'
_cell_length_a   5.90047953
_cell_length_b   5.68521264
_cell_length_c   5.70191427
_cell_angle_alpha   60.34185770
_cell_angle_beta   61.36444382
_cell_angle_gamma   90.55862163
_symmetry_Int_Tables_number   1
_chemical_formula_structural   Li2Fe3NiO8
_chemical_formula_sum   'Li2 Fe3 Ni1 O8'
_cell_volume   138.03033292
_cell_formula_units_Z   1
loop_
 _symmetry_equiv_pos_site_id
 _symmetry_equiv_pos_as_xyz
  1  'x, y, z'
loop_
 _atom_site_type_symbol
 _atom_site_label
 _atom_site_symmetry_multiplicity
 _atom_site_fract_x
 _atom_site_fract_y
 _atom_site_fract_z
 _atom_site_occupancy
  Li  Li0  1  0.500000  -0.000001  0.000001  1
  Li  Li1  1  0.500001  0.500001  0.499999  1
  Fe  Fe2  1  0.000001  -0.000001  0.499998  1
  Fe  Fe3  1  0.000002  0.500004  0.999996  1
  Fe  Fe4  1  0.999997  0.500006  0.499997  1
  Ni  Ni5  1  0.000001  -0.000002  0.000002  1
  O  O6  1  0.206694  0.230597  0.024121  1
  O  O7  1  0.203646  0.236856  0.542502  1
  O  O8  1  0.202680  0.745065  0.033621  1
  O  O9  1  0.209081  0.732527  0.521805  1
  O  O10  1  0.790916  0.267470  0.478195  1
  O  O11  1  0.797317  0.254930  0.966387  1
  O  O12  1  0.796354  0.763143  0.457499  1
  O  O13  1  0.793309  0.769406  0.975876  1
