# generated using pymatgen
data_Zr2N2O
_symmetry_space_group_name_H-M   'P 1'
_cell_length_a   8.60600422
_cell_length_b   3.15712768
_cell_length_c   8.52896795
_cell_angle_alpha   90.00000000
_cell_angle_beta   89.70320038
_cell_angle_gamma   90.00000000
_symmetry_Int_Tables_number   1
_chemical_formula_structural   Zr2N2O
_chemical_formula_sum   'Zr8 N8 O4'
_cell_volume   231.73111746
_cell_formula_units_Z   4
loop_
 _symmetry_equiv_pos_site_id
 _symmetry_equiv_pos_as_xyz
  1  'x, y, z'
loop_
 _atom_site_type_symbol
 _atom_site_label
 _atom_site_symmetry_multiplicity
 _atom_site_fract_x
 _atom_site_fract_y
 _atom_site_fract_z
 _atom_site_occupancy
  Zr  Zr0  1  0.000522  0.250000  0.173717  1
  Zr  Zr1  1  0.190461  0.250000  0.501988  1
  Zr  Zr2  1  0.317211  0.750000  0.003784  1
  Zr  Zr3  1  0.496693  0.750000  0.681598  1
  Zr  Zr4  1  0.512676  0.250000  0.321951  1
  Zr  Zr5  1  0.681320  0.250000  0.003043  1
  Zr  Zr6  1  0.812830  0.750000  0.494980  1
  Zr  Zr7  1  0.994519  0.750000  0.816672  1
  N  N8  1  0.124239  0.250000  0.942710  1
  N  N9  1  0.376347  0.750000  0.446999  1
  N  N10  1  0.449951  0.250000  0.869216  1
  N  N11  1  0.542032  0.750000  0.131457  1
  N  N12  1  0.625660  0.250000  0.559720  1
  N  N13  1  0.771111  0.250000  0.305937  1
  N  N14  1  0.877155  0.750000  0.055550  1
  N  N15  1  0.958955  0.250000  0.627681  1
  O  O16  1  0.050129  0.750000  0.366486  1
  O  O17  1  0.225551  0.750000  0.686381  1
  O  O18  1  0.264070  0.250000  0.199763  1
  O  O19  1  0.728566  0.750000  0.810366  1
