# generated using pymatgen
data_K4MoC5N6O
_symmetry_space_group_name_H-M   'P 1'
_cell_length_a   8.60117316
_cell_length_b   14.40792334
_cell_length_c   21.42939312
_cell_angle_alpha   90.00000000
_cell_angle_beta   90.00000000
_cell_angle_gamma   90.00000000
_symmetry_Int_Tables_number   1
_chemical_formula_structural   K4MoC5N6O
_chemical_formula_sum   'K32 Mo8 C40 N48 O8'
_cell_volume   2655.63847507
_cell_formula_units_Z   8
loop_
 _symmetry_equiv_pos_site_id
 _symmetry_equiv_pos_as_xyz
  1  'x, y, z'
loop_
 _atom_site_type_symbol
 _atom_site_label
 _atom_site_symmetry_multiplicity
 _atom_site_fract_x
 _atom_site_fract_y
 _atom_site_fract_z
 _atom_site_occupancy
  K  K0  1  0.875008  0.886939  0.048166  1
  K  K1  1  0.874484  0.150916  0.359961  1
  K  K2  1  0.124992  0.386939  0.451834  1
  K  K3  1  0.625072  0.902435  0.250347  1
  K  K4  1  0.374631  0.884014  0.045818  1
  K  K5  1  0.374928  0.402435  0.249653  1
  K  K6  1  0.124992  0.113061  0.951834  1
  K  K7  1  0.874631  0.884014  0.454182  1
  K  K8  1  0.125369  0.384014  0.045818  1
  K  K9  1  0.874928  0.097565  0.750347  1
  K  K10  1  0.125072  0.597565  0.749653  1
  K  K11  1  0.125516  0.650916  0.140039  1
  K  K12  1  0.624992  0.113061  0.548166  1
  K  K13  1  0.625516  0.650916  0.359961  1
  K  K14  1  0.624992  0.386939  0.048166  1
  K  K15  1  0.375008  0.886939  0.451834  1
  K  K16  1  0.625072  0.597565  0.750347  1
  K  K17  1  0.375008  0.613061  0.951834  1
  K  K18  1  0.874484  0.349084  0.859961  1
  K  K19  1  0.125072  0.902435  0.249653  1
  K  K20  1  0.874631  0.615986  0.954182  1
  K  K21  1  0.625369  0.115986  0.954182  1
  K  K22  1  0.874928  0.402435  0.250347  1
  K  K23  1  0.625516  0.849084  0.859961  1
  K  K24  1  0.625369  0.384014  0.454182  1
  K  K25  1  0.374484  0.150916  0.140039  1
  K  K26  1  0.125369  0.115986  0.545818  1
  K  K27  1  0.374631  0.615986  0.545818  1
  K  K28  1  0.125516  0.849084  0.640039  1
  K  K29  1  0.374484  0.349084  0.640039  1
  K  K30  1  0.875008  0.613061  0.548166  1
  K  K31  1  0.374928  0.097565  0.749653  1
  Mo  Mo32  1  0.125351  0.665323  0.381118  1
  Mo  Mo33  1  0.374649  0.334677  0.881118  1
  Mo  Mo34  1  0.374649  0.165323  0.381118  1
  Mo  Mo35  1  0.125351  0.834677  0.881118  1
  Mo  Mo36  1  0.874649  0.334677  0.618882  1
  Mo  Mo37  1  0.874649  0.165323  0.118882  1
  Mo  Mo38  1  0.625351  0.834677  0.618882  1
  Mo  Mo39  1  0.625351  0.665323  0.118882  1
  C  C40  1  0.447720  0.744273  0.657686  1
  C  C41  1  0.449555  0.565427  0.093574  1
  C  C42  1  0.874864  0.414482  0.710289  1
  C  C43  1  0.449555  0.934573  0.593574  1
  C  C44  1  0.052280  0.244273  0.657686  1
  C  C45  1  0.050445  0.434573  0.593574  1
  C  C46  1  0.550445  0.434573  0.906426  1
  C  C47  1  0.197224  0.244208  0.842499  1
  C  C48  1  0.802776  0.755792  0.157501  1
  C  C49  1  0.802776  0.744208  0.657501  1
  C  C50  1  0.625136  0.914482  0.710289  1
  C  C51  1  0.697224  0.244208  0.657501  1
  C  C52  1  0.125136  0.914482  0.789711  1
  C  C53  1  0.947720  0.755727  0.342314  1
  C  C54  1  0.874864  0.085518  0.210289  1
  C  C55  1  0.697224  0.255792  0.157501  1
  C  C56  1  0.052280  0.255727  0.157686  1
  C  C57  1  0.374864  0.414482  0.789711  1
  C  C58  1  0.302776  0.744208  0.842499  1
  C  C59  1  0.125136  0.585518  0.289711  1
  C  C60  1  0.802493  0.933697  0.593827  1
  C  C61  1  0.197507  0.066303  0.406173  1
  C  C62  1  0.302493  0.566303  0.406173  1
  C  C63  1  0.374864  0.085518  0.289711  1
  C  C64  1  0.947720  0.744273  0.842314  1
  C  C65  1  0.197507  0.433697  0.906173  1
  C  C66  1  0.949555  0.565427  0.406426  1
  C  C67  1  0.552280  0.244273  0.842314  1
  C  C68  1  0.802493  0.566303  0.093827  1
  C  C69  1  0.949555  0.934573  0.906426  1
  C  C70  1  0.697507  0.433697  0.593827  1
  C  C71  1  0.197224  0.255792  0.342499  1
  C  C72  1  0.552280  0.255727  0.342314  1
  C  C73  1  0.050445  0.065427  0.093574  1
  C  C74  1  0.302493  0.933697  0.906173  1
  C  C75  1  0.550445  0.065427  0.406426  1
  C  C76  1  0.302776  0.755792  0.342499  1
  C  C77  1  0.625136  0.585518  0.210289  1
  C  C78  1  0.697507  0.066303  0.093827  1
  C  C79  1  0.447720  0.755727  0.157686  1
  N  N80  1  0.625116  0.721314  0.042232  1
  N  N81  1  0.398601  0.986771  0.923262  1
  N  N82  1  0.598823  0.308800  0.171988  1
  N  N83  1  0.624854  0.539628  0.255866  1
  N  N84  1  0.651129  0.308470  0.327780  1
  N  N85  1  0.125116  0.778686  0.957768  1
  N  N86  1  0.124854  0.960372  0.744134  1
  N  N87  1  0.101399  0.013229  0.423262  1
  N  N88  1  0.624854  0.960372  0.755866  1
  N  N89  1  0.401177  0.808800  0.328012  1
  N  N90  1  0.601399  0.486771  0.576738  1
  N  N91  1  0.644278  0.488668  0.923959  1
  N  N92  1  0.151129  0.308470  0.172220  1
  N  N93  1  0.625116  0.778686  0.542232  1
  N  N94  1  0.874884  0.221314  0.042232  1
  N  N95  1  0.348871  0.691530  0.672220  1
  N  N96  1  0.355722  0.988668  0.576041  1
  N  N97  1  0.855722  0.988668  0.923959  1
  N  N98  1  0.098823  0.191200  0.828012  1
  N  N99  1  0.598823  0.191200  0.671988  1
  N  N100  1  0.875146  0.460372  0.755866  1
  N  N101  1  0.125116  0.721314  0.457768  1
  N  N102  1  0.374884  0.278686  0.957768  1
  N  N103  1  0.101399  0.486771  0.923262  1
  N  N104  1  0.375146  0.039628  0.244134  1
  N  N105  1  0.144278  0.011332  0.076041  1
  N  N106  1  0.898601  0.513229  0.076738  1
  N  N107  1  0.144278  0.488668  0.576041  1
  N  N108  1  0.151129  0.191530  0.672220  1
  N  N109  1  0.901177  0.808800  0.171988  1
  N  N110  1  0.855722  0.511332  0.423959  1
  N  N111  1  0.848871  0.808470  0.327780  1
  N  N112  1  0.848871  0.691530  0.827780  1
  N  N113  1  0.098823  0.308800  0.328012  1
  N  N114  1  0.601399  0.013229  0.076738  1
  N  N115  1  0.875146  0.039628  0.255866  1
  N  N116  1  0.401177  0.691200  0.828012  1
  N  N117  1  0.651129  0.191530  0.827780  1
  N  N118  1  0.374884  0.221314  0.457768  1
  N  N119  1  0.348871  0.808470  0.172220  1
  N  N120  1  0.124854  0.539628  0.244134  1
  N  N121  1  0.898601  0.986771  0.576738  1
  N  N122  1  0.644278  0.011332  0.423959  1
  N  N123  1  0.398601  0.513229  0.423262  1
  N  N124  1  0.874884  0.278686  0.542232  1
  N  N125  1  0.355722  0.511332  0.076041  1
  N  N126  1  0.901177  0.691200  0.671988  1
  N  N127  1  0.375146  0.460372  0.744134  1
  O  O128  1  0.875177  0.257429  0.988519  1
  O  O129  1  0.124823  0.757429  0.511481  1
  O  O130  1  0.875177  0.242571  0.488519  1
  O  O131  1  0.124823  0.742571  0.011481  1
  O  O132  1  0.624823  0.757429  0.988519  1
  O  O133  1  0.624823  0.742571  0.488519  1
  O  O134  1  0.375177  0.242571  0.011481  1
  O  O135  1  0.375177  0.257429  0.511481  1
