# generated using pymatgen
data_VF3
_symmetry_space_group_name_H-M   'P 1'
_cell_length_a   4.87477830
_cell_length_b   4.86509638
_cell_length_c   9.03137076
_cell_angle_alpha   89.91399934
_cell_angle_beta   90.87949896
_cell_angle_gamma   89.93503673
_symmetry_Int_Tables_number   1
_chemical_formula_structural   VF3
_chemical_formula_sum   'V4 F12'
_cell_volume   214.16477527
_cell_formula_units_Z   4
loop_
 _symmetry_equiv_pos_site_id
 _symmetry_equiv_pos_as_xyz
  1  'x, y, z'
loop_
 _atom_site_type_symbol
 _atom_site_label
 _atom_site_symmetry_multiplicity
 _atom_site_fract_x
 _atom_site_fract_y
 _atom_site_fract_z
 _atom_site_occupancy
  V  V0  1  0.002938  0.998402  0.327801  1
  V  V1  1  0.997519  0.000877  0.671732  1
  V  V2  1  0.497258  0.499221  0.171825  1
  V  V3  1  0.501921  0.500574  0.827921  1
  F  F4  1  0.182529  0.817204  0.496337  1
  F  F5  1  0.213070  0.787278  0.820324  1
  F  F6  1  0.216728  0.784427  0.177106  1
  F  F7  1  0.285858  0.285209  0.680145  1
  F  F8  1  0.282950  0.284410  0.322386  1
  F  F9  1  0.318267  0.317700  0.002468  1
  F  F10  1  0.680102  0.682056  0.997505  1
  F  F11  1  0.714090  0.714584  0.321105  1
  F  F12  1  0.718963  0.715535  0.678356  1
  F  F13  1  0.786320  0.214431  0.178640  1
  F  F14  1  0.781488  0.216195  0.823084  1
  F  F15  1  0.820087  0.181808  0.503265  1
