# generated using pymatgen
data_Na2B8O13
_symmetry_space_group_name_H-M   'P 1'
_cell_length_a   11.86983761
_cell_length_b   7.96858883
_cell_length_c   10.50165393
_cell_angle_alpha   90.00000000
_cell_angle_beta   99.90377901
_cell_angle_gamma   90.00000000
_symmetry_Int_Tables_number   1
_chemical_formula_structural   Na2B8O13
_chemical_formula_sum   'Na8 B32 O52'
_cell_volume   978.50562961
_cell_formula_units_Z   4
loop_
 _symmetry_equiv_pos_site_id
 _symmetry_equiv_pos_as_xyz
  1  'x, y, z'
loop_
 _atom_site_type_symbol
 _atom_site_label
 _atom_site_symmetry_multiplicity
 _atom_site_fract_x
 _atom_site_fract_y
 _atom_site_fract_z
 _atom_site_occupancy
  Na  Na0  1  0.114252  0.001785  0.784924  1
  Na  Na1  1  0.113617  0.497349  0.283991  1
  Na  Na2  1  0.425186  0.614151  0.968507  1
  Na  Na3  1  0.375130  0.787100  0.467287  1
  Na  Na4  1  0.574814  0.114151  0.531493  1
  Na  Na5  1  0.624870  0.287100  0.032713  1
  Na  Na6  1  0.885748  0.501785  0.715076  1
  Na  Na7  1  0.886383  0.997349  0.216009  1
  B  B8  1  0.058645  0.318663  0.955712  1
  B  B9  1  0.058419  0.181662  0.455589  1
  B  B10  1  0.100183  0.607299  0.593236  1
  B  B11  1  0.167903  0.448457  0.797122  1
  B  B12  1  0.100462  0.892927  0.092959  1
  B  B13  1  0.167561  0.051914  0.296432  1
  B  B14  1  0.206139  0.980754  0.532636  1
  B  B15  1  0.256724  0.413771  0.601138  1
  B  B16  1  0.206475  0.521051  0.032144  1
  B  B17  1  0.374175  0.102655  0.925541  1
  B  B18  1  0.256789  0.085637  0.101018  1
  B  B19  1  0.364134  0.912848  0.734860  1
  B  B20  1  0.374633  0.395561  0.425243  1
  B  B21  1  0.364230  0.587143  0.232764  1
  B  B22  1  0.497521  0.157636  0.768700  1
  B  B23  1  0.502479  0.657636  0.731300  1
  B  B24  1  0.497938  0.343119  0.268156  1
  B  B25  1  0.502062  0.843119  0.231844  1
  B  B26  1  0.635866  0.412848  0.765140  1
  B  B27  1  0.625825  0.602655  0.574459  1
  B  B28  1  0.635770  0.087143  0.267236  1
  B  B29  1  0.743276  0.913771  0.898862  1
  B  B30  1  0.625367  0.895561  0.074757  1
  B  B31  1  0.793861  0.480754  0.967364  1
  B  B32  1  0.743211  0.585637  0.398982  1
  B  B33  1  0.793525  0.021051  0.467856  1
  B  B34  1  0.832097  0.948457  0.702878  1
  B  B35  1  0.899817  0.107299  0.906764  1
  B  B36  1  0.832439  0.551914  0.203568  1
  B  B37  1  0.899538  0.392927  0.407041  1
  B  B38  1  0.941355  0.818663  0.544288  1
  B  B39  1  0.941581  0.681662  0.044411  1
  O  O40  1  0.028322  0.717306  0.514804  1
  O  O41  1  0.089285  0.318833  0.836672  1
  O  O42  1  0.092995  0.574709  0.717924  1
  O  O43  1  0.028278  0.782851  0.014746  1
  O  O44  1  0.115133  0.082447  0.556819  1
  O  O45  1  0.089171  0.181446  0.336667  1
  O  O46  1  0.093029  0.924975  0.217805  1
  O  O47  1  0.233646  0.530359  0.911871  1
  O  O48  1  0.177872  0.524015  0.529636  1
  O  O49  1  0.115002  0.418755  0.056151  1
  O  O50  1  0.249211  0.370668  0.723753  1
  O  O51  1  0.265058  0.885185  0.630320  1
  O  O52  1  0.232048  0.969751  0.411895  1
  O  O53  1  0.177146  0.977083  0.029354  1
  O  O54  1  0.320687  0.979389  0.848999  1
  O  O55  1  0.249068  0.129268  0.223656  1
  O  O56  1  0.264624  0.613507  0.131433  1
  O  O57  1  0.342771  0.348856  0.541222  1
  O  O58  1  0.321745  0.522666  0.350800  1
  O  O59  1  0.418502  0.748998  0.771771  1
  O  O60  1  0.468543  0.186531  0.891877  1
  O  O61  1  0.342612  0.150932  0.041126  1
  O  O62  1  0.446483  0.030625  0.691326  1
  O  O63  1  0.418448  0.750495  0.271162  1
  O  O64  1  0.468101  0.312744  0.390990  1
  O  O65  1  0.446003  0.469387  0.190748  1
  O  O66  1  0.553517  0.530625  0.808674  1
  O  O67  1  0.531457  0.686531  0.608123  1
  O  O68  1  0.581498  0.248998  0.728229  1
  O  O69  1  0.553997  0.969387  0.309252  1
  O  O70  1  0.657229  0.848856  0.958778  1
  O  O71  1  0.531899  0.812744  0.109010  1
  O  O72  1  0.581552  0.250495  0.228838  1
  O  O73  1  0.679313  0.479389  0.651001  1
  O  O74  1  0.657388  0.650932  0.458874  1
  O  O75  1  0.734942  0.385185  0.869680  1
  O  O76  1  0.750789  0.870668  0.776247  1
  O  O77  1  0.678255  0.022666  0.149200  1
  O  O78  1  0.822128  0.024015  0.970364  1
  O  O79  1  0.766354  0.030359  0.588129  1
  O  O80  1  0.735376  0.113507  0.368567  1
  O  O81  1  0.750932  0.629268  0.276344  1
  O  O82  1  0.884867  0.582447  0.943181  1
  O  O83  1  0.822854  0.477083  0.470646  1
  O  O84  1  0.767952  0.469751  0.088105  1
  O  O85  1  0.907005  0.074709  0.782076  1
  O  O86  1  0.910715  0.818833  0.663328  1
  O  O87  1  0.884998  0.918755  0.443849  1
  O  O88  1  0.971678  0.217306  0.985196  1
  O  O89  1  0.906971  0.424975  0.282195  1
  O  O90  1  0.910829  0.681446  0.163333  1
  O  O91  1  0.971722  0.282851  0.485254  1
