# generated using pymatgen
data_FeOF
_symmetry_space_group_name_H-M   'P 1'
_cell_length_a   14.16119358
_cell_length_b   14.25566571
_cell_length_c   3.11532348
_cell_angle_alpha   90.00000000
_cell_angle_beta   90.00000000
_cell_angle_gamma   89.92512088
_symmetry_Int_Tables_number   1
_chemical_formula_structural   FeOF
_chemical_formula_sum   'Fe18 O18 F18'
_cell_volume   628.91237393
_cell_formula_units_Z   18
loop_
 _symmetry_equiv_pos_site_id
 _symmetry_equiv_pos_as_xyz
  1  'x, y, z'
loop_
 _atom_site_type_symbol
 _atom_site_label
 _atom_site_symmetry_multiplicity
 _atom_site_fract_x
 _atom_site_fract_y
 _atom_site_fract_z
 _atom_site_occupancy
  Fe  Fe0  1  0.013385  0.998766  0.000000  1
  Fe  Fe1  1  0.009046  0.327637  0.000000  1
  Fe  Fe2  1  0.013739  0.663185  0.000000  1
  Fe  Fe3  1  0.152898  0.165516  0.500000  1
  Fe  Fe4  1  0.151324  0.494587  0.500000  1
  Fe  Fe5  1  0.153022  0.831086  0.500000  1
  Fe  Fe6  1  0.345673  0.997828  0.000000  1
  Fe  Fe7  1  0.344988  0.331585  0.000000  1
  Fe  Fe8  1  0.343384  0.661837  0.000000  1
  Fe  Fe9  1  0.486995  0.497160  0.500000  1
  Fe  Fe10  1  0.485784  0.165604  0.500000  1
  Fe  Fe11  1  0.484280  0.828498  0.500000  1
  Fe  Fe12  1  0.676596  0.994900  0.000000  1
  Fe  Fe13  1  0.680401  0.330312  0.000000  1
  Fe  Fe14  1  0.679682  0.663644  0.000000  1
  Fe  Fe15  1  0.841190  0.184635  0.500000  1
  Fe  Fe16  1  0.820910  0.497142  0.500000  1
  Fe  Fe17  1  0.821944  0.830111  0.500000  1
  O  O18  1  0.067821  0.270011  0.500000  1
  O  O19  1  0.064146  0.601251  0.500000  1
  O  O20  1  0.064694  0.935794  0.500000  1
  O  O21  1  0.100860  0.102654  0.000000  1
  O  O22  1  0.100237  0.433987  0.000000  1
  O  O23  1  0.101530  0.768792  0.000000  1
  O  O24  1  0.397598  0.269303  0.500000  1
  O  O25  1  0.397575  0.601612  0.500000  1
  O  O26  1  0.398378  0.935343  0.500000  1
  O  O27  1  0.436325  0.101235  0.000000  1
  O  O28  1  0.434877  0.435377  0.000000  1
  O  O29  1  0.433232  0.767165  0.000000  1
  O  O30  1  0.729755  0.265692  0.500000  1
  O  O31  1  0.731758  0.602381  0.500000  1
  O  O32  1  0.733102  0.938478  0.500000  1
  O  O33  1  0.767736  0.435243  0.000000  1
  O  O34  1  0.767177  0.770208  0.000000  1
  O  O35  1  0.901412  0.235604  0.000000  1
  F  F36  1  0.232849  0.233322  0.000000  1
  F  F37  1  0.231209  0.565066  0.000000  1
  F  F38  1  0.232280  0.899616  0.000000  1
  F  F39  1  0.267982  0.066271  0.500000  1
  F  F40  1  0.266967  0.732400  0.500000  1
  F  F41  1  0.267718  0.399115  0.500000  1
  F  F42  1  0.565069  0.232791  0.000000  1
  F  F43  1  0.565555  0.566651  0.000000  1
  F  F44  1  0.566319  0.900303  0.000000  1
  F  F45  1  0.604715  0.066879  0.500000  1
  F  F46  1  0.600984  0.399301  0.500000  1
  F  F47  1  0.600617  0.733439  0.500000  1
  F  F48  1  0.769401  0.103030  0.000000  1
  F  F49  1  0.897985  0.567540  0.000000  1
  F  F50  1  0.898276  0.899027  0.000000  1
  F  F51  1  0.930725  0.063523  0.500000  1
  F  F52  1  0.933888  0.404140  0.500000  1
  F  F53  1  0.934009  0.733422  0.500000  1
