# generated using pymatgen
data_NiO2
_symmetry_space_group_name_H-M   'P 1'
_cell_length_a   2.80872670
_cell_length_b   4.86504694
_cell_length_c   6.88300577
_cell_angle_alpha   96.76617729
_cell_angle_beta   78.22708000
_cell_angle_gamma   89.99999048
_symmetry_Int_Tables_number   1
_chemical_formula_structural   NiO2
_chemical_formula_sum   'Ni2 O4'
_cell_volume   91.40567962
_cell_formula_units_Z   2
loop_
 _symmetry_equiv_pos_site_id
 _symmetry_equiv_pos_as_xyz
  1  'x, y, z'
loop_
 _atom_site_type_symbol
 _atom_site_label
 _atom_site_symmetry_multiplicity
 _atom_site_fract_x
 _atom_site_fract_y
 _atom_site_fract_z
 _atom_site_occupancy
  Ni  Ni0  1  0.000000  0.000000  0.000000  1
  Ni  Ni1  1  0.500000  0.500000  0.000000  1
  O  O2  1  0.070541  0.309809  0.858918  1
  O  O3  1  0.570545  0.809811  0.858909  1
  O  O4  1  0.929459  0.690191  0.141082  1
  O  O5  1  0.429455  0.190189  0.141091  1
