# generated using pymatgen
data_Li3Mn(PO4)2
_symmetry_space_group_name_H-M   'P 1'
_cell_length_a   4.74578860
_cell_length_b   5.08654855
_cell_length_c   13.78888164
_cell_angle_alpha   81.48785816
_cell_angle_beta   90.14306979
_cell_angle_gamma   62.14399827
_symmetry_Int_Tables_number   1
_chemical_formula_structural   Li3Mn(PO4)2
_chemical_formula_sum   'Li6 Mn2 P4 O16'
_cell_volume   290.06830510
_cell_formula_units_Z   2
loop_
 _symmetry_equiv_pos_site_id
 _symmetry_equiv_pos_as_xyz
  1  'x, y, z'
loop_
 _atom_site_type_symbol
 _atom_site_label
 _atom_site_symmetry_multiplicity
 _atom_site_fract_x
 _atom_site_fract_y
 _atom_site_fract_z
 _atom_site_occupancy
  Li  Li0  1  0.655535  0.665872  0.660756  1
  Li  Li1  1  0.678237  0.666906  0.161278  1
  Li  Li2  1  0.326484  0.329500  0.838740  1
  Li  Li3  1  0.349229  0.329586  0.340879  1
  Li  Li4  1  0.981988  0.998928  0.749972  1
  Li  Li5  1  0.022918  0.997900  0.250436  1
  Mn  Mn6  1  0.002573  0.996622  0.499488  1
  Mn  Mn7  1  0.001587  0.998827  0.000269  1
  P  P8  1  0.662919  0.684759  0.883589  1
  P  P9  1  0.655604  0.683128  0.383491  1
  P  P10  1  0.350303  0.311088  0.615982  1
  P  P11  1  0.340360  0.312831  0.117115  1
  O  O12  1  0.304398  0.919310  0.859497  1
  O  O13  1  0.780007  0.916718  0.359827  1
  O  O14  1  0.789944  0.779319  0.967917  1
  O  O15  1  0.433987  0.778098  0.467721  1
  O  O16  1  0.864310  0.663617  0.794199  1
  O  O17  1  0.048206  0.627142  0.582621  1
  O  O18  1  0.474480  0.662413  0.294243  1
  O  O19  1  0.326152  0.628432  0.083678  1
  O  O20  1  0.676785  0.369137  0.916543  1
  O  O21  1  0.531398  0.332421  0.705085  1
  O  O22  1  0.957232  0.367110  0.416785  1
  O  O23  1  0.139155  0.334150  0.206574  1
  O  O24  1  0.570964  0.216321  0.531374  1
  O  O25  1  0.212923  0.218072  0.032994  1
  O  O26  1  0.226022  0.077616  0.640166  1
  O  O27  1  0.698836  0.078955  0.141196  1
