# generated using pymatgen
data_La(HO)3
_symmetry_space_group_name_H-M   'P 1'
_cell_length_a   6.88333151
_cell_length_b   11.30189648
_cell_length_c   5.47594269
_cell_angle_alpha   90.00000000
_cell_angle_beta   84.08654620
_cell_angle_gamma   90.00000000
_symmetry_Int_Tables_number   1
_chemical_formula_structural   La(HO)3
_chemical_formula_sum   'La4 H12 O12'
_cell_volume   423.73242916
_cell_formula_units_Z   4
loop_
 _symmetry_equiv_pos_site_id
 _symmetry_equiv_pos_as_xyz
  1  'x, y, z'
loop_
 _atom_site_type_symbol
 _atom_site_label
 _atom_site_symmetry_multiplicity
 _atom_site_fract_x
 _atom_site_fract_y
 _atom_site_fract_z
 _atom_site_occupancy
  La  La0  1  0.041261  0.329659  0.010614  1
  La  La1  1  0.458739  0.829659  0.989386  1
  La  La2  1  0.541261  0.170341  0.010614  1
  La  La3  1  0.958739  0.670341  0.989386  1
  H  H4  1  0.184816  0.805383  0.586978  1
  H  H5  1  0.207600  0.025429  0.238391  1
  H  H6  1  0.270347  0.619079  0.311328  1
  H  H7  1  0.229653  0.119079  0.688672  1
  H  H8  1  0.292400  0.525429  0.761609  1
  H  H9  1  0.315184  0.305383  0.413022  1
  H  H10  1  0.684816  0.694617  0.586978  1
  H  H11  1  0.707600  0.474571  0.238391  1
  H  H12  1  0.770347  0.880921  0.311328  1
  H  H13  1  0.729653  0.380921  0.688672  1
  H  H14  1  0.792400  0.974571  0.761609  1
  H  H15  1  0.815184  0.194617  0.413022  1
  O  O16  1  0.154385  0.507346  0.795569  1
  O  O17  1  0.173362  0.812853  0.765876  1
  O  O18  1  0.254904  0.192796  0.772177  1
  O  O19  1  0.245096  0.692796  0.227823  1
  O  O20  1  0.326638  0.312853  0.234124  1
  O  O21  1  0.345615  0.007346  0.204431  1
  O  O22  1  0.654385  0.992654  0.795569  1
  O  O23  1  0.673362  0.687147  0.765876  1
  O  O24  1  0.754904  0.307204  0.772177  1
  O  O25  1  0.745096  0.807204  0.227823  1
  O  O26  1  0.826638  0.187147  0.234124  1
  O  O27  1  0.845615  0.492654  0.204431  1
