# generated using pymatgen
data_LiMn2(BO3)2
_symmetry_space_group_name_H-M   'P 1'
_cell_length_a   5.29183314
_cell_length_b   13.76401627
_cell_length_c   11.56228161
_cell_angle_alpha   66.51401631
_cell_angle_beta   78.78212421
_cell_angle_gamma   91.35035125
_symmetry_Int_Tables_number   1
_chemical_formula_structural   LiMn2(BO3)2
_chemical_formula_sum   'Li6 Mn12 B12 O36'
_cell_volume   752.83808586
_cell_formula_units_Z   6
loop_
 _symmetry_equiv_pos_site_id
 _symmetry_equiv_pos_as_xyz
  1  'x, y, z'
loop_
 _atom_site_type_symbol
 _atom_site_label
 _atom_site_symmetry_multiplicity
 _atom_site_fract_x
 _atom_site_fract_y
 _atom_site_fract_z
 _atom_site_occupancy
  Li  Li0  1  0.118406  0.035004  0.059976  1
  Li  Li1  1  0.049217  0.776282  0.564210  1
  Li  Li2  1  0.262835  0.616144  0.221354  1
  Li  Li3  1  0.288959  0.856930  0.727373  1
  Li  Li4  1  0.414894  0.440105  0.895682  1
  Li  Li5  1  0.581616  0.279582  0.546333  1
  Mn  Mn6  1  0.007196  0.825185  0.297382  1
  Mn  Mn7  1  0.066240  0.435929  0.178057  1
  Mn  Mn8  1  0.329020  0.854114  0.019020  1
  Mn  Mn9  1  0.281141  0.235265  0.133831  1
  Mn  Mn10  1  0.341176  0.473013  0.641755  1
  Mn  Mn11  1  0.381045  0.089864  0.532182  1
  Mn  Mn12  1  0.597417  0.895061  0.468750  1
  Mn  Mn13  1  0.678107  0.498438  0.370674  1
  Mn  Mn14  1  0.735687  0.765840  0.869110  1
  Mn  Mn15  1  0.685307  0.154599  0.970695  1
  Mn  Mn16  1  0.962004  0.579339  0.789933  1
  Mn  Mn17  1  0.994165  0.172349  0.695916  1
  B  B18  1  0.108998  0.396148  0.469072  1
  B  B19  1  0.154910  0.012048  0.359204  1
  B  B20  1  0.184333  0.664458  0.962106  1
  B  B21  1  0.238446  0.255034  0.872930  1
  B  B22  1  0.568539  0.931112  0.190769  1
  B  B23  1  0.503829  0.319272  0.304706  1
  B  B24  1  0.485577  0.678058  0.696103  1
  B  B25  1  0.424157  0.079443  0.796025  1
  B  B26  1  0.762647  0.727578  0.154438  1
  B  B27  1  0.833354  0.356079  0.010446  1
  B  B28  1  0.837084  0.984112  0.644764  1
  B  B29  1  0.893361  0.595872  0.532650  1
  O  O30  1  0.006695  0.756317  0.177261  1
  O  O31  1  0.073636  0.361509  0.044755  1
  O  O32  1  0.014701  0.908386  0.407759  1
  O  O33  1  0.062677  0.474747  0.354227  1
  O  O34  1  0.003153  0.696774  0.458773  1
  O  O35  1  0.103567  0.095276  0.261135  1
  O  O36  1  0.224669  0.590009  0.072712  1
  O  O37  1  0.318531  0.918940  0.166515  1
  O  O38  1  0.039708  0.216633  0.833754  1
  O  O39  1  0.319495  0.316960  0.234402  1
  O  O40  1  0.351869  0.406939  0.498849  1
  O  O41  1  0.258612  0.998947  0.888744  1
  O  O42  1  0.349444  0.014845  0.425389  1
  O  O43  1  0.370662  0.763598  0.624574  1
  O  O44  1  0.353549  0.575001  0.756366  1
  O  O45  1  0.327220  0.765965  0.900386  1
  O  O46  1  0.610235  0.637256  0.240489  1
  O  O47  1  0.372181  0.142389  0.670917  1
  O  O48  1  0.694253  0.792865  0.041366  1
  O  O49  1  0.275836  0.183349  0.996138  1
  O  O50  1  0.678985  0.258324  0.063975  1
  O  O51  1  0.381000  0.349402  0.805318  1
  O  O52  1  0.621826  0.858551  0.305484  1
  O  O53  1  0.533088  0.234597  0.410283  1
  O  O54  1  0.658361  0.417162  0.263871  1
  O  O55  1  0.595338  0.971086  0.615781  1
  O  O56  1  0.747004  0.010870  0.102091  1
  O  O57  1  0.693079  0.545889  0.506444  1
  O  O58  1  0.733894  0.693877  0.713196  1
  O  O59  1  0.651818  0.116314  0.813686  1
  O  O60  1  0.753516  0.445043  0.927934  1
  O  O61  1  0.929962  0.313728  0.550926  1
  O  O62  1  0.946495  0.898495  0.714617  1
  O  O63  1  0.973697  0.534681  0.647281  1
  O  O64  1  0.969007  0.087657  0.592735  1
  O  O65  1  0.985689  0.649075  0.903846  1
