# generated using pymatgen
data_CrFe3Cu2(PO4)6
_symmetry_space_group_name_H-M   'P 1'
_cell_length_a   8.58136196
_cell_length_b   8.58136152
_cell_length_c   8.58136207
_cell_angle_alpha   60.34596872
_cell_angle_beta   60.34596666
_cell_angle_gamma   60.34596170
_symmetry_Int_Tables_number   1
_chemical_formula_structural   CrFe3Cu2(PO4)6
_chemical_formula_sum   'Cr1 Fe3 Cu2 P6 O24'
_cell_volume   450.33890828
_cell_formula_units_Z   1
loop_
 _symmetry_equiv_pos_site_id
 _symmetry_equiv_pos_as_xyz
  1  'x, y, z'
loop_
 _atom_site_type_symbol
 _atom_site_label
 _atom_site_symmetry_multiplicity
 _atom_site_fract_x
 _atom_site_fract_y
 _atom_site_fract_z
 _atom_site_occupancy
  Cr  Cr0  1  0.858727  0.858727  0.858727  1
  Fe  Fe1  1  0.143893  0.143893  0.143893  1
  Fe  Fe2  1  0.355676  0.355676  0.355676  1
  Fe  Fe3  1  0.644278  0.644278  0.644278  1
  Cu  Cu4  1  0.000689  0.000689  0.000689  1
  Cu  Cu5  1  0.500132  0.500132  0.500132  1
  P  P6  1  0.042715  0.750349  0.458056  1
  P  P7  1  0.458056  0.042715  0.750349  1
  P  P8  1  0.750349  0.458056  0.042715  1
  P  P9  1  0.248843  0.543839  0.955266  1
  P  P10  1  0.543839  0.955266  0.248843  1
  P  P11  1  0.955266  0.248843  0.543839  1
  O  O12  1  0.113098  0.309225  0.509205  1
  O  O13  1  0.309225  0.509205  0.113098  1
  O  O14  1  0.056141  0.913746  0.262602  1
  O  O15  1  0.509205  0.113098  0.309225  1
  O  O16  1  0.001861  0.812278  0.619200  1
  O  O17  1  0.239893  0.586459  0.447152  1
  O  O18  1  0.262602  0.056141  0.913746  1
  O  O19  1  0.447152  0.239893  0.586459  1
  O  O20  1  0.186540  0.386557  0.992627  1
  O  O21  1  0.586459  0.447152  0.239893  1
  O  O22  1  0.083445  0.741005  0.939813  1
  O  O23  1  0.386557  0.992627  0.186540  1
  O  O24  1  0.619200  0.001861  0.812278  1
  O  O25  1  0.913746  0.262602  0.056141  1
  O  O26  1  0.411222  0.560983  0.756622  1
  O  O27  1  0.812278  0.619200  0.001861  1
  O  O28  1  0.560983  0.756622  0.411222  1
  O  O29  1  0.741005  0.939813  0.083445  1
  O  O30  1  0.756622  0.411222  0.560983  1
  O  O31  1  0.992627  0.186540  0.386557  1
  O  O32  1  0.495045  0.886375  0.686443  1
  O  O33  1  0.939813  0.083445  0.741005  1
  O  O34  1  0.686443  0.495045  0.886375  1
  O  O35  1  0.886375  0.686443  0.495045  1
