# generated using pymatgen
data_Li3CoPCO7
_symmetry_space_group_name_H-M   'P 1'
_cell_length_a   8.46663654
_cell_length_b   9.93353458
_cell_length_c   6.44108776
_cell_angle_alpha   89.74123784
_cell_angle_beta   90.44556894
_cell_angle_gamma   84.50001839
_symmetry_Int_Tables_number   1
_chemical_formula_structural   Li3CoPCO7
_chemical_formula_sum   'Li12 Co4 P4 C4 O28'
_cell_volume   539.20105343
_cell_formula_units_Z   4
loop_
 _symmetry_equiv_pos_site_id
 _symmetry_equiv_pos_as_xyz
  1  'x, y, z'
loop_
 _atom_site_type_symbol
 _atom_site_label
 _atom_site_symmetry_multiplicity
 _atom_site_fract_x
 _atom_site_fract_y
 _atom_site_fract_z
 _atom_site_occupancy
  Li  Li0  1  0.105945  0.393194  0.258126  1
  Li  Li1  1  0.100908  0.881280  0.255078  1
  Li  Li2  1  0.276299  0.137115  0.491432  1
  Li  Li3  1  0.273380  0.613569  0.002115  1
  Li  Li4  1  0.276290  0.609755  0.488982  1
  Li  Li5  1  0.348840  0.398469  0.747781  1
  Li  Li6  1  0.717831  0.375022  0.527256  1
  Li  Li7  1  0.716332  0.376303  0.971771  1
  Li  Li8  1  0.722597  0.871408  0.523597  1
  Li  Li9  1  0.725424  0.871469  0.981219  1
  Li  Li10  1  0.899842  0.114618  0.749200  1
  Li  Li11  1  0.896510  0.610345  0.749725  1
  Co  Co12  1  0.269540  0.143630  0.004190  1
  Co  Co13  1  0.332786  0.893809  0.747203  1
  Co  Co14  1  0.669107  0.103264  0.249205  1
  Co  Co15  1  0.668276  0.604115  0.248520  1
  P  P16  1  0.409513  0.362160  0.247477  1
  P  P17  1  0.413732  0.865422  0.248963  1
  P  P18  1  0.590959  0.140742  0.751417  1
  P  P19  1  0.584261  0.639357  0.748518  1
  C  C20  1  0.037398  0.347647  0.757611  1
  C  C21  1  0.038594  0.848058  0.753140  1
  C  C22  1  0.961629  0.151326  0.249209  1
  C  C23  1  0.961549  0.650624  0.250916  1
  O  O24  1  0.069364  0.470445  0.749539  1
  O  O25  1  0.106772  0.188692  0.244006  1
  O  O26  1  0.070782  0.972951  0.747003  1
  O  O27  1  0.153288  0.248118  0.763458  1
  O  O28  1  0.107361  0.680699  0.253822  1
  O  O29  1  0.158267  0.754913  0.760014  1
  O  O30  1  0.306441  0.411148  0.058062  1
  O  O31  1  0.310049  0.405107  0.439842  1
  O  O32  1  0.309319  0.926771  0.060825  1
  O  O33  1  0.308796  0.917200  0.435272  1
  O  O34  1  0.422429  0.088887  0.752858  1
  O  O35  1  0.431922  0.200832  0.237413  1
  O  O36  1  0.420971  0.586659  0.745668  1
  O  O37  1  0.432041  0.708864  0.239367  1
  O  O38  1  0.572247  0.296020  0.750999  1
  O  O39  1  0.576909  0.412439  0.249684  1
  O  O40  1  0.566441  0.797990  0.750083  1
  O  O41  1  0.580183  0.916164  0.250962  1
  O  O42  1  0.695041  0.083136  0.938137  1
  O  O43  1  0.688441  0.082967  0.562477  1
  O  O44  1  0.691016  0.588628  0.561844  1
  O  O45  1  0.691204  0.586236  0.936283  1
  O  O46  1  0.842091  0.243060  0.258861  1
  O  O47  1  0.891649  0.314986  0.754254  1
  O  O48  1  0.843795  0.746292  0.247727  1
  O  O49  1  0.935040  0.026223  0.246343  1
  O  O50  1  0.894068  0.815110  0.750975  1
  O  O51  1  0.926534  0.526766  0.251570  1
