# generated using pymatgen
data_Ba6Na2P2Ru2O17
_symmetry_space_group_name_H-M   'P 1'
_cell_length_a   5.86932877
_cell_length_b   5.86921633
_cell_length_c   29.62474837
_cell_angle_alpha   90.00003386
_cell_angle_beta   89.99976680
_cell_angle_gamma   119.99967276
_symmetry_Int_Tables_number   1
_chemical_formula_structural   Ba6Na2P2Ru2O17
_chemical_formula_sum   'Ba12 Na4 P4 Ru4 O34'
_cell_volume   883.80262774
_cell_formula_units_Z   2
loop_
 _symmetry_equiv_pos_site_id
 _symmetry_equiv_pos_as_xyz
  1  'x, y, z'
loop_
 _atom_site_type_symbol
 _atom_site_label
 _atom_site_symmetry_multiplicity
 _atom_site_fract_x
 _atom_site_fract_y
 _atom_site_fract_z
 _atom_site_occupancy
  Ba  Ba0  1  0.333306  0.666655  0.177678  1
  Ba  Ba1  1  0.333321  0.666700  0.589866  1
  Ba  Ba2  1  0.999979  0.000181  0.999972  1
  Ba  Ba3  1  0.000116  0.999453  0.249996  1
  Ba  Ba4  1  0.333301  0.666582  0.322323  1
  Ba  Ba5  1  0.999977  0.999990  0.500027  1
  Ba  Ba6  1  0.000281  0.999645  0.749983  1
  Ba  Ba7  1  0.333329  0.666689  0.910136  1
  Ba  Ba8  1  0.666659  0.333368  0.089863  1
  Ba  Ba9  1  0.666711  0.333353  0.822317  1
  Ba  Ba10  1  0.666706  0.333364  0.677681  1
  Ba  Ba11  1  0.666663  0.333352  0.410136  1
  Na  Na12  1  0.999982  0.000031  0.121955  1
  Na  Na13  1  0.999990  0.000023  0.378046  1
  Na  Na14  1  0.999989  0.000041  0.621971  1
  Na  Na15  1  0.999997  0.000029  0.878027  1
  P  P16  1  0.333310  0.666702  0.053513  1
  P  P17  1  0.333344  0.666691  0.446485  1
  P  P18  1  0.666667  0.333387  0.553536  1
  P  P19  1  0.666670  0.333393  0.946465  1
  Ru  Ru20  1  0.333346  0.666674  0.703032  1
  Ru  Ru21  1  0.333374  0.666665  0.796972  1
  Ru  Ru22  1  0.666638  0.333323  0.203030  1
  Ru  Ru23  1  0.666638  0.333308  0.296972  1
  O  O24  1  0.175847  0.824355  0.668364  1
  O  O25  1  0.175843  0.824297  0.831641  1
  O  O26  1  0.974139  0.487114  0.250000  1
  O  O27  1  0.188808  0.811362  0.072236  1
  O  O28  1  0.188791  0.811286  0.427754  1
  O  O29  1  0.512821  0.025814  0.249999  1
  O  O30  1  0.188657  0.377530  0.072242  1
  O  O31  1  0.175664  0.351560  0.668359  1
  O  O32  1  0.333308  0.666709  0.498638  1
  O  O33  1  0.333302  0.666658  0.001363  1
  O  O34  1  0.188753  0.377508  0.427764  1
  O  O35  1  0.175825  0.351553  0.831642  1
  O  O36  1  0.622479  0.811207  0.072238  1
  O  O37  1  0.622519  0.811244  0.427767  1
  O  O38  1  0.351506  0.175886  0.168357  1
  O  O39  1  0.351507  0.175880  0.331644  1
  O  O40  1  0.512869  0.487084  0.250001  1
  O  O41  1  0.487165  0.512990  0.749996  1
  O  O42  1  0.648455  0.824158  0.668359  1
  O  O43  1  0.648491  0.824194  0.831640  1
  O  O44  1  0.377520  0.188890  0.572261  1
  O  O45  1  0.377522  0.188888  0.927743  1
  O  O46  1  0.487008  0.974177  0.749998  1
  O  O47  1  0.666673  0.333400  0.501377  1
  O  O48  1  0.666682  0.333387  0.998625  1
  O  O49  1  0.824334  0.648502  0.168361  1
  O  O50  1  0.824323  0.648490  0.331640  1
  O  O51  1  0.811321  0.622536  0.572263  1
  O  O52  1  0.811321  0.622542  0.927740  1
  O  O53  1  0.811159  0.188729  0.572261  1
  O  O54  1  0.811167  0.188736  0.927739  1
  O  O55  1  0.025844  0.512870  0.750002  1
  O  O56  1  0.824116  0.175681  0.168360  1
  O  O57  1  0.824123  0.175680  0.331642  1
