# generated using pymatgen
data_VP6(WO8)3
_symmetry_space_group_name_H-M   'P 1'
_cell_length_a   8.92477650
_cell_length_b   8.92477646
_cell_length_c   8.92477592
_cell_angle_alpha   58.98266908
_cell_angle_beta   58.98266752
_cell_angle_gamma   58.98267001
_symmetry_Int_Tables_number   1
_chemical_formula_structural   VP6(WO8)3
_chemical_formula_sum   'V1 P6 W3 O24'
_cell_volume   490.99723626
_cell_formula_units_Z   1
loop_
 _symmetry_equiv_pos_site_id
 _symmetry_equiv_pos_as_xyz
  1  'x, y, z'
loop_
 _atom_site_type_symbol
 _atom_site_label
 _atom_site_symmetry_multiplicity
 _atom_site_fract_x
 _atom_site_fract_y
 _atom_site_fract_z
 _atom_site_occupancy
  V  V0  1  0.858382  0.858382  0.858382  1
  P  P1  1  0.035043  0.750833  0.467884  1
  P  P2  1  0.467884  0.035043  0.750833  1
  P  P3  1  0.750833  0.467884  0.035043  1
  P  P4  1  0.246369  0.540043  0.963242  1
  P  P5  1  0.540043  0.963242  0.246369  1
  P  P6  1  0.963242  0.246369  0.540043  1
  W  W7  1  0.142367  0.142367  0.142367  1
  W  W8  1  0.357231  0.357231  0.357231  1
  W  W9  1  0.642330  0.642330  0.642330  1
  O  O10  1  0.131364  0.285707  0.504077  1
  O  O11  1  0.285707  0.504077  0.131364  1
  O  O12  1  0.063170  0.920146  0.286055  1
  O  O13  1  0.504077  0.131364  0.285707  1
  O  O14  1  0.212451  0.581078  0.432451  1
  O  O15  1  0.008795  0.775897  0.634435  1
  O  O16  1  0.286055  0.063170  0.920146  1
  O  O17  1  0.432451  0.212451  0.581078  1
  O  O18  1  0.581078  0.432451  0.212451  1
  O  O19  1  0.221998  0.365165  0.992311  1
  O  O20  1  0.080177  0.712162  0.941062  1
  O  O21  1  0.365165  0.992311  0.221998  1
  O  O22  1  0.634435  0.008795  0.775897  1
  O  O23  1  0.920146  0.286055  0.063170  1
  O  O24  1  0.775897  0.634435  0.008795  1
  O  O25  1  0.423203  0.558785  0.788805  1
  O  O26  1  0.558785  0.788805  0.423203  1
  O  O27  1  0.712162  0.941062  0.080177  1
  O  O28  1  0.992311  0.221998  0.365165  1
  O  O29  1  0.788805  0.423203  0.558785  1
  O  O30  1  0.490142  0.867040  0.719799  1
  O  O31  1  0.941062  0.080177  0.712162  1
  O  O32  1  0.719799  0.490142  0.867040  1
  O  O33  1  0.867040  0.719799  0.490142  1
