# generated using pymatgen
data_Li2V3CuO8
_symmetry_space_group_name_H-M   'P 1'
_cell_length_a   5.88713878
_cell_length_b   5.86483736
_cell_length_c   9.82098163
_cell_angle_alpha   87.69782782
_cell_angle_beta   91.14649334
_cell_angle_gamma   119.87476325
_symmetry_Int_Tables_number   1
_chemical_formula_structural   Li2V3CuO8
_chemical_formula_sum   'Li4 V6 Cu2 O16'
_cell_volume   293.79323371
_cell_formula_units_Z   2
loop_
 _symmetry_equiv_pos_site_id
 _symmetry_equiv_pos_as_xyz
  1  'x, y, z'
loop_
 _atom_site_type_symbol
 _atom_site_label
 _atom_site_symmetry_multiplicity
 _atom_site_fract_x
 _atom_site_fract_y
 _atom_site_fract_z
 _atom_site_occupancy
  Li  Li0  1  0.340916  0.659703  0.898940  1
  Li  Li1  1  0.988234  0.008559  0.994826  1
  Li  Li2  1  0.011766  0.020324  0.494826  1
  Li  Li3  1  0.659084  0.318787  0.398940  1
  V  V4  1  0.133082  0.800795  0.215464  1
  V  V5  1  0.184852  0.334672  0.215104  1
  V  V6  1  0.649651  0.846494  0.211437  1
  V  V7  1  0.350349  0.196844  0.711437  1
  V  V8  1  0.866918  0.667712  0.715464  1
  V  V9  1  0.815148  0.149820  0.715104  1
  Cu  Cu10  1  0.345658  0.678159  0.499166  1
  Cu  Cu11  1  0.654342  0.332501  -0.000834  1
  O  O12  1  0.185212  0.872932  0.607414  1
  O  O13  1  0.018625  0.511059  0.324838  1
  O  O14  1  0.321684  0.666671  0.101507  1
  O  O15  1  0.986822  0.988078  0.311818  1
  O  O16  1  0.013178  0.001257  0.811818  1
  O  O17  1  0.163173  0.335775  0.607091  1
  O  O18  1  0.481736  0.948579  0.333372  1
  O  O19  1  0.461600  0.488424  0.325489  1
  O  O20  1  0.301975  0.141861  0.107454  1
  O  O21  1  0.698025  0.839885  0.607454  1
  O  O22  1  0.518264  0.466843  0.833372  1
  O  O23  1  0.538400  0.026824  0.825489  1
  O  O24  1  0.678316  0.344987  0.601507  1
  O  O25  1  0.814788  0.687719  0.107414  1
  O  O26  1  0.981375  0.492433  0.824838  1
  O  O27  1  0.836827  0.172602  0.107091  1
