# generated using pymatgen
data_Mn6OF11
_symmetry_space_group_name_H-M   'P 1'
_cell_length_a   4.96419673
_cell_length_b   5.88786593
_cell_length_c   16.21416429
_cell_angle_alpha   90.00000000
_cell_angle_beta   90.00000000
_cell_angle_gamma   90.89403816
_symmetry_Int_Tables_number   1
_chemical_formula_structural   Mn6OF11
_chemical_formula_sum   'Mn12 O2 F22'
_cell_volume   473.85840943
_cell_formula_units_Z   2
loop_
 _symmetry_equiv_pos_site_id
 _symmetry_equiv_pos_as_xyz
  1  'x, y, z'
loop_
 _atom_site_type_symbol
 _atom_site_label
 _atom_site_symmetry_multiplicity
 _atom_site_fract_x
 _atom_site_fract_y
 _atom_site_fract_z
 _atom_site_occupancy
  Mn  Mn0  1  0.995645  0.173549  0.415292  1
  Mn  Mn1  1  0.008488  0.829305  0.249490  1
  Mn  Mn2  1  0.019336  0.184736  0.088123  1
  Mn  Mn3  1  0.013623  0.166004  0.744467  1
  Mn  Mn4  1  0.009961  0.854970  0.585350  1
  Mn  Mn5  1  0.992059  0.833708  0.919769  1
  Mn  Mn6  1  0.480664  0.315264  0.588123  1
  Mn  Mn7  1  0.504355  0.326451  0.915292  1
  Mn  Mn8  1  0.507941  0.666292  0.419769  1
  Mn  Mn9  1  0.486377  0.333996  0.244468  1
  Mn  Mn10  1  0.490040  0.645030  0.085350  1
  Mn  Mn11  1  0.491512  0.670695  0.749490  1
  O  O12  1  0.210099  0.087927  0.634783  1
  O  O13  1  0.289901  0.412073  0.134783  1
  F  F14  1  0.233692  0.104718  0.308248  1
  F  F15  1  0.219194  0.109757  0.974149  1
  F  F16  1  0.241620  0.894004  0.138298  1
  F  F17  1  0.219730  0.887260  0.475256  1
  F  F18  1  0.229782  0.892814  0.810275  1
  F  F19  1  0.270218  0.607186  0.310275  1
  F  F20  1  0.280806  0.390243  0.474149  1
  F  F21  1  0.258380  0.605996  0.638298  1
  F  F22  1  0.266308  0.395282  0.808248  1
  F  F23  1  0.280270  0.612740  0.975256  1
  F  F24  1  0.736189  0.392705  0.024573  1
  F  F25  1  0.724682  0.394057  0.356474  1
  F  F26  1  0.750185  0.623283  0.532472  1
  F  F27  1  0.729610  0.619270  0.188712  1
  F  F28  1  0.727860  0.608086  0.859315  1
  F  F29  1  0.712445  0.385536  0.694953  1
  F  F30  1  0.772140  0.891914  0.359315  1
  F  F31  1  0.775318  0.105943  0.856474  1
  F  F32  1  0.787555  0.114464  0.194953  1
  F  F33  1  0.749815  0.876717  0.032472  1
  F  F34  1  0.763811  0.107295  0.524573  1
  F  F35  1  0.770390  0.880730  0.688712  1
