# generated using pymatgen
data_Li32Mn3Cr13O48
_symmetry_space_group_name_H-M   'P 1'
_cell_length_a   5.01981871
_cell_length_b   8.72539371
_cell_length_c   19.47471115
_cell_angle_alpha   97.89058560
_cell_angle_beta   94.72778861
_cell_angle_gamma   89.36450647
_symmetry_Int_Tables_number   1
_chemical_formula_structural   Li32Mn3Cr13O48
_chemical_formula_sum   'Li32 Mn3 Cr13 O48'
_cell_volume   842.03939436
_cell_formula_units_Z   1
loop_
 _symmetry_equiv_pos_site_id
 _symmetry_equiv_pos_as_xyz
  1  'x, y, z'
loop_
 _atom_site_type_symbol
 _atom_site_label
 _atom_site_symmetry_multiplicity
 _atom_site_fract_x
 _atom_site_fract_y
 _atom_site_fract_z
 _atom_site_occupancy
  Li  Li0  1  0.989506  0.167817  0.249464  1
  Li  Li1  1  0.873233  0.374335  0.375009  1
  Li  Li2  1  0.751327  0.249192  0.999538  1
  Li  Li3  1  0.740755  0.920888  0.000266  1
  Li  Li4  1  0.991417  0.167808  0.749290  1
  Li  Li5  1  0.755437  0.579195  0.499702  1
  Li  Li6  1  0.874355  0.374640  0.874886  1
  Li  Li7  1  0.753412  0.250193  0.500048  1
  Li  Li8  1  0.739610  0.920067  0.500089  1
  Li  Li9  1  0.623235  0.123959  0.125083  1
  Li  Li10  1  0.754374  0.578915  0.999809  1
  Li  Li11  1  0.508386  0.330844  0.250402  1
  Li  Li12  1  0.623031  0.123965  0.625041  1
  Li  Li13  1  0.498877  0.000452  0.249835  1
  Li  Li14  1  0.489967  0.669506  0.250126  1
  Li  Li15  1  0.505535  0.330996  0.750198  1
  Li  Li16  1  0.374600  0.875022  0.374932  1
  Li  Li17  1  0.500733  0.000531  0.749833  1
  Li  Li18  1  0.250809  0.749981  0.000071  1
  Li  Li19  1  0.490613  0.668762  0.750109  1
  Li  Li20  1  0.244380  0.420538  0.999856  1
  Li  Li21  1  0.374768  0.875223  0.875055  1
  Li  Li22  1  0.259050  0.079960  0.500050  1
  Li  Li23  1  0.250049  0.750801  0.499963  1
  Li  Li24  1  0.126723  0.626020  0.124886  1
  Li  Li25  1  0.244036  0.420197  0.500302  1
  Li  Li26  1  0.010886  0.832162  0.250371  1
  Li  Li27  1  0.259554  0.079318  0.999610  1
  Li  Li28  1  0.124669  0.624626  0.624788  1
  Li  Li29  1  0.001829  0.500649  0.250462  1
  Li  Li30  1  0.010593  0.831523  0.750190  1
  Li  Li31  1  0.002510  0.500333  0.750058  1
  Mn  Mn32  1  0.375558  0.541453  0.374945  1
  Mn  Mn33  1  0.374149  0.541329  0.874519  1
  Mn  Mn34  1  0.126191  0.291811  0.625167  1
  Cr  Cr35  1  0.867396  0.706462  0.374481  1
  Cr  Cr36  1  0.880822  0.038923  0.375205  1
  Cr  Cr37  1  0.865592  0.707327  0.874534  1
  Cr  Cr38  1  0.882764  0.039333  0.875640  1
  Cr  Cr39  1  0.630025  0.788468  0.124668  1
  Cr  Cr40  1  0.622647  0.452891  0.124063  1
  Cr  Cr41  1  0.629745  0.788424  0.625131  1
  Cr  Cr42  1  0.619269  0.455247  0.624488  1
  Cr  Cr43  1  0.371854  0.212053  0.375360  1
  Cr  Cr44  1  0.373876  0.212459  0.875443  1
  Cr  Cr45  1  0.119709  0.961353  0.125261  1
  Cr  Cr46  1  0.128772  0.297137  0.125997  1
  Cr  Cr47  1  0.120959  0.961824  0.625339  1
  O  O48  1  0.968584  0.105973  0.069508  1
  O  O49  1  0.919834  0.784079  0.068587  1
  O  O50  1  0.934152  0.422967  0.067123  1
  O  O51  1  0.965824  0.107903  0.569418  1
  O  O52  1  0.829643  0.966085  0.181218  1
  O  O53  1  0.816267  0.326777  0.182869  1
  O  O54  1  0.919606  0.785977  0.568589  1
  O  O55  1  0.931999  0.427261  0.567782  1
  O  O56  1  0.781725  0.643726  0.180346  1
  O  O57  1  0.718029  0.852551  0.318576  1
  O  O58  1  0.830673  0.964966  0.681376  1
  O  O59  1  0.823937  0.323678  0.681905  1
  O  O60  1  0.675637  0.533761  0.318672  1
  O  O61  1  0.673499  0.176587  0.317828  1
  O  O62  1  0.782109  0.643588  0.680967  1
  O  O63  1  0.719079  0.852147  0.818729  1
  O  O64  1  0.463517  0.602767  0.068768  1
  O  O65  1  0.568998  0.713743  0.430450  1
  O  O66  1  0.575158  0.073784  0.432243  1
  O  O67  1  0.674238  0.532601  0.818588  1
  O  O68  1  0.673259  0.175650  0.818169  1
  O  O69  1  0.427119  0.926935  0.067909  1
  O  O70  1  0.437882  0.287730  0.068893  1
  O  O71  1  0.539125  0.396586  0.431353  1
  O  O72  1  0.467682  0.602879  0.568820  1
  O  O73  1  0.570580  0.713267  0.930414  1
  O  O74  1  0.575703  0.072521  0.932472  1
  O  O75  1  0.323499  0.823491  0.181960  1
  O  O76  1  0.312740  0.462701  0.181271  1
  O  O77  1  0.424012  0.927285  0.567709  1
  O  O78  1  0.427677  0.284847  0.569226  1
  O  O79  1  0.538154  0.395688  0.931138  1
  O  O80  1  0.285221  0.147392  0.181326  1
  O  O81  1  0.214727  0.358034  0.319469  1
  O  O82  1  0.325392  0.824310  0.682195  1
  O  O83  1  0.317482  0.463684  0.680844  1
  O  O84  1  0.180551  0.677746  0.317797  1
  O  O85  1  0.169872  0.035786  0.318663  1
  O  O86  1  0.289391  0.146524  0.681551  1
  O  O87  1  0.213617  0.358604  0.819442  1
  O  O88  1  0.073770  0.573845  0.431689  1
  O  O89  1  0.080882  0.214726  0.431267  1
  O  O90  1  0.179881  0.678098  0.818024  1
  O  O91  1  0.171315  0.036309  0.819076  1
  O  O92  1  0.031977  0.894802  0.431263  1
  O  O93  1  0.073485  0.573768  0.931675  1
  O  O94  1  0.081553  0.215173  0.931685  1
  O  O95  1  0.033353  0.895791  0.931598  1
