# generated using pymatgen
data_Ba16S16O59
_symmetry_space_group_name_H-M   'P 1'
_cell_length_a   8.96161629
_cell_length_b   11.13839810
_cell_length_c   14.54172443
_cell_angle_alpha   90.00338378
_cell_angle_beta   89.93607353
_cell_angle_gamma   89.97975102
_symmetry_Int_Tables_number   1
_chemical_formula_structural   Ba16S16O59
_chemical_formula_sum   'Ba16 S16 O59'
_cell_volume   1451.52557697
_cell_formula_units_Z   1
loop_
 _symmetry_equiv_pos_site_id
 _symmetry_equiv_pos_as_xyz
  1  'x, y, z'
loop_
 _atom_site_type_symbol
 _atom_site_label
 _atom_site_symmetry_multiplicity
 _atom_site_fract_x
 _atom_site_fract_y
 _atom_site_fract_z
 _atom_site_occupancy
  Ba  Ba0  1  0.185444  0.135502  0.075910  1
  Ba  Ba1  1  0.177615  0.125465  0.573149  1
  Ba  Ba2  1  0.185151  0.614651  0.075763  1
  Ba  Ba3  1  0.179276  0.624447  0.570838  1
  Ba  Ba4  1  0.322436  0.379909  0.318948  1
  Ba  Ba5  1  0.321096  0.869926  0.326363  1
  Ba  Ba6  1  0.319985  0.374929  0.831044  1
  Ba  Ba7  1  0.321948  0.875048  0.829884  1
  Ba  Ba8  1  0.684572  0.115185  0.179573  1
  Ba  Ba9  1  0.693569  0.124123  0.669145  1
  Ba  Ba10  1  0.688558  0.635234  0.175171  1
  Ba  Ba11  1  0.692639  0.626021  0.670698  1
  Ba  Ba12  1  0.812886  0.369723  0.426159  1
  Ba  Ba13  1  0.816198  0.374413  0.918378  1
  Ba  Ba14  1  0.811929  0.880235  0.424786  1
  Ba  Ba15  1  0.817310  0.875902  0.926177  1
  S  S16  1  0.065113  0.123367  0.343622  1
  S  S17  1  0.060074  0.626573  0.343194  1
  S  S18  1  0.059179  0.125023  0.842479  1
  S  S19  1  0.059410  0.625008  0.842702  1
  S  S20  1  0.451924  0.375121  0.086304  1
  S  S21  1  0.435181  0.373161  0.594806  1
  S  S22  1  0.434617  0.874762  0.093885  1
  S  S23  1  0.435345  0.876797  0.594717  1
  S  S24  1  0.547503  0.125546  0.413995  1
  S  S25  1  0.558570  0.126469  0.906244  1
  S  S26  1  0.559906  0.625018  0.406119  1
  S  S27  1  0.558551  0.623538  0.906187  1
  S  S28  1  0.952187  0.874363  0.663981  1
  S  S29  1  0.934658  0.374859  0.154792  1
  S  S30  1  0.952800  0.375618  0.663902  1
  S  S31  1  0.951677  0.875054  0.162374  1
  O  O32  1  0.085498  0.014252  0.403851  1
  O  O33  1  0.090449  0.232543  0.402601  1
  O  O34  1  0.084925  0.517116  0.401626  1
  O  O35  1  0.079747  0.735996  0.402946  1
  O  O36  1  0.081460  0.515007  0.901681  1
  O  O37  1  0.083758  0.734023  0.901694  1
  O  O38  1  0.081824  0.234982  0.901323  1
  O  O39  1  0.084187  0.016031  0.901323  1
  O  O40  1  0.087441  0.374814  0.192943  1
  O  O41  1  0.181253  0.119062  0.270329  1
  O  O42  1  0.172578  0.125943  0.767245  1
  O  O43  1  0.176192  0.630901  0.269522  1
  O  O44  1  0.173196  0.624101  0.767838  1
  O  O45  1  0.315838  0.375469  0.021353  1
  O  O46  1  0.318997  0.369283  0.521249  1
  O  O47  1  0.317521  0.874380  0.021510  1
  O  O48  1  0.319539  0.880845  0.520792  1
  O  O49  1  0.404908  0.124173  0.942932  1
  O  O50  1  0.407019  0.625053  0.444094  1
  O  O51  1  0.405135  0.625873  0.942997  1
  O  O52  1  0.427162  0.265530  0.150125  1
  O  O53  1  0.415025  0.264027  0.654879  1
  O  O54  1  0.427701  0.485008  0.150252  1
  O  O55  1  0.410205  0.482389  0.653886  1
  O  O56  1  0.413550  0.765947  0.154169  1
  O  O57  1  0.409639  0.767671  0.653651  1
  O  O58  1  0.412858  0.983407  0.154009  1
  O  O59  1  0.414352  0.985777  0.654744  1
  O  O60  1  0.568207  0.014839  0.349986  1
  O  O61  1  0.572045  0.234242  0.349331  1
  O  O62  1  0.581165  0.516468  0.346310  1
  O  O63  1  0.582257  0.017030  0.847525  1
  O  O64  1  0.577510  0.235893  0.846394  1
  O  O65  1  0.577624  0.514167  0.846258  1
  O  O66  1  0.579165  0.734610  0.346461  1
  O  O67  1  0.582358  0.732927  0.847436  1
  O  O68  1  0.587070  0.874696  0.055575  1
  O  O69  1  0.587906  0.375458  0.557176  1
  O  O70  1  0.587938  0.874444  0.557271  1
  O  O71  1  0.684750  0.124061  0.477196  1
  O  O72  1  0.676988  0.625795  0.478400  1
  O  O73  1  0.673992  0.130717  0.979770  1
  O  O74  1  0.674163  0.619202  0.979590  1
  O  O75  1  0.817429  0.375054  0.227115  1
  O  O76  1  0.817711  0.374675  0.728640  1
  O  O77  1  0.815200  0.874940  0.227013  1
  O  O78  1  0.816364  0.875339  0.727880  1
  O  O79  1  0.904941  0.124880  0.807763  1
  O  O80  1  0.905211  0.625127  0.807681  1
  O  O81  1  0.912098  0.125683  0.307168  1
  O  O82  1  0.907249  0.624253  0.306337  1
  O  O83  1  0.928378  0.765793  0.598722  1
  O  O84  1  0.931361  0.984536  0.599492  1
  O  O85  1  0.913870  0.266060  0.094575  1
  O  O86  1  0.930581  0.265510  0.599726  1
  O  O87  1  0.914199  0.483792  0.094490  1
  O  O88  1  0.927615  0.484125  0.598997  1
  O  O89  1  0.928330  0.765179  0.098142  1
  O  O90  1  0.928368  0.984914  0.098433  1
