# generated using pymatgen
data_LiFeSbO4
_symmetry_space_group_name_H-M   'P 1'
_cell_length_a   6.23612144
_cell_length_b   6.23611957
_cell_length_c   8.62569589
_cell_angle_alpha   89.99918755
_cell_angle_beta   89.99994178
_cell_angle_gamma   89.98444720
_symmetry_Int_Tables_number   1
_chemical_formula_structural   LiFeSbO4
_chemical_formula_sum   'Li4 Fe4 Sb4 O16'
_cell_volume   335.44639092
_cell_formula_units_Z   4
loop_
 _symmetry_equiv_pos_site_id
 _symmetry_equiv_pos_as_xyz
  1  'x, y, z'
loop_
 _atom_site_type_symbol
 _atom_site_label
 _atom_site_symmetry_multiplicity
 _atom_site_fract_x
 _atom_site_fract_y
 _atom_site_fract_z
 _atom_site_occupancy
  Li  Li0  1  0.999993  0.212636  0.000037  1
  Li  Li1  1  0.999975  0.787368  0.499983  1
  Li  Li2  1  0.212623  0.000002  0.249986  1
  Li  Li3  1  0.787357  0.999982  0.749992  1
  Fe  Fe4  1  0.243806  0.243770  0.625017  1
  Fe  Fe5  1  0.243592  0.756408  0.875004  1
  Fe  Fe6  1  0.756380  0.243621  0.375001  1
  Fe  Fe7  1  0.756184  0.756165  0.124991  1
  Sb  Sb8  1  0.233896  0.500019  0.249970  1
  Sb  Sb9  1  0.500020  0.233893  0.000023  1
  Sb  Sb10  1  0.499988  0.766121  0.500019  1
  Sb  Sb11  1  0.766121  0.499985  0.749984  1
  O  O12  1  0.024140  0.267021  0.251638  1
  O  O13  1  0.024103  0.733053  0.248272  1
  O  O14  1  0.266988  0.024149  0.998388  1
  O  O15  1  0.266928  0.975893  0.501709  1
  O  O16  1  0.270563  0.477434  0.015002  1
  O  O17  1  0.270485  0.522676  0.484985  1
  O  O18  1  0.477401  0.270535  0.235010  1
  O  O19  1  0.477303  0.729550  0.265006  1
  O  O20  1  0.522701  0.270456  0.765016  1
  O  O21  1  0.522586  0.729463  0.734999  1
  O  O22  1  0.729495  0.522616  0.514987  1
  O  O23  1  0.729580  0.477279  0.984991  1
  O  O24  1  0.733048  0.024096  0.001727  1
  O  O25  1  0.732974  0.975878  0.498361  1
  O  O26  1  0.975901  0.266929  0.748289  1
  O  O27  1  0.975870  0.733004  0.751613  1
