# generated using pymatgen
data_NaInBP2HO9
_symmetry_space_group_name_H-M   'P 1'
_cell_length_a   5.25353375
_cell_length_b   17.06367618
_cell_length_c   7.88332993
_cell_angle_alpha   90.00000000
_cell_angle_beta   93.37630142
_cell_angle_gamma   90.00000000
_symmetry_Int_Tables_number   1
_chemical_formula_structural   NaInBP2HO9
_chemical_formula_sum   'Na4 In4 B4 P8 H4 O36'
_cell_volume   705.47131345
_cell_formula_units_Z   4
loop_
 _symmetry_equiv_pos_site_id
 _symmetry_equiv_pos_as_xyz
  1  'x, y, z'
loop_
 _atom_site_type_symbol
 _atom_site_label
 _atom_site_symmetry_multiplicity
 _atom_site_fract_x
 _atom_site_fract_y
 _atom_site_fract_z
 _atom_site_occupancy
  Na  Na0  1  0.145289  0.838690  0.160919  1
  Na  Na1  1  0.354711  0.338690  0.339081  1
  Na  Na2  1  0.645289  0.661310  0.660919  1
  Na  Na3  1  0.854711  0.161310  0.839081  1
  In  In4  1  0.179252  0.844054  0.693175  1
  In  In5  1  0.320748  0.344054  0.806825  1
  In  In6  1  0.679252  0.655946  0.193175  1
  In  In7  1  0.820748  0.155946  0.306825  1
  B  B8  1  0.089504  0.528236  0.750131  1
  B  B9  1  0.410496  0.028236  0.749869  1
  B  B10  1  0.589504  0.971764  0.250131  1
  B  B11  1  0.910496  0.471764  0.249869  1
  P  P12  1  0.150867  0.669966  0.916830  1
  P  P13  1  0.172175  0.587805  0.428305  1
  P  P14  1  0.349133  0.169966  0.583170  1
  P  P15  1  0.327825  0.087805  0.071695  1
  P  P16  1  0.672175  0.912195  0.928305  1
  P  P17  1  0.650867  0.830034  0.416830  1
  P  P18  1  0.827825  0.412195  0.571695  1
  P  P19  1  0.849133  0.330034  0.083170  1
  H  H20  1  0.123183  0.004413  0.578864  1
  H  H21  1  0.376817  0.504413  0.921136  1
  H  H22  1  0.623183  0.495587  0.078864  1
  H  H23  1  0.876817  0.995587  0.421136  1
  O  O24  1  0.005533  0.591883  0.860169  1
  O  O25  1  0.061360  0.151773  0.541846  1
  O  O26  1  0.019939  0.699922  0.074260  1
  O  O27  1  0.079714  0.366848  0.576804  1
  O  O28  1  0.116241  0.724158  0.761533  1
  O  O29  1  0.099144  0.134087  0.122121  1
  O  O30  1  0.142050  0.512429  0.312709  1
  O  O31  1  0.255609  0.060518  0.884889  1
  O  O32  1  0.242903  0.973187  0.649277  1
  O  O33  1  0.257097  0.473187  0.850723  1
  O  O34  1  0.244391  0.560518  0.615111  1
  O  O35  1  0.383759  0.224158  0.738467  1
  O  O36  1  0.420286  0.866848  0.923196  1
  O  O37  1  0.438640  0.651773  0.958154  1
  O  O38  1  0.357950  0.012429  0.187291  1
  O  O39  1  0.400856  0.634087  0.377879  1
  O  O40  1  0.494467  0.091883  0.639831  1
  O  O41  1  0.480061  0.199922  0.425741  1
  O  O42  1  0.519939  0.800078  0.574260  1
  O  O43  1  0.505533  0.908117  0.360169  1
  O  O44  1  0.599144  0.365913  0.622121  1
  O  O45  1  0.642050  0.987571  0.812709  1
  O  O46  1  0.561360  0.348227  0.041846  1
  O  O47  1  0.579714  0.133152  0.076804  1
  O  O48  1  0.616241  0.775842  0.261533  1
  O  O49  1  0.755609  0.439482  0.384889  1
  O  O50  1  0.742903  0.526813  0.149277  1
  O  O51  1  0.757097  0.026813  0.350723  1
  O  O52  1  0.744391  0.939482  0.115111  1
  O  O53  1  0.857950  0.487571  0.687291  1
  O  O54  1  0.900856  0.865913  0.877879  1
  O  O55  1  0.883759  0.275842  0.238467  1
  O  O56  1  0.920286  0.633152  0.423196  1
  O  O57  1  0.980061  0.300078  0.925740  1
  O  O58  1  0.938640  0.848227  0.458154  1
  O  O59  1  0.994467  0.408117  0.139831  1
