# generated using pymatgen
data_VH10SO10
_symmetry_space_group_name_H-M   'P 1'
_cell_length_a   7.48730028
_cell_length_b   9.24174067
_cell_length_c   6.26493597
_cell_angle_alpha   90.00000000
_cell_angle_beta   90.00000000
_cell_angle_gamma   90.00000000
_symmetry_Int_Tables_number   1
_chemical_formula_structural   VH10SO10
_chemical_formula_sum   'V2 H20 S2 O20'
_cell_volume   433.50655163
_cell_formula_units_Z   2
loop_
 _symmetry_equiv_pos_site_id
 _symmetry_equiv_pos_as_xyz
  1  'x, y, z'
loop_
 _atom_site_type_symbol
 _atom_site_label
 _atom_site_symmetry_multiplicity
 _atom_site_fract_x
 _atom_site_fract_y
 _atom_site_fract_z
 _atom_site_occupancy
  V  V0  1  0.500000  0.716515  0.505851  1
  V  V1  1  0.000000  0.283485  0.005851  1
  H  H2  1  0.500000  0.886761  0.097776  1
  H  H3  1  0.000000  0.113239  0.597776  1
  H  H4  1  0.500000  0.722161  0.046301  1
  H  H5  1  0.000000  0.277839  0.546301  1
  H  H6  1  0.677965  0.971568  0.511448  1
  H  H7  1  0.322035  0.971568  0.511448  1
  H  H8  1  0.822035  0.028432  0.011448  1
  H  H9  1  0.177965  0.028432  0.011448  1
  H  H10  1  0.753726  0.860451  0.694415  1
  H  H11  1  0.246274  0.860451  0.694415  1
  H  H12  1  0.746274  0.139549  0.194415  1
  H  H13  1  0.253726  0.139549  0.194415  1
  H  H14  1  0.800014  0.629191  0.302753  1
  H  H15  1  0.199986  0.629191  0.302753  1
  H  H16  1  0.699986  0.370809  0.802753  1
  H  H17  1  0.300014  0.370809  0.802753  1
  H  H18  1  0.658253  0.491228  0.320422  1
  H  H19  1  0.341747  0.491228  0.320422  1
  H  H20  1  0.841747  0.508772  0.820422  1
  H  H21  1  0.158253  0.508772  0.820422  1
  S  S22  1  0.500000  0.231724  0.462151  1
  S  S23  1  0.000000  0.768276  0.962151  1
  O  O24  1  0.500000  0.656281  0.751063  1
  O  O25  1  0.000000  0.343719  0.251063  1
  O  O26  1  0.500000  0.792067  0.165382  1
  O  O27  1  0.000000  0.207933  0.665382  1
  O  O28  1  0.696642  0.866961  0.548109  1
  O  O29  1  0.303358  0.866961  0.548109  1
  O  O30  1  0.803358  0.133039  0.048109  1
  O  O31  1  0.196642  0.133039  0.048109  1
  O  O32  1  0.695977  0.586619  0.378830  1
  O  O33  1  0.304023  0.586619  0.378830  1
  O  O34  1  0.804023  0.413381  0.878830  1
  O  O35  1  0.195977  0.413381  0.878830  1
  O  O36  1  0.662831  0.138609  0.425177  1
  O  O37  1  0.337169  0.138609  0.425177  1
  O  O38  1  0.837169  0.861391  0.925177  1
  O  O39  1  0.162831  0.861391  0.925177  1
  O  O40  1  0.500000  0.350760  0.303112  1
  O  O41  1  0.000000  0.649240  0.803112  1
  O  O42  1  0.500000  0.286163  0.684058  1
  O  O43  1  0.000000  0.713837  0.184058  1
