# generated using pymatgen
data_V6O7F5
_symmetry_space_group_name_H-M   'P 1'
_cell_length_a   7.43806749
_cell_length_b   5.59434142
_cell_length_c   5.60243886
_cell_angle_alpha   71.01442892
_cell_angle_beta   71.78311844
_cell_angle_gamma   72.22953224
_symmetry_Int_Tables_number   1
_chemical_formula_structural   V6O7F5
_chemical_formula_sum   'V6 O7 F5'
_cell_volume   203.94822736
_cell_formula_units_Z   1
loop_
 _symmetry_equiv_pos_site_id
 _symmetry_equiv_pos_as_xyz
  1  'x, y, z'
loop_
 _atom_site_type_symbol
 _atom_site_label
 _atom_site_symmetry_multiplicity
 _atom_site_fract_x
 _atom_site_fract_y
 _atom_site_fract_z
 _atom_site_occupancy
  V  V0  1  0.829764  0.672099  0.671377  1
  V  V1  1  0.664645  0.330517  0.335255  1
  V  V2  1  0.328087  0.673215  0.623707  1
  V  V3  1  0.151122  0.335273  0.357422  1
  V  V4  1  0.508313  0.980653  0.997140  1
  V  V5  1  0.007500  0.010006  0.023087  1
  O  O6  1  0.666619  0.030256  0.641567  1
  O  O7  1  0.971485  0.235304  0.239215  1
  O  O8  1  0.363657  0.431726  0.426340  1
  O  O9  1  0.000256  0.300258  0.702448  1
  O  O10  1  0.670112  0.622574  0.031642  1
  O  O11  1  0.331233  0.983365  0.351286  1
  O  O12  1  0.002585  0.694600  0.311080  1
  F  F13  1  0.333491  0.373758  0.957675  1
  F  F14  1  0.626579  0.572851  0.562117  1
  F  F15  1  0.304725  0.888717  0.889735  1
  F  F16  1  0.705776  0.090075  0.103622  1
  F  F17  1  0.034049  0.774752  0.775288  1
