# generated using pymatgen
data_Ba2YI7
_symmetry_space_group_name_H-M   'P 1'
_cell_length_a   12.12767659
_cell_length_b   17.86761714
_cell_length_c   7.89479577
_cell_angle_alpha   90.00000000
_cell_angle_beta   90.57442893
_cell_angle_gamma   90.00000000
_symmetry_Int_Tables_number   1
_chemical_formula_structural   Ba2YI7
_chemical_formula_sum   'Ba8 Y4 I28'
_cell_volume   1710.65849367
_cell_formula_units_Z   4
loop_
 _symmetry_equiv_pos_site_id
 _symmetry_equiv_pos_as_xyz
  1  'x, y, z'
loop_
 _atom_site_type_symbol
 _atom_site_label
 _atom_site_symmetry_multiplicity
 _atom_site_fract_x
 _atom_site_fract_y
 _atom_site_fract_z
 _atom_site_occupancy
  Ba  Ba0  1  0.047825  0.220879  0.269048  1
  Ba  Ba1  1  0.175750  0.559675  0.270289  1
  Ba  Ba2  1  0.324250  0.059675  0.729711  1
  Ba  Ba3  1  0.452175  0.720879  0.730952  1
  Ba  Ba4  1  0.547825  0.279121  0.269048  1
  Ba  Ba5  1  0.675750  0.940325  0.270289  1
  Ba  Ba6  1  0.824250  0.440325  0.729711  1
  Ba  Ba7  1  0.952175  0.779121  0.730952  1
  Y  Y8  1  0.218986  0.872392  0.216332  1
  Y  Y9  1  0.281014  0.372392  0.783668  1
  Y  Y10  1  0.718986  0.627608  0.216332  1
  Y  Y11  1  0.781014  0.127608  0.783668  1
  I  I12  1  0.029098  0.140160  0.703572  1
  I  I13  1  0.068316  0.396651  0.001934  1
  I  I14  1  0.082596  0.394788  0.510011  1
  I  I15  1  0.121038  0.930208  0.867558  1
  I  I16  1  0.199479  0.740679  0.492705  1
  I  I17  1  0.207342  0.724963  0.000208  1
  I  I18  1  0.213684  0.041279  0.298879  1
  I  I19  1  0.286316  0.541279  0.701121  1
  I  I20  1  0.292658  0.224963  0.999792  1
  I  I21  1  0.300521  0.240679  0.507295  1
  I  I22  1  0.378962  0.430208  0.132442  1
  I  I23  1  0.417404  0.894788  0.489989  1
  I  I24  1  0.431684  0.896651  0.998066  1
  I  I25  1  0.470902  0.640160  0.296428  1
  I  I26  1  0.529098  0.359840  0.703572  1
  I  I27  1  0.568316  0.103349  0.001934  1
  I  I28  1  0.582596  0.105212  0.510011  1
  I  I29  1  0.621038  0.569792  0.867558  1
  I  I30  1  0.699479  0.759321  0.492705  1
  I  I31  1  0.707342  0.775037  0.000208  1
  I  I32  1  0.713684  0.458721  0.298879  1
  I  I33  1  0.786316  0.958721  0.701121  1
  I  I34  1  0.792658  0.275037  0.999792  1
  I  I35  1  0.800521  0.259321  0.507295  1
  I  I36  1  0.878962  0.069792  0.132442  1
  I  I37  1  0.917404  0.605212  0.489989  1
  I  I38  1  0.931684  0.603349  0.998066  1
  I  I39  1  0.970902  0.859840  0.296428  1
