# generated using pymatgen
data_CrP2H14(NO3)3
_symmetry_space_group_name_H-M   'P 1'
_cell_length_a   8.79770760
_cell_length_b   10.49844390
_cell_length_c   12.15342164
_cell_angle_alpha   90.00000000
_cell_angle_beta   98.07560093
_cell_angle_gamma   90.00000000
_symmetry_Int_Tables_number   1
_chemical_formula_structural   CrP2H14(NO3)3
_chemical_formula_sum   'Cr4 P8 H56 N12 O36'
_cell_volume   1111.38587861
_cell_formula_units_Z   4
loop_
 _symmetry_equiv_pos_site_id
 _symmetry_equiv_pos_as_xyz
  1  'x, y, z'
loop_
 _atom_site_type_symbol
 _atom_site_label
 _atom_site_symmetry_multiplicity
 _atom_site_fract_x
 _atom_site_fract_y
 _atom_site_fract_z
 _atom_site_occupancy
  Cr  Cr0  1  0.116966  0.619008  0.346843  1
  Cr  Cr1  1  0.883034  0.119008  0.153157  1
  Cr  Cr2  1  0.883034  0.380992  0.653157  1
  Cr  Cr3  1  0.116966  0.880992  0.846843  1
  P  P4  1  0.293852  0.349849  0.418029  1
  P  P5  1  0.706148  0.849849  0.081971  1
  P  P6  1  0.706148  0.650151  0.581971  1
  P  P7  1  0.293852  0.150151  0.918029  1
  P  P8  1  0.199289  0.512512  0.600889  1
  P  P9  1  0.800711  0.012512  0.899111  1
  P  P10  1  0.800711  0.487488  0.399111  1
  P  P11  1  0.199289  0.987488  0.100889  1
  H  H12  1  0.436504  0.604079  0.625212  1
  H  H13  1  0.563496  0.104079  0.874788  1
  H  H14  1  0.563496  0.395921  0.374788  1
  H  H15  1  0.436504  0.895921  0.125212  1
  H  H16  1  0.907105  0.776885  0.395817  1
  H  H17  1  0.092895  0.276885  0.104183  1
  H  H18  1  0.092895  0.223115  0.604183  1
  H  H19  1  0.907105  0.723115  0.895817  1
  H  H20  1  0.068751  0.860189  0.397266  1
  H  H21  1  0.931249  0.360189  0.102734  1
  H  H22  1  0.931249  0.139811  0.602734  1
  H  H23  1  0.068751  0.639811  0.897266  1
  H  H24  1  0.957629  0.827157  0.277824  1
  H  H25  1  0.042371  0.327157  0.222176  1
  H  H26  1  0.042371  0.172843  0.722176  1
  H  H27  1  0.957629  0.672843  0.777824  1
  H  H28  1  0.977028  0.660195  0.147894  1
  H  H29  1  0.022972  0.160195  0.352106  1
  H  H30  1  0.022972  0.339805  0.852106  1
  H  H31  1  0.977028  0.839805  0.647894  1
  H  H32  1  0.151190  0.719251  0.151487  1
  H  H33  1  0.848810  0.219251  0.348513  1
  H  H34  1  0.848810  0.280749  0.848513  1
  H  H35  1  0.151190  0.780749  0.651487  1
  H  H36  1  0.128615  0.566261  0.133773  1
  H  H37  1  0.871385  0.066261  0.366227  1
  H  H38  1  0.871385  0.433739  0.866227  1
  H  H39  1  0.128615  0.933739  0.633773  1
  H  H40  1  0.381447  0.682421  0.294473  1
  H  H41  1  0.618553  0.182421  0.205527  1
  H  H42  1  0.618553  0.317579  0.705527  1
  H  H43  1  0.381447  0.817579  0.794473  1
  H  H44  1  0.389378  0.706403  0.430941  1
  H  H45  1  0.610622  0.206403  0.069059  1
  H  H46  1  0.610622  0.293597  0.569059  1
  H  H47  1  0.389378  0.793597  0.930941  1
  H  H48  1  0.308335  0.814771  0.341298  1
  H  H49  1  0.691665  0.314771  0.158702  1
  H  H50  1  0.691665  0.185229  0.658702  1
  H  H51  1  0.308335  0.685229  0.841298  1
  H  H52  1  0.539152  0.969165  0.706937  1
  H  H53  1  0.460848  0.469165  0.793063  1
  H  H54  1  0.460848  0.030835  0.293063  1
  H  H55  1  0.539152  0.530835  0.206937  1
  H  H56  1  0.537521  0.843309  0.637994  1
  H  H57  1  0.462479  0.343309  0.862006  1
  H  H58  1  0.462479  0.156691  0.362006  1
  H  H59  1  0.537521  0.656691  0.137994  1
  H  H60  1  0.243740  0.070492  0.458418  1
  H  H61  1  0.756260  0.570492  0.041582  1
  H  H62  1  0.756260  0.929508  0.541582  1
  H  H63  1  0.243740  0.429508  0.958418  1
  H  H64  1  0.331730  0.969162  0.541778  1
  H  H65  1  0.668270  0.469162  0.958222  1
  H  H66  1  0.668270  0.030838  0.458222  1
  H  H67  1  0.331730  0.530838  0.041778  1
  N  N68  1  0.999426  0.792168  0.354839  1
  N  N69  1  0.000574  0.292168  0.145161  1
  N  N70  1  0.000574  0.207832  0.645161  1
  N  N71  1  0.999426  0.707832  0.854839  1
  N  N72  1  0.091849  0.642756  0.175641  1
  N  N73  1  0.908151  0.142756  0.324359  1
  N  N74  1  0.908151  0.357244  0.824359  1
  N  N75  1  0.091849  0.857244  0.675641  1
  N  N76  1  0.322834  0.719016  0.354876  1
  N  N77  1  0.677166  0.219016  0.145124  1
  N  N78  1  0.677166  0.280984  0.645124  1
  N  N79  1  0.322834  0.780984  0.854876  1
  O  O80  1  0.233034  0.457217  0.338482  1
  O  O81  1  0.766966  0.957217  0.161518  1
  O  O82  1  0.766966  0.542783  0.661518  1
  O  O83  1  0.233034  0.042783  0.838482  1
  O  O84  1  0.222170  0.221248  0.389045  1
  O  O85  1  0.777830  0.721248  0.110955  1
  O  O86  1  0.777830  0.778752  0.610955  1
  O  O87  1  0.222170  0.278752  0.889045  1
  O  O88  1  0.470637  0.343409  0.435004  1
  O  O89  1  0.529363  0.843409  0.064996  1
  O  O90  1  0.529363  0.656591  0.564996  1
  O  O91  1  0.470637  0.156591  0.935004  1
  O  O92  1  0.247354  0.383948  0.542071  1
  O  O93  1  0.752646  0.883948  0.957929  1
  O  O94  1  0.752646  0.616052  0.457929  1
  O  O95  1  0.247354  0.116052  0.042071  1
  O  O96  1  0.139422  0.610747  0.512751  1
  O  O97  1  0.860578  0.110747  0.987249  1
  O  O98  1  0.860578  0.389253  0.487249  1
  O  O99  1  0.139422  0.889253  0.012751  1
  O  O100  1  0.084973  0.475735  0.677518  1
  O  O101  1  0.915027  0.975735  0.822482  1
  O  O102  1  0.915027  0.524265  0.322482  1
  O  O103  1  0.084973  0.024265  0.177518  1
  O  O104  1  0.346276  0.564280  0.674525  1
  O  O105  1  0.653724  0.064280  0.825475  1
  O  O106  1  0.653724  0.435720  0.325475  1
  O  O107  1  0.346276  0.935720  0.174525  1
  O  O108  1  0.470203  0.909150  0.661662  1
  O  O109  1  0.529797  0.409150  0.838338  1
  O  O110  1  0.529797  0.090850  0.338338  1
  O  O111  1  0.470203  0.590850  0.161662  1
  O  O112  1  0.235814  0.984276  0.490486  1
  O  O113  1  0.764186  0.484276  0.009514  1
  O  O114  1  0.764186  0.015724  0.509514  1
  O  O115  1  0.235814  0.515724  0.990486  1
