# generated using pymatgen
data_Li24Mn7Cr5O36
_symmetry_space_group_name_H-M   'P 1'
_cell_length_a   5.01038645
_cell_length_b   5.00586538
_cell_length_c   29.22390694
_cell_angle_alpha   85.31596123
_cell_angle_beta   94.78400759
_cell_angle_gamma   60.34334550
_symmetry_Int_Tables_number   1
_chemical_formula_structural   Li24Mn7Cr5O36
_chemical_formula_sum   'Li24 Mn7 Cr5 O36'
_cell_volume   628.31231883
_cell_formula_units_Z   1
loop_
 _symmetry_equiv_pos_site_id
 _symmetry_equiv_pos_as_xyz
  1  'x, y, z'
loop_
 _atom_site_type_symbol
 _atom_site_label
 _atom_site_symmetry_multiplicity
 _atom_site_fract_x
 _atom_site_fract_y
 _atom_site_fract_z
 _atom_site_occupancy
  Li  Li0  1  0.000045  0.499383  0.666723  1
  Li  Li1  1  0.250085  0.250082  0.916657  1
  Li  Li2  1  0.163430  0.661957  0.833274  1
  Li  Li3  1  0.997783  0.500626  0.333327  1
  Li  Li4  1  0.248163  0.247963  0.583348  1
  Li  Li5  1  0.500371  0.999136  0.833425  1
  Li  Li6  1  0.160123  0.663965  0.499845  1
  Li  Li7  1  0.000393  0.498993  0.999876  1
  Li  Li8  1  0.252548  0.248820  0.249995  1
  Li  Li9  1  0.499068  0.999927  0.500015  1
  Li  Li10  1  0.338684  0.838244  0.999721  1
  Li  Li11  1  0.165890  0.659652  0.166510  1
  Li  Li12  1  0.498565  0.000520  0.166649  1
  Li  Li13  1  0.664220  0.159374  0.666861  1
  Li  Li14  1  0.337125  0.841583  0.666594  1
  Li  Li15  1  0.660404  0.163546  0.333449  1
  Li  Li16  1  0.341106  0.836348  0.333224  1
  Li  Li17  1  0.837061  0.338362  0.833597  1
  Li  Li18  1  0.660804  0.163666  -0.000002  1
  Li  Li19  1  0.747228  0.750040  0.750039  1
  Li  Li20  1  0.841494  0.337030  0.500159  1
  Li  Li21  1  0.749264  0.747515  0.416676  1
  Li  Li22  1  0.835595  0.340264  0.166822  1
  Li  Li23  1  0.747730  0.748426  0.083297  1
  Mn  Mn24  1  0.416788  0.417689  0.749998  1
  Mn  Mn25  1  0.417685  0.416945  0.416693  1
  Mn  Mn26  1  0.582741  0.582767  0.916676  1
  Mn  Mn27  1  0.417292  0.417628  0.083283  1
  Mn  Mn28  1  0.583484  0.582422  0.250011  1
  Mn  Mn29  1  0.917114  0.916953  0.916677  1
  Mn  Mn30  1  0.917439  0.917349  0.583309  1
  Cr  Cr31  1  0.078332  0.082340  0.750018  1
  Cr  Cr32  1  0.081164  0.078951  0.416678  1
  Cr  Cr33  1  0.079301  0.080459  0.083331  1
  Cr  Cr34  1  0.579469  0.579621  0.583307  1
  Cr  Cr35  1  0.922190  0.915378  0.250012  1
  O  O36  1  0.148056  0.351571  0.787874  1
  O  O37  1  0.356067  0.146767  0.711823  1
  O  O38  1  0.147045  0.355390  0.454739  1
  O  O39  1  0.285872  0.571389  0.953819  1
  O  O40  1  0.074367  0.787989  0.712807  1
  O  O41  1  0.352124  0.147634  0.378729  1
  O  O42  1  0.213600  0.928864  0.879402  1
  O  O43  1  0.147221  0.353646  0.121289  1
  O  O44  1  0.288254  0.573633  0.620428  1
  O  O45  1  0.072979  0.787079  0.379375  1
  O  O46  1  0.571249  0.285645  0.879512  1
  O  O47  1  0.433804  0.708000  0.787673  1
  O  O48  1  0.354182  0.147128  0.045355  1
  O  O49  1  0.206660  0.934745  0.545514  1
  O  O50  1  0.288454  0.569546  0.287322  1
  O  O51  1  0.786326  0.072705  0.787229  1
  O  O52  1  0.073709  0.788323  0.046156  1
  O  O53  1  0.573454  0.288009  0.546195  1
  O  O54  1  0.433375  0.708447  0.454306  1
  O  O55  1  0.928801  0.213777  0.953953  1
  O  O56  1  0.215352  0.927557  0.212588  1
  O  O57  1  0.708995  0.432810  0.712420  1
  O  O58  1  0.788083  0.074011  0.453792  1
  O  O59  1  0.645560  0.854638  0.954592  1
  O  O60  1  0.567537  0.290415  0.212484  1
  O  O61  1  0.434528  0.707729  0.121019  1
  O  O62  1  0.934586  0.206904  0.621143  1
  O  O63  1  0.707665  0.433957  0.379027  1
  O  O64  1  0.854678  0.645087  0.878754  1
  O  O65  1  0.788124  0.072924  0.120592  1
  O  O66  1  0.647506  0.853617  0.621283  1
  O  O67  1  0.925865  0.212278  0.287277  1
  O  O68  1  0.707604  0.433986  0.045693  1
  O  O69  1  0.853623  0.647124  0.545366  1
  O  O70  1  0.642566  0.853680  0.288256  1
  O  O71  1  0.851955  0.649071  0.212140  1
