# generated using pymatgen
data_Li4MnV3(P2O7)4
_symmetry_space_group_name_H-M   'P 1'
_cell_length_a   4.87726023
_cell_length_b   8.29197624
_cell_length_c   13.36768972
_cell_angle_alpha   90.48543222
_cell_angle_beta   88.58581023
_cell_angle_gamma   89.65292808
_symmetry_Int_Tables_number   1
_chemical_formula_structural   Li4MnV3(P2O7)4
_chemical_formula_sum   'Li4 Mn1 V3 P8 O28'
_cell_volume   540.42310813
_cell_formula_units_Z   1
loop_
 _symmetry_equiv_pos_site_id
 _symmetry_equiv_pos_as_xyz
  1  'x, y, z'
loop_
 _atom_site_type_symbol
 _atom_site_label
 _atom_site_symmetry_multiplicity
 _atom_site_fract_x
 _atom_site_fract_y
 _atom_site_fract_z
 _atom_site_occupancy
  Li  Li0  1  0.160841  0.360312  0.662671  1
  Li  Li1  1  0.337285  0.861299  0.836759  1
  Li  Li2  1  0.660049  0.361139  0.162628  1
  Li  Li3  1  0.838879  0.862490  0.337834  1
  Mn  Mn4  1  0.150066  0.999289  0.634227  1
  V  V5  1  0.350960  0.498672  0.864088  1
  V  V6  1  0.648496  -0.000090  0.135728  1
  V  V7  1  0.850992  0.500502  0.363613  1
  P  P8  1  0.139005  0.180410  0.261739  1
  P  P9  1  0.171136  0.783279  0.043210  1
  P  P10  1  0.332045  0.287444  0.456701  1
  P  P11  1  0.360749  0.680961  0.238876  1
  P  P12  1  0.640542  0.177201  0.760687  1
  P  P13  1  0.669583  0.784237  0.544265  1
  P  P14  1  0.830417  0.284121  0.956758  1
  P  P15  1  0.861078  0.680083  0.741056  1
  O  O16  1  0.001314  0.841799  0.752684  1
  O  O17  1  0.053357  0.535878  0.758678  1
  O  O18  1  0.094132  0.678369  0.302256  1
  O  O19  1  0.143433  0.436870  0.456524  1
  O  O20  1  0.123876  0.324676  0.925660  1
  O  O21  1  0.220272  0.154074  0.376633  1
  O  O22  1  0.191172  0.695415  0.943144  1
  O  O23  1  0.282397  0.652842  0.123453  1
  O  O24  1  0.317276  0.204487  0.557168  1
  O  O25  1  0.355776  0.933011  0.042392  1
  O  O26  1  0.369625  0.824532  0.572275  1
  O  O27  1  0.404886  0.177655  0.197584  1
  O  O28  1  0.448185  0.035381  0.740585  1
  O  O29  1  0.504267  0.844064  0.247250  1
  O  O30  1  0.496359  0.340930  0.753119  1
  O  O31  1  0.554881  0.539222  0.258629  1
  O  O32  1  0.590833  0.674154  0.802584  1
  O  O33  1  0.624608  0.326589  0.422815  1
  O  O34  1  0.642353  0.433462  0.957929  1
  O  O35  1  0.687847  0.695525  0.443835  1
  O  O36  1  0.721533  0.151944  0.876002  1
  O  O37  1  0.809933  0.197377  0.056848  1
  O  O38  1  0.781684  0.655550  0.624577  1
  O  O39  1  0.876450  0.823969  0.074616  1
  O  O40  1  0.854091  0.933902  0.541619  1
  O  O41  1  0.906898  0.175603  0.695845  1
  O  O42  1  0.945810  0.038903  0.241249  1
  O  O43  1  0.994627  0.343626  0.253209  1
