# generated using pymatgen
data_Li2MnVP2(O4F)2
_symmetry_space_group_name_H-M   'P 1'
_cell_length_a   7.61092600
_cell_length_b   6.96533137
_cell_length_c   7.83853178
_cell_angle_alpha   90.25585101
_cell_angle_beta   118.26256898
_cell_angle_gamma   91.41080053
_symmetry_Int_Tables_number   1
_chemical_formula_structural   Li2MnVP2(O4F)2
_chemical_formula_sum   'Li4 Mn2 V2 P4 O16 F4'
_cell_volume   365.83087132
_cell_formula_units_Z   2
loop_
 _symmetry_equiv_pos_site_id
 _symmetry_equiv_pos_as_xyz
  1  'x, y, z'
loop_
 _atom_site_type_symbol
 _atom_site_label
 _atom_site_symmetry_multiplicity
 _atom_site_fract_x
 _atom_site_fract_y
 _atom_site_fract_z
 _atom_site_occupancy
  Li  Li0  1  0.077733  0.651133  0.266177  1
  Li  Li1  1  0.580995  0.151152  0.768800  1
  Li  Li2  1  0.420301  0.846991  0.233254  1
  Li  Li3  1  0.920256  0.350557  0.730088  1
  Mn  Mn4  1  0.500018  0.499407  0.499715  1
  Mn  Mn5  1  0.249336  0.749445  0.748778  1
  V  V6  1  0.000302  0.001856  0.001662  1
  V  V7  1  0.751142  0.248784  0.250317  1
  P  P8  1  0.222952  0.100377  0.459901  1
  P  P9  1  0.280572  0.402904  0.041853  1
  P  P10  1  0.717697  0.600674  0.955061  1
  P  P11  1  0.779783  0.896161  0.544264  1
  O  O12  1  0.104028  0.269002  0.017878  1
  O  O13  1  0.039494  0.212350  0.426298  1
  O  O14  1  0.462579  0.288376  0.074246  1
  O  O15  1  0.689290  0.000706  0.348043  1
  O  O16  1  0.400147  0.235327  0.484211  1
  O  O17  1  0.330486  0.548380  0.213455  1
  O  O18  1  0.825714  0.044276  0.713311  1
  O  O19  1  0.809109  0.495168  0.150564  1
  O  O20  1  0.187419  0.509729  0.845881  1
  O  O21  1  0.174345  0.954584  0.289038  1
  O  O22  1  0.671101  0.453876  0.784540  1
  O  O23  1  0.602851  0.760616  0.519465  1
  O  O24  1  0.314108  0.992753  0.655227  1
  O  O25  1  0.533637  0.712725  0.920937  1
  O  O26  1  0.964452  0.786230  0.578281  1
  O  O27  1  0.892656  0.737364  0.980708  1
  F  F28  1  0.767959  0.103398  0.030567  1
  F  F29  1  0.255600  0.598526  0.520261  1
  F  F30  1  0.742214  0.393422  0.469961  1
  F  F31  1  0.231721  0.903754  0.977254  1
