# generated using pymatgen
data_LiFe(SiO3)2
_symmetry_space_group_name_H-M   'P 1'
_cell_length_a   18.39092759
_cell_length_b   8.82292831
_cell_length_c   5.27990002
_cell_angle_alpha   90.00000000
_cell_angle_beta   90.00000000
_cell_angle_gamma   90.00000000
_symmetry_Int_Tables_number   1
_chemical_formula_structural   LiFe(SiO3)2
_chemical_formula_sum   'Li8 Fe8 Si16 O48'
_cell_volume   856.72626946
_cell_formula_units_Z   8
loop_
 _symmetry_equiv_pos_site_id
 _symmetry_equiv_pos_as_xyz
  1  'x, y, z'
loop_
 _atom_site_type_symbol
 _atom_site_label
 _atom_site_symmetry_multiplicity
 _atom_site_fract_x
 _atom_site_fract_y
 _atom_site_fract_z
 _atom_site_occupancy
  Li  Li0  1  0.122364  0.991210  0.371458  1
  Li  Li1  1  0.122364  0.508790  0.871458  1
  Li  Li2  1  0.377636  0.008790  0.871458  1
  Li  Li3  1  0.377636  0.491210  0.371458  1
  Li  Li4  1  0.622364  0.508790  0.628542  1
  Li  Li5  1  0.622364  0.991210  0.128542  1
  Li  Li6  1  0.877636  0.008790  0.628542  1
  Li  Li7  1  0.877636  0.491210  0.128542  1
  Fe  Fe8  1  0.124917  0.355513  0.376031  1
  Fe  Fe9  1  0.124917  0.144487  0.876031  1
  Fe  Fe10  1  0.375083  0.644487  0.876031  1
  Fe  Fe11  1  0.375083  0.855513  0.376031  1
  Fe  Fe12  1  0.624917  0.144487  0.623969  1
  Fe  Fe13  1  0.624917  0.355513  0.123969  1
  Fe  Fe14  1  0.875083  0.644487  0.623969  1
  Fe  Fe15  1  0.875083  0.855513  0.123969  1
  Si  Si16  1  0.025679  0.664254  0.295929  1
  Si  Si17  1  0.025679  0.835746  0.795929  1
  Si  Si18  1  0.227105  0.660673  0.553659  1
  Si  Si19  1  0.227105  0.839327  0.053659  1
  Si  Si20  1  0.272895  0.160673  0.553659  1
  Si  Si21  1  0.272895  0.339327  0.053659  1
  Si  Si22  1  0.474321  0.164254  0.295929  1
  Si  Si23  1  0.474321  0.335746  0.795929  1
  Si  Si24  1  0.525679  0.664254  0.204071  1
  Si  Si25  1  0.525679  0.835746  0.704071  1
  Si  Si26  1  0.727105  0.660673  0.946341  1
  Si  Si27  1  0.727105  0.839327  0.446341  1
  Si  Si28  1  0.772895  0.160673  0.946341  1
  Si  Si29  1  0.772895  0.339327  0.446341  1
  Si  Si30  1  0.974321  0.164254  0.204071  1
  Si  Si31  1  0.974321  0.335746  0.704071  1
  O  O32  1  0.052587  0.706628  0.586909  1
  O  O33  1  0.052587  0.793372  0.086909  1
  O  O34  1  0.064366  0.166936  0.200748  1
  O  O35  1  0.064366  0.333064  0.700748  1
  O  O36  1  0.063861  0.506648  0.210122  1
  O  O37  1  0.063861  0.993352  0.710122  1
  O  O38  1  0.183071  0.165364  0.550161  1
  O  O39  1  0.183071  0.334636  0.050161  1
  O  O40  1  0.191196  0.007002  0.044468  1
  O  O41  1  0.191196  0.492998  0.544468  1
  O  O42  1  0.196873  0.730817  0.823966  1
  O  O43  1  0.196873  0.769183  0.323966  1
  O  O44  1  0.303127  0.230817  0.823966  1
  O  O45  1  0.303127  0.269183  0.323966  1
  O  O46  1  0.308804  0.507002  0.044468  1
  O  O47  1  0.308804  0.992998  0.544468  1
  O  O48  1  0.316929  0.665364  0.550161  1
  O  O49  1  0.316929  0.834636  0.050161  1
  O  O50  1  0.436139  0.006648  0.210122  1
  O  O51  1  0.436139  0.493352  0.710122  1
  O  O52  1  0.435634  0.666936  0.200748  1
  O  O53  1  0.435634  0.833064  0.700748  1
  O  O54  1  0.447413  0.206628  0.586909  1
  O  O55  1  0.447413  0.293372  0.086909  1
  O  O56  1  0.552587  0.706628  0.913091  1
  O  O57  1  0.552587  0.793372  0.413091  1
  O  O58  1  0.564366  0.166936  0.299252  1
  O  O59  1  0.564366  0.333064  0.799252  1
  O  O60  1  0.563861  0.506648  0.289878  1
  O  O61  1  0.563861  0.993352  0.789878  1
  O  O62  1  0.683071  0.165364  0.949839  1
  O  O63  1  0.683071  0.334636  0.449839  1
  O  O64  1  0.691196  0.007002  0.455532  1
  O  O65  1  0.691196  0.492998  0.955532  1
  O  O66  1  0.696873  0.730817  0.676034  1
  O  O67  1  0.696873  0.769183  0.176034  1
  O  O68  1  0.803127  0.230817  0.676034  1
  O  O69  1  0.803127  0.269183  0.176034  1
  O  O70  1  0.808804  0.507002  0.455532  1
  O  O71  1  0.808804  0.992998  0.955532  1
  O  O72  1  0.816929  0.665364  0.949839  1
  O  O73  1  0.816929  0.834636  0.449839  1
  O  O74  1  0.936139  0.006648  0.289878  1
  O  O75  1  0.936139  0.493352  0.789878  1
  O  O76  1  0.935634  0.666936  0.299252  1
  O  O77  1  0.935634  0.833064  0.799252  1
  O  O78  1  0.947413  0.206628  0.913091  1
  O  O79  1  0.947413  0.293372  0.413091  1
