# generated using pymatgen
data_Li3Cr3(PO4)4
_symmetry_space_group_name_H-M   'P 1'
_cell_length_a   8.47123430
_cell_length_b   11.30197537
_cell_length_c   6.22551268
_cell_angle_alpha   90.00000000
_cell_angle_beta   101.64585684
_cell_angle_gamma   90.00000000
_symmetry_Int_Tables_number   1
_chemical_formula_structural   Li3Cr3(PO4)4
_chemical_formula_sum   'Li6 Cr6 P8 O32'
_cell_volume   583.77095138
_cell_formula_units_Z   2
loop_
 _symmetry_equiv_pos_site_id
 _symmetry_equiv_pos_as_xyz
  1  'x, y, z'
loop_
 _atom_site_type_symbol
 _atom_site_label
 _atom_site_symmetry_multiplicity
 _atom_site_fract_x
 _atom_site_fract_y
 _atom_site_fract_z
 _atom_site_occupancy
  Li  Li0  1  0.071174  0.610075  0.602724  1
  Li  Li1  1  0.060676  0.892184  0.107617  1
  Li  Li2  1  0.346630  0.302370  0.647846  1
  Li  Li3  1  0.653370  0.802370  0.852154  1
  Li  Li4  1  0.928826  0.110075  0.897276  1
  Li  Li5  1  0.939324  0.392184  0.392383  1
  Cr  Cr6  1  0.280915  0.914607  0.671694  1
  Cr  Cr7  1  0.274038  0.591143  0.150421  1
  Cr  Cr8  1  0.338469  0.185901  0.125787  1
  Cr  Cr9  1  0.661531  0.685901  0.374213  1
  Cr  Cr10  1  0.719085  0.414607  0.828306  1
  Cr  Cr11  1  0.725962  0.091143  0.349579  1
  P  P12  1  0.085300  0.373967  0.884551  1
  P  P13  1  0.099090  0.131467  0.380405  1
  P  P14  1  0.403962  0.586407  0.675730  1
  P  P15  1  0.398946  0.908944  0.209360  1
  P  P16  1  0.596038  0.086407  0.824270  1
  P  P17  1  0.601054  0.408944  0.290640  1
  P  P18  1  0.914700  0.873967  0.615449  1
  P  P19  1  0.900910  0.631467  0.119595  1
  O  O20  1  0.081993  0.438365  0.671053  1
  O  O21  1  0.079760  0.818158  0.599801  1
  O  O22  1  0.098858  0.068735  0.160123  1
  O  O23  1  0.066979  0.686043  0.101991  1
  O  O24  1  0.157493  0.056461  0.590412  1
  O  O25  1  0.203822  0.267854  0.890723  1
  O  O26  1  0.150216  0.448835  0.094788  1
  O  O27  1  0.316460  0.632507  0.856287  1
  O  O28  1  0.281274  0.912738  0.985910  1
  O  O29  1  0.225497  0.231282  0.375188  1
  O  O30  1  0.291942  0.879835  0.372786  1
  O  O31  1  0.269663  0.581415  0.465467  1
  O  O32  1  0.466416  0.176523  0.862686  1
  O  O33  1  0.481571  0.462545  0.739520  1
  O  O34  1  0.481128  0.307345  0.290129  1
  O  O35  1  0.518429  0.962545  0.760480  1
  O  O36  1  0.483730  0.034296  0.258843  1
  O  O37  1  0.533584  0.676523  0.637314  1
  O  O38  1  0.516270  0.534296  0.241157  1
  O  O39  1  0.518872  0.807345  0.209871  1
  O  O40  1  0.718726  0.412738  0.514090  1
  O  O41  1  0.683540  0.132507  0.643713  1
  O  O42  1  0.796177  0.767854  0.609277  1
  O  O43  1  0.730337  0.081415  0.034534  1
  O  O44  1  0.708058  0.379835  0.127214  1
  O  O45  1  0.842507  0.556461  0.909588  1
  O  O46  1  0.774503  0.731282  0.124812  1
  O  O47  1  0.849784  0.948835  0.405212  1
  O  O48  1  0.920240  0.318158  0.900199  1
  O  O49  1  0.918007  0.938365  0.828947  1
  O  O50  1  0.933021  0.186043  0.398009  1
  O  O51  1  0.901142  0.568735  0.339877  1
