# generated using pymatgen
data_SiH10C2N4(OF3)2
_symmetry_space_group_name_H-M   'P 1'
_cell_length_a   9.29693206
_cell_length_b   8.33893582
_cell_length_c   12.26573772
_cell_angle_alpha   90.00000000
_cell_angle_beta   90.00000000
_cell_angle_gamma   90.00000000
_symmetry_Int_Tables_number   1
_chemical_formula_structural   SiH10C2N4(OF3)2
_chemical_formula_sum   'Si4 H40 C8 N16 O8 F24'
_cell_volume   950.91995786
_cell_formula_units_Z   4
loop_
 _symmetry_equiv_pos_site_id
 _symmetry_equiv_pos_as_xyz
  1  'x, y, z'
loop_
 _atom_site_type_symbol
 _atom_site_label
 _atom_site_symmetry_multiplicity
 _atom_site_fract_x
 _atom_site_fract_y
 _atom_site_fract_z
 _atom_site_occupancy
  Si  Si0  1  0.500000  0.000000  0.500000  1
  Si  Si1  1  0.000000  0.500000  0.500000  1
  Si  Si2  1  0.500000  0.500000  0.000000  1
  Si  Si3  1  0.000000  0.000000  0.000000  1
  H  H4  1  0.269046  0.409244  0.671909  1
  H  H5  1  0.769046  0.090756  0.328091  1
  H  H6  1  0.730954  0.909244  0.828091  1
  H  H7  1  0.230954  0.590756  0.171909  1
  H  H8  1  0.730954  0.590756  0.328091  1
  H  H9  1  0.230954  0.909244  0.671909  1
  H  H10  1  0.269046  0.090756  0.171909  1
  H  H11  1  0.769046  0.409244  0.828091  1
  H  H12  1  0.393626  0.257374  0.651185  1
  H  H13  1  0.893626  0.242626  0.348815  1
  H  H14  1  0.606374  0.757374  0.848815  1
  H  H15  1  0.106374  0.742626  0.151185  1
  H  H16  1  0.606374  0.742626  0.348815  1
  H  H17  1  0.106374  0.757374  0.651185  1
  H  H18  1  0.393626  0.242626  0.151185  1
  H  H19  1  0.893626  0.257374  0.848815  1
  H  H20  1  0.632358  0.338053  0.599957  1
  H  H21  1  0.132358  0.161947  0.400043  1
  H  H22  1  0.367642  0.838053  0.900043  1
  H  H23  1  0.867642  0.661947  0.099957  1
  H  H24  1  0.367642  0.661947  0.400043  1
  H  H25  1  0.867642  0.838053  0.599957  1
  H  H26  1  0.632358  0.161947  0.099957  1
  H  H27  1  0.132358  0.338053  0.900043  1
  H  H28  1  0.681490  0.539433  0.605112  1
  H  H29  1  0.181490  0.960567  0.394888  1
  H  H30  1  0.318510  0.039433  0.894888  1
  H  H31  1  0.818510  0.460567  0.105112  1
  H  H32  1  0.318510  0.460567  0.394888  1
  H  H33  1  0.818510  0.039433  0.605112  1
  H  H34  1  0.681490  0.960567  0.105112  1
  H  H35  1  0.181490  0.539433  0.894888  1
  H  H36  1  0.492132  0.717435  0.623734  1
  H  H37  1  0.992132  0.782565  0.376266  1
  H  H38  1  0.507868  0.217435  0.876266  1
  H  H39  1  0.007868  0.282565  0.123734  1
  H  H40  1  0.507868  0.282565  0.376266  1
  H  H41  1  0.007868  0.217435  0.623734  1
  H  H42  1  0.492132  0.782565  0.123734  1
  H  H43  1  0.992132  0.717435  0.876266  1
  C  C44  1  0.470843  0.488331  0.647912  1
  C  C45  1  0.970843  0.011669  0.352088  1
  C  C46  1  0.529157  0.988331  0.852088  1
  C  C47  1  0.029157  0.511669  0.147912  1
  C  C48  1  0.529157  0.511669  0.352088  1
  C  C49  1  0.029157  0.988331  0.647912  1
  C  C50  1  0.470843  0.011669  0.147912  1
  C  C51  1  0.970843  0.488331  0.852088  1
  N  N52  1  0.373919  0.375099  0.668413  1
  N  N53  1  0.873919  0.124901  0.331587  1
  N  N54  1  0.626081  0.875099  0.831587  1
  N  N55  1  0.126081  0.624901  0.168413  1
  N  N56  1  0.626081  0.624901  0.331587  1
  N  N57  1  0.126081  0.875099  0.668413  1
  N  N58  1  0.373919  0.124901  0.168413  1
  N  N59  1  0.873919  0.375099  0.831587  1
  N  N60  1  0.604421  0.453824  0.617618  1
  N  N61  1  0.104421  0.046176  0.382381  1
  N  N62  1  0.395579  0.953824  0.882382  1
  N  N63  1  0.895579  0.546176  0.117619  1
  N  N64  1  0.395579  0.546176  0.382381  1
  N  N65  1  0.895579  0.953824  0.617618  1
  N  N66  1  0.604421  0.046176  0.117619  1
  N  N67  1  0.104421  0.453824  0.882382  1
  O  O68  1  0.427264  0.637666  0.661784  1
  O  O69  1  0.927264  0.862334  0.338216  1
  O  O70  1  0.572736  0.137666  0.838216  1
  O  O71  1  0.072736  0.362334  0.161784  1
  O  O72  1  0.572736  0.362334  0.338216  1
  O  O73  1  0.072736  0.137666  0.661784  1
  O  O74  1  0.427264  0.862334  0.161784  1
  O  O75  1  0.927264  0.637666  0.838216  1
  F  F76  1  0.408366  0.028441  0.619756  1
  F  F77  1  0.908366  0.471559  0.380244  1
  F  F78  1  0.591634  0.528441  0.880244  1
  F  F79  1  0.091634  0.971559  0.119756  1
  F  F80  1  0.591634  0.971559  0.380244  1
  F  F81  1  0.091634  0.528441  0.619756  1
  F  F82  1  0.408366  0.471559  0.119756  1
  F  F83  1  0.908366  0.028441  0.880244  1
  F  F84  1  0.364528  0.878984  0.452403  1
  F  F85  1  0.864528  0.621016  0.547597  1
  F  F86  1  0.635472  0.378984  0.047597  1
  F  F87  1  0.135472  0.121016  0.952403  1
  F  F88  1  0.635472  0.121016  0.547597  1
  F  F89  1  0.135472  0.378984  0.452403  1
  F  F90  1  0.364528  0.621016  0.952403  1
  F  F91  1  0.864528  0.878984  0.047597  1
  F  F92  1  0.584524  0.834088  0.555936  1
  F  F93  1  0.084524  0.665912  0.444064  1
  F  F94  1  0.415476  0.334088  0.944064  1
  F  F95  1  0.915476  0.165912  0.055936  1
  F  F96  1  0.415476  0.165912  0.444064  1
  F  F97  1  0.915476  0.334088  0.555936  1
  F  F98  1  0.584524  0.665912  0.055936  1
  F  F99  1  0.084524  0.834088  0.944064  1
