# generated using pymatgen
data_Na3NiPCO7
_symmetry_space_group_name_H-M   'P 1'
_cell_length_a   8.84424711
_cell_length_b   5.37469862
_cell_length_c   6.53671380
_cell_angle_alpha   90.00000000
_cell_angle_beta   90.00000000
_cell_angle_gamma   88.99504209
_symmetry_Int_Tables_number   1
_chemical_formula_structural   Na3NiPCO7
_chemical_formula_sum   'Na6 Ni2 P2 C2 O14'
_cell_volume   310.67595895
_cell_formula_units_Z   2
loop_
 _symmetry_equiv_pos_site_id
 _symmetry_equiv_pos_as_xyz
  1  'x, y, z'
loop_
 _atom_site_type_symbol
 _atom_site_label
 _atom_site_symmetry_multiplicity
 _atom_site_fract_x
 _atom_site_fract_y
 _atom_site_fract_z
 _atom_site_occupancy
  Na  Na0  1  0.001947  0.002985  0.488315  1
  Na  Na1  1  0.164726  0.444947  0.206713  1
  Na  Na2  1  0.493788  0.505225  0.491164  1
  Na  Na3  1  0.506212  0.494775  0.991164  1
  Na  Na4  1  0.835274  0.555053  0.706713  1
  Na  Na5  1  0.998053  0.997015  0.988315  1
  Ni  Ni6  1  0.287319  0.046030  0.738999  1
  Ni  Ni7  1  0.712681  0.953970  0.238999  1
  P  P8  1  0.348856  0.978918  0.238050  1
  P  P9  1  0.651144  0.021082  0.738050  1
  C  C10  1  0.159933  0.490744  0.739740  1
  C  C11  1  0.840067  0.509256  0.239740  1
  O  O12  1  0.058569  0.315991  0.741006  1
  O  O13  1  0.117431  0.723476  0.740580  1
  O  O14  1  0.254337  0.075796  0.049982  1
  O  O15  1  0.254540  0.071651  0.426867  1
  O  O16  1  0.301207  0.426864  0.740190  1
  O  O17  1  0.363395  0.694122  0.233588  1
  O  O18  1  0.505219  0.106289  0.239408  1
  O  O19  1  0.494781  0.893711  0.739408  1
  O  O20  1  0.636605  0.305878  0.733588  1
  O  O21  1  0.698793  0.573136  0.240190  1
  O  O22  1  0.745460  0.928349  0.926867  1
  O  O23  1  0.745663  0.924204  0.549982  1
  O  O24  1  0.882569  0.276524  0.240580  1
  O  O25  1  0.941431  0.684009  0.241006  1
