# generated using pymatgen
data_Li2MnVP2(O4F)2
_symmetry_space_group_name_H-M   'P 1'
_cell_length_a   5.31218279
_cell_length_b   10.65724579
_cell_length_c   7.57746702
_cell_angle_alpha   73.40566149
_cell_angle_beta   70.26115016
_cell_angle_gamma   97.64206201
_symmetry_Int_Tables_number   1
_chemical_formula_structural   Li2MnVP2(O4F)2
_chemical_formula_sum   'Li4 Mn2 V2 P4 O16 F4'
_cell_volume   374.23465040
_cell_formula_units_Z   2
loop_
 _symmetry_equiv_pos_site_id
 _symmetry_equiv_pos_as_xyz
  1  'x, y, z'
loop_
 _atom_site_type_symbol
 _atom_site_label
 _atom_site_symmetry_multiplicity
 _atom_site_fract_x
 _atom_site_fract_y
 _atom_site_fract_z
 _atom_site_occupancy
  Li  Li0  1  0.272307  0.809765  0.811192  1
  Li  Li1  1  0.272503  0.306845  0.810072  1
  Li  Li2  1  0.727497  0.693155  0.189928  1
  Li  Li3  1  0.727693  0.190235  0.188808  1
  Mn  Mn4  1  0.000000  0.000000  0.000000  1
  Mn  Mn5  1  0.000000  0.500000  0.500000  1
  V  V6  1  0.000000  0.500000  0.000000  1
  V  V7  1  0.000000  0.000000  0.500000  1
  P  P8  1  0.318910  0.820927  0.232006  1
  P  P9  1  0.318311  0.321617  0.237373  1
  P  P10  1  0.681689  0.678383  0.762627  1
  P  P11  1  0.681090  0.179073  0.767994  1
  O  O12  1  0.130221  0.830895  0.113464  1
  O  O13  1  0.128368  0.331768  0.118702  1
  O  O14  1  0.240755  0.897300  0.383478  1
  O  O15  1  0.302504  0.670833  0.342250  1
  O  O16  1  0.250740  0.392844  0.389305  1
  O  O17  1  0.291551  0.166358  0.346177  1
  O  O18  1  0.626289  0.875363  0.091835  1
  O  O19  1  0.627527  0.372431  0.092943  1
  O  O20  1  0.372473  0.627569  0.907057  1
  O  O21  1  0.373711  0.124637  0.908165  1
  O  O22  1  0.708449  0.833642  0.653823  1
  O  O23  1  0.749260  0.607156  0.610695  1
  O  O24  1  0.697496  0.329167  0.657750  1
  O  O25  1  0.759245  0.102700  0.616522  1
  O  O26  1  0.871632  0.668232  0.881298  1
  O  O27  1  0.869779  0.169105  0.886536  1
  F  F28  1  0.130453  0.963000  0.714593  1
  F  F29  1  0.129794  0.461791  0.750391  1
  F  F30  1  0.870206  0.538209  0.249609  1
  F  F31  1  0.869547  0.037000  0.285407  1
