# generated using pymatgen
data_NaMnO4
_symmetry_space_group_name_H-M   'P 1'
_cell_length_a   5.73517963
_cell_length_b   8.49504575
_cell_length_c   7.22191803
_cell_angle_alpha   90.00000000
_cell_angle_beta   92.11264449
_cell_angle_gamma   90.00000000
_symmetry_Int_Tables_number   1
_chemical_formula_structural   NaMnO4
_chemical_formula_sum   'Na4 Mn4 O16'
_cell_volume   351.61711296
_cell_formula_units_Z   4
loop_
 _symmetry_equiv_pos_site_id
 _symmetry_equiv_pos_as_xyz
  1  'x, y, z'
loop_
 _atom_site_type_symbol
 _atom_site_label
 _atom_site_symmetry_multiplicity
 _atom_site_fract_x
 _atom_site_fract_y
 _atom_site_fract_z
 _atom_site_occupancy
  Na  Na0  1  0.249255  0.532729  0.336299  1
  Na  Na1  1  0.250745  0.032729  0.163701  1
  Na  Na2  1  0.749255  0.967271  0.836299  1
  Na  Na3  1  0.750745  0.467271  0.663701  1
  Mn  Mn4  1  0.243667  0.687543  0.837928  1
  Mn  Mn5  1  0.256333  0.187543  0.662072  1
  Mn  Mn6  1  0.743667  0.812457  0.337928  1
  Mn  Mn7  1  0.756333  0.312457  0.162072  1
  O  O8  1  0.009674  0.775583  0.283618  1
  O  O9  1  0.098320  0.618870  0.658384  1
  O  O10  1  0.118352  0.847344  0.907519  1
  O  O11  1  0.253360  0.058945  0.497923  1
  O  O12  1  0.246640  0.558945  0.002077  1
  O  O13  1  0.381648  0.347344  0.592481  1
  O  O14  1  0.401680  0.118870  0.841616  1
  O  O15  1  0.509674  0.724417  0.783618  1
  O  O16  1  0.490326  0.275583  0.216382  1
  O  O17  1  0.598320  0.881130  0.158384  1
  O  O18  1  0.618352  0.652656  0.407519  1
  O  O19  1  0.753360  0.441055  0.997923  1
  O  O20  1  0.746640  0.941055  0.502077  1
  O  O21  1  0.881648  0.152656  0.092481  1
  O  O22  1  0.901680  0.381130  0.341616  1
  O  O23  1  0.990326  0.224417  0.716382  1
