# generated using pymatgen
data_Sr3La7Mn8(FeO15)2
_symmetry_space_group_name_H-M   'P 1'
_cell_length_a   5.53789922
_cell_length_b   27.68429695
_cell_length_c   14.59405546
_cell_angle_alpha   19.28951222
_cell_angle_beta   56.15190166
_cell_angle_gamma   60.63309106
_symmetry_Int_Tables_number   1
_chemical_formula_structural   Sr3La7Mn8(FeO15)2
_chemical_formula_sum   'Sr3 La7 Mn8 Fe2 O30'
_cell_volume   608.74670014
_cell_formula_units_Z   1
loop_
 _symmetry_equiv_pos_site_id
 _symmetry_equiv_pos_as_xyz
  1  'x, y, z'
loop_
 _atom_site_type_symbol
 _atom_site_label
 _atom_site_symmetry_multiplicity
 _atom_site_fract_x
 _atom_site_fract_y
 _atom_site_fract_z
 _atom_site_occupancy
  Sr  Sr0  1  0.245936  0.150867  0.250208  1
  Sr  Sr1  1  0.249901  0.349458  0.250919  1
  Sr  Sr2  1  0.251223  0.951709  0.246596  1
  La  La3  1  0.254045  0.549013  0.249358  1
  La  La4  1  0.749632  0.052107  0.747079  1
  La  La5  1  0.253161  0.749924  0.250046  1
  La  La6  1  0.749683  0.246579  0.755743  1
  La  La7  1  0.749175  0.446625  0.757787  1
  La  La8  1  0.751107  0.649404  0.750353  1
  La  La9  1  0.753318  0.854250  0.740145  1
  Mn  Mn10  1  0.998134  -0.000285  0.001002  1
  Mn  Mn11  1  0.000440  0.199463  0.000556  1
  Mn  Mn12  1  0.000862  0.399298  0.001611  1
  Mn  Mn13  1  0.003151  0.601237  0.996413  1
  Mn  Mn14  1  0.500650  0.100412  0.499515  1
  Mn  Mn15  1  0.499807  0.298593  0.501858  1
  Mn  Mn16  1  0.499759  0.701168  0.498764  1
  Mn  Mn17  1  0.503575  0.900974  0.497059  1
  Fe  Fe18  1  -0.000449  0.801344  0.997317  1
  Fe  Fe19  1  0.497883  0.498860  0.502949  1
  O  O20  1  0.187882  0.028015  0.307131  1
  O  O21  1  0.191186  0.222474  0.317121  1
  O  O22  1  0.706732  0.063644  0.242456  1
  O  O23  1  0.250624  0.013864  0.810622  1
  O  O24  1  0.746688  0.185184  0.191827  1
  O  O25  1  0.189345  0.427839  0.310175  1
  O  O26  1  0.698656  0.256145  0.255424  1
  O  O27  1  0.307555  0.138531  0.749160  1
  O  O28  1  0.253312  0.225217  0.789997  1
  O  O29  1  0.753335  0.388312  0.183663  1
  O  O30  1  0.182623  0.623244  0.314836  1
  O  O31  1  0.694375  0.462001  0.248718  1
  O  O32  1  0.310796  0.339950  0.743790  1
  O  O33  1  0.794980  0.168796  0.703267  1
  O  O34  1  0.246697  0.422537  0.798514  1
  O  O35  1  0.755180  0.587003  0.186306  1
  O  O36  1  0.191422  0.823772  0.309847  1
  O  O37  1  0.689330  0.663041  0.246792  1
  O  O38  1  0.313384  0.544918  0.735075  1
  O  O39  1  0.811097  0.373795  0.690968  1
  O  O40  1  0.250828  0.620617  0.798706  1
  O  O41  1  0.744944  0.786330  0.192077  1
  O  O42  1  0.705705  0.858237  0.250644  1
  O  O43  1  0.306184  0.732362  0.763705  1
  O  O44  1  0.806935  0.574074  0.689721  1
  O  O45  1  0.253724  0.816347  0.804479  1
  O  O46  1  0.747181  0.984306  0.194204  1
  O  O47  1  0.311059  0.933561  0.761336  1
  O  O48  1  0.794501  0.766169  0.708979  1
  O  O49  1  0.792747  0.968718  0.705179  1
