# generated using pymatgen
data_LiTaWO6
_symmetry_space_group_name_H-M   'P 1'
_cell_length_a   7.44351419
_cell_length_b   7.44351419
_cell_length_c   10.44811588
_cell_angle_alpha   90.00000000
_cell_angle_beta   90.00000000
_cell_angle_gamma   90.00000000
_symmetry_Int_Tables_number   1
_chemical_formula_structural   LiTaWO6
_chemical_formula_sum   'Li4 Ta4 W4 O24'
_cell_volume   578.88730026
_cell_formula_units_Z   4
loop_
 _symmetry_equiv_pos_site_id
 _symmetry_equiv_pos_as_xyz
  1  'x, y, z'
loop_
 _atom_site_type_symbol
 _atom_site_label
 _atom_site_symmetry_multiplicity
 _atom_site_fract_x
 _atom_site_fract_y
 _atom_site_fract_z
 _atom_site_occupancy
  Li  Li0  1  0.750000  0.387125  0.125000  1
  Li  Li1  1  0.112875  0.750000  0.375000  1
  Li  Li2  1  0.750000  0.112875  0.625000  1
  Li  Li3  1  0.387125  0.750000  0.875000  1
  Ta  Ta4  1  0.750000  0.991223  0.125000  1
  Ta  Ta5  1  0.508777  0.750000  0.375000  1
  Ta  Ta6  1  0.750000  0.508777  0.625000  1
  Ta  Ta7  1  0.991223  0.750000  0.875000  1
  W  W8  1  0.250000  0.997881  0.125000  1
  W  W9  1  0.502119  0.250000  0.375000  1
  W  W10  1  0.250000  0.502119  0.625000  1
  W  W11  1  0.997881  0.250000  0.875000  1
  O  O12  1  0.809811  0.809811  0.000000  1
  O  O13  1  0.179035  0.179035  0.000000  1
  O  O14  1  0.815093  0.196496  0.003996  1
  O  O15  1  0.196496  0.815093  0.996004  1
  O  O16  1  0.993074  0.494986  0.934469  1
  O  O17  1  0.506926  0.494986  0.315531  1
  O  O18  1  0.690189  0.809811  0.250000  1
  O  O19  1  0.303504  0.815093  0.253996  1
  O  O20  1  0.320965  0.179035  0.250000  1
  O  O21  1  0.684907  0.196496  0.246004  1
  O  O22  1  0.005014  0.993074  0.184469  1
  O  O23  1  0.005014  0.506926  0.565531  1
  O  O24  1  0.690189  0.690189  0.500000  1
  O  O25  1  0.320965  0.320965  0.500000  1
  O  O26  1  0.303504  0.684907  0.496004  1
  O  O27  1  0.684907  0.303504  0.503996  1
  O  O28  1  0.506926  0.005014  0.434469  1
  O  O29  1  0.993074  0.005014  0.815531  1
  O  O30  1  0.815093  0.303504  0.746004  1
  O  O31  1  0.179035  0.320965  0.750000  1
  O  O32  1  0.809811  0.690189  0.750000  1
  O  O33  1  0.196496  0.684907  0.753996  1
  O  O34  1  0.494986  0.506926  0.684469  1
  O  O35  1  0.494986  0.993074  0.065531  1
