# generated using pymatgen
data_CsPrHgSe3
_symmetry_space_group_name_H-M   'P 1'
_cell_length_a   4.43388834
_cell_length_b   8.48733290
_cell_length_c   11.47397320
_cell_angle_alpha   90.00000000
_cell_angle_beta   90.00000000
_cell_angle_gamma   105.14164719
_symmetry_Int_Tables_number   1
_chemical_formula_structural   CsPrHgSe3
_chemical_formula_sum   'Cs2 Pr2 Hg2 Se6'
_cell_volume   416.79690612
_cell_formula_units_Z   2
loop_
 _symmetry_equiv_pos_site_id
 _symmetry_equiv_pos_as_xyz
  1  'x, y, z'
loop_
 _atom_site_type_symbol
 _atom_site_label
 _atom_site_symmetry_multiplicity
 _atom_site_fract_x
 _atom_site_fract_y
 _atom_site_fract_z
 _atom_site_occupancy
  Se  Se0  1  0.937144  0.874289  0.250000  1
  Se  Se1  1  0.062856  0.125711  0.750000  1
  Se  Se2  1  0.378628  0.757255  0.549631  1
  Se  Se3  1  0.378628  0.757255  0.950369  1
  Se  Se4  1  0.621372  0.242745  0.049631  1
  Se  Se5  1  0.621372  0.242745  0.450369  1
  Cs  Cs6  1  0.744845  0.489691  0.750000  1
  Cs  Cs7  1  0.255155  0.510309  0.250000  1
  Pr  Pr8  1  0.000000  0.000000  0.500000  1
  Pr  Pr9  1  0.000000  0.000000  0.000000  1
  Hg  Hg10  1  0.541469  0.082939  0.250000  1
  Hg  Hg11  1  0.458531  0.917061  0.750000  1
