# generated using pymatgen
data_Li6V3P8O29
_symmetry_space_group_name_H-M   'P 1'
_cell_length_a   9.81476189
_cell_length_b   9.85267266
_cell_length_c   13.92464808
_cell_angle_alpha   90.11399403
_cell_angle_beta   90.35220177
_cell_angle_gamma   60.02983267
_symmetry_Int_Tables_number   1
_chemical_formula_structural   Li6V3P8O29
_chemical_formula_sum   'Li12 V6 P16 O58'
_cell_volume   1166.46205165
_cell_formula_units_Z   2
loop_
 _symmetry_equiv_pos_site_id
 _symmetry_equiv_pos_as_xyz
  1  'x, y, z'
loop_
 _atom_site_type_symbol
 _atom_site_label
 _atom_site_symmetry_multiplicity
 _atom_site_fract_x
 _atom_site_fract_y
 _atom_site_fract_z
 _atom_site_occupancy
  Li  Li0  1  0.771572  0.905669  0.560216  1
  Li  Li1  1  0.905734  0.323659  0.561936  1
  Li  Li2  1  0.669749  0.666956  0.883636  1
  Li  Li3  1  0.775246  0.316961  0.059787  1
  Li  Li4  1  0.312308  0.912238  0.060854  1
  Li  Li5  1  0.676743  0.228682  0.439263  1
  Li  Li6  1  0.321035  0.771434  0.561014  1
  Li  Li7  1  0.687793  0.088178  0.938551  1
  Li  Li8  1  0.223331  0.688601  0.941127  1
  Li  Li9  1  0.327321  0.336477  0.116091  1
  Li  Li10  1  0.094037  0.674684  0.437805  1
  Li  Li11  1  0.228288  0.095089  0.440043  1
  V  V12  1  0.569441  0.430978  0.251784  1
  V  V13  1  0.432667  0.565794  0.750260  1
  V  V14  1  0.569450  0.998493  0.749352  1
  V  V15  1  0.430721  0.001017  0.250989  1
  V  V16  1  0.994889  0.569986  0.244590  1
  V  V17  1  0.003188  0.430317  0.753455  1
  P  P18  1  0.913650  0.769571  0.841825  1
  P  P19  1  0.769169  0.913565  0.340604  1
  P  P20  1  0.915445  0.320246  0.343910  1
  P  P21  1  0.663302  0.665930  0.125875  1
  P  P22  1  0.666849  0.664754  0.626581  1
  P  P23  1  0.771405  0.320225  0.841421  1
  P  P24  1  0.679713  0.232165  0.658015  1
  P  P25  1  0.320428  0.910200  0.845124  1
  P  P26  1  0.678616  0.090724  0.156172  1
  P  P27  1  0.319537  0.767068  0.341455  1
  P  P28  1  0.229761  0.678765  0.157213  1
  P  P29  1  0.331390  0.334707  0.373291  1
  P  P30  1  0.337277  0.332471  0.873820  1
  P  P31  1  0.084397  0.681169  0.655971  1
  P  P32  1  0.231661  0.086293  0.660124  1
  P  P33  1  0.086421  0.229819  0.158413  1
  O  O34  1  0.997246  0.757092  0.564404  1
  O  O35  1  0.915194  0.750017  0.340693  1
  O  O36  1  0.753020  0.009408  0.065669  1
  O  O37  1  0.745633  0.918341  0.840422  1
  O  O38  1  0.887381  0.627619  0.826231  1
  O  O39  1  0.812969  0.665412  0.169977  1
  O  O40  1  0.904407  0.478303  0.326187  1
  O  O41  1  0.992558  0.238112  0.073065  1
  O  O42  1  0.917977  0.338626  0.838881  1
  O  O43  1  0.672735  0.812856  0.666209  1
  O  O44  1  0.617164  0.905719  0.321502  1
  O  O45  1  0.814259  0.512756  0.666945  1
  O  O46  1  0.665744  0.664005  0.018156  1
  O  O47  1  0.660506  0.667167  0.519508  1
  O  O48  1  0.670237  0.513525  0.164753  1
  O  O49  1  0.487664  0.885339  0.824631  1
  O  O50  1  0.513623  0.814310  0.164374  1
  O  O51  1  0.751130  0.333447  0.341848  1
  O  O52  1  0.789848  0.210830  0.750416  1
  O  O53  1  0.758506  0.242749  0.568190  1
  O  O54  1  0.755853  0.244516  0.930809  1
  O  O55  1  0.626264  0.486485  0.825972  1
  O  O56  1  0.513578  0.668987  0.669038  1
  O  O57  1  0.662783  0.257006  0.161511  1
  O  O58  1  0.479192  0.617171  0.323087  1
  O  O59  1  0.336062  0.914960  0.342081  1
  O  O60  1  0.787306  0.002413  0.248863  1
  O  O61  1  0.755171  0.002778  0.431445  1
  O  O62  1  0.244937  0.997516  0.569143  1
  O  O63  1  0.666927  0.081827  0.658611  1
  O  O64  1  0.519531  0.378928  0.674639  1
  O  O65  1  0.333764  0.746656  0.841572  1
  O  O66  1  0.487069  0.326374  0.333916  1
  O  O67  1  0.374797  0.513470  0.174623  1
  O  O68  1  0.246144  0.756696  0.069029  1
  O  O69  1  0.243004  0.754589  0.431667  1
  O  O70  1  0.211503  0.788322  0.249400  1
  O  O71  1  0.248421  0.665380  0.657688  1
  O  O72  1  0.488845  0.184593  0.836566  1
  O  O73  1  0.511859  0.114847  0.174835  1
  O  O74  1  0.336920  0.484497  0.833060  1
  O  O75  1  0.337249  0.340329  0.981462  1
  O  O76  1  0.332908  0.333503  0.480510  1
  O  O77  1  0.184212  0.485980  0.330878  1
  O  O78  1  0.383277  0.095029  0.678643  1
  O  O79  1  0.325490  0.186127  0.333578  1
  O  O80  1  0.083691  0.662099  0.158592  1
  O  O81  1  0.991249  0.792925  0.745198  1
  O  O82  1  0.007785  0.761082  0.926787  1
  O  O83  1  0.092088  0.523627  0.675554  1
  O  O84  1  0.190430  0.334160  0.830209  1
  O  O85  1  0.111739  0.372883  0.172577  1
  O  O86  1  0.254522  0.081175  0.159972  1
  O  O87  1  0.247347  0.995982  0.934720  1
  O  O88  1  0.212163  0.998898  0.751450  1
  O  O89  1  0.085111  0.250668  0.659567  1
  O  O90  1  0.001896  0.241856  0.435305  1
  O  O91  1  0.008291  0.207154  0.254808  1
