# generated using pymatgen
data_LiFe2(BO3)2
_symmetry_space_group_name_H-M   'P 1'
_cell_length_a   5.24006537
_cell_length_b   9.15870722
_cell_length_c   11.29737400
_cell_angle_alpha   67.89884100
_cell_angle_beta   76.41821845
_cell_angle_gamma   89.08583841
_symmetry_Int_Tables_number   1
_chemical_formula_structural   LiFe2(BO3)2
_chemical_formula_sum   'Li4 Fe8 B8 O24'
_cell_volume   486.71868742
_cell_formula_units_Z   4
loop_
 _symmetry_equiv_pos_site_id
 _symmetry_equiv_pos_as_xyz
  1  'x, y, z'
loop_
 _atom_site_type_symbol
 _atom_site_label
 _atom_site_symmetry_multiplicity
 _atom_site_fract_x
 _atom_site_fract_y
 _atom_site_fract_z
 _atom_site_occupancy
  Li  Li0  1  0.970367  0.965965  0.410987  1
  Li  Li1  1  0.718171  0.721467  0.902977  1
  Li  Li2  1  0.748282  0.757733  0.150556  1
  Li  Li3  1  0.466297  0.465514  0.417584  1
  Fe  Fe4  1  0.971929  0.649678  0.382563  1
  Fe  Fe5  1  0.750195  0.065892  0.874912  1
  Fe  Fe6  1  0.513250  0.843253  0.631818  1
  Fe  Fe7  1  0.754076  0.427782  0.130427  1
  Fe  Fe8  1  0.229599  0.558482  0.877625  1
  Fe  Fe9  1  0.476248  0.146768  0.379632  1
  Fe  Fe10  1  0.008162  0.346486  0.639195  1
  Fe  Fe11  1  0.267891  0.940566  0.123674  1
  B  B12  1  0.978448  0.310365  0.380518  1
  B  B13  1  0.730052  0.402125  0.874044  1
  B  B14  1  0.524265  0.192059  0.619569  1
  B  B15  1  0.761333  0.091866  0.140234  1
  B  B16  1  0.474522  0.819683  0.369251  1
  B  B17  1  0.231721  0.880475  0.887876  1
  B  B18  1  0.023190  0.683035  0.628255  1
  B  B19  1  0.268440  0.615863  0.119474  1
  O  O20  1  0.970223  0.881390  0.890616  1
  O  O21  1  0.883674  0.295626  0.834034  1
  O  O22  1  0.847679  0.504138  0.916510  1
  O  O23  1  0.894423  0.816337  0.607116  1
  O  O24  1  0.950411  0.567605  0.585872  1
  O  O25  1  0.749766  0.179847  0.665941  1
  O  O26  1  0.731050  0.331168  0.348043  1
  O  O27  1  0.472847  0.409101  0.874088  1
  O  O28  1  0.389623  0.774018  0.846718  1
  O  O29  1  0.577700  0.925759  0.411699  1
  O  O30  1  0.606051  0.692051  0.359668  1
  O  O31  1  0.354437  0.978795  0.930533  1
  O  O32  1  0.644138  0.992720  0.095564  1
  O  O33  1  0.375022  0.318764  0.611353  1
  O  O34  1  0.458357  0.080837  0.573264  1
  O  O35  1  0.615469  0.198661  0.183015  1
  O  O36  1  0.533350  0.615426  0.114898  1
  O  O37  1  0.237581  0.660785  0.683896  1
  O  O38  1  0.235999  0.848017  0.333485  1
  O  O39  1  0.081381  0.420707  0.416799  1
  O  O40  1  0.112328  0.180922  0.377196  1
  O  O41  1  0.143055  0.521554  0.076492  1
  O  O42  1  0.118310  0.722145  0.165744  1
  O  O43  1  0.017152  0.080085  0.144379  1
