# generated using pymatgen
data_Li4Mn3O6F
_symmetry_space_group_name_H-M   'P 1'
_cell_length_a   6.47722094
_cell_length_b   4.37182165
_cell_length_c   5.14940656
_cell_angle_alpha   64.88112530
_cell_angle_beta   96.84284471
_cell_angle_gamma   90.00000000
_symmetry_Int_Tables_number   1
_chemical_formula_structural   Li4Mn3O6F
_chemical_formula_sum   'Li4 Mn3 O6 F1'
_cell_volume   130.87889636
_cell_formula_units_Z   1
loop_
 _symmetry_equiv_pos_site_id
 _symmetry_equiv_pos_as_xyz
  1  'x, y, z'
loop_
 _atom_site_type_symbol
 _atom_site_label
 _atom_site_symmetry_multiplicity
 _atom_site_fract_x
 _atom_site_fract_y
 _atom_site_fract_z
 _atom_site_occupancy
  Li  Li0  1  0.140335  0.280600  0.438800  1
  Li  Li1  1  0.289146  0.576640  0.846721  1
  Li  Li2  1  0.567997  0.137646  0.724708  1
  Li  Li3  1  0.716808  0.433685  0.132629  1
  Mn  Mn4  1  0.000491  0.001936  0.996129  1
  Mn  Mn5  1  0.428571  0.857143  0.285714  1
  Mn  Mn6  1  0.856652  0.712350  0.575300  1
  O  O7  1  0.285411  0.056614  0.886773  1
  O  O8  1  0.133536  0.797631  0.404738  1
  O  O9  1  0.990333  0.514139  0.971722  1
  O  O10  1  0.571732  0.657672  0.684656  1
  O  O11  1  0.866810  0.200147  0.599706  1
  O  O12  1  0.723607  0.916654  0.166690  1
  F  F13  1  0.428571  0.357143  0.285714  1
