# generated using pymatgen
data_SrLi4NiO4
_symmetry_space_group_name_H-M   'P 1'
_cell_length_a   5.69463963
_cell_length_b   14.64239216
_cell_length_c   10.98870315
_cell_angle_alpha   90.00000000
_cell_angle_beta   76.75516145
_cell_angle_gamma   90.00000000
_symmetry_Int_Tables_number   1
_chemical_formula_structural   SrLi4NiO4
_chemical_formula_sum   'Sr8 Li32 Ni8 O32'
_cell_volume   891.89970377
_cell_formula_units_Z   8
loop_
 _symmetry_equiv_pos_site_id
 _symmetry_equiv_pos_as_xyz
  1  'x, y, z'
loop_
 _atom_site_type_symbol
 _atom_site_label
 _atom_site_symmetry_multiplicity
 _atom_site_fract_x
 _atom_site_fract_y
 _atom_site_fract_z
 _atom_site_occupancy
  Sr  Sr0  1  0.119885  0.699841  0.244076  1
  Sr  Sr1  1  0.086196  0.942769  0.833985  1
  Sr  Sr2  1  0.380115  0.199841  0.255924  1
  Sr  Sr3  1  0.413804  0.442769  0.666015  1
  Sr  Sr4  1  0.586196  0.557231  0.333985  1
  Sr  Sr5  1  0.619885  0.800159  0.744076  1
  Sr  Sr6  1  0.913804  0.057231  0.166015  1
  Sr  Sr7  1  0.880115  0.300159  0.755924  1
  Li  Li8  1  0.034391  0.571309  0.041456  1
  Li  Li9  1  0.069740  0.328702  0.117727  1
  Li  Li10  1  0.036481  0.833360  0.504776  1
  Li  Li11  1  0.206112  0.889431  0.130736  1
  Li  Li12  1  0.095370  0.574959  0.526053  1
  Li  Li13  1  0.081205  0.026469  0.575590  1
  Li  Li14  1  0.173103  0.131507  0.720903  1
  Li  Li15  1  0.293888  0.389431  0.369264  1
  Li  Li16  1  0.135912  0.772778  0.983243  1
  Li  Li17  1  0.536481  0.666640  0.004776  1
  Li  Li18  1  0.430260  0.828702  0.382273  1
  Li  Li19  1  0.364088  0.272778  0.516757  1
  Li  Li20  1  0.326897  0.631507  0.779097  1
  Li  Li21  1  0.595370  0.925041  0.026053  1
  Li  Li22  1  0.465609  0.071309  0.458544  1
  Li  Li23  1  0.581205  0.473531  0.075590  1
  Li  Li24  1  0.418795  0.526469  0.924410  1
  Li  Li25  1  0.534391  0.928691  0.541456  1
  Li  Li26  1  0.404630  0.074959  0.973947  1
  Li  Li27  1  0.673103  0.368493  0.220903  1
  Li  Li28  1  0.635912  0.727222  0.483243  1
  Li  Li29  1  0.569740  0.171298  0.617727  1
  Li  Li30  1  0.463519  0.333360  0.995224  1
  Li  Li31  1  0.864088  0.227222  0.016757  1
  Li  Li32  1  0.706112  0.610569  0.630736  1
  Li  Li33  1  0.826897  0.868493  0.279097  1
  Li  Li34  1  0.918795  0.973531  0.424410  1
  Li  Li35  1  0.904630  0.425041  0.473947  1
  Li  Li36  1  0.793888  0.110569  0.869264  1
  Li  Li37  1  0.963519  0.166640  0.495224  1
  Li  Li38  1  0.930260  0.671298  0.882273  1
  Li  Li39  1  0.965609  0.428691  0.958544  1
  Ni  Ni40  1  0.150490  0.477039  0.205232  1
  Ni  Ni41  1  0.182886  0.720879  0.630749  1
  Ni  Ni42  1  0.349510  0.977039  0.294768  1
  Ni  Ni43  1  0.317114  0.220879  0.869251  1
  Ni  Ni44  1  0.682886  0.779121  0.130749  1
  Ni  Ni45  1  0.650490  0.022961  0.705232  1
  Ni  Ni46  1  0.817114  0.279121  0.369251  1
  Ni  Ni47  1  0.849510  0.522961  0.794768  1
  O  O48  1  0.077428  0.297761  0.457545  1
  O  O49  1  0.137236  0.864853  0.322249  1
  O  O50  1  0.159675  0.516716  0.371366  1
  O  O51  1  0.149811  0.072581  0.398132  1
  O  O52  1  0.350189  0.572581  0.101868  1
  O  O53  1  0.135322  0.534538  0.862862  1
  O  O54  1  0.164345  0.762757  0.805794  1
  O  O55  1  0.340325  0.016716  0.128634  1
  O  O56  1  0.103870  0.106875  0.916391  1
  O  O57  1  0.362764  0.364853  0.177751  1
  O  O58  1  0.422572  0.797760  0.042455  1
  O  O59  1  0.099218  0.316218  0.941597  1
  O  O60  1  0.400782  0.816218  0.558403  1
  O  O61  1  0.396130  0.606875  0.583609  1
  O  O62  1  0.335655  0.262757  0.694206  1
  O  O63  1  0.364678  0.034538  0.637138  1
  O  O64  1  0.635322  0.965462  0.362862  1
  O  O65  1  0.664345  0.737243  0.305794  1
  O  O66  1  0.603870  0.393125  0.416391  1
  O  O67  1  0.599218  0.183782  0.441597  1
  O  O68  1  0.900782  0.683782  0.058403  1
  O  O69  1  0.577428  0.202239  0.957545  1
  O  O70  1  0.637236  0.635147  0.822249  1
  O  O71  1  0.896130  0.893125  0.083609  1
  O  O72  1  0.659675  0.983284  0.871366  1
  O  O73  1  0.835655  0.237243  0.194206  1
  O  O74  1  0.864678  0.465462  0.137138  1
  O  O75  1  0.649811  0.427419  0.898132  1
  O  O76  1  0.850189  0.927419  0.601868  1
  O  O77  1  0.840325  0.483284  0.628634  1
  O  O78  1  0.862764  0.135147  0.677751  1
  O  O79  1  0.922572  0.702240  0.542455  1
