# generated using pymatgen
data_Li3Bi3(PO4)4
_symmetry_space_group_name_H-M   'P 1'
_cell_length_a   14.84580070
_cell_length_b   5.42159224
_cell_length_c   9.18062153
_cell_angle_alpha   90.00000000
_cell_angle_beta   87.57338762
_cell_angle_gamma   90.00000000
_symmetry_Int_Tables_number   1
_chemical_formula_structural   Li3Bi3(PO4)4
_chemical_formula_sum   'Li6 Bi6 P8 O32'
_cell_volume   738.26612647
_cell_formula_units_Z   2
loop_
 _symmetry_equiv_pos_site_id
 _symmetry_equiv_pos_as_xyz
  1  'x, y, z'
loop_
 _atom_site_type_symbol
 _atom_site_label
 _atom_site_symmetry_multiplicity
 _atom_site_fract_x
 _atom_site_fract_y
 _atom_site_fract_z
 _atom_site_occupancy
  Li  Li0  1  0.000000  0.500000  0.500000  1
  Li  Li1  1  0.285984  0.424190  0.331208  1
  Li  Li2  1  0.214016  0.924190  0.168792  1
  Li  Li3  1  0.785984  0.075810  0.831208  1
  Li  Li4  1  0.500000  0.000000  0.000000  1
  Li  Li5  1  0.714016  0.575810  0.668792  1
  Bi  Bi6  1  0.133133  0.538858  0.770322  1
  Bi  Bi7  1  0.000000  0.000000  0.000000  1
  Bi  Bi8  1  0.366867  0.038858  0.729678  1
  Bi  Bi9  1  0.500000  0.500000  0.500000  1
  Bi  Bi10  1  0.633133  0.961142  0.270322  1
  Bi  Bi11  1  0.866867  0.461142  0.229678  1
  P  P12  1  0.135514  0.033491  0.629638  1
  P  P13  1  0.364486  0.533491  0.870362  1
  P  P14  1  0.109393  0.461149  0.160856  1
  P  P15  1  0.390607  0.961149  0.339144  1
  P  P16  1  0.609393  0.038851  0.660856  1
  P  P17  1  0.890607  0.538851  0.839144  1
  P  P18  1  0.635514  0.466509  0.129638  1
  P  P19  1  0.864486  0.966509  0.370362  1
  O  O20  1  0.099682  0.966920  0.793292  1
  O  O21  1  0.272635  0.673924  0.849724  1
  O  O22  1  0.074449  0.211424  0.556166  1
  O  O23  1  0.149476  0.770949  0.563697  1
  O  O24  1  0.025246  0.456189  0.266450  1
  O  O25  1  0.350524  0.270949  0.936303  1
  O  O26  1  0.425551  0.711424  0.943834  1
  O  O27  1  0.227365  0.173924  0.650276  1
  O  O28  1  0.128418  0.194364  0.099325  1
  O  O29  1  0.400318  0.466920  0.706708  1
  O  O30  1  0.085033  0.628423  0.023863  1
  O  O31  1  0.192487  0.573480  0.225999  1
  O  O32  1  0.525246  0.043811  0.766450  1
  O  O33  1  0.307513  0.073480  0.274001  1
  O  O34  1  0.414967  0.128423  0.476137  1
  O  O35  1  0.371582  0.694364  0.400675  1
  O  O36  1  0.628418  0.305636  0.599325  1
  O  O37  1  0.585033  0.871577  0.523863  1
  O  O38  1  0.692487  0.926520  0.725999  1
  O  O39  1  0.474754  0.956189  0.233550  1
  O  O40  1  0.807513  0.426520  0.774001  1
  O  O41  1  0.914967  0.371577  0.976137  1
  O  O42  1  0.599682  0.533080  0.293292  1
  O  O43  1  0.871582  0.805636  0.900675  1
  O  O44  1  0.772635  0.826076  0.349724  1
  O  O45  1  0.574449  0.288576  0.056166  1
  O  O46  1  0.649476  0.729051  0.063697  1
  O  O47  1  0.974754  0.543811  0.733550  1
  O  O48  1  0.850524  0.229051  0.436304  1
  O  O49  1  0.925551  0.788576  0.443834  1
  O  O50  1  0.727365  0.326076  0.150276  1
  O  O51  1  0.900318  0.033080  0.206708  1
