# generated using pymatgen
data_UH12S2O15
_symmetry_space_group_name_H-M   'P 1'
_cell_length_a   6.93459202
_cell_length_b   6.93459202
_cell_length_c   14.91965538
_cell_angle_alpha   76.86678027
_cell_angle_beta   85.80862791
_cell_angle_gamma   110.72611250
_symmetry_Int_Tables_number   1
_chemical_formula_structural   UH12S2O15
_chemical_formula_sum   'U2 H24 S4 O30'
_cell_volume   644.13429255
_cell_formula_units_Z   2
loop_
 _symmetry_equiv_pos_site_id
 _symmetry_equiv_pos_as_xyz
  1  'x, y, z'
loop_
 _atom_site_type_symbol
 _atom_site_label
 _atom_site_symmetry_multiplicity
 _atom_site_fract_x
 _atom_site_fract_y
 _atom_site_fract_z
 _atom_site_occupancy
  U  U0  1  0.228597  0.978597  0.750000  1
  U  U1  1  0.771403  0.021403  0.250000  1
  H  H2  1  0.126791  0.783319  0.413475  1
  H  H3  1  0.012797  0.680111  0.059684  1
  H  H4  1  0.222093  0.873380  0.095145  1
  H  H5  1  0.190586  0.782051  0.514080  1
  H  H6  1  0.269996  0.755210  0.018243  1
  H  H7  1  0.321012  0.676087  0.283462  1
  H  H8  1  0.303206  0.459734  0.913475  1
  H  H9  1  0.760204  0.927518  0.559684  1
  H  H10  1  0.531475  0.682763  0.595145  1
  H  H11  1  0.459549  0.604473  0.216538  1
  H  H12  1  0.273453  0.288239  0.481757  1
  H  H13  1  0.796131  0.704666  0.985920  1
  H  H14  1  0.203869  0.295334  0.014080  1
  H  H15  1  0.726547  0.711761  0.518243  1
  H  H16  1  0.540451  0.395527  0.783462  1
  H  H17  1  0.468525  0.317237  0.404855  1
  H  H18  1  0.239796  0.072482  0.440316  1
  H  H19  1  0.696794  0.540266  0.086525  1
  H  H20  1  0.678988  0.323913  0.716538  1
  H  H21  1  0.730004  0.244790  0.981757  1
  H  H22  1  0.809414  0.217949  0.485920  1
  H  H23  1  0.777907  0.126620  0.904855  1
  H  H24  1  0.987203  0.319889  0.940316  1
  H  H25  1  0.873209  0.216681  0.586525  1
  S  S26  1  0.114996  0.464019  0.690998  1
  S  S27  1  0.655017  0.805994  0.809002  1
  S  S28  1  0.344983  0.194006  0.190998  1
  S  S29  1  0.885004  0.535981  0.309002  1
  O  O30  1  0.184016  0.897746  0.876521  1
  O  O31  1  0.140198  0.859313  0.463527  1
  O  O32  1  0.112250  0.613099  0.748297  1
  O  O33  1  0.084186  0.606605  0.346118  1
  O  O34  1  0.176055  0.734120  0.075168  1
  O  O35  1  0.530449  0.890867  0.744598  1
  O  O36  1  0.290156  0.568942  0.610420  1
  O  O37  1  0.177161  0.396276  0.963527  1
  O  O38  1  0.464552  0.714552  0.250000  1
  O  O39  1  0.725733  0.939463  0.376521  1
  O  O40  1  0.679362  0.900576  0.889580  1
  O  O41  1  0.135465  0.275048  0.755402  1
  O  O42  1  0.861395  0.860547  0.751703  1
  O  O43  1  0.547276  0.569696  0.846118  1
  O  O44  1  0.690712  0.748777  0.575168  1
  O  O45  1  0.309288  0.251223  0.424832  1
  O  O46  1  0.452724  0.430304  0.153882  1
  O  O47  1  0.138605  0.139453  0.248297  1
  O  O48  1  0.864535  0.724952  0.244598  1
  O  O49  1  0.320638  0.099424  0.110420  1
  O  O50  1  0.274267  0.060537  0.623479  1
  O  O51  1  0.535448  0.285448  0.750000  1
  O  O52  1  0.822839  0.603724  0.036473  1
  O  O53  1  0.709844  0.431058  0.389580  1
  O  O54  1  0.469551  0.109133  0.255402  1
  O  O55  1  0.823945  0.265880  0.924832  1
  O  O56  1  0.915814  0.393395  0.653882  1
  O  O57  1  0.887750  0.386901  0.251703  1
  O  O58  1  0.859802  0.140687  0.536473  1
  O  O59  1  0.815984  0.102254  0.123479  1
