# generated using pymatgen
data_CaDyMnSnO6
_symmetry_space_group_name_H-M   'P 1'
_cell_length_a   5.46114212
_cell_length_b   5.82848710
_cell_length_c   7.71238854
_cell_angle_alpha   90.00000000
_cell_angle_beta   89.61554396
_cell_angle_gamma   90.00000000
_symmetry_Int_Tables_number   1
_chemical_formula_structural   CaDyMnSnO6
_chemical_formula_sum   'Ca2 Dy2 Mn2 Sn2 O12'
_cell_volume   245.48131572
_cell_formula_units_Z   2
loop_
 _symmetry_equiv_pos_site_id
 _symmetry_equiv_pos_as_xyz
  1  'x, y, z'
loop_
 _atom_site_type_symbol
 _atom_site_label
 _atom_site_symmetry_multiplicity
 _atom_site_fract_x
 _atom_site_fract_y
 _atom_site_fract_z
 _atom_site_occupancy
  Ca  Ca0  1  0.487334  0.441413  0.748556  1
  Ca  Ca1  1  0.987334  0.058587  0.248556  1
  Dy  Dy2  1  0.020957  0.922995  0.752526  1
  Dy  Dy3  1  0.520957  0.577005  0.252526  1
  Mn  Mn4  1  0.003479  0.496127  0.499816  1
  Mn  Mn5  1  0.503479  0.003873  0.999816  1
  Sn  Sn6  1  0.501742  0.010567  0.499554  1
  Sn  Sn7  1  0.001742  0.489433  0.999554  1
  O  O8  1  0.124307  0.457795  0.258173  1
  O  O9  1  0.191868  0.179630  0.945120  1
  O  O10  1  0.189487  0.177750  0.563182  1
  O  O11  1  0.292894  0.697838  0.550895  1
  O  O12  1  0.291755  0.692717  0.941424  1
  O  O13  1  0.396177  0.956845  0.240755  1
  O  O14  1  0.624307  0.042205  0.758173  1
  O  O15  1  0.689487  0.322250  0.063182  1
  O  O16  1  0.691868  0.320370  0.445120  1
  O  O17  1  0.791755  0.807283  0.441424  1
  O  O18  1  0.792894  0.802162  0.050895  1
  O  O19  1  0.896177  0.543155  0.740755  1
