# generated using pymatgen
data_Li6Fe5WO12
_symmetry_space_group_name_H-M   'P 1'
_cell_length_a   5.21538931
_cell_length_b   5.21538922
_cell_length_c   10.29711916
_cell_angle_alpha   94.40072295
_cell_angle_beta   85.59927666
_cell_angle_gamma   59.58282107
_symmetry_Int_Tables_number   1
_chemical_formula_structural   Li6Fe5WO12
_chemical_formula_sum   'Li6 Fe5 W1 O12'
_cell_volume   238.63645597
_cell_formula_units_Z   1
loop_
 _symmetry_equiv_pos_site_id
 _symmetry_equiv_pos_as_xyz
  1  'x, y, z'
loop_
 _atom_site_type_symbol
 _atom_site_label
 _atom_site_symmetry_multiplicity
 _atom_site_fract_x
 _atom_site_fract_y
 _atom_site_fract_z
 _atom_site_occupancy
  Li  Li0  1  0.293009  0.056708  0.244065  1
  Li  Li1  1  0.056892  0.292296  0.754128  1
  Li  Li2  1  0.381710  0.618290  0.754090  1
  Li  Li3  1  0.619406  0.380594  0.249793  1
  Li  Li4  1  0.943292  0.706991  0.244065  1
  Li  Li5  1  0.707704  0.943108  0.754128  1
  Fe  Fe6  1  0.673695  0.661897  0.000280  1
  Fe  Fe7  1  0.499774  0.500226  0.500650  1
  Fe  Fe8  1  0.338103  0.326305  0.000280  1
  Fe  Fe9  1  0.833880  0.833406  0.499795  1
  Fe  Fe10  1  0.166594  0.166120  0.499795  1
  W  W11  1  0.988310  0.011690  0.999144  1
  O  O12  1  0.652505  0.032050  0.122508  1
  O  O13  1  0.020286  0.654387  0.883718  1
  O  O14  1  0.537406  0.796453  0.387236  1
  O  O15  1  0.131928  0.868072  0.610285  1
  O  O16  1  0.796454  0.538458  0.612848  1
  O  O17  1  0.283544  0.716456  0.107159  1
  O  O18  1  0.728178  0.271822  0.879343  1
  O  O19  1  0.203547  0.462594  0.387236  1
  O  O20  1  0.868672  0.131328  0.390378  1
  O  O21  1  0.461542  0.203546  0.612848  1
  O  O22  1  0.967950  0.347495  0.122508  1
  O  O23  1  0.345613  0.979714  0.883718  1
