# generated using pymatgen
data_BaLa2O4
_symmetry_space_group_name_H-M   'P 1'
_cell_length_a   7.44315142
_cell_length_b   7.44315142
_cell_length_c   7.46490308
_cell_angle_alpha   60.09633853
_cell_angle_beta   60.09633844
_cell_angle_gamma   90.00000000
_symmetry_Int_Tables_number   1
_chemical_formula_structural   BaLa2O4
_chemical_formula_sum   'Ba2 La4 O8'
_cell_volume   293.28023295
_cell_formula_units_Z   2
loop_
 _symmetry_equiv_pos_site_id
 _symmetry_equiv_pos_as_xyz
  1  'x, y, z'
loop_
 _atom_site_type_symbol
 _atom_site_label
 _atom_site_symmetry_multiplicity
 _atom_site_fract_x
 _atom_site_fract_y
 _atom_site_fract_z
 _atom_site_occupancy
  Ba  Ba0  1  0.375000  0.125000  0.750000  1
  Ba  Ba1  1  0.625000  0.875000  0.250000  1
  La  La2  1  0.000000  0.000000  0.500000  1
  La  La3  1  0.000000  0.500000  0.000000  1
  La  La4  1  0.500000  0.500000  0.000000  1
  La  La5  1  0.000000  0.500000  0.500000  1
  O  O6  1  0.229937  0.266274  0.038994  1
  O  O7  1  0.805269  0.270063  0.461006  1
  O  O8  1  0.233726  0.268931  0.461006  1
  O  O9  1  0.768931  0.305269  0.961006  1
  O  O10  1  0.231069  0.694731  0.038994  1
  O  O11  1  0.766274  0.731069  0.538994  1
  O  O12  1  0.194731  0.729937  0.538994  1
  O  O13  1  0.770063  0.733726  0.961006  1
