# generated using pymatgen
data_Li2Bi(BO2)5
_symmetry_space_group_name_H-M   'P 1'
_cell_length_a   7.26090288
_cell_length_b   16.42005030
_cell_length_c   7.25873692
_cell_angle_alpha   90.00000000
_cell_angle_beta   92.62772179
_cell_angle_gamma   90.00000000
_symmetry_Int_Tables_number   1
_chemical_formula_structural   Li2Bi(BO2)5
_chemical_formula_sum   'Li8 Bi4 B20 O40'
_cell_volume   864.50850216
_cell_formula_units_Z   4
loop_
 _symmetry_equiv_pos_site_id
 _symmetry_equiv_pos_as_xyz
  1  'x, y, z'
loop_
 _atom_site_type_symbol
 _atom_site_label
 _atom_site_symmetry_multiplicity
 _atom_site_fract_x
 _atom_site_fract_y
 _atom_site_fract_z
 _atom_site_occupancy
  Li  Li0  1  0.089142  0.158552  0.015255  1
  Li  Li1  1  0.089142  0.341448  0.515254  1
  Li  Li2  1  0.307265  0.914254  0.609050  1
  Li  Li3  1  0.307265  0.585746  0.109050  1
  Li  Li4  1  0.692735  0.414254  0.890950  1
  Li  Li5  1  0.692735  0.085746  0.390950  1
  Li  Li6  1  0.910858  0.658552  0.484745  1
  Li  Li7  1  0.910858  0.841448  0.984746  1
  Bi  Bi8  1  0.168694  0.124886  0.523020  1
  Bi  Bi9  1  0.168694  0.375114  0.023020  1
  Bi  Bi10  1  0.831306  0.624886  0.976980  1
  Bi  Bi11  1  0.831306  0.875114  0.476980  1
  B  B12  1  0.197402  0.021075  0.921623  1
  B  B13  1  0.197402  0.478925  0.421623  1
  B  B14  1  0.229509  0.768464  0.514409  1
  B  B15  1  0.229509  0.731536  0.014409  1
  B  B16  1  0.259299  0.521075  0.743666  1
  B  B17  1  0.259299  0.978925  0.243666  1
  B  B18  1  0.310613  0.621038  0.492886  1
  B  B19  1  0.310613  0.878962  0.992886  1
  B  B20  1  0.451255  0.274233  0.521956  1
  B  B21  1  0.451255  0.225767  0.021956  1
  B  B22  1  0.548745  0.774233  0.978044  1
  B  B23  1  0.548745  0.725767  0.478044  1
  B  B24  1  0.689387  0.121038  0.007114  1
  B  B25  1  0.689387  0.378962  0.507114  1
  B  B26  1  0.740701  0.021075  0.756334  1
  B  B27  1  0.740701  0.478925  0.256334  1
  B  B28  1  0.770491  0.268464  0.985591  1
  B  B29  1  0.770491  0.231536  0.485591  1
  B  B30  1  0.802598  0.521075  0.578377  1
  B  B31  1  0.802598  0.978925  0.078377  1
  O  O32  1  0.115857  0.833543  0.540314  1
  O  O33  1  0.115857  0.666457  0.040314  1
  O  O34  1  0.141845  0.085023  0.809514  1
  O  O35  1  0.141845  0.414977  0.309514  1
  O  O36  1  0.170489  0.809846  0.978979  1
  O  O37  1  0.187777  0.462907  0.612145  1
  O  O38  1  0.170489  0.690154  0.478979  1
  O  O39  1  0.187777  0.037093  0.112145  1
  O  O40  1  0.265741  0.502287  0.926685  1
  O  O41  1  0.265741  0.997713  0.426685  1
  O  O42  1  0.268619  0.255395  0.533137  1
  O  O43  1  0.251847  0.946106  0.861762  1
  O  O44  1  0.268619  0.244605  0.033137  1
  O  O45  1  0.251847  0.553894  0.361762  1
  O  O46  1  0.322089  0.593563  0.683432  1
  O  O47  1  0.322089  0.906437  0.183432  1
  O  O48  1  0.420740  0.785896  0.530220  1
  O  O49  1  0.420740  0.714104  0.030220  1
  O  O50  1  0.510963  0.350781  0.563197  1
  O  O51  1  0.489037  0.850781  0.936803  1
  O  O52  1  0.510963  0.149219  0.063197  1
  O  O53  1  0.489037  0.649219  0.436803  1
  O  O54  1  0.579260  0.285896  0.969780  1
  O  O55  1  0.579260  0.214104  0.469780  1
  O  O56  1  0.677911  0.093563  0.816568  1
  O  O57  1  0.677911  0.406437  0.316568  1
  O  O58  1  0.748153  0.446106  0.638238  1
  O  O59  1  0.731381  0.755395  0.966863  1
  O  O60  1  0.748153  0.053894  0.138238  1
  O  O61  1  0.731381  0.744605  0.466863  1
  O  O62  1  0.734259  0.002287  0.573315  1
  O  O63  1  0.734259  0.497713  0.073315  1
  O  O64  1  0.812223  0.962907  0.887855  1
  O  O65  1  0.829511  0.309846  0.521021  1
  O  O66  1  0.812223  0.537093  0.387855  1
  O  O67  1  0.829511  0.190154  0.021021  1
  O  O68  1  0.858155  0.585023  0.690486  1
  O  O69  1  0.858155  0.914977  0.190486  1
  O  O70  1  0.884143  0.333543  0.959686  1
  O  O71  1  0.884143  0.166457  0.459686  1
