# generated using pymatgen
data_Li3FePCO7
_symmetry_space_group_name_H-M   'P 1'
_cell_length_a   9.53876437
_cell_length_b   9.72039837
_cell_length_c   6.44768333
_cell_angle_alpha   90.00000000
_cell_angle_beta   90.00000000
_cell_angle_gamma   64.51090164
_symmetry_Int_Tables_number   1
_chemical_formula_structural   Li3FePCO7
_chemical_formula_sum   'Li12 Fe4 P4 C4 O28'
_cell_volume   539.64422896
_cell_formula_units_Z   4
loop_
 _symmetry_equiv_pos_site_id
 _symmetry_equiv_pos_as_xyz
  1  'x, y, z'
loop_
 _atom_site_type_symbol
 _atom_site_label
 _atom_site_symmetry_multiplicity
 _atom_site_fract_x
 _atom_site_fract_y
 _atom_site_fract_z
 _atom_site_occupancy
  Li  Li0  1  0.892269  0.444646  0.749331  1
  Li  Li1  1  0.892269  0.944646  0.750669  1
  Li  Li2  1  0.712515  0.260803  0.988667  1
  Li  Li3  1  0.712515  0.760803  0.511333  1
  Li  Li4  1  0.640467  0.070389  0.245502  1
  Li  Li5  1  0.640467  0.570389  0.254498  1
  Li  Li6  1  0.359533  0.429611  0.754498  1
  Li  Li7  1  0.359533  0.929611  0.745502  1
  Li  Li8  1  0.287485  0.239197  0.011333  1
  Li  Li9  1  0.287485  0.739197  0.488667  1
  Li  Li10  1  0.107731  0.055354  0.250669  1
  Li  Li11  1  0.107731  0.555354  0.249331  1
  Fe  Fe12  1  0.734968  0.263571  0.497051  1
  Fe  Fe13  1  0.734968  0.763571  0.002949  1
  Fe  Fe14  1  0.265032  0.236429  0.502949  1
  Fe  Fe15  1  0.265032  0.736429  0.997051  1
  P  P16  1  0.592937  0.064052  0.751350  1
  P  P17  1  0.592937  0.564052  0.748650  1
  P  P18  1  0.407063  0.435948  0.248650  1
  P  P19  1  0.407063  0.935948  0.251350  1
  C  C20  1  0.956958  0.371667  0.257398  1
  C  C21  1  0.956958  0.871667  0.242602  1
  C  C22  1  0.043042  0.128333  0.742602  1
  C  C23  1  0.043042  0.628333  0.757398  1
  O  O24  1  0.931661  0.011451  0.259646  1
  O  O25  1  0.931661  0.511451  0.240354  1
  O  O26  1  0.899366  0.236990  0.738445  1
  O  O27  1  0.842614  0.332315  0.265562  1
  O  O28  1  0.899366  0.736990  0.761555  1
  O  O29  1  0.842614  0.832314  0.234438  1
  O  O30  1  0.692464  0.064942  0.940238  1
  O  O31  1  0.686397  0.077347  0.558574  1
  O  O32  1  0.686397  0.577347  0.941426  1
  O  O33  1  0.692464  0.564942  0.559762  1
  O  O34  1  0.573621  0.305660  0.244479  1
  O  O35  1  0.583138  0.407561  0.753974  1
  O  O36  1  0.573621  0.805660  0.255521  1
  O  O37  1  0.583138  0.907561  0.746026  1
  O  O38  1  0.416862  0.092439  0.246026  1
  O  O39  1  0.426379  0.194340  0.755521  1
  O  O40  1  0.416862  0.592439  0.253974  1
  O  O41  1  0.426379  0.694340  0.744479  1
  O  O42  1  0.307535  0.435058  0.059762  1
  O  O43  1  0.313603  0.422653  0.441426  1
  O  O44  1  0.313603  0.922653  0.058574  1
  O  O45  1  0.307535  0.935058  0.440238  1
  O  O46  1  0.157386  0.167685  0.734438  1
  O  O47  1  0.100634  0.263010  0.261555  1
  O  O48  1  0.157386  0.667686  0.765562  1
  O  O49  1  0.100634  0.763010  0.238445  1
  O  O50  1  0.068339  0.488549  0.740354  1
  O  O51  1  0.068339  0.988549  0.759646  1
