# generated using pymatgen
data_CsNa2(H5O3)3
_symmetry_space_group_name_H-M   'P 1'
_cell_length_a   13.91440141
_cell_length_b   6.08883820
_cell_length_c   12.46508290
_cell_angle_alpha   90.00000000
_cell_angle_beta   90.00000000
_cell_angle_gamma   90.00000000
_symmetry_Int_Tables_number   1
_chemical_formula_structural   CsNa2(H5O3)3
_chemical_formula_sum   'Cs4 Na8 H60 O36'
_cell_volume   1056.07347008
_cell_formula_units_Z   4
loop_
 _symmetry_equiv_pos_site_id
 _symmetry_equiv_pos_as_xyz
  1  'x, y, z'
loop_
 _atom_site_type_symbol
 _atom_site_label
 _atom_site_symmetry_multiplicity
 _atom_site_fract_x
 _atom_site_fract_y
 _atom_site_fract_z
 _atom_site_occupancy
  Cs  Cs0  1  0.099150  0.580226  0.499960  1
  Cs  Cs1  1  0.900850  0.419774  0.999960  1
  Cs  Cs2  1  0.400850  0.580226  0.999960  1
  Cs  Cs3  1  0.599150  0.419774  0.499960  1
  Na  Na4  1  0.160058  0.738217  0.177609  1
  Na  Na5  1  0.839942  0.261783  0.677609  1
  Na  Na6  1  0.339942  0.738217  0.677609  1
  Na  Na7  1  0.660058  0.261783  0.177609  1
  Na  Na8  1  0.141051  0.242274  0.154847  1
  Na  Na9  1  0.858949  0.757726  0.654847  1
  Na  Na10  1  0.358949  0.242274  0.654847  1
  Na  Na11  1  0.641051  0.757726  0.154847  1
  H  H12  1  0.429130  0.121859  0.253237  1
  H  H13  1  0.570870  0.878141  0.753237  1
  H  H14  1  0.070870  0.121859  0.753237  1
  H  H15  1  0.929130  0.878141  0.253237  1
  H  H16  1  0.311239  0.122082  0.399563  1
  H  H17  1  0.688761  0.877918  0.899563  1
  H  H18  1  0.188761  0.122082  0.899563  1
  H  H19  1  0.811239  0.877918  0.399563  1
  H  H20  1  0.885657  0.179553  0.327221  1
  H  H21  1  0.114343  0.820447  0.827221  1
  H  H22  1  0.614343  0.179553  0.827221  1
  H  H23  1  0.385657  0.820447  0.327221  1
  H  H24  1  0.991435  0.921574  0.105461  1
  H  H25  1  0.008565  0.078426  0.605461  1
  H  H26  1  0.508565  0.921574  0.605461  1
  H  H27  1  0.491435  0.078426  0.105461  1
  H  H28  1  0.048702  0.941804  0.991775  1
  H  H29  1  0.951298  0.058196  0.491775  1
  H  H30  1  0.451298  0.941804  0.491775  1
  H  H31  1  0.548702  0.058196  0.991775  1
  H  H32  1  0.329067  0.060512  0.137843  1
  H  H33  1  0.670933  0.939488  0.637843  1
  H  H34  1  0.170933  0.060512  0.637843  1
  H  H35  1  0.829067  0.939488  0.137843  1
  H  H36  1  0.264838  0.055533  0.032980  1
  H  H37  1  0.735162  0.944467  0.532980  1
  H  H38  1  0.235162  0.055533  0.532980  1
  H  H39  1  0.764838  0.944467  0.032980  1
  H  H40  1  0.167247  0.072117  0.359754  1
  H  H41  1  0.832753  0.927883  0.859754  1
  H  H42  1  0.332753  0.072117  0.859754  1
  H  H43  1  0.667247  0.927883  0.359754  1
  H  H44  1  0.054016  0.047805  0.335928  1
  H  H45  1  0.945984  0.952195  0.835928  1
  H  H46  1  0.445984  0.047805  0.835928  1
  H  H47  1  0.554016  0.952195  0.335928  1
  H  H48  1  0.989373  0.589868  0.227830  1
  H  H49  1  0.010627  0.410132  0.727830  1
  H  H50  1  0.510627  0.589868  0.727830  1
  H  H51  1  0.489373  0.410132  0.227830  1
  H  H52  1  0.000663  0.366506  0.295181  1
  H  H53  1  0.999337  0.633494  0.795181  1
  H  H54  1  0.499337  0.366506  0.795181  1
  H  H55  1  0.500663  0.633494  0.295181  1
  H  H56  1  0.179754  0.416041  0.974473  1
  H  H57  1  0.820246  0.583959  0.474473  1
  H  H58  1  0.320246  0.416041  0.474473  1
  H  H59  1  0.679754  0.583959  0.974473  1
  H  H60  1  0.113536  0.631783  0.961574  1
  H  H61  1  0.886464  0.368217  0.461574  1
  H  H62  1  0.386464  0.631783  0.461574  1
  H  H63  1  0.613536  0.368217  0.961574  1
  H  H64  1  0.325414  0.382699  0.220222  1
  H  H65  1  0.674586  0.617301  0.720222  1
  H  H66  1  0.174586  0.382699  0.720222  1
  H  H67  1  0.825414  0.617301  0.220222  1
  H  H68  1  0.254326  0.387721  0.313648  1
  H  H69  1  0.745674  0.612279  0.813648  1
  H  H70  1  0.245674  0.387721  0.813648  1
  H  H71  1  0.754326  0.612279  0.313648  1
  O  O72  1  0.417926  0.212653  0.189666  1
  O  O73  1  0.582074  0.787347  0.689666  1
  O  O74  1  0.082074  0.212653  0.689666  1
  O  O75  1  0.917926  0.787347  0.189666  1
  O  O76  1  0.256140  0.209167  0.423213  1
  O  O77  1  0.743860  0.790833  0.923213  1
  O  O78  1  0.243860  0.209167  0.923213  1
  O  O79  1  0.756140  0.790833  0.423213  1
  O  O80  1  0.943492  0.181152  0.371647  1
  O  O81  1  0.056508  0.818848  0.871647  1
  O  O82  1  0.556508  0.181152  0.871647  1
  O  O83  1  0.443492  0.818848  0.371647  1
  O  O84  1  0.041473  0.007776  0.065064  1
  O  O85  1  0.958527  0.992224  0.565064  1
  O  O86  1  0.458527  0.007776  0.565064  1
  O  O87  1  0.541473  0.992224  0.065064  1
  O  O88  1  0.273485  0.979758  0.104265  1
  O  O89  1  0.726515  0.020242  0.604265  1
  O  O90  1  0.226515  0.979758  0.604265  1
  O  O91  1  0.773485  0.020242  0.104265  1
  O  O92  1  0.118427  0.990395  0.315138  1
  O  O93  1  0.881573  0.009605  0.815138  1
  O  O94  1  0.381573  0.990395  0.815138  1
  O  O95  1  0.618427  0.009605  0.315138  1
  O  O96  1  0.037723  0.473779  0.249377  1
  O  O97  1  0.962277  0.526221  0.749377  1
  O  O98  1  0.462277  0.473779  0.749377  1
  O  O99  1  0.537723  0.526221  0.249377  1
  O  O100  1  0.142746  0.530845  0.015836  1
  O  O101  1  0.857254  0.469155  0.515836  1
  O  O102  1  0.357254  0.530845  0.515836  1
  O  O103  1  0.642746  0.469155  0.015836  1
  O  O104  1  0.265234  0.462160  0.242986  1
  O  O105  1  0.734766  0.537840  0.742986  1
  O  O106  1  0.234766  0.462160  0.742986  1
  O  O107  1  0.765234  0.537840  0.242986  1
