# generated using pymatgen
data_KSnPCO7
_symmetry_space_group_name_H-M   'P 1'
_cell_length_a   10.62040516
_cell_length_b   6.58253982
_cell_length_c   5.31685902
_cell_angle_alpha   90.00000000
_cell_angle_beta   88.06802319
_cell_angle_gamma   90.00000000
_symmetry_Int_Tables_number   1
_chemical_formula_structural   KSnPCO7
_chemical_formula_sum   'K2 Sn2 P2 C2 O14'
_cell_volume   371.48628367
_cell_formula_units_Z   2
loop_
 _symmetry_equiv_pos_site_id
 _symmetry_equiv_pos_as_xyz
  1  'x, y, z'
loop_
 _atom_site_type_symbol
 _atom_site_label
 _atom_site_symmetry_multiplicity
 _atom_site_fract_x
 _atom_site_fract_y
 _atom_site_fract_z
 _atom_site_occupancy
  K  K0  1  0.194367  0.393314  0.222876  1
  K  K1  1  0.805633  0.893314  0.777124  1
  Sn  Sn2  1  0.358429  0.779902  0.780995  1
  Sn  Sn3  1  0.641571  0.279902  0.219005  1
  P  P4  1  0.443530  0.276519  0.725553  1
  P  P5  1  0.556470  0.776519  0.274447  1
  C  C6  1  0.125787  0.734120  0.707999  1
  C  C7  1  0.874213  0.234120  0.292001  1
  O  O8  1  0.986577  0.200082  0.328405  1
  O  O9  1  0.175195  0.755161  0.936453  1
  O  O10  1  0.215284  0.749290  0.521636  1
  O  O11  1  0.356994  0.093340  0.789812  1
  O  O12  1  0.360977  0.460941  0.800559  1
  O  O13  1  0.431658  0.772087  0.134263  1
  O  O14  1  0.476342  0.283093  0.437022  1
  O  O15  1  0.523658  0.783093  0.562978  1
  O  O16  1  0.568342  0.272087  0.865737  1
  O  O17  1  0.639023  0.960941  0.199441  1
  O  O18  1  0.643006  0.593340  0.210188  1
  O  O19  1  0.784716  0.249290  0.478364  1
  O  O20  1  0.824805  0.255161  0.063547  1
  O  O21  1  0.013423  0.700082  0.671595  1
