# generated using pymatgen
data_Li3CoNi3O8
_symmetry_space_group_name_H-M   'P 1'
_cell_length_a   5.77462418
_cell_length_b   5.79252000
_cell_length_c   14.32579669
_cell_angle_alpha   89.13324220
_cell_angle_beta   90.93205085
_cell_angle_gamma   121.58554242
_symmetry_Int_Tables_number   1
_chemical_formula_structural   Li3CoNi3O8
_chemical_formula_sum   'Li9 Co3 Ni9 O24'
_cell_volume   408.13824983
_cell_formula_units_Z   3
loop_
 _symmetry_equiv_pos_site_id
 _symmetry_equiv_pos_as_xyz
  1  'x, y, z'
loop_
 _atom_site_type_symbol
 _atom_site_label
 _atom_site_symmetry_multiplicity
 _atom_site_fract_x
 _atom_site_fract_y
 _atom_site_fract_z
 _atom_site_occupancy
  Li  Li0  1  0.833224  0.666565  0.833321  1
  Li  Li1  1  0.333350  0.166805  0.833305  1
  Li  Li2  1  0.333298  0.666566  0.833298  1
  Li  Li3  1  0.500179  0.000625  0.500301  1
  Li  Li4  1  0.501009  0.497460  0.499349  1
  Li  Li5  1  0.000140  0.500341  0.501522  1
  Li  Li6  1  0.666428  0.832830  0.165182  1
  Li  Li7  1  0.166543  0.332776  0.166376  1
  Li  Li8  1  0.165607  0.835725  0.167370  1
  Co  Co9  1  0.668476  0.333630  0.670075  1
  Co  Co10  1  0.333363  0.666640  0.333357  1
  Co  Co11  1  0.998245  -0.000299  0.996638  1
  Ni  Ni12  1  0.669088  0.835326  0.666835  1
  Ni  Ni13  1  0.165844  0.331678  0.666734  1
  Ni  Ni14  1  0.167692  0.834946  0.663989  1
  Ni  Ni15  1  0.833352  0.166649  0.333326  1
  Ni  Ni16  1  0.833345  0.666608  0.333343  1
  Ni  Ni17  1  0.333327  0.166610  0.333324  1
  Ni  Ni18  1  0.500905  0.001830  0.999920  1
  Ni  Ni19  1  0.499049  0.498496  0.002694  1
  Ni  Ni20  1  0.997441  0.497996  0.999799  1
  O  O21  1  0.642060  0.333704  0.932217  1
  O  O22  1  0.664987  0.806456  0.925081  1
  O  O23  1  0.169295  0.856607  0.927310  1
  O  O24  1  0.184632  0.330070  0.928289  1
  O  O25  1  0.001784  0.527430  0.741799  1
  O  O26  1  0.482721  0.003883  0.738116  1
  O  O27  1  0.495362  0.475986  0.739238  1
  O  O28  1  0.025269  0.000472  0.734333  1
  O  O29  1  0.833391  0.194979  0.599064  1
  O  O30  1  0.835274  0.646809  0.595996  1
  O  O31  1  0.313966  0.660968  0.594653  1
  O  O32  1  0.352753  0.159247  0.592400  1
  O  O33  1  0.651167  0.844120  0.406870  1
  O  O34  1  0.653614  0.338484  0.405440  1
  O  O35  1  0.174004  0.349694  0.405215  1
  O  O36  1  0.164000  0.809935  0.403693  1
  O  O37  1  0.013099  0.994721  0.261253  1
  O  O38  1  0.502815  0.523321  0.263019  1
  O  O39  1  0.492693  0.983532  0.261428  1
  O  O40  1  0.015498  0.489126  0.259826  1
  O  O41  1  0.830784  0.686158  0.070979  1
  O  O42  1  0.834954  0.139122  0.067609  1
  O  O43  1  0.314141  0.173851  0.074017  1
  O  O44  1  0.351840  0.671516  0.072101  1
