# generated using pymatgen
data_La2S2O
_symmetry_space_group_name_H-M   'P 1'
_cell_length_a   16.18558300
_cell_length_b   4.06835785
_cell_length_c   7.14076278
_cell_angle_alpha   90.00000000
_cell_angle_beta   90.00000000
_cell_angle_gamma   90.00000000
_symmetry_Int_Tables_number   1
_chemical_formula_structural   La2S2O
_chemical_formula_sum   'La8 S8 O4'
_cell_volume   470.21025780
_cell_formula_units_Z   4
loop_
 _symmetry_equiv_pos_site_id
 _symmetry_equiv_pos_as_xyz
  1  'x, y, z'
loop_
 _atom_site_type_symbol
 _atom_site_label
 _atom_site_symmetry_multiplicity
 _atom_site_fract_x
 _atom_site_fract_y
 _atom_site_fract_z
 _atom_site_occupancy
  La  La0  1  0.040985  0.750000  0.207501  1
  La  La1  1  0.168701  0.750000  0.756102  1
  La  La2  1  0.331299  0.250000  0.256102  1
  La  La3  1  0.459015  0.250000  0.707501  1
  La  La4  1  0.540985  0.750000  0.292499  1
  La  La5  1  0.668701  0.750000  0.743898  1
  La  La6  1  0.831299  0.250000  0.243898  1
  La  La7  1  0.959015  0.250000  0.792499  1
  S  S8  1  0.102499  0.250000  0.514237  1
  S  S9  1  0.176916  0.250000  0.042617  1
  S  S10  1  0.323084  0.750000  0.542617  1
  S  S11  1  0.397501  0.750000  0.014237  1
  S  S12  1  0.602499  0.250000  0.985763  1
  S  S13  1  0.676916  0.250000  0.457383  1
  S  S14  1  0.823084  0.750000  0.957383  1
  S  S15  1  0.897501  0.750000  0.485763  1
  O  O16  1  0.031801  0.750000  0.867276  1
  O  O17  1  0.468199  0.250000  0.367276  1
  O  O18  1  0.531801  0.750000  0.632724  1
  O  O19  1  0.968199  0.250000  0.132724  1
