# generated using pymatgen
data_Rb3Nb20O34
_symmetry_space_group_name_H-M   'P 1'
_cell_length_a   13.56551888
_cell_length_b   6.08252450
_cell_length_c   10.53426105
_cell_angle_alpha   89.98010537
_cell_angle_beta   75.07503003
_cell_angle_gamma   90.00759954
_symmetry_Int_Tables_number   1
_chemical_formula_structural   Rb3Nb20O34
_chemical_formula_sum   'Rb3 Nb20 O34'
_cell_volume   839.88549733
_cell_formula_units_Z   1
loop_
 _symmetry_equiv_pos_site_id
 _symmetry_equiv_pos_as_xyz
  1  'x, y, z'
loop_
 _atom_site_type_symbol
 _atom_site_label
 _atom_site_symmetry_multiplicity
 _atom_site_fract_x
 _atom_site_fract_y
 _atom_site_fract_z
 _atom_site_occupancy
  Rb  Rb0  1  0.439288  0.000321  0.871033  1
  Rb  Rb1  1  0.569215  0.498998  0.642696  1
  Rb  Rb2  1  0.441653  0.498935  0.337753  1
  Nb  Nb3  1  0.911967  0.228124  0.953697  1
  Nb  Nb4  1  0.669770  0.499992  0.945138  1
  Nb  Nb5  1  0.911627  0.772385  0.954044  1
  Nb  Nb6  1  0.730252  0.000721  0.759614  1
  Nb  Nb7  1  0.087688  0.999475  0.819398  1
  Nb  Nb8  1  0.911200  0.500648  0.682196  1
  Nb  Nb9  1  0.270761  0.497552  0.744839  1
  Nb  Nb10  1  0.910809  0.271879  0.453171  1
  Nb  Nb11  1  0.670874  0.999242  0.439882  1
  Nb  Nb12  1  0.328647  0.000337  0.560001  1
  Nb  Nb13  1  0.910719  0.728810  0.453255  1
  Nb  Nb14  1  0.911252  0.999648  0.180746  1
  Nb  Nb15  1  0.088585  0.271845  0.547228  1
  Nb  Nb16  1  0.088788  0.728941  0.546704  1
  Nb  Nb17  1  0.729262  0.498792  0.253694  1
  Nb  Nb18  1  0.272118  0.001359  0.242584  1
  Nb  Nb19  1  0.088257  0.500420  0.318365  1
  Nb  Nb20  1  0.326201  0.500543  0.053496  1
  Nb  Nb21  1  0.087203  0.227199  0.047323  1
  Nb  Nb22  1  0.087514  0.772724  0.046597  1
  O  O23  1  0.815590  0.000778  0.888815  1
  O  O24  1  0.816082  0.500325  0.895042  1
  O  O25  1  0.629793  0.248769  0.865771  1
  O  O26  1  0.633222  0.999537  0.625499  1
  O  O27  1  0.816081  0.246671  0.644438  1
  O  O28  1  0.186076  0.253163  0.854656  1
  O  O29  1  0.630603  0.752076  0.865736  1
  O  O30  1  0.377198  0.498671  0.868528  1
  O  O31  1  0.375519  0.255238  0.628970  1
  O  O32  1  0.816158  0.754289  0.644596  1
  O  O33  1  0.816822  0.000570  0.392973  1
  O  O34  1  0.182182  0.000404  0.607304  1
  O  O35  1  0.185199  0.746529  0.854265  1
  O  O36  1  0.999847  0.250834  0.749220  1
  O  O37  1  0.371424  0.742797  0.631295  1
  O  O38  1  0.184106  0.500152  0.607974  1
  O  O39  1  0.999787  0.749800  0.749318  1
  O  O40  1  0.999677  0.000234  0.500369  1
  O  O41  1  0.815377  0.500183  0.392659  1
  O  O42  1  0.627946  0.261091  0.375682  1
  O  O43  1  0.367184  0.999625  0.375132  1
  O  O44  1  0.815030  0.257385  0.147343  1
  O  O45  1  0.183648  0.246594  0.354958  1
  O  O46  1  0.630241  0.736187  0.373824  1
  O  O47  1  0.629943  0.499512  0.129894  1
  O  O48  1  0.368302  0.246509  0.126983  1
  O  O49  1  0.814905  0.742912  0.147568  1
  O  O50  1  0.184276  0.000438  0.108826  1
  O  O51  1  0.999258  0.250280  0.251281  1
  O  O52  1  0.183676  0.753001  0.354665  1
  O  O53  1  0.366278  0.756004  0.128149  1
  O  O54  1  0.179804  0.500056  0.105976  1
  O  O55  1  0.999362  0.750010  0.251199  1
  O  O56  1  0.999699  0.500484  0.999658  1
