# generated using pymatgen
data_NiB6(H8O9)2
_symmetry_space_group_name_H-M   'P 1'
_cell_length_a   9.01952593
_cell_length_b   21.85209023
_cell_length_c   7.21587051
_cell_angle_alpha   90.00000000
_cell_angle_beta   90.00000000
_cell_angle_gamma   99.65453917
_symmetry_Int_Tables_number   1
_chemical_formula_structural   NiB6(H8O9)2
_chemical_formula_sum   'Ni4 B24 H64 O72'
_cell_volume   1402.07250650
_cell_formula_units_Z   4
loop_
 _symmetry_equiv_pos_site_id
 _symmetry_equiv_pos_as_xyz
  1  'x, y, z'
loop_
 _atom_site_type_symbol
 _atom_site_label
 _atom_site_symmetry_multiplicity
 _atom_site_fract_x
 _atom_site_fract_y
 _atom_site_fract_z
 _atom_site_occupancy
  Ni  Ni0  1  0.362660  0.604923  0.396898  1
  Ni  Ni1  1  0.637340  0.895077  0.896898  1
  Ni  Ni2  1  0.637340  0.395077  0.603102  1
  Ni  Ni3  1  0.362660  0.104923  0.103102  1
  B  B4  1  0.607475  0.579314  0.100194  1
  B  B5  1  0.392525  0.920686  0.600194  1
  B  B6  1  0.392525  0.420686  0.899806  1
  B  B7  1  0.607475  0.079314  0.399806  1
  B  B8  1  0.673566  0.686688  0.266031  1
  B  B9  1  0.326434  0.813312  0.766031  1
  B  B10  1  0.326434  0.313312  0.733969  1
  B  B11  1  0.673566  0.186688  0.233969  1
  B  B12  1  0.845362  0.601611  0.325189  1
  B  B13  1  0.154638  0.898389  0.825189  1
  B  B14  1  0.154638  0.398389  0.674811  1
  B  B15  1  0.845362  0.101611  0.174811  1
  B  B16  1  0.807421  0.512340  0.107046  1
  B  B17  1  0.192579  0.987660  0.607046  1
  B  B18  1  0.192579  0.487660  0.892954  1
  B  B19  1  0.807421  0.012340  0.392954  1
  B  B20  1  0.585631  0.678057  0.937229  1
  B  B21  1  0.414369  0.821943  0.437229  1
  B  B22  1  0.414369  0.321943  0.062771  1
  B  B23  1  0.585631  0.178057  0.562771  1
  B  B24  1  0.939316  0.712408  0.366973  1
  B  B25  1  0.060684  0.787592  0.866973  1
  B  B26  1  0.060684  0.287592  0.633027  1
  B  B27  1  0.939316  0.212408  0.133027  1
  H  H28  1  0.404434  0.524284  0.136910  1
  H  H29  1  0.595566  0.975716  0.636910  1
  H  H30  1  0.595566  0.475716  0.863090  1
  H  H31  1  0.404434  0.024284  0.363090  1
  H  H32  1  0.570726  0.689543  0.522873  1
  H  H33  1  0.429274  0.810457  0.022873  1
  H  H34  1  0.429274  0.310457  0.477127  1
  H  H35  1  0.570726  0.189543  0.977127  1
  H  H36  1  0.686138  0.582225  0.538822  1
  H  H37  1  0.313862  0.917775  0.038822  1
  H  H38  1  0.313862  0.417775  0.461178  1
  H  H39  1  0.686138  0.082225  0.961178  1
  H  H40  1  0.919098  0.437996  0.112048  1
  H  H41  1  0.080902  0.062004  0.612048  1
  H  H42  1  0.080902  0.562004  0.887952  1
  H  H43  1  0.919098  0.937996  0.387952  1
  H  H44  1  0.556933  0.750825  0.785836  1
  H  H45  1  0.443067  0.749175  0.285836  1
  H  H46  1  0.443067  0.249175  0.214164  1
  H  H47  1  0.556933  0.250825  0.714164  1
  H  H48  1  0.145004  0.748076  0.457146  1
  H  H49  1  0.854996  0.751924  0.957146  1
  H  H50  1  0.854996  0.251924  0.542854  1
  H  H51  1  0.145004  0.248076  0.042854  1
  H  H52  1  0.458375  0.519580  0.639150  1
  H  H53  1  0.541625  0.980420  0.139150  1
  H  H54  1  0.541625  0.480420  0.360850  1
  H  H55  1  0.458375  0.019580  0.860850  1
  H  H56  1  0.492849  0.583837  0.737639  1
  H  H57  1  0.507151  0.916163  0.237639  1
  H  H58  1  0.507151  0.416163  0.262361  1
  H  H59  1  0.492849  0.083837  0.762361  1
  H  H60  1  0.235133  0.613607  0.087309  1
  H  H61  1  0.764867  0.886393  0.587309  1
  H  H62  1  0.764867  0.386393  0.912691  1
  H  H63  1  0.235133  0.113607  0.412691  1
  H  H64  1  0.157575  0.651095  0.235470  1
  H  H65  1  0.842425  0.848905  0.735470  1
  H  H66  1  0.842425  0.348905  0.764530  1
  H  H67  1  0.157575  0.151095  0.264530  1
  H  H68  1  0.166930  0.640845  0.657301  1
  H  H69  1  0.833070  0.859155  0.157301  1
  H  H70  1  0.833070  0.359155  0.342699  1
  H  H71  1  0.166930  0.140845  0.842699  1
  H  H72  1  0.311814  0.694220  0.632899  1
  H  H73  1  0.688186  0.805780  0.132899  1
  H  H74  1  0.688186  0.305780  0.367101  1
  H  H75  1  0.311814  0.194220  0.867101  1
  H  H76  1  0.181854  0.492134  0.438278  1
  H  H77  1  0.818146  0.007866  0.938278  1
  H  H78  1  0.818146  0.507866  0.561722  1
  H  H79  1  0.181854  0.992134  0.061722  1
  H  H80  1  0.088141  0.538488  0.332788  1
  H  H81  1  0.911859  0.961512  0.832788  1
  H  H82  1  0.911859  0.461512  0.667212  1
  H  H83  1  0.088141  0.038488  0.167212  1
  H  H84  1  0.021880  0.343289  0.146434  1
  H  H85  1  0.978120  0.156711  0.646434  1
  H  H86  1  0.978120  0.656711  0.853566  1
  H  H87  1  0.021880  0.843289  0.353566  1
  H  H88  1  0.083963  0.391885  0.305195  1
  H  H89  1  0.916037  0.108115  0.805195  1
  H  H90  1  0.916037  0.608115  0.694805  1
  H  H91  1  0.083963  0.891885  0.194805  1
  O  O92  1  0.474408  0.553493  0.215394  1
  O  O93  1  0.525592  0.946507  0.715394  1
  O  O94  1  0.525592  0.446507  0.784606  1
  O  O95  1  0.474408  0.053493  0.284606  1
  O  O96  1  0.542180  0.679276  0.392691  1
  O  O97  1  0.457820  0.820724  0.892691  1
  O  O98  1  0.457820  0.320724  0.607309  1
  O  O99  1  0.542180  0.179276  0.107309  1
  O  O100  1  0.793481  0.581638  0.515361  1
  O  O101  1  0.206519  0.918362  0.015361  1
  O  O102  1  0.206519  0.418362  0.484639  1
  O  O103  1  0.793481  0.081638  0.984639  1
  O  O104  1  0.839028  0.456076  0.048468  1
  O  O105  1  0.160972  0.043924  0.548468  1
  O  O106  1  0.160972  0.543924  0.951532  1
  O  O107  1  0.839028  0.956076  0.451532  1
  O  O108  1  0.560222  0.706356  0.771181  1
  O  O109  1  0.439778  0.793644  0.271181  1
  O  O110  1  0.439778  0.293644  0.228819  1
  O  O111  1  0.560222  0.206356  0.728819  1
  O  O112  1  0.050295  0.760761  0.422095  1
  O  O113  1  0.949705  0.739239  0.922095  1
  O  O114  1  0.949705  0.239239  0.577905  1
  O  O115  1  0.050295  0.260761  0.077905  1
  O  O116  1  0.678738  0.528682  0.032997  1
  O  O117  1  0.321262  0.971318  0.532997  1
  O  O118  1  0.321262  0.471318  0.967003  1
  O  O119  1  0.678738  0.028682  0.467003  1
  O  O120  1  0.563903  0.614438  0.940287  1
  O  O121  1  0.436097  0.885562  0.440287  1
  O  O122  1  0.436097  0.385562  0.059713  1
  O  O123  1  0.563903  0.114438  0.559713  1
  O  O124  1  0.634329  0.713084  0.089265  1
  O  O125  1  0.365671  0.786916  0.589265  1
  O  O126  1  0.365671  0.286916  0.910735  1
  O  O127  1  0.634329  0.213084  0.410735  1
  O  O128  1  0.798618  0.726372  0.347758  1
  O  O129  1  0.201382  0.773628  0.847758  1
  O  O130  1  0.201382  0.273628  0.652242  1
  O  O131  1  0.798618  0.226372  0.152242  1
  O  O132  1  0.895498  0.549893  0.230273  1
  O  O133  1  0.104502  0.950107  0.730273  1
  O  O134  1  0.104502  0.450107  0.769727  1
  O  O135  1  0.895498  0.049893  0.269727  1
  O  O136  1  0.970252  0.653706  0.334797  1
  O  O137  1  0.029748  0.846294  0.834797  1
  O  O138  1  0.029748  0.346293  0.665203  1
  O  O139  1  0.970252  0.153706  0.165203  1
  O  O140  1  0.713932  0.622265  0.221822  1
  O  O141  1  0.286068  0.877735  0.721822  1
  O  O142  1  0.286068  0.377735  0.778178  1
  O  O143  1  0.713932  0.122265  0.278178  1
  O  O144  1  0.481874  0.564138  0.611493  1
  O  O145  1  0.518126  0.935862  0.111493  1
  O  O146  1  0.518126  0.435862  0.388507  1
  O  O147  1  0.481874  0.064138  0.888507  1
  O  O148  1  0.256881  0.645566  0.184912  1
  O  O149  1  0.743119  0.854434  0.684912  1
  O  O150  1  0.743119  0.354434  0.815088  1
  O  O151  1  0.256881  0.145566  0.315088  1
  O  O152  1  0.257299  0.655640  0.580522  1
  O  O153  1  0.742701  0.844360  0.080522  1
  O  O154  1  0.742701  0.344360  0.419478  1
  O  O155  1  0.257299  0.155640  0.919478  1
  O  O156  1  0.175302  0.536540  0.413467  1
  O  O157  1  0.824698  0.963460  0.913467  1
  O  O158  1  0.824698  0.463460  0.586533  1
  O  O159  1  0.175302  0.036540  0.086533  1
  O  O160  1  0.001398  0.380409  0.213174  1
  O  O161  1  0.998602  0.119591  0.713174  1
  O  O162  1  0.998602  0.619591  0.786826  1
  O  O163  1  0.001398  0.880409  0.286826  1
