# generated using pymatgen
data_Li2MnV(PO4)3
_symmetry_space_group_name_H-M   'P 1'
_cell_length_a   9.00182275
_cell_length_b   8.55351932
_cell_length_c   8.33140226
_cell_angle_alpha   59.40956204
_cell_angle_beta   63.77084722
_cell_angle_gamma   92.56038725
_symmetry_Int_Tables_number   1
_chemical_formula_structural   Li2MnV(PO4)3
_chemical_formula_sum   'Li4 Mn2 V2 P6 O24'
_cell_volume   464.18811788
_cell_formula_units_Z   2
loop_
 _symmetry_equiv_pos_site_id
 _symmetry_equiv_pos_as_xyz
  1  'x, y, z'
loop_
 _atom_site_type_symbol
 _atom_site_label
 _atom_site_symmetry_multiplicity
 _atom_site_fract_x
 _atom_site_fract_y
 _atom_site_fract_z
 _atom_site_occupancy
  Li  Li0  1  0.370639  0.209756  0.370058  1
  Li  Li1  1  0.869679  0.691531  0.040044  1
  Li  Li2  1  0.868862  0.926419  0.400463  1
  Li  Li3  1  0.865689  0.259253  0.814026  1
  Mn  Mn4  1  0.052013  0.356927  0.298570  1
  Mn  Mn5  1  0.958303  0.644448  0.695571  1
  V  V6  1  0.559402  0.847312  0.295832  1
  V  V7  1  0.433932  0.140478  0.718455  1
  P  P8  1  0.255253  0.033985  0.211913  1
  P  P9  1  0.245640  0.452107  0.505632  1
  P  P10  1  0.251073  0.749239  0.786428  1
  P  P11  1  0.754317  0.247213  0.214685  1
  P  P12  1  0.753756  0.541652  0.491680  1
  P  P13  1  0.748510  0.968787  0.782064  1
  O  O14  1  0.089154  0.842784  0.380094  1
  O  O15  1  0.274537  0.110133  0.988638  1
  O  O16  1  0.223987  0.176456  0.271422  1
  O  O17  1  0.214133  0.487361  0.325005  1
  O  O18  1  0.092028  0.440338  0.695781  1
  O  O19  1  0.096273  0.777155  0.747761  1
  O  O20  1  0.426525  0.999366  0.198428  1
  O  O21  1  0.294493  0.267666  0.588749  1
  O  O22  1  0.416513  0.624903  0.385187  1
  O  O23  1  0.204279  0.543179  0.978287  1
  O  O24  1  0.283935  0.902358  0.826217  1
  O  O25  1  0.421794  0.802010  0.577160  1
  O  O26  1  0.573888  0.196027  0.411651  1
  O  O27  1  0.733727  0.111298  0.147257  1
  O  O28  1  0.806233  0.460607  0.023265  1
  O  O29  1  0.578653  0.375196  0.615509  1
  O  O30  1  0.721035  0.737829  0.401863  1
  O  O31  1  0.575257  0.000135  0.809258  1
  O  O32  1  0.894996  0.208591  0.275290  1
  O  O33  1  0.893584  0.548418  0.295081  1
  O  O34  1  0.801889  0.499824  0.663503  1
  O  O35  1  0.795340  0.839339  0.706662  1
  O  O36  1  0.730138  0.877062  0.012017  1
  O  O37  1  0.899462  0.171962  0.625097  1
