# generated using pymatgen
data_ReH22C4S4N8Cl8O3
_symmetry_space_group_name_H-M   'P 1'
_cell_length_a   17.79470069
_cell_length_b   9.07233901
_cell_length_c   17.01108775
_cell_angle_alpha   90.00000000
_cell_angle_beta   90.00000000
_cell_angle_gamma   90.00000000
_symmetry_Int_Tables_number   1
_chemical_formula_structural   ReH22C4S4N8Cl8O3
_chemical_formula_sum   'Re4 H88 C16 S16 N32 Cl32 O12'
_cell_volume   2746.26247455
_cell_formula_units_Z   4
loop_
 _symmetry_equiv_pos_site_id
 _symmetry_equiv_pos_as_xyz
  1  'x, y, z'
loop_
 _atom_site_type_symbol
 _atom_site_label
 _atom_site_symmetry_multiplicity
 _atom_site_fract_x
 _atom_site_fract_y
 _atom_site_fract_z
 _atom_site_occupancy
  Re  Re0  1  0.561351  0.340407  0.250000  1
  Re  Re1  1  0.061351  0.159593  0.250000  1
  Re  Re2  1  0.438649  0.659593  0.750000  1
  Re  Re3  1  0.938649  0.840407  0.750000  1
  H  H4  1  0.471800  0.905931  0.124405  1
  H  H5  1  0.971800  0.594069  0.375595  1
  H  H6  1  0.528200  0.094069  0.624405  1
  H  H7  1  0.028200  0.405931  0.875595  1
  H  H8  1  0.528200  0.094069  0.875595  1
  H  H9  1  0.028200  0.405931  0.624405  1
  H  H10  1  0.471800  0.905931  0.375595  1
  H  H11  1  0.971800  0.594069  0.124405  1
  H  H12  1  0.564008  0.891387  0.166547  1
  H  H13  1  0.064008  0.608613  0.333453  1
  H  H14  1  0.435992  0.108613  0.666547  1
  H  H15  1  0.935992  0.391387  0.833453  1
  H  H16  1  0.435992  0.108613  0.833453  1
  H  H17  1  0.935992  0.391387  0.666547  1
  H  H18  1  0.564008  0.891387  0.333453  1
  H  H19  1  0.064008  0.608613  0.166547  1
  H  H20  1  0.453727  0.828273  0.993789  1
  H  H21  1  0.953727  0.671727  0.506211  1
  H  H22  1  0.546273  0.171727  0.493789  1
  H  H23  1  0.046273  0.328273  0.006211  1
  H  H24  1  0.546273  0.171727  0.006211  1
  H  H25  1  0.046273  0.328273  0.493789  1
  H  H26  1  0.453727  0.828273  0.506211  1
  H  H27  1  0.953727  0.671727  0.993789  1
  H  H28  1  0.530261  0.754758  0.940878  1
  H  H29  1  0.030261  0.745242  0.559122  1
  H  H30  1  0.469739  0.245242  0.440878  1
  H  H31  1  0.969739  0.254758  0.059122  1
  H  H32  1  0.469739  0.245242  0.059122  1
  H  H33  1  0.969739  0.254758  0.440878  1
  H  H34  1  0.530261  0.754758  0.559122  1
  H  H35  1  0.030261  0.745242  0.940878  1
  H  H36  1  0.689063  0.341152  0.874231  1
  H  H37  1  0.189063  0.158848  0.625769  1
  H  H38  1  0.310937  0.658848  0.374231  1
  H  H39  1  0.810937  0.841152  0.125769  1
  H  H40  1  0.310937  0.658848  0.125769  1
  H  H41  1  0.810937  0.841152  0.374231  1
  H  H42  1  0.689063  0.341152  0.625769  1
  H  H43  1  0.189063  0.158848  0.874231  1
  H  H44  1  0.700592  0.517205  0.827494  1
  H  H45  1  0.200592  0.982795  0.672506  1
  H  H46  1  0.299408  0.482795  0.327494  1
  H  H47  1  0.799408  0.017205  0.172506  1
  H  H48  1  0.299408  0.482795  0.172506  1
  H  H49  1  0.799408  0.017205  0.327494  1
  H  H50  1  0.700592  0.517205  0.672506  1
  H  H51  1  0.200592  0.982795  0.827494  1
  H  H52  1  0.654654  0.333529  0.007179  1
  H  H53  1  0.154654  0.166471  0.492821  1
  H  H54  1  0.345346  0.666471  0.507179  1
  H  H55  1  0.845346  0.833529  0.992821  1
  H  H56  1  0.345346  0.666471  0.992821  1
  H  H57  1  0.845346  0.833529  0.507179  1
  H  H58  1  0.654654  0.333529  0.492821  1
  H  H59  1  0.154654  0.166471  0.007179  1
  H  H60  1  0.640451  0.499523  0.058056  1
  H  H61  1  0.140451  0.000477  0.441944  1
  H  H62  1  0.359549  0.500477  0.558056  1
  H  H63  1  0.859549  0.999523  0.941944  1
  H  H64  1  0.359549  0.500477  0.941944  1
  H  H65  1  0.859549  0.999523  0.558056  1
  H  H66  1  0.640451  0.499523  0.441944  1
  H  H67  1  0.140451  0.000477  0.058056  1
  H  H68  1  0.637015  0.612441  0.250000  1
  H  H69  1  0.137015  0.887559  0.250000  1
  H  H70  1  0.362985  0.387559  0.750000  1
  H  H71  1  0.862985  0.112441  0.750000  1
  H  H72  1  0.702341  0.485562  0.250000  1
  H  H73  1  0.202341  0.014438  0.250000  1
  H  H74  1  0.297659  0.514438  0.750000  1
  H  H75  1  0.797659  0.985562  0.750000  1
  H  H76  1  0.808420  0.523376  0.202962  1
  H  H77  1  0.308420  0.976624  0.297038  1
  H  H78  1  0.191580  0.476624  0.702962  1
  H  H79  1  0.691580  0.023376  0.797038  1
  H  H80  1  0.191580  0.476624  0.797038  1
  H  H81  1  0.691580  0.023376  0.702962  1
  H  H82  1  0.808420  0.523376  0.297038  1
  H  H83  1  0.308420  0.976624  0.202962  1
  H  H84  1  0.740657  0.171117  0.250000  1
  H  H85  1  0.240657  0.328883  0.250000  1
  H  H86  1  0.259343  0.828883  0.750000  1
  H  H87  1  0.759343  0.671117  0.750000  1
  H  H88  1  0.820022  0.244438  0.250000  1
  H  H89  1  0.320022  0.255562  0.250000  1
  H  H90  1  0.179978  0.755562  0.750000  1
  H  H91  1  0.679978  0.744438  0.750000  1
  C  C92  1  0.552785  0.821358  0.053342  1
  C  C93  1  0.052785  0.678642  0.446658  1
  C  C94  1  0.447215  0.178642  0.553342  1
  C  C95  1  0.947215  0.321358  0.946658  1
  C  C96  1  0.447215  0.178642  0.946658  1
  C  C97  1  0.947215  0.321358  0.553342  1
  C  C98  1  0.552785  0.821358  0.446658  1
  C  C99  1  0.052785  0.678642  0.053342  1
  C  C100  1  0.671588  0.519970  0.943195  1
  C  C101  1  0.171588  0.980030  0.556805  1
  C  C102  1  0.328412  0.480030  0.443195  1
  C  C103  1  0.828412  0.019970  0.056805  1
  C  C104  1  0.328412  0.480030  0.056805  1
  C  C105  1  0.828412  0.019970  0.443195  1
  C  C106  1  0.671588  0.519970  0.556805  1
  C  C107  1  0.171588  0.980030  0.943195  1
  S  S108  1  0.650396  0.774000  0.054372  1
  S  S109  1  0.150396  0.726000  0.445628  1
  S  S110  1  0.349604  0.226000  0.554372  1
  S  S111  1  0.849604  0.274000  0.945628  1
  S  S112  1  0.349604  0.226000  0.945628  1
  S  S113  1  0.849604  0.274000  0.554372  1
  S  S114  1  0.650396  0.774000  0.445628  1
  S  S115  1  0.150396  0.726000  0.054372  1
  S  S116  1  0.671780  0.716918  0.940177  1
  S  S117  1  0.171780  0.783082  0.559823  1
  S  S118  1  0.328220  0.283082  0.440177  1
  S  S119  1  0.828220  0.216918  0.059823  1
  S  S120  1  0.328220  0.283082  0.059823  1
  S  S121  1  0.828220  0.216918  0.440177  1
  S  S122  1  0.671780  0.716918  0.559823  1
  S  S123  1  0.171780  0.783082  0.940177  1
  N  N124  1  0.528099  0.880978  0.119109  1
  N  N125  1  0.028099  0.619022  0.380891  1
  N  N126  1  0.471901  0.119022  0.619109  1
  N  N127  1  0.971901  0.380978  0.880891  1
  N  N128  1  0.471901  0.119022  0.880891  1
  N  N129  1  0.971901  0.380978  0.619109  1
  N  N130  1  0.528099  0.880978  0.380891  1
  N  N131  1  0.028099  0.619022  0.119109  1
  N  N132  1  0.509710  0.801305  0.991124  1
  N  N133  1  0.009710  0.698695  0.508876  1
  N  N134  1  0.490290  0.198695  0.491124  1
  N  N135  1  0.990290  0.301305  0.008876  1
  N  N136  1  0.490290  0.198695  0.008876  1
  N  N137  1  0.990290  0.301305  0.491124  1
  N  N138  1  0.509710  0.801305  0.508876  1
  N  N139  1  0.009710  0.698695  0.991124  1
  N  N140  1  0.691720  0.454708  0.877382  1
  N  N141  1  0.191720  0.045292  0.622618  1
  N  N142  1  0.308280  0.545292  0.377382  1
  N  N143  1  0.808280  0.954708  0.122618  1
  N  N144  1  0.308280  0.545292  0.122618  1
  N  N145  1  0.808280  0.954708  0.377382  1
  N  N146  1  0.691720  0.454708  0.622618  1
  N  N147  1  0.191720  0.045292  0.877382  1
  N  N148  1  0.653805  0.446336  0.007282  1
  N  N149  1  0.153805  0.053664  0.492718  1
  N  N150  1  0.346195  0.553664  0.507282  1
  N  N151  1  0.846195  0.946336  0.992718  1
  N  N152  1  0.346195  0.553664  0.992718  1
  N  N153  1  0.846195  0.946336  0.507282  1
  N  N154  1  0.653805  0.446336  0.492718  1
  N  N155  1  0.153805  0.053664  0.007282  1
  Cl  Cl156  1  0.632261  0.213715  0.153120  1
  Cl  Cl157  1  0.132261  0.286286  0.346880  1
  Cl  Cl158  1  0.367739  0.786285  0.653120  1
  Cl  Cl159  1  0.867739  0.713715  0.846880  1
  Cl  Cl160  1  0.367739  0.786285  0.846880  1
  Cl  Cl161  1  0.867739  0.713715  0.653120  1
  Cl  Cl162  1  0.632261  0.213715  0.346880  1
  Cl  Cl163  1  0.132261  0.286286  0.153120  1
  Cl  Cl164  1  0.502337  0.481646  0.151030  1
  Cl  Cl165  1  0.002337  0.018354  0.348970  1
  Cl  Cl166  1  0.497663  0.518354  0.651030  1
  Cl  Cl167  1  0.997663  0.981646  0.848970  1
  Cl  Cl168  1  0.497663  0.518354  0.848970  1
  Cl  Cl169  1  0.997663  0.981646  0.651030  1
  Cl  Cl170  1  0.502337  0.481646  0.348970  1
  Cl  Cl171  1  0.002337  0.018354  0.151030  1
  Cl  Cl172  1  0.465508  0.159868  0.250000  1
  Cl  Cl173  1  0.965508  0.340132  0.250000  1
  Cl  Cl174  1  0.534492  0.840132  0.750000  1
  Cl  Cl175  1  0.034492  0.659868  0.750000  1
  Cl  Cl176  1  0.845684  0.611201  0.083754  1
  Cl  Cl177  1  0.345684  0.888799  0.416246  1
  Cl  Cl178  1  0.154316  0.388799  0.583754  1
  Cl  Cl179  1  0.654316  0.111201  0.916246  1
  Cl  Cl180  1  0.154316  0.388799  0.916246  1
  Cl  Cl181  1  0.654316  0.111201  0.583754  1
  Cl  Cl182  1  0.845684  0.611201  0.416246  1
  Cl  Cl183  1  0.345684  0.888799  0.083754  1
  Cl  Cl184  1  0.654145  0.832724  0.250000  1
  Cl  Cl185  1  0.154145  0.667276  0.250000  1
  Cl  Cl186  1  0.345855  0.167276  0.750000  1
  Cl  Cl187  1  0.845855  0.332724  0.750000  1
  O  O188  1  0.645298  0.502461  0.250000  1
  O  O189  1  0.145298  0.997539  0.250000  1
  O  O190  1  0.354702  0.497539  0.750000  1
  O  O191  1  0.854702  0.002461  0.750000  1
  O  O192  1  0.788283  0.472237  0.250000  1
  O  O193  1  0.288283  0.027763  0.250000  1
  O  O194  1  0.211717  0.527763  0.750000  1
  O  O195  1  0.711717  0.972237  0.750000  1
  O  O196  1  0.794531  0.148020  0.250000  1
  O  O197  1  0.294531  0.351980  0.250000  1
  O  O198  1  0.205469  0.851980  0.750000  1
  O  O199  1  0.705469  0.648020  0.750000  1
