# generated using pymatgen
data_Fe2OF3
_symmetry_space_group_name_H-M   'P 1'
_cell_length_a   6.25315760
_cell_length_b   6.95695471
_cell_length_c   7.41603963
_cell_angle_alpha   90.00000000
_cell_angle_beta   114.93544756
_cell_angle_gamma   90.00000000
_symmetry_Int_Tables_number   1
_chemical_formula_structural   Fe2OF3
_chemical_formula_sum   'Fe8 O4 F12'
_cell_volume   292.54597830
_cell_formula_units_Z   4
loop_
 _symmetry_equiv_pos_site_id
 _symmetry_equiv_pos_as_xyz
  1  'x, y, z'
loop_
 _atom_site_type_symbol
 _atom_site_label
 _atom_site_symmetry_multiplicity
 _atom_site_fract_x
 _atom_site_fract_y
 _atom_site_fract_z
 _atom_site_occupancy
  Fe  Fe0  1  0.476543  0.000000  1.000000  1
  Fe  Fe1  1  0.023457  0.000000  0.000000  1
  Fe  Fe2  1  0.750000  0.500000  0.000000  1
  Fe  Fe3  1  0.250000  0.500000  0.000000  1
  Fe  Fe4  1  0.496448  0.000000  0.492897  1
  Fe  Fe5  1  0.003552  0.000000  0.507103  1
  Fe  Fe6  1  0.750000  0.500000  0.500000  1
  Fe  Fe7  1  0.250000  0.500000  0.500000  1
  O  O8  1  0.346427  0.000000  0.192854  1
  O  O9  1  0.153573  0.000000  0.807146  1
  O  O10  1  0.910466  0.500000  0.320933  1
  O  O11  1  0.589534  0.500000  0.679067  1
  F  F12  1  0.844343  0.000000  0.188685  1
  F  F13  1  0.498540  0.290943  0.000000  1
  F  F14  1  0.001460  0.290943  1.000000  1
  F  F15  1  0.498540  0.709057  0.000000  1
  F  F16  1  0.750000  0.208241  0.500000  1
  F  F17  1  0.250000  0.208241  0.500000  1
  F  F18  1  0.001460  0.709057  1.000000  1
  F  F19  1  0.655657  0.000000  0.811315  1
  F  F20  1  0.398826  0.500000  0.297651  1
  F  F21  1  0.101174  0.500000  0.702349  1
  F  F22  1  0.750000  0.791759  0.500000  1
  F  F23  1  0.250000  0.791759  0.500000  1
