# generated using pymatgen
data_LiAgF3
_symmetry_space_group_name_H-M   'P 1'
_cell_length_a   5.27094257
_cell_length_b   5.61996360
_cell_length_c   8.21218017
_cell_angle_alpha   89.99722585
_cell_angle_beta   89.48838284
_cell_angle_gamma   89.90673062
_symmetry_Int_Tables_number   1
_chemical_formula_structural   LiAgF3
_chemical_formula_sum   'Li4 Ag4 F12'
_cell_volume   243.25533081
_cell_formula_units_Z   4
loop_
 _symmetry_equiv_pos_site_id
 _symmetry_equiv_pos_as_xyz
  1  'x, y, z'
loop_
 _atom_site_type_symbol
 _atom_site_label
 _atom_site_symmetry_multiplicity
 _atom_site_fract_x
 _atom_site_fract_y
 _atom_site_fract_z
 _atom_site_occupancy
  Li  Li0  1  0.000000  0.500000  0.000000  1
  Li  Li1  1  0.000000  0.500000  0.500000  1
  Li  Li2  1  0.500000  0.000000  0.000000  1
  Li  Li3  1  0.500000  0.000000  0.500000  1
  Ag  Ag4  1  0.020030  0.918263  0.707791  1
  Ag  Ag5  1  0.481452  0.418765  0.791963  1
  Ag  Ag6  1  0.518548  0.581235  0.208037  1
  Ag  Ag7  1  0.979970  0.081737  0.292209  1
  F  F8  1  0.139263  0.437854  0.249356  1
  F  F9  1  0.196357  0.203424  0.571571  1
  F  F10  1  0.204374  0.212325  0.923665  1
  F  F11  1  0.297861  0.711393  0.575812  1
  F  F12  1  0.302879  0.703990  0.928027  1
  F  F13  1  0.359405  0.937841  0.250627  1
  F  F14  1  0.640595  0.062159  0.749373  1
  F  F15  1  0.697121  0.296010  0.071973  1
  F  F16  1  0.702139  0.288607  0.424188  1
  F  F17  1  0.795626  0.787675  0.076335  1
  F  F18  1  0.803643  0.796576  0.428429  1
  F  F19  1  0.860737  0.562146  0.750644  1
