# generated using pymatgen
data_V2OF5
_symmetry_space_group_name_H-M   'P 1'
_cell_length_a   5.25784868
_cell_length_b   5.41999041
_cell_length_c   17.49649128
_cell_angle_alpha   91.59849019
_cell_angle_beta   98.64166817
_cell_angle_gamma   60.98475951
_symmetry_Int_Tables_number   1
_chemical_formula_structural   V2OF5
_chemical_formula_sum   'V8 O4 F20'
_cell_volume   430.49242439
_cell_formula_units_Z   4
loop_
 _symmetry_equiv_pos_site_id
 _symmetry_equiv_pos_as_xyz
  1  'x, y, z'
loop_
 _atom_site_type_symbol
 _atom_site_label
 _atom_site_symmetry_multiplicity
 _atom_site_fract_x
 _atom_site_fract_y
 _atom_site_fract_z
 _atom_site_occupancy
  V  V0  1  0.738883  0.624665  0.122863  1
  V  V1  1  0.755402  0.121128  0.623333  1
  V  V2  1  0.490686  0.250335  0.252137  1
  V  V3  1  0.503196  0.753872  0.751667  1
  V  V4  1  0.259795  0.902075  0.373667  1
  V  V5  1  0.280534  0.342788  0.871227  1
  V  V6  1  0.038204  0.972925  0.001333  1
  V  V7  1  0.002095  0.532212  0.503773  1
  O  O8  1  0.959769  0.804455  0.558948  1
  O  O9  1  0.397513  0.789688  0.039580  1
  O  O10  1  0.397620  0.085312  0.335420  1
  O  O11  1  0.455274  0.070545  0.816052  1
  F  F12  1  0.909256  0.841613  0.084280  1
  F  F13  1  0.967556  0.309133  0.060201  1
  F  F14  1  0.518176  0.937500  0.187500  1
  F  F15  1  0.916589  0.033387  0.290720  1
  F  F16  1  0.934013  0.332752  0.585831  1
  F  F17  1  0.930934  0.542248  0.789169  1
  F  F18  1  0.578793  0.405077  0.164278  1
  F  F19  1  0.569912  0.920348  0.661821  1
  F  F20  1  0.575281  0.707561  0.461538  1
  F  F21  1  0.466489  0.565867  0.314799  1
  F  F22  1  0.530950  0.437500  0.687500  1
  F  F23  1  0.424677  0.295600  0.534794  1
  F  F24  1  0.435483  0.579400  0.840206  1
  F  F25  1  0.591581  0.198960  0.961924  1
  F  F26  1  0.078618  0.676040  0.413076  1
  F  F27  1  0.069592  0.469923  0.210722  1
  F  F28  1  0.078438  0.954652  0.713179  1
  F  F29  1  0.041679  0.674620  0.934592  1
  F  F30  1  0.031708  0.200380  0.440408  1
  F  F31  1  0.071304  0.167439  0.913462  1
