# generated using pymatgen
data_ZnH12C3S4(N3O2)2
_symmetry_space_group_name_H-M   'P 1'
_cell_length_a   11.13487553
_cell_length_b   7.77474541
_cell_length_c   15.65605534
_cell_angle_alpha   90.00000000
_cell_angle_beta   90.00000000
_cell_angle_gamma   90.00000000
_symmetry_Int_Tables_number   1
_chemical_formula_structural   ZnH12C3S4(N3O2)2
_chemical_formula_sum   'Zn4 H48 C12 S16 N24 O16'
_cell_volume   1355.35758660
_cell_formula_units_Z   4
loop_
 _symmetry_equiv_pos_site_id
 _symmetry_equiv_pos_as_xyz
  1  'x, y, z'
loop_
 _atom_site_type_symbol
 _atom_site_label
 _atom_site_symmetry_multiplicity
 _atom_site_fract_x
 _atom_site_fract_y
 _atom_site_fract_z
 _atom_site_occupancy
  Zn  Zn0  1  0.067663  0.345130  0.350801  1
  Zn  Zn1  1  0.432337  0.345130  0.850801  1
  Zn  Zn2  1  0.567663  0.654870  0.350801  1
  Zn  Zn3  1  0.932337  0.654870  0.850801  1
  H  H4  1  0.036207  0.383441  0.771519  1
  H  H5  1  0.037724  0.139357  0.061910  1
  H  H6  1  0.057518  0.326062  0.664146  1
  H  H7  1  0.083872  0.921501  0.918453  1
  H  H8  1  0.114782  0.708303  0.077615  1
  H  H9  1  0.145316  0.814900  0.492965  1
  H  H10  1  0.150743  0.661025  0.409216  1
  H  H11  1  0.154392  0.290401  0.050495  1
  H  H12  1  0.202664  0.055076  0.262428  1
  H  H13  1  0.212830  0.986419  0.674331  1
  H  H14  1  0.217635  0.033683  0.899250  1
  H  H15  1  0.246581  0.596634  0.108192  1
  H  H16  1  0.253419  0.596634  0.608192  1
  H  H17  1  0.282365  0.033683  0.399250  1
  H  H18  1  0.287170  0.986419  0.174331  1
  H  H19  1  0.297336  0.055076  0.762428  1
  H  H20  1  0.345608  0.290401  0.550495  1
  H  H21  1  0.349257  0.661025  0.909216  1
  H  H22  1  0.354684  0.814900  0.992965  1
  H  H23  1  0.385218  0.708303  0.577615  1
  H  H24  1  0.416128  0.921501  0.418453  1
  H  H25  1  0.442482  0.326062  0.164146  1
  H  H26  1  0.462276  0.139357  0.561910  1
  H  H27  1  0.463793  0.383441  0.271519  1
  H  H28  1  0.536207  0.616559  0.771519  1
  H  H29  1  0.537724  0.860643  0.061910  1
  H  H30  1  0.557518  0.673938  0.664146  1
  H  H31  1  0.583872  0.078499  0.918453  1
  H  H32  1  0.614782  0.291697  0.077615  1
  H  H33  1  0.645316  0.185100  0.492965  1
  H  H34  1  0.650743  0.338975  0.409216  1
  H  H35  1  0.654392  0.709599  0.050495  1
  H  H36  1  0.702664  0.944924  0.262428  1
  H  H37  1  0.712830  0.013581  0.674331  1
  H  H38  1  0.717635  0.966317  0.899250  1
  H  H39  1  0.746581  0.403366  0.108192  1
  H  H40  1  0.753419  0.403366  0.608192  1
  H  H41  1  0.782365  0.966317  0.399250  1
  H  H42  1  0.787170  0.013581  0.174331  1
  H  H43  1  0.797336  0.944924  0.762428  1
  H  H44  1  0.845608  0.709599  0.550495  1
  H  H45  1  0.849257  0.338975  0.909216  1
  H  H46  1  0.854684  0.185100  0.992965  1
  H  H47  1  0.885218  0.291697  0.577615  1
  H  H48  1  0.916128  0.078499  0.418453  1
  H  H49  1  0.942482  0.673938  0.164146  1
  H  H50  1  0.962276  0.860643  0.561910  1
  H  H51  1  0.963793  0.616559  0.271519  1
  C  C52  1  0.006190  0.334394  0.976685  1
  C  C53  1  0.115012  0.603655  0.198312  1
  C  C54  1  0.136250  0.938265  0.791787  1
  C  C55  1  0.363750  0.938265  0.291787  1
  C  C56  1  0.384988  0.603655  0.698312  1
  C  C57  1  0.493810  0.334394  0.476685  1
  C  C58  1  0.506190  0.665606  0.976685  1
  C  C59  1  0.615012  0.396345  0.198312  1
  C  C60  1  0.636250  0.061735  0.791787  1
  C  C61  1  0.863750  0.061735  0.291787  1
  C  C62  1  0.884988  0.396345  0.698312  1
  C  C63  1  0.993810  0.665606  0.476685  1
  S  S64  1  0.015721  0.832083  0.745750  1
  S  S65  1  0.079439  0.496645  0.921108  1
  S  S66  1  0.207384  0.510493  0.275242  1
  S  S67  1  0.292616  0.510493  0.775242  1
  S  S68  1  0.420561  0.496645  0.421108  1
  S  S69  1  0.484279  0.832083  0.245750  1
  S  S70  1  0.515721  0.167917  0.745750  1
  S  S71  1  0.579439  0.503355  0.921108  1
  S  S72  1  0.707384  0.489507  0.275242  1
  S  S73  1  0.792616  0.489507  0.775242  1
  S  S74  1  0.920561  0.503355  0.421108  1
  S  S75  1  0.984279  0.167917  0.245750  1
  S  S76  1  0.128509  0.157136  0.522738  1
  S  S77  1  0.371491  0.157136  0.022738  1
  S  S78  1  0.628509  0.842864  0.522738  1
  S  S79  1  0.871491  0.842864  0.022738  1
  N  N80  1  0.000523  0.643142  0.213159  1
  N  N81  1  0.068147  0.253392  0.037322  1
  N  N82  1  0.106540  0.713413  0.460097  1
  N  N83  1  0.148210  0.959673  0.875844  1
  N  N84  1  0.163016  0.640954  0.122447  1
  N  N85  1  0.220389  0.000010  0.739263  1
  N  N86  1  0.279611  0.000010  0.239263  1
  N  N87  1  0.336984  0.640954  0.622447  1
  N  N88  1  0.351790  0.959673  0.375844  1
  N  N89  1  0.393460  0.713413  0.960097  1
  N  N90  1  0.431853  0.253392  0.537322  1
  N  N91  1  0.499477  0.643142  0.713159  1
  N  N92  1  0.500523  0.356858  0.213159  1
  N  N93  1  0.568147  0.746608  0.037322  1
  N  N94  1  0.606540  0.286587  0.460097  1
  N  N95  1  0.648210  0.040327  0.875844  1
  N  N96  1  0.663016  0.359046  0.122447  1
  N  N97  1  0.720389  -0.000010  0.739263  1
  N  N98  1  0.779611  -0.000010  0.239263  1
  N  N99  1  0.836984  0.359046  0.622447  1
  N  N100  1  0.851790  0.040327  0.375844  1
  N  N101  1  0.893460  0.286587  0.960097  1
  N  N102  1  0.931853  0.746608  0.537322  1
  N  N103  1  0.999477  0.356858  0.713159  1
  O  O104  1  0.002744  0.875978  0.029552  1
  O  O105  1  0.159853  0.186297  0.428509  1
  O  O106  1  0.164306  0.310953  0.572553  1
  O  O107  1  0.198531  0.003510  0.550077  1
  O  O108  1  0.301469  0.003510  0.050077  1
  O  O109  1  0.335694  0.310953  0.072553  1
  O  O110  1  0.340147  0.186297  0.928509  1
  O  O111  1  0.497256  0.875978  0.529552  1
  O  O112  1  0.502744  0.124022  0.029552  1
  O  O113  1  0.659853  0.813703  0.428509  1
  O  O114  1  0.664306  0.689047  0.572553  1
  O  O115  1  0.698531  0.996490  0.550077  1
  O  O116  1  0.801469  0.996490  0.050077  1
  O  O117  1  0.835694  0.689047  0.072553  1
  O  O118  1  0.840147  0.813703  0.928509  1
  O  O119  1  0.997256  0.124022  0.529552  1
