# generated using pymatgen
data_K5Ce2H2S6O25
_symmetry_space_group_name_H-M   'P 1'
_cell_length_a   9.62181196
_cell_length_b   9.62181196
_cell_length_c   19.58826225
_cell_angle_alpha   69.67730190
_cell_angle_beta   110.32269810
_cell_angle_gamma   136.72214472
_symmetry_Int_Tables_number   1
_chemical_formula_structural   K5Ce2H2S6O25
_chemical_formula_sum   'K10 Ce4 H4 S12 O50'
_cell_volume   1153.15908038
_cell_formula_units_Z   2
loop_
 _symmetry_equiv_pos_site_id
 _symmetry_equiv_pos_as_xyz
  1  'x, y, z'
loop_
 _atom_site_type_symbol
 _atom_site_label
 _atom_site_symmetry_multiplicity
 _atom_site_fract_x
 _atom_site_fract_y
 _atom_site_fract_z
 _atom_site_occupancy
  K  K0  1  0.930743  0.227555  0.765646  1
  K  K1  1  0.772445  0.069257  0.265646  1
  K  K2  1  0.436390  0.291851  0.805638  1
  K  K3  1  0.708149  0.563610  0.305638  1
  K  K4  1  0.390779  0.813724  0.916173  1
  K  K5  1  0.186276  0.609221  0.416173  1
  K  K6  1  0.515192  0.680135  0.600870  1
  K  K7  1  0.319865  0.484808  0.100870  1
  K  K8  1  -0.001345  0.729313  0.726213  1
  K  K9  1  0.270687  0.001345  0.226213  1
  Ce  Ce10  1  0.073067  0.071146  0.500344  1
  Ce  Ce11  1  0.928854  0.926933  0.000344  1
  Ce  Ce12  1  0.631371  0.224897  0.530981  1
  Ce  Ce13  1  0.775103  0.368629  0.030981  1
  H  H14  1  0.515045  0.743267  0.787173  1
  H  H15  1  0.256733  0.484955  0.287173  1
  H  H16  1  0.408614  0.821267  0.751381  1
  H  H17  1  0.178733  0.591386  0.251381  1
  S  S18  1  0.959094  0.813726  0.873843  1
  S  S19  1  0.186274  0.040906  0.373843  1
  S  S20  1  0.876524  0.309224  0.910664  1
  S  S21  1  0.690776  0.123476  0.410664  1
  S  S22  1  0.409367  0.431833  0.937663  1
  S  S23  1  0.568167  0.590633  0.437663  1
  S  S24  1  0.517855  0.251694  0.658543  1
  S  S25  1  0.748306  0.482145  0.158543  1
  S  S26  1  0.012568  0.167419  0.620885  1
  S  S27  1  0.832581  0.987432  0.120885  1
  S  S28  1  0.139748  0.705826  0.594816  1
  S  S29  1  0.294174  0.860252  0.094816  1
  O  O30  1  0.785223  0.686300  0.818941  1
  O  O31  1  0.313700  0.214777  0.318941  1
  O  O32  1  0.982295  0.984175  0.877332  1
  O  O33  1  0.015825  0.017705  0.377331  1
  O  O34  1  0.922129  0.698258  0.951828  1
  O  O35  1  0.301742  0.077871  0.451828  1
  O  O36  1  0.149523  0.895510  0.859694  1
  O  O37  1  0.104490  0.850477  0.359694  1
  O  O38  1  0.019651  0.426042  0.974717  1
  O  O39  1  0.573958  0.980349  0.474717  1
  O  O40  1  0.678510  0.240552  0.913406  1
  O  O41  1  0.759448  0.321490  0.413406  1
  O  O42  1  0.836964  0.122767  0.920341  1
  O  O43  1  0.877233  0.163036  0.420341  1
  O  O44  1  0.956375  0.439617  0.841523  1
  O  O45  1  0.560383  0.043625  0.341523  1
  O  O46  1  0.560962  0.643742  0.956763  1
  O  O47  1  0.356258  0.439038  0.456763  1
  O  O48  1  0.508811  0.352276  0.957364  1
  O  O49  1  0.647724  0.491189  0.457364  1
  O  O50  1  0.242670  0.295925  0.983854  1
  O  O51  1  0.704075  0.757330  0.483854  1
  O  O52  1  0.330175  0.433871  0.859198  1
  O  O53  1  0.566129  0.669825  0.359198  1
  O  O54  1  0.401308  0.211342  0.580844  1
  O  O55  1  0.788658  0.598692  0.080844  1
  O  O56  1  0.693298  0.283193  0.654599  1
  O  O57  1  0.716807  0.306702  0.154599  1
  O  O58  1  0.391709  0.076944  0.713456  1
  O  O59  1  0.923056  0.608291  0.213456  1
  O  O60  1  0.594567  0.439528  0.673051  1
  O  O61  1  0.560473  0.405433  0.173051  1
  O  O62  1  0.129894  0.315575  0.557557  1
  O  O63  1  0.684425  0.870106  0.057557  1
  O  O64  1  0.938340  0.969691  0.613169  1
  O  O65  1  0.030309  0.061660  0.113169  1
  O  O66  1  0.142943  0.235895  0.691247  1
  O  O67  1  0.764105  0.857057  0.191247  1
  O  O68  1  0.828305  0.129607  0.614446  1
  O  O69  1  0.870393  0.171695  0.114446  1
  O  O70  1  0.358606  0.869952  0.580609  1
  O  O71  1  0.130048  0.641394  0.080609  1
  O  O72  1  0.047861  0.792720  0.575107  1
  O  O73  1  0.207280  0.952139  0.075107  1
  O  O74  1  0.019188  0.546375  0.547002  1
  O  O75  1  0.453625  0.980812  0.047002  1
  O  O76  1  0.138724  0.621095  0.673298  1
  O  O77  1  0.378905  0.861276  0.173298  1
  O  O78  1  0.523008  0.849587  0.788213  1
  O  O79  1  0.150413  0.476992  0.288213  1
