# generated using pymatgen
data_Co(NO3)4
_symmetry_space_group_name_H-M   'P 1'
_cell_length_a   7.42561599
_cell_length_b   11.91395241
_cell_length_c   12.84753608
_cell_angle_alpha   101.62078733
_cell_angle_beta   93.83026526
_cell_angle_gamma   105.57334897
_symmetry_Int_Tables_number   1
_chemical_formula_structural   Co(NO3)4
_chemical_formula_sum   'Co4 N16 O48'
_cell_volume   1063.59422093
_cell_formula_units_Z   4
loop_
 _symmetry_equiv_pos_site_id
 _symmetry_equiv_pos_as_xyz
  1  'x, y, z'
loop_
 _atom_site_type_symbol
 _atom_site_label
 _atom_site_symmetry_multiplicity
 _atom_site_fract_x
 _atom_site_fract_y
 _atom_site_fract_z
 _atom_site_occupancy
  Co  Co0  1  0.109272  0.832737  0.724443  1
  Co  Co1  1  0.479642  0.688774  0.243697  1
  Co  Co2  1  0.520358  0.311226  0.756303  1
  Co  Co3  1  0.890728  0.167263  0.275557  1
  N  N4  1  0.106380  0.684797  0.872094  1
  N  N5  1  0.185470  0.583042  0.355669  1
  N  N6  1  0.045770  0.025581  0.792718  1
  N  N7  1  0.453582  0.895168  0.692253  1
  N  N8  1  0.207021  0.288567  0.380310  1
  N  N9  1  0.421401  0.810916  0.118890  1
  N  N10  1  0.307908  0.170107  0.601090  1
  N  N11  1  0.409898  0.486718  0.115296  1
  N  N12  1  0.590102  0.513282  0.884704  1
  N  N13  1  0.692092  0.829893  0.398910  1
  N  N14  1  0.578599  0.189084  0.881110  1
  N  N15  1  0.792979  0.711433  0.619690  1
  N  N16  1  0.546418  0.104832  0.307747  1
  N  N17  1  0.954230  0.974419  0.207282  1
  N  N18  1  0.814530  0.416958  0.644331  1
  N  N19  1  0.893620  0.315203  0.127906  1
  O  O20  1  0.074769  0.982238  0.694231  1
  O  O21  1  0.061082  0.956254  0.855062  1
  O  O22  1  0.014324  0.744141  0.920783  1
  O  O23  1  0.159196  0.703458  0.777157  1
  O  O24  1  0.161111  0.605532  0.901080  1
  O  O25  1  0.095395  0.633237  0.306859  1
  O  O26  1  0.126599  0.518096  0.416979  1
  O  O27  1  0.010375  0.120147  0.817337  1
  O  O28  1  0.323522  0.825626  0.618735  1
  O  O29  1  0.045013  0.263477  0.417748  1
  O  O30  1  0.389904  0.929560  0.781767  1
  O  O31  1  0.302902  0.771162  0.181386  1
  O  O32  1  0.392543  0.866293  0.053134  1
  O  O33  1  0.277020  0.534819  0.121434  1
  O  O34  1  0.190189  0.249928  0.278047  1
  O  O35  1  0.368788  0.596321  0.343241  1
  O  O36  1  0.275866  0.259656  0.667382  1
  O  O37  1  0.194450  0.107507  0.525924  1
  O  O38  1  0.619722  0.927381  0.681332  1
  O  O39  1  0.529839  0.841950  0.372764  1
  O  O40  1  0.354546  0.341270  0.437283  1
  O  O41  1  0.433272  0.445298  0.824829  1
  O  O42  1  0.577806  0.783011  0.135047  1
  O  O43  1  0.401971  0.389009  0.060755  1
  O  O44  1  0.598029  0.610991  0.939245  1
  O  O45  1  0.422194  0.216989  0.864953  1
  O  O46  1  0.566728  0.554702  0.175171  1
  O  O47  1  0.645454  0.658730  0.562717  1
  O  O48  1  0.470161  0.158050  0.627236  1
  O  O49  1  0.380278  0.072619  0.318668  1
  O  O50  1  0.805550  0.892493  0.474076  1
  O  O51  1  0.724134  0.740344  0.332618  1
  O  O52  1  0.631212  0.403679  0.656759  1
  O  O53  1  0.809811  0.750072  0.721953  1
  O  O54  1  0.722980  0.465181  0.878566  1
  O  O55  1  0.607457  0.133707  0.946866  1
  O  O56  1  0.697098  0.228838  0.818614  1
  O  O57  1  0.610096  0.070440  0.218233  1
  O  O58  1  0.954987  0.736523  0.582252  1
  O  O59  1  0.676478  0.174374  0.381265  1
  O  O60  1  0.989625  0.879853  0.182663  1
  O  O61  1  0.873401  0.481904  0.583021  1
  O  O62  1  0.904605  0.366763  0.693141  1
  O  O63  1  0.838889  0.394468  0.098920  1
  O  O64  1  0.840804  0.296542  0.222843  1
  O  O65  1  0.985676  0.255859  0.079217  1
  O  O66  1  0.938918  0.043746  0.144938  1
  O  O67  1  0.925231  0.017762  0.305769  1
