# generated using pymatgen
data_MgH18C4SN8O9
_symmetry_space_group_name_H-M   'P 1'
_cell_length_a   9.42091872
_cell_length_b   14.87309112
_cell_length_c   11.37356110
_cell_angle_alpha   90.00000000
_cell_angle_beta   93.28904141
_cell_angle_gamma   90.00000000
_symmetry_Int_Tables_number   1
_chemical_formula_structural   MgH18C4SN8O9
_chemical_formula_sum   'Mg4 H72 C16 S4 N32 O36'
_cell_volume   1591.01767609
_cell_formula_units_Z   4
loop_
 _symmetry_equiv_pos_site_id
 _symmetry_equiv_pos_as_xyz
  1  'x, y, z'
loop_
 _atom_site_type_symbol
 _atom_site_label
 _atom_site_symmetry_multiplicity
 _atom_site_fract_x
 _atom_site_fract_y
 _atom_site_fract_z
 _atom_site_occupancy
  Mg  Mg0  1  0.878393  0.824283  0.161007  1
  Mg  Mg1  1  0.378393  0.675717  0.661007  1
  Mg  Mg2  1  0.121607  0.175717  0.838993  1
  Mg  Mg3  1  0.621607  0.324283  0.338993  1
  H  H4  1  0.931774  0.995569  0.111292  1
  H  H5  1  0.431774  0.504431  0.611292  1
  H  H6  1  0.068226  0.004431  0.888708  1
  H  H7  1  0.568226  0.495569  0.388708  1
  H  H8  1  0.801379  0.978810  0.019576  1
  H  H9  1  0.301379  0.521190  0.519576  1
  H  H10  1  0.198621  0.021190  0.980424  1
  H  H11  1  0.698621  0.478810  0.480424  1
  H  H12  1  0.593678  0.664035  0.911396  1
  H  H13  1  0.093678  0.835965  0.411396  1
  H  H14  1  0.406322  0.335965  0.088604  1
  H  H15  1  0.906322  0.164035  0.588604  1
  H  H16  1  0.752061  0.689549  0.984888  1
  H  H17  1  0.252061  0.810451  0.484888  1
  H  H18  1  0.247939  0.310451  0.015112  1
  H  H19  1  0.747939  0.189549  0.515112  1
  H  H20  1  0.391485  0.738182  0.961713  1
  H  H21  1  0.891485  0.761818  0.461713  1
  H  H22  1  0.608515  0.261818  0.038287  1
  H  H23  1  0.108515  0.238182  0.538287  1
  H  H24  1  0.403179  0.826259  0.065343  1
  H  H25  1  0.903179  0.673741  0.565343  1
  H  H26  1  0.596821  0.173741  0.934657  1
  H  H27  1  0.096821  0.326259  0.434657  1
  H  H28  1  0.869925  0.070249  0.420418  1
  H  H29  1  0.369925  0.429751  0.920418  1
  H  H30  1  0.130075  0.929751  0.579582  1
  H  H31  1  0.630075  0.570249  0.079582  1
  H  H32  1  0.951893  0.017419  0.304891  1
  H  H33  1  0.451893  0.482581  0.804891  1
  H  H34  1  0.048107  0.982581  0.695109  1
  H  H35  1  0.548107  0.517419  0.195109  1
  H  H36  1  0.727426  0.985608  0.546901  1
  H  H37  1  0.227426  0.514392  0.046901  1
  H  H38  1  0.272574  0.014392  0.453099  1
  H  H39  1  0.772574  0.485608  0.953099  1
  H  H40  1  0.680859  0.877465  0.503430  1
  H  H41  1  0.180859  0.622535  0.003430  1
  H  H42  1  0.319141  0.122535  0.496570  1
  H  H43  1  0.819141  0.377465  0.996570  1
  H  H44  1  0.199429  0.809781  0.847428  1
  H  H45  1  0.699429  0.690219  0.347428  1
  H  H46  1  0.800571  0.190219  0.152572  1
  H  H47  1  0.300571  0.309781  0.652572  1
  H  H48  1  0.160635  0.856426  0.982567  1
  H  H49  1  0.660635  0.643574  0.482567  1
  H  H50  1  0.839365  0.143574  0.017433  1
  H  H51  1  0.339365  0.356426  0.517433  1
  H  H52  1  0.058796  0.697677  0.763093  1
  H  H53  1  0.558796  0.802323  0.263093  1
  H  H54  1  0.941204  0.302323  0.236907  1
  H  H55  1  0.441204  0.197677  0.736907  1
  H  H56  1  0.908520  0.659330  0.830885  1
  H  H57  1  0.408519  0.840670  0.330885  1
  H  H58  1  0.091481  0.340670  0.169115  1
  H  H59  1  0.591480  0.159330  0.669115  1
  H  H60  1  0.205516  0.610969  0.254217  1
  H  H61  1  0.705516  0.889031  0.754217  1
  H  H62  1  0.794484  0.389031  0.745783  1
  H  H63  1  0.294484  0.110969  0.245783  1
  H  H64  1  0.150047  0.720541  0.218455  1
  H  H65  1  0.650047  0.779459  0.718455  1
  H  H66  1  0.849953  0.279459  0.781545  1
  H  H67  1  0.349953  0.220541  0.281545  1
  H  H68  1  0.032851  0.506601  0.309024  1
  H  H69  1  0.532851  0.993399  0.809024  1
  H  H70  1  0.967149  0.493399  0.690976  1
  H  H71  1  0.467149  0.006601  0.190976  1
  H  H72  1  0.853709  0.538324  0.304841  1
  H  H73  1  0.353709  0.961676  0.804841  1
  H  H74  1  0.146291  0.461676  0.695159  1
  H  H75  1  0.646291  0.038324  0.195159  1
  C  C76  1  0.587588  0.756160  0.045727  1
  C  C77  1  0.087588  0.743840  0.545727  1
  C  C78  1  0.412412  0.243840  0.954273  1
  C  C79  1  0.912412  0.256160  0.454273  1
  C  C80  1  0.814691  0.936914  0.392762  1
  C  C81  1  0.314691  0.563086  0.892762  1
  C  C82  1  0.185309  0.063086  0.607238  1
  C  C83  1  0.685309  0.436914  0.107238  1
  C  C84  1  0.014801  0.762865  0.917606  1
  C  C85  1  0.514801  0.737135  0.417606  1
  C  C86  1  0.985199  0.237135  0.082394  1
  C  C87  1  0.485199  0.262865  0.582394  1
  C  C88  1  0.988123  0.637119  0.254012  1
  C  C89  1  0.488123  0.862881  0.754012  1
  C  C90  1  0.011877  0.362881  0.745988  1
  C  C91  1  0.511877  0.137119  0.245988  1
  S  S92  1  0.188425  0.937556  0.204736  1
  S  S93  1  0.688425  0.562444  0.704736  1
  S  S94  1  0.811575  0.062444  0.795264  1
  S  S95  1  0.311575  0.437556  0.295264  1
  N  N96  1  0.644231  0.684463  0.988767  1
  N  N97  1  0.144231  0.815537  0.488767  1
  N  N98  1  0.355769  0.315537  0.011233  1
  N  N99  1  0.855769  0.184463  0.511233  1
  N  N100  1  0.448160  0.772042  0.026914  1
  N  N101  1  0.948160  0.727958  0.526914  1
  N  N102  1  0.551840  0.227958  0.973086  1
  N  N103  1  0.051840  0.272042  0.473086  1
  N  N104  1  0.878241  0.015047  0.367426  1
  N  N105  1  0.378241  0.484953  0.867426  1
  N  N106  1  0.121759  0.984953  0.632574  1
  N  N107  1  0.621759  0.515047  0.132574  1
  N  N108  1  0.731524  0.935363  0.485700  1
  N  N109  1  0.231524  0.564637  0.985700  1
  N  N110  1  0.268476  0.064637  0.514300  1
  N  N111  1  0.768476  0.435363  0.014300  1
  N  N112  1  0.130509  0.816415  0.913120  1
  N  N113  1  0.630509  0.683585  0.413120  1
  N  N114  1  0.869491  0.183585  0.086880  1
  N  N115  1  0.369491  0.316415  0.586880  1
  N  N116  1  0.987645  0.706091  0.826939  1
  N  N117  1  0.487645  0.793909  0.326939  1
  N  N118  1  0.012355  0.293909  0.173061  1
  N  N119  1  0.512355  0.206091  0.673061  1
  N  N120  1  0.125496  0.654844  0.232044  1
  N  N121  1  0.625496  0.845156  0.732044  1
  N  N122  1  0.874504  0.345156  0.767956  1
  N  N123  1  0.374504  0.154844  0.267956  1
  N  N124  1  0.956522  0.553796  0.291967  1
  N  N125  1  0.456522  0.946204  0.791967  1
  N  N126  1  0.043478  0.446204  0.708033  1
  N  N127  1  0.543478  0.053796  0.208033  1
  O  O128  1  0.279351  0.938147  0.315773  1
  O  O129  1  0.779351  0.561853  0.815773  1
  O  O130  1  0.720649  0.061853  0.684227  1
  O  O131  1  0.220649  0.438147  0.184227  1
  O  O132  1  0.093326  0.856240  0.203343  1
  O  O133  1  0.593326  0.643760  0.703343  1
  O  O134  1  0.906674  0.143760  0.796657  1
  O  O135  1  0.406674  0.356240  0.296657  1
  O  O136  1  0.280215  0.933280  0.101372  1
  O  O137  1  0.780215  0.566720  0.601372  1
  O  O138  1  0.719785  0.066720  0.898628  1
  O  O139  1  0.219785  0.433280  0.398628  1
  O  O140  1  0.099933  0.020928  0.195313  1
  O  O141  1  0.599933  0.479072  0.695313  1
  O  O142  1  0.900067  0.979072  0.804687  1
  O  O143  1  0.400067  0.520928  0.304687  1
  O  O144  1  0.844350  0.959537  0.096235  1
  O  O145  1  0.344350  0.540463  0.596235  1
  O  O146  1  0.155650  0.040463  0.903765  1
  O  O147  1  0.655650  0.459537  0.403765  1
  O  O148  1  0.663406  0.802954  0.118768  1
  O  O149  1  0.163406  0.697046  0.618768  1
  O  O150  1  0.336594  0.197046  0.881232  1
  O  O151  1  0.836594  0.302954  0.381232  1
  O  O152  1  0.829680  0.865645  0.331889  1
  O  O153  1  0.329680  0.634355  0.831889  1
  O  O154  1  0.170320  0.134355  0.668111  1
  O  O155  1  0.670320  0.365645  0.168111  1
  O  O156  1  0.933132  0.765544  0.003192  1
  O  O157  1  0.433132  0.734456  0.503192  1
  O  O158  1  0.066868  0.234456  0.996808  1
  O  O159  1  0.566868  0.265544  0.496808  1
  O  O160  1  0.892248  0.696448  0.238856  1
  O  O161  1  0.392248  0.803552  0.738856  1
  O  O162  1  0.107752  0.303552  0.761144  1
  O  O163  1  0.607752  0.196448  0.261144  1
