# generated using pymatgen
data_VFe5(PO4)6
_symmetry_space_group_name_H-M   'P 1'
_cell_length_a   8.45949153
_cell_length_b   8.62737012
_cell_length_c   8.62736994
_cell_angle_alpha   60.00000065
_cell_angle_beta   59.34133112
_cell_angle_gamma   59.34133258
_symmetry_Int_Tables_number   1
_chemical_formula_structural   VFe5(PO4)6
_chemical_formula_sum   'V1 Fe5 P6 O24'
_cell_volume   440.74750487
_cell_formula_units_Z   1
loop_
 _symmetry_equiv_pos_site_id
 _symmetry_equiv_pos_as_xyz
  1  'x, y, z'
loop_
 _atom_site_type_symbol
 _atom_site_label
 _atom_site_symmetry_multiplicity
 _atom_site_fract_x
 _atom_site_fract_y
 _atom_site_fract_z
 _atom_site_occupancy
  V  V0  1  0.569646  0.143451  0.143451  1
  Fe  Fe1  1  0.001254  0.999582  0.999582  1
  Fe  Fe2  1  0.063626  0.645458  0.645458  1
  Fe  Fe3  1  0.502456  0.499181  0.499181  1
  Fe  Fe4  1  0.430713  0.856429  0.856429  1
  Fe  Fe5  1  0.936772  0.354410  0.354410  1
  P  P6  1  0.251534  0.249507  0.544343  1
  P  P7  1  0.251534  0.954616  0.249507  1
  P  P8  1  0.251534  0.544343  0.954616  1
  P  P9  1  0.746177  0.455080  0.045773  1
  P  P10  1  0.746177  0.045773  0.752971  1
  P  P11  1  0.746177  0.752971  0.455080  1
  O  O12  1  0.065952  0.105346  0.326349  1
  O  O13  1  0.065952  0.502353  0.105346  1
  O  O14  1  0.065952  0.326349  0.502353  1
  O  O15  1  0.226214  0.092571  0.740712  1
  O  O16  1  0.434023  0.177791  0.383492  1
  O  O17  1  0.290225  0.406302  0.550656  1
  O  O18  1  0.226214  0.940504  0.092571  1
  O  O19  1  0.290225  0.752818  0.406302  1
  O  O20  1  0.565480  0.610875  0.001424  1
  O  O21  1  0.290225  0.550656  0.752818  1
  O  O22  1  0.767405  0.255100  0.064894  1
  O  O23  1  0.565480  0.001424  0.822221  1
  O  O24  1  0.434023  0.004695  0.177791  1
  O  O25  1  0.226214  0.740712  0.940504  1
  O  O26  1  0.716180  0.440001  0.248669  1
  O  O27  1  0.434023  0.383492  0.004695  1
  O  O28  1  0.716180  0.248669  0.595148  1
  O  O29  1  0.767405  0.064894  0.912600  1
  O  O30  1  0.716180  0.595148  0.440001  1
  O  O31  1  0.565480  0.822221  0.610875  1
  O  O32  1  0.767405  0.912600  0.255100  1
  O  O33  1  0.935321  0.687580  0.487796  1
  O  O34  1  0.935321  0.487796  0.889303  1
  O  O35  1  0.935321  0.889303  0.687580  1
