# generated using pymatgen
data_LiFePO5
_symmetry_space_group_name_H-M   'P 1'
_cell_length_a   7.14821081
_cell_length_b   6.45769868
_cell_length_c   7.49504584
_cell_angle_alpha   90.00013257
_cell_angle_beta   89.99905780
_cell_angle_gamma   89.99993997
_symmetry_Int_Tables_number   1
_chemical_formula_structural   LiFePO5
_chemical_formula_sum   'Li4 Fe4 P4 O20'
_cell_volume   345.97874738
_cell_formula_units_Z   4
loop_
 _symmetry_equiv_pos_site_id
 _symmetry_equiv_pos_as_xyz
  1  'x, y, z'
loop_
 _atom_site_type_symbol
 _atom_site_label
 _atom_site_symmetry_multiplicity
 _atom_site_fract_x
 _atom_site_fract_y
 _atom_site_fract_z
 _atom_site_occupancy
  Li  Li0  1  0.999977  0.000022  0.999974  1
  Li  Li1  1  0.999977  0.499977  0.999974  1
  Li  Li2  1  0.500046  0.000028  0.500042  1
  Li  Li3  1  0.500046  0.499972  0.500042  1
  Fe  Fe4  1  0.143288  0.250001  0.728343  1
  Fe  Fe5  1  0.356736  0.750000  0.228375  1
  Fe  Fe6  1  0.643284  0.250000  0.771674  1
  Fe  Fe7  1  0.856759  0.749998  0.271641  1
  P  P8  1  0.125071  0.750001  0.626935  1
  P  P9  1  0.374931  0.250001  0.126967  1
  P  P10  1  0.625045  0.749999  0.873038  1
  P  P11  1  0.874922  0.249997  0.373033  1
  O  O12  1  0.056195  0.250001  0.482860  1
  O  O13  1  0.104669  0.750000  0.166333  1
  O  O14  1  0.130089  0.560454  0.753875  1
  O  O15  1  0.130089  0.939547  0.753875  1
  O  O16  1  0.199364  0.249999  0.003832  1
  O  O17  1  0.300617  0.750001  0.503821  1
  O  O18  1  0.369904  0.060468  0.253893  1
  O  O19  1  0.369903  0.439531  0.253892  1
  O  O20  1  0.395346  0.250000  0.666354  1
  O  O21  1  0.443777  0.749998  0.982871  1
  O  O22  1  0.556184  0.250002  0.017171  1
  O  O23  1  0.604664  0.750000  0.333644  1
  O  O24  1  0.630042  0.560462  0.746128  1
  O  O25  1  0.630040  0.939539  0.746128  1
  O  O26  1  0.699375  0.249999  0.496138  1
  O  O27  1  0.800630  0.749998  0.996160  1
  O  O28  1  0.869942  0.060470  0.246104  1
  O  O29  1  0.869942  0.439533  0.246100  1
  O  O30  1  0.895352  0.249999  0.833624  1
  O  O31  1  0.943794  0.749999  0.517158  1
