# generated using pymatgen
data_CeSmO2
_symmetry_space_group_name_H-M   'P 1'
_cell_length_a   4.97351511
_cell_length_b   6.09622827
_cell_length_c   4.98385156
_cell_angle_alpha   65.86437547
_cell_angle_beta   89.99008106
_cell_angle_gamma   114.06146065
_symmetry_Int_Tables_number   1
_chemical_formula_structural   CeSmO2
_chemical_formula_sum   'Ce2 Sm2 O4'
_cell_volume   123.36551466
_cell_formula_units_Z   2
loop_
 _symmetry_equiv_pos_site_id
 _symmetry_equiv_pos_as_xyz
  1  'x, y, z'
loop_
 _atom_site_type_symbol
 _atom_site_label
 _atom_site_symmetry_multiplicity
 _atom_site_fract_x
 _atom_site_fract_y
 _atom_site_fract_z
 _atom_site_occupancy
  Ce  Ce0  1  0.246277  0.498539  0.249792  1
  Ce  Ce1  1  0.496583  -0.002157  0.502777  1
  Sm  Sm2  1  0.996988  0.997720  0.002677  1
  Sm  Sm3  1  0.748313  0.498293  0.749895  1
  O  O4  1  0.745292  0.498873  0.250346  1
  O  O5  1  0.245077  0.491686  0.748723  1
  O  O6  1  0.498542  0.000480  0.003303  1
  O  O7  1  0.995799  -0.002687  0.502128  1
