# generated using pymatgen
data_Li3Sb3(PO4)4
_symmetry_space_group_name_H-M   'P 1'
_cell_length_a   7.86738868
_cell_length_b   9.08631235
_cell_length_c   10.51662944
_cell_angle_alpha   90.00000000
_cell_angle_beta   92.60956458
_cell_angle_gamma   90.00000000
_symmetry_Int_Tables_number   1
_chemical_formula_structural   Li3Sb3(PO4)4
_chemical_formula_sum   'Li6 Sb6 P8 O32'
_cell_volume   751.00743362
_cell_formula_units_Z   2
loop_
 _symmetry_equiv_pos_site_id
 _symmetry_equiv_pos_as_xyz
  1  'x, y, z'
loop_
 _atom_site_type_symbol
 _atom_site_label
 _atom_site_symmetry_multiplicity
 _atom_site_fract_x
 _atom_site_fract_y
 _atom_site_fract_z
 _atom_site_occupancy
  Li  Li0  1  0.100364  0.376828  0.280830  1
  Li  Li1  1  0.399636  0.876828  0.969170  1
  Li  Li2  1  0.626736  0.123245  0.539504  1
  Li  Li3  1  0.600687  0.117767  0.031373  1
  Li  Li4  1  0.873264  0.623245  0.710496  1
  Li  Li5  1  0.899313  0.617767  0.218627  1
  Sb  Sb6  1  0.981533  0.965109  0.754788  1
  Sb  Sb7  1  0.985152  0.003017  0.238744  1
  Sb  Sb8  1  0.123662  0.364031  0.792624  1
  Sb  Sb9  1  0.376338  0.864031  0.457376  1
  Sb  Sb10  1  0.518467  0.465109  0.495212  1
  Sb  Sb11  1  0.514848  0.503017  0.011256  1
  P  P12  1  0.216464  0.203990  0.513896  1
  P  P13  1  0.214210  0.195943  0.029847  1
  P  P14  1  0.283536  0.703990  0.736104  1
  P  P15  1  0.285790  0.695943  0.220153  1
  P  P16  1  0.703418  0.290442  0.763398  1
  P  P17  1  0.708182  0.308850  0.263872  1
  P  P18  1  0.791818  0.808850  0.986128  1
  P  P19  1  0.796582  0.790442  0.486602  1
  O  O20  1  0.074189  0.179617  0.914944  1
  O  O21  1  0.086043  0.143389  0.415679  1
  O  O22  1  0.125498  0.209968  0.645518  1
  O  O23  1  0.120877  0.609761  0.716118  1
  O  O24  1  0.119868  0.185714  0.157500  1
  O  O25  1  0.147405  0.581018  0.229014  1
  O  O26  1  0.232969  0.864887  0.775731  1
  O  O27  1  0.273980  0.359183  0.012808  1
  O  O28  1  0.226020  0.859183  0.237192  1
  O  O29  1  0.267031  0.364887  0.474269  1
  O  O30  1  0.379123  0.109761  0.533882  1
  O  O31  1  0.374502  0.709968  0.604482  1
  O  O32  1  0.352595  0.081018  0.020986  1
  O  O33  1  0.413957  0.643389  0.834321  1
  O  O34  1  0.380132  0.685714  0.092500  1
  O  O35  1  0.425811  0.679617  0.335056  1
  O  O36  1  0.561680  0.364363  0.672159  1
  O  O37  1  0.641816  0.278717  0.898279  1
  O  O38  1  0.553637  0.376900  0.184907  1
  O  O39  1  0.640324  0.912875  0.981286  1
  O  O40  1  0.642823  0.287025  0.405951  1
  O  O41  1  0.637112  0.902334  0.488387  1
  O  O42  1  0.749741  0.642034  0.546694  1
  O  O43  1  0.750259  0.142034  0.703306  1
  O  O44  1  0.756278  0.652989  0.040494  1
  O  O45  1  0.743722  0.152989  0.209506  1
  O  O46  1  0.862888  0.402334  0.761613  1
  O  O47  1  0.857177  0.787025  0.844049  1
  O  O48  1  0.859676  0.412875  0.268714  1
  O  O49  1  0.858184  0.778717  0.351721  1
  O  O50  1  0.938320  0.864363  0.577841  1
  O  O51  1  0.946363  0.876900  0.065093  1
