# generated using pymatgen
data_MnPO4
_symmetry_space_group_name_H-M   'P 1'
_cell_length_a   5.13192919
_cell_length_b   5.13219677
_cell_length_c   11.81022000
_cell_angle_alpha   90.00393501
_cell_angle_beta   89.99631527
_cell_angle_gamma   120.00894663
_symmetry_Int_Tables_number   1
_chemical_formula_structural   MnPO4
_chemical_formula_sum   'Mn3 P3 O12'
_cell_volume   269.36019209
_cell_formula_units_Z   3
loop_
 _symmetry_equiv_pos_site_id
 _symmetry_equiv_pos_as_xyz
  1  'x, y, z'
loop_
 _atom_site_type_symbol
 _atom_site_label
 _atom_site_symmetry_multiplicity
 _atom_site_fract_x
 _atom_site_fract_y
 _atom_site_fract_z
 _atom_site_occupancy
  Mn  Mn0  1  0.999973  0.451898  0.666670  1
  Mn  Mn1  1  0.548337  0.548355  0.000029  1
  Mn  Mn2  1  0.451836  0.000008  0.333313  1
  P  P3  1  0.000007  0.449187  0.166659  1
  P  P4  1  0.550763  0.550759  0.499989  1
  P  P5  1  0.449202  0.999996  0.833363  1
  O  O6  1  0.104930  0.674216  0.266842  1
  O  O7  1  0.146130  0.734950  0.793952  1
  O  O8  1  0.265041  0.411249  0.127232  1
  O  O9  1  0.325725  0.430681  0.600174  1
  O  O10  1  0.569309  0.895074  0.933537  1
  O  O11  1  0.588733  0.853735  0.460565  1
  O  O12  1  0.430680  0.325718  0.399805  1
  O  O13  1  0.411290  0.265026  0.872798  1
  O  O14  1  0.853791  0.588785  0.539408  1
  O  O15  1  0.895079  0.569292  0.066490  1
  O  O16  1  0.674228  0.104927  0.733175  1
  O  O17  1  0.734947  0.146144  0.206068  1
