# generated using pymatgen
data_Li4V2Co3Cu3O16
_symmetry_space_group_name_H-M   'P 1'
_cell_length_a   5.79039916
_cell_length_b   5.75961269
_cell_length_c   9.30106183
_cell_angle_alpha   89.98965232
_cell_angle_beta   88.65405079
_cell_angle_gamma   119.80861551
_symmetry_Int_Tables_number   1
_chemical_formula_structural   Li4V2Co3Cu3O16
_chemical_formula_sum   'Li4 V2 Co3 Cu3 O16'
_cell_volume   269.05362471
_cell_formula_units_Z   1
loop_
 _symmetry_equiv_pos_site_id
 _symmetry_equiv_pos_as_xyz
  1  'x, y, z'
loop_
 _atom_site_type_symbol
 _atom_site_label
 _atom_site_symmetry_multiplicity
 _atom_site_fract_x
 _atom_site_fract_y
 _atom_site_fract_z
 _atom_site_occupancy
  Li  Li0  1  0.333886  0.667601  0.896520  1
  Li  Li1  1  0.992829  0.995732  0.994251  1
  Li  Li2  1  0.993628  0.996543  0.495594  1
  Li  Li3  1  0.674087  0.336589  0.399602  1
  V  V4  1  0.334803  0.667496  0.502583  1
  V  V5  1  0.667943  0.333734  0.997515  1
  Co  Co6  1  0.653979  0.826502  0.216297  1
  Co  Co7  1  0.826474  0.656511  0.715240  1
  Co  Co8  1  0.825986  0.170887  0.715013  1
  Cu  Cu9  1  0.171834  0.830433  0.216205  1
  Cu  Cu10  1  0.172012  0.340330  0.216272  1
  Cu  Cu11  1  0.339766  0.171069  0.717161  1
  O  O12  1  0.163899  0.820111  0.589474  1
  O  O13  1  0.051406  0.525111  0.352538  1
  O  O14  1  0.343337  0.671049  0.110889  1
  O  O15  1  0.986389  0.992794  0.303422  1
  O  O16  1  0.987695  0.994610  0.803156  1
  O  O17  1  0.164089  0.343544  0.589405  1
  O  O18  1  0.493807  0.959306  0.343696  1
  O  O19  1  0.494467  0.534150  0.343939  1
  O  O20  1  0.343146  0.171449  0.078417  1
  O  O21  1  0.653605  0.827264  0.599700  1
  O  O22  1  0.535868  0.492023  0.841873  1
  O  O23  1  0.534635  0.045271  0.841384  1
  O  O24  1  0.674764  0.338262  0.611431  1
  O  O25  1  0.814837  0.650875  0.091383  1
  O  O26  1  0.956831  0.478623  0.834054  1
  O  O27  1  0.813996  0.162431  0.090826  1
