# generated using pymatgen
data_Na2TiO3
_symmetry_space_group_name_H-M   'P 1'
_cell_length_a   5.37237174
_cell_length_b   5.37441465
_cell_length_c   11.06895685
_cell_angle_alpha   85.17794407
_cell_angle_beta   99.68239996
_cell_angle_gamma   119.98743276
_symmetry_Int_Tables_number   1
_chemical_formula_structural   Na2TiO3
_chemical_formula_sum   'Na8 Ti4 O12'
_cell_volume   272.87176730
_cell_formula_units_Z   4
loop_
 _symmetry_equiv_pos_site_id
 _symmetry_equiv_pos_as_xyz
  1  'x, y, z'
loop_
 _atom_site_type_symbol
 _atom_site_label
 _atom_site_symmetry_multiplicity
 _atom_site_fract_x
 _atom_site_fract_y
 _atom_site_fract_z
 _atom_site_occupancy
  Na  Na0  1  0.158648  0.841237  0.499055  1
  Na  Na1  1  0.000000  0.500000  0.000000  1
  Na  Na2  1  0.081656  0.163313  0.250000  1
  Na  Na3  1  0.682590  0.841237  0.000945  1
  Na  Na4  1  0.500000  0.500000  0.500000  1
  Na  Na5  1  0.317410  0.158763  0.999055  1
  Na  Na6  1  0.918344  0.836687  0.750000  1
  Na  Na7  1  0.841352  0.158763  0.500945  1
  Ti  Ti8  1  0.253349  0.506698  0.750000  1
  Ti  Ti9  1  0.414799  0.829597  0.250000  1
  Ti  Ti10  1  0.585201  0.170403  0.750000  1
  Ti  Ti11  1  0.746651  0.493302  0.250000  1
  O  O12  1  0.048584  0.787997  0.147867  1
  O  O13  1  0.330511  0.834242  0.851009  1
  O  O14  1  0.116922  0.544313  0.350638  1
  O  O15  1  0.503731  0.834242  0.648991  1
  O  O16  1  0.260587  0.212003  0.647867  1
  O  O17  1  0.572609  0.455687  0.850638  1
  O  O18  1  0.427391  0.544313  0.149362  1
  O  O19  1  0.739413  0.787997  0.352133  1
  O  O20  1  0.496269  0.165758  0.351009  1
  O  O21  1  0.883078  0.455687  0.649362  1
  O  O22  1  0.669489  0.165758  0.148991  1
  O  O23  1  0.951416  0.212003  0.852133  1
