# generated using pymatgen
data_SbO2F
_symmetry_space_group_name_H-M   'P 1'
_cell_length_a   5.10515915
_cell_length_b   5.55783131
_cell_length_c   5.10515924
_cell_angle_alpha   119.36449136
_cell_angle_beta   61.70833194
_cell_angle_gamma   119.36449590
_symmetry_Int_Tables_number   1
_chemical_formula_structural   SbO2F
_chemical_formula_sum   'Sb2 O4 F2'
_cell_volume   104.69311951
_cell_formula_units_Z   2
loop_
 _symmetry_equiv_pos_site_id
 _symmetry_equiv_pos_as_xyz
  1  'x, y, z'
loop_
 _atom_site_type_symbol
 _atom_site_label
 _atom_site_symmetry_multiplicity
 _atom_site_fract_x
 _atom_site_fract_y
 _atom_site_fract_z
 _atom_site_occupancy
  Sb  Sb0  1  0.688326  0.149398  0.751616  1
  Sb  Sb1  1  0.251616  0.649398  0.188326  1
  O  O2  1  0.095843  0.410859  0.824441  1
  O  O3  1  0.461947  0.401846  0.116745  1
  O  O4  1  0.324441  0.910859  0.595843  1
  O  O5  1  0.616745  0.901846  0.961947  1
  F  F6  1  0.844784  0.401545  0.458728  1
  F  F7  1  0.958728  0.901545  0.344784  1
