# generated using pymatgen
data_Zn2H10N12O5
_symmetry_space_group_name_H-M   'P 1'
_cell_length_a   9.85242870
_cell_length_b   7.17940952
_cell_length_c   12.56610694
_cell_angle_alpha   90.00000000
_cell_angle_beta   90.87271677
_cell_angle_gamma   90.00000000
_symmetry_Int_Tables_number   1
_chemical_formula_structural   Zn2H10N12O5
_chemical_formula_sum   'Zn4 H20 N24 O10'
_cell_volume   888.75569519
_cell_formula_units_Z   2
loop_
 _symmetry_equiv_pos_site_id
 _symmetry_equiv_pos_as_xyz
  1  'x, y, z'
loop_
 _atom_site_type_symbol
 _atom_site_label
 _atom_site_symmetry_multiplicity
 _atom_site_fract_x
 _atom_site_fract_y
 _atom_site_fract_z
 _atom_site_occupancy
  Zn  Zn0  1  0.064668  0.813335  0.499041  1
  Zn  Zn1  1  0.935332  0.186665  0.500959  1
  Zn  Zn2  1  0.435332  0.813335  0.000959  1
  Zn  Zn3  1  0.564668  0.186665  0.999041  1
  H  H4  1  0.240655  0.763477  0.812919  1
  H  H5  1  0.759345  0.236523  0.187081  1
  H  H6  1  0.259345  0.763477  0.687081  1
  H  H7  1  0.740655  0.236523  0.312919  1
  H  H8  1  0.820500  0.841889  0.434610  1
  H  H9  1  0.179500  0.158111  0.565390  1
  H  H10  1  0.679500  0.841889  0.065390  1
  H  H11  1  0.320500  0.158111  0.934610  1
  H  H12  1  0.818608  0.380660  0.680284  1
  H  H13  1  0.181392  0.619340  0.319716  1
  H  H14  1  0.681392  0.380660  0.819716  1
  H  H15  1  0.318608  0.619340  0.180284  1
  H  H16  1  0.501788  0.490653  0.297368  1
  H  H17  1  0.498212  0.509347  0.702632  1
  H  H18  1  0.998212  0.490653  0.202632  1
  H  H19  1  0.001788  0.509347  0.797368  1
  H  H20  1  0.586109  0.570279  0.197275  1
  H  H21  1  0.413891  0.429721  0.802725  1
  H  H22  1  0.913891  0.570279  0.302725  1
  H  H23  1  0.086109  0.429721  0.697275  1
  N  N24  1  0.712205  0.465768  0.547470  1
  N  N25  1  0.287795  0.534232  0.452530  1
  N  N26  1  0.787795  0.465768  0.952530  1
  N  N27  1  0.212205  0.534232  0.047470  1
  N  N28  1  0.744231  0.501606  0.040777  1
  N  N29  1  0.255769  0.498394  0.959223  1
  N  N30  1  0.755769  0.501606  0.459223  1
  N  N31  1  0.244231  0.498394  0.540777  1
  N  N32  1  0.763267  0.299479  0.470025  1
  N  N33  1  0.236733  0.700521  0.529975  1
  N  N34  1  0.736733  0.299479  0.029975  1
  N  N35  1  0.263267  0.700521  0.970025  1
  N  N36  1  0.006452  0.516166  0.282944  1
  N  N37  1  0.993548  0.483834  0.717056  1
  N  N38  1  0.493548  0.516166  0.217056  1
  N  N39  1  0.506452  0.483834  0.782944  1
  N  N40  1  0.012924  0.968035  0.801180  1
  N  N41  1  0.987076  0.031965  0.198820  1
  N  N42  1  0.487076  0.968035  0.698820  1
  N  N43  1  0.512924  0.031965  0.301180  1
  N  N44  1  0.529138  0.911511  0.775159  1
  N  N45  1  0.470862  0.088489  0.224841  1
  N  N46  1  0.970862  0.911511  0.724841  1
  N  N47  1  0.029138  0.088489  0.275159  1
  O  O48  1  0.250000  0.684573  0.750000  1
  O  O49  1  0.750000  0.315427  0.250000  1
  O  O50  1  0.889415  0.907959  0.475606  1
  O  O51  1  0.110585  0.092041  0.524394  1
  O  O52  1  0.610585  0.907959  0.024394  1
  O  O53  1  0.389415  0.092041  0.975606  1
  O  O54  1  0.401947  0.676244  0.208758  1
  O  O55  1  0.598053  0.323756  0.791242  1
  O  O56  1  0.098053  0.676244  0.291242  1
  O  O57  1  0.901947  0.323756  0.708758  1
