# generated using pymatgen
data_Ba3La2Cl12
_symmetry_space_group_name_H-M   'P 1'
_cell_length_a   9.31874111
_cell_length_b   10.09916245
_cell_length_c   13.57781777
_cell_angle_alpha   109.55155627
_cell_angle_beta   111.18988115
_cell_angle_gamma   94.20303519
_symmetry_Int_Tables_number   1
_chemical_formula_structural   Ba3La2Cl12
_chemical_formula_sum   'Ba6 La4 Cl24'
_cell_volume   1094.95070266
_cell_formula_units_Z   2
loop_
 _symmetry_equiv_pos_site_id
 _symmetry_equiv_pos_as_xyz
  1  'x, y, z'
loop_
 _atom_site_type_symbol
 _atom_site_label
 _atom_site_symmetry_multiplicity
 _atom_site_fract_x
 _atom_site_fract_y
 _atom_site_fract_z
 _atom_site_occupancy
  Ba  Ba0  1  0.220791  0.769740  0.632598  1
  Ba  Ba1  1  0.201758  0.306923  0.207212  1
  Ba  Ba2  1  0.588189  0.212855  0.970536  1
  Ba  Ba3  1  0.411811  0.787145  0.029464  1
  Ba  Ba4  1  0.798242  0.693077  0.792788  1
  Ba  Ba5  1  0.779209  0.230260  0.367402  1
  La  La6  1  0.005650  0.228912  0.796096  1
  La  La7  1  0.366657  0.279529  0.576553  1
  La  La8  1  0.633343  0.720471  0.423447  1
  La  La9  1  0.994350  0.771088  0.203904  1
  Cl  Cl10  1  0.132723  0.672538  0.797433  1
  Cl  Cl11  1  0.219470  0.455415  0.986408  1
  Cl  Cl12  1  0.075563  0.236067  0.610707  1
  Cl  Cl13  1  0.225115  0.062770  0.838249  1
  Cl  Cl14  1  0.162755  0.429637  0.465201  1
  Cl  Cl15  1  0.086586  0.851007  0.052999  1
  Cl  Cl16  1  0.243136  0.647790  0.298469  1
  Cl  Cl17  1  0.164832  0.048355  0.365919  1
  Cl  Cl18  1  0.544712  0.881638  0.869740  1
  Cl  Cl19  1  0.469418  0.521194  0.769910  1
  Cl  Cl20  1  0.444754  0.086644  0.681636  1
  Cl  Cl21  1  0.515126  0.700739  0.581648  1
  Cl  Cl22  1  0.484874  0.299261  0.418352  1
  Cl  Cl23  1  0.555246  0.913356  0.318364  1
  Cl  Cl24  1  0.530582  0.478806  0.230090  1
  Cl  Cl25  1  0.455288  0.118362  0.130260  1
  Cl  Cl26  1  0.835168  0.951645  0.634081  1
  Cl  Cl27  1  0.756864  0.352210  0.701531  1
  Cl  Cl28  1  0.913414  0.148993  0.947001  1
  Cl  Cl29  1  0.837245  0.570363  0.534799  1
  Cl  Cl30  1  0.774885  0.937230  0.161751  1
  Cl  Cl31  1  0.924437  0.763933  0.389293  1
  Cl  Cl32  1  0.780530  0.544585  0.013592  1
  Cl  Cl33  1  0.867277  0.327462  0.202567  1
