# generated using pymatgen
data_Li5Mn3Bi2(PO4)6
_symmetry_space_group_name_H-M   'P 1'
_cell_length_a   8.86543330
_cell_length_b   8.97490334
_cell_length_c   9.04432837
_cell_angle_alpha   59.48140449
_cell_angle_beta   60.83298998
_cell_angle_gamma   60.55826804
_symmetry_Int_Tables_number   1
_chemical_formula_structural   Li5Mn3Bi2(PO4)6
_chemical_formula_sum   'Li5 Mn3 Bi2 P6 O24'
_cell_volume   512.04447461
_cell_formula_units_Z   1
loop_
 _symmetry_equiv_pos_site_id
 _symmetry_equiv_pos_as_xyz
  1  'x, y, z'
loop_
 _atom_site_type_symbol
 _atom_site_label
 _atom_site_symmetry_multiplicity
 _atom_site_fract_x
 _atom_site_fract_y
 _atom_site_fract_z
 _atom_site_occupancy
  Li  Li0  1  0.487861  0.172696  0.176596  1
  Li  Li1  1  0.254509  0.857502  0.647505  1
  Li  Li2  1  0.694233  0.148739  0.324643  1
  Li  Li3  1  0.680186  0.842905  0.149331  1
  Li  Li4  1  0.689276  0.320223  0.840504  1
  Mn  Mn5  1  0.039846  0.656737  0.653264  1
  Mn  Mn6  1  0.466569  0.840241  0.843678  1
  Mn  Mn7  1  0.963265  0.344867  0.341148  1
  Bi  Bi8  1  0.015488  0.991514  0.009758  1
  Bi  Bi9  1  0.488738  0.491033  0.504050  1
  P  P10  1  0.258842  0.246358  0.548310  1
  P  P11  1  0.254499  0.946593  0.249043  1
  P  P12  1  0.262869  0.543298  0.946512  1
  P  P13  1  0.758567  0.453660  0.043457  1
  P  P14  1  0.775941  0.037716  0.746445  1
  P  P15  1  0.735039  0.748866  0.457471  1
  O  O16  1  0.078487  0.097812  0.293764  1
  O  O17  1  0.091928  0.506940  0.096570  1
  O  O18  1  0.092222  0.294011  0.504234  1
  O  O19  1  0.253257  0.071565  0.729073  1
  O  O20  1  0.247537  0.399428  0.593981  1
  O  O21  1  0.440523  0.206478  0.400058  1
  O  O22  1  0.257736  0.915342  0.091076  1
  O  O23  1  0.254449  0.759186  0.419010  1
  O  O24  1  0.268792  0.582539  0.750377  1
  O  O25  1  0.583037  0.605620  0.016262  1
  O  O26  1  0.772157  0.273935  0.037911  1
  O  O27  1  0.622102  0.984454  0.776450  1
  O  O28  1  0.429651  0.976437  0.202967  1
  O  O29  1  0.249814  0.737668  0.920461  1
  O  O30  1  0.441248  0.395088  0.972053  1
  O  O31  1  0.747059  0.397093  0.244428  1
  O  O32  1  0.747626  0.243437  0.613157  1
  O  O33  1  0.763952  0.040442  0.925109  1
  O  O34  1  0.547978  0.791502  0.601737  1
  O  O35  1  0.737148  0.615945  0.390260  1
  O  O36  1  0.756280  0.924419  0.279991  1
  O  O37  1  0.894524  0.675919  0.524258  1
  O  O38  1  0.929765  0.504626  0.903233  1
  O  O39  1  0.967004  0.908165  0.680871  1
