# generated using pymatgen
data_Mn3V3(TeO8)2
_symmetry_space_group_name_H-M   'P 1'
_cell_length_a   5.94413578
_cell_length_b   5.93304207
_cell_length_c   10.53962669
_cell_angle_alpha   89.67990442
_cell_angle_beta   90.58912623
_cell_angle_gamma   119.10448366
_symmetry_Int_Tables_number   1
_chemical_formula_structural   Mn3V3(TeO8)2
_chemical_formula_sum   'Mn3 V3 Te2 O16'
_cell_volume   324.74886301
_cell_formula_units_Z   1
loop_
 _symmetry_equiv_pos_site_id
 _symmetry_equiv_pos_as_xyz
  1  'x, y, z'
loop_
 _atom_site_type_symbol
 _atom_site_label
 _atom_site_symmetry_multiplicity
 _atom_site_fract_x
 _atom_site_fract_y
 _atom_site_fract_z
 _atom_site_occupancy
  Mn  Mn0  1  0.662071  0.818111  0.202443  1
  Mn  Mn1  1  0.837244  0.669174  0.711619  1
  Mn  Mn2  1  0.835987  0.172286  0.710731  1
  V  V3  1  0.207537  0.879794  0.201734  1
  V  V4  1  0.152482  0.349924  0.237215  1
  V  V5  1  0.353547  0.180960  0.735966  1
  Te  Te6  1  0.328114  0.666794  0.519398  1
  Te  Te7  1  0.729896  0.363164  0.993876  1
  O  O8  1  0.173157  0.838278  0.609972  1
  O  O9  1  0.013547  0.487154  0.323538  1
  O  O10  1  0.322036  0.656863  0.121636  1
  O  O11  1  0.993464  0.989640  0.292739  1
  O  O12  1  0.002244  0.001751  0.793246  1
  O  O13  1  0.169890  0.339542  0.609864  1
  O  O14  1  0.471542  0.969092  0.303402  1
  O  O15  1  0.445618  0.472263  0.314596  1
  O  O16  1  0.310333  0.141877  0.107983  1
  O  O17  1  0.655061  0.829808  0.605763  1
  O  O18  1  0.482244  0.464088  0.819426  1
  O  O19  1  0.491698  0.027420  0.819931  1
  O  O20  1  0.664085  0.337121  0.627734  1
  O  O21  1  0.861900  0.669477  0.104609  1
  O  O22  1  0.964421  0.485041  0.850897  1
  O  O23  1  0.871881  0.190576  0.097403  1
