# generated using pymatgen
data_Mn6O7F5
_symmetry_space_group_name_H-M   'P 1'
_cell_length_a   4.62123863
_cell_length_b   7.73685310
_cell_length_c   5.63289300
_cell_angle_alpha   93.80206890
_cell_angle_beta   91.38251836
_cell_angle_gamma   89.50348986
_symmetry_Int_Tables_number   1
_chemical_formula_structural   Mn6O7F5
_chemical_formula_sum   'Mn6 O7 F5'
_cell_volume   200.89078061
_cell_formula_units_Z   1
loop_
 _symmetry_equiv_pos_site_id
 _symmetry_equiv_pos_as_xyz
  1  'x, y, z'
loop_
 _atom_site_type_symbol
 _atom_site_label
 _atom_site_symmetry_multiplicity
 _atom_site_fract_x
 _atom_site_fract_y
 _atom_site_fract_z
 _atom_site_occupancy
  Mn  Mn0  1  0.492951  0.997816  0.502328  1
  Mn  Mn1  1  0.511687  0.649474  0.174172  1
  Mn  Mn2  1  0.506590  0.356683  0.821662  1
  Mn  Mn3  1  0.994050  0.671722  0.667493  1
  Mn  Mn4  1  0.976694  0.318297  0.349245  1
  Mn  Mn5  1  0.007645  0.004882  0.995902  1
  O  O6  1  0.797623  0.444886  0.636054  1
  O  O7  1  0.817166  0.092131  0.288761  1
  O  O8  1  0.683656  0.765162  0.460770  1
  O  O9  1  0.709274  0.429395  0.120845  1
  O  O10  1  0.311245  0.567148  0.875404  1
  O  O11  1  0.310702  0.235207  0.539799  1
  O  O12  1  0.184407  0.902648  0.708535  1
  F  F13  1  0.790366  0.780527  0.968896  1
  F  F14  1  0.703485  0.124549  0.805335  1
  F  F15  1  0.295482  0.876723  0.190718  1
  F  F16  1  0.184916  0.548317  0.365296  1
  F  F17  1  0.222062  0.234433  0.028783  1
