# generated using pymatgen
data_K2TiCr(PO4)3
_symmetry_space_group_name_H-M   'P 1'
_cell_length_a   9.94057375
_cell_length_b   9.94316464
_cell_length_c   19.88672287
_cell_angle_alpha   89.98673154
_cell_angle_beta   89.96660710
_cell_angle_gamma   90.05931721
_symmetry_Int_Tables_number   1
_chemical_formula_structural   K2TiCr(PO4)3
_chemical_formula_sum   'K16 Ti8 Cr8 P24 O96'
_cell_volume   1965.61739067
_cell_formula_units_Z   8
loop_
 _symmetry_equiv_pos_site_id
 _symmetry_equiv_pos_as_xyz
  1  'x, y, z'
loop_
 _atom_site_type_symbol
 _atom_site_label
 _atom_site_symmetry_multiplicity
 _atom_site_fract_x
 _atom_site_fract_y
 _atom_site_fract_z
 _atom_site_occupancy
  K  K0  1  0.042003  0.544354  0.479058  1
  K  K1  1  0.041741  0.542613  0.977976  1
  K  K2  1  0.179411  0.819104  0.158691  1
  K  K3  1  0.183054  0.816630  0.658181  1
  K  K4  1  0.319825  0.182488  0.409583  1
  K  K5  1  0.315808  0.183021  0.908807  1
  K  K6  1  0.458265  0.457142  0.229064  1
  K  K7  1  0.456526  0.456005  0.727697  1
  K  K8  1  0.544145  0.957217  0.020845  1
  K  K9  1  0.544218  0.957107  0.521963  1
  K  K10  1  0.684022  0.681733  0.341739  1
  K  K11  1  0.683842  0.683379  0.841507  1
  K  K12  1  0.820082  0.318816  0.090934  1
  K  K13  1  0.815638  0.316788  0.590732  1
  K  K14  1  0.956698  0.041266  0.271656  1
  K  K15  1  0.956150  0.043740  0.771779  1
  Ti  Ti16  1  0.107374  0.392457  0.304623  1
  Ti  Ti17  1  0.165047  0.164896  0.581795  1
  Ti  Ti18  1  0.335821  0.836534  0.332937  1
  Ti  Ti19  1  0.336086  0.836909  0.830937  1
  Ti  Ti20  1  0.391689  0.608748  0.053607  1
  Ti  Ti21  1  0.611616  0.107458  0.196247  1
  Ti  Ti22  1  0.667035  0.335560  0.917950  1
  Ti  Ti23  1  0.835650  0.663375  0.667159  1
  Cr  Cr24  1  0.104477  0.394287  0.802620  1
  Cr  Cr25  1  0.161399  0.162881  0.081178  1
  Cr  Cr26  1  0.395221  0.604977  0.552887  1
  Cr  Cr27  1  0.605139  0.105638  0.697019  1
  Cr  Cr28  1  0.662492  0.337138  0.419148  1
  Cr  Cr29  1  0.837669  0.662971  0.168121  1
  Cr  Cr30  1  0.894428  0.894432  0.447707  1
  Cr  Cr31  1  0.894164  0.895230  0.947290  1
  P  P32  1  0.021487  0.709027  0.311721  1
  P  P33  1  0.021938  0.706822  0.812440  1
  P  P34  1  0.121926  0.475462  0.146212  1
  P  P35  1  0.125237  0.477665  0.646650  1
  P  P36  1  0.206694  0.874726  0.489201  1
  P  P37  1  0.205355  0.877518  0.988598  1
  P  P38  1  0.292842  0.123061  0.237255  1
  P  P39  1  0.293357  0.125561  0.738733  1
  P  P40  1  0.377546  0.522154  0.397287  1
  P  P41  1  0.375893  0.522407  0.895623  1
  P  P42  1  0.474640  0.292372  0.061490  1
  P  P43  1  0.479111  0.292965  0.562071  1
  P  P44  1  0.525386  0.792620  0.188632  1
  P  P45  1  0.522564  0.793261  0.687315  1
  P  P46  1  0.624302  0.024970  0.354740  1
  P  P47  1  0.625139  0.022497  0.853248  1
  P  P48  1  0.709187  0.624280  0.012373  1
  P  P49  1  0.706897  0.624023  0.510414  1
  P  P50  1  0.792339  0.378699  0.262583  1
  P  P51  1  0.793115  0.374855  0.760871  1
  P  P52  1  0.875007  0.977900  0.603395  1
  P  P53  1  0.877850  0.975267  0.102809  1
  P  P54  1  0.974381  0.205631  0.438359  1
  P  P55  1  0.979302  0.206895  0.937864  1
  O  O56  1  0.008285  0.053618  0.116516  1
  O  O57  1  0.012126  0.051874  0.613953  1
  O  O58  1  0.016662  0.558054  0.334312  1
  O  O59  1  0.013135  0.559869  0.836341  1
  O  O60  1  0.047601  0.297826  0.385330  1
  O  O61  1  0.047333  0.298395  0.886509  1
  O  O62  1  0.050519  0.231888  0.005285  1
  O  O63  1  0.054288  0.229300  0.504861  1
  O  O64  1  0.059851  0.827287  0.493495  1
  O  O65  1  0.060046  0.826497  0.993556  1
  O  O66  1  0.099971  0.329482  0.126472  1
  O  O67  1  0.102031  0.328323  0.625587  1
  O  O68  1  0.170274  0.484747  0.220926  1
  O  O69  1  0.172543  0.486739  0.720150  1
  O  O70  1  0.172086  0.748778  0.301659  1
  O  O71  1  0.171857  0.748902  0.801312  1
  O  O72  1  0.203115  0.229038  0.273784  1
  O  O73  1  0.201376  0.225426  0.774059  1
  O  O74  1  0.231215  0.546846  0.101704  1
  O  O75  1  0.225417  0.548133  0.600664  1
  O  O76  1  0.232829  0.008989  0.026180  1
  O  O77  1  0.228601  0.011891  0.525598  1
  O  O78  1  0.248976  0.897468  0.414236  1
  O  O79  1  0.249685  0.896478  0.914360  1
  O  O80  1  0.252265  0.098940  0.164742  1
  O  O81  1  0.251099  0.101847  0.664281  1
  O  O82  1  0.270834  0.990105  0.277099  1
  O  O83  1  0.271830  0.988184  0.775923  1
  O  O84  1  0.269903  0.453824  0.350932  1
  O  O85  1  0.273574  0.452065  0.851309  1
  O  O86  1  0.297851  0.769888  0.023059  1
  O  O87  1  0.298663  0.774170  0.523845  1
  O  O88  1  0.329385  0.252431  0.049496  1
  O  O89  1  0.327935  0.251017  0.551846  1
  O  O90  1  0.326201  0.512772  0.469857  1
  O  O91  1  0.331014  0.516052  0.970907  1
  O  O92  1  0.396431  0.671282  0.375215  1
  O  O93  1  0.397930  0.671717  0.875827  1
  O  O94  1  0.441705  0.170078  0.242372  1
  O  O95  1  0.440266  0.172453  0.743650  1
  O  O96  1  0.445357  0.770956  0.254873  1
  O  O97  1  0.448066  0.771845  0.756018  1
  O  O98  1  0.452489  0.702976  0.135452  1
  O  O99  1  0.451681  0.701342  0.637419  1
  O  O100  1  0.484885  0.441561  0.084972  1
  O  O101  1  0.486447  0.440130  0.586415  1
  O  O102  1  0.488762  0.946021  0.363414  1
  O  O103  1  0.487995  0.948234  0.864209  1
  O  O104  1  0.511482  0.447728  0.886025  1
  O  O105  1  0.509024  0.448159  0.383358  1
  O  O106  1  0.514566  0.941424  0.164909  1
  O  O107  1  0.512755  0.940107  0.663803  1
  O  O108  1  0.547262  0.203141  0.114733  1
  O  O109  1  0.547318  0.201752  0.613509  1
  O  O110  1  0.549958  0.268174  0.494651  1
  O  O111  1  0.554122  0.270834  0.995125  1
  O  O112  1  0.557727  0.668696  0.008082  1
  O  O113  1  0.559670  0.672641  0.506677  1
  O  O114  1  0.602104  0.171649  0.874648  1
  O  O115  1  0.597969  0.170702  0.373220  1
  O  O116  1  0.668465  0.015722  0.278877  1
  O  O117  1  0.672423  0.013243  0.779889  1
  O  O118  1  0.670291  0.752286  0.200539  1
  O  O119  1  0.671468  0.751103  0.699142  1
  O  O120  1  0.703434  0.269451  0.226625  1
  O  O121  1  0.701264  0.274339  0.726126  1
  O  O122  1  0.725164  0.952012  0.899395  1
  O  O123  1  0.726320  0.951252  0.398257  1
  O  O124  1  0.731692  0.489577  0.474664  1
  O  O125  1  0.727333  0.488971  0.973303  1
  O  O126  1  0.746612  0.598101  0.085407  1
  O  O127  1  0.748818  0.603670  0.585973  1
  O  O128  1  0.752650  0.400039  0.335268  1
  O  O129  1  0.751107  0.397725  0.835774  1
  O  O130  1  0.768163  0.508288  0.222865  1
  O  O131  1  0.771492  0.512023  0.724309  1
  O  O132  1  0.769083  0.046524  0.148786  1
  O  O133  1  0.774425  0.047858  0.649291  1
  O  O134  1  0.798419  0.727035  0.476312  1
  O  O135  1  0.796714  0.726337  0.975565  1
  O  O136  1  0.830047  0.247728  0.450570  1
  O  O137  1  0.828262  0.248930  0.948186  1
  O  O138  1  0.826045  0.988320  0.030044  1
  O  O139  1  0.827658  0.986871  0.529965  1
  O  O140  1  0.900390  0.829978  0.123931  1
  O  O141  1  0.897849  0.828416  0.624516  1
  O  O142  1  0.941857  0.330199  0.257732  1
  O  O143  1  0.939974  0.327419  0.756451  1
  O  O144  1  0.948866  0.731025  0.244846  1
  O  O145  1  0.948584  0.728491  0.744035  1
  O  O146  1  0.952919  0.797120  0.363819  1
  O  O147  1  0.952176  0.798585  0.862911  1
  O  O148  1  0.988541  0.059987  0.413145  1
  O  O149  1  0.986650  0.059779  0.913697  1
  O  O150  1  0.992041  0.553806  0.133891  1
  O  O151  1  0.988226  0.551513  0.635859  1
