# generated using pymatgen
data_Al2Si3(HO4)3
_symmetry_space_group_name_H-M   'P 1'
_cell_length_a   12.45007044
_cell_length_b   12.88425420
_cell_length_c   6.63381205
_cell_angle_alpha   90.00000000
_cell_angle_beta   90.00000000
_cell_angle_gamma   89.57958271
_symmetry_Int_Tables_number   1
_chemical_formula_structural   Al2Si3(HO4)3
_chemical_formula_sum   'Al8 Si12 H12 O48'
_cell_volume   1064.10029750
_cell_formula_units_Z   4
loop_
 _symmetry_equiv_pos_site_id
 _symmetry_equiv_pos_as_xyz
  1  'x, y, z'
loop_
 _atom_site_type_symbol
 _atom_site_label
 _atom_site_symmetry_multiplicity
 _atom_site_fract_x
 _atom_site_fract_y
 _atom_site_fract_z
 _atom_site_occupancy
  Al  Al0  1  0.618652  0.675555  0.882125  1
  Al  Al1  1  0.381348  0.324445  0.382125  1
  Al  Al2  1  0.874951  0.817767  0.888465  1
  Al  Al3  1  0.125049  0.182233  0.388465  1
  Al  Al4  1  0.673594  0.120423  0.138820  1
  Al  Al5  1  0.326406  0.879577  0.638820  1
  Al  Al6  1  0.828340  0.380918  0.136975  1
  Al  Al7  1  0.171660  0.619082  0.636975  1
  Si  Si8  1  0.733817  0.744143  0.498547  1
  Si  Si9  1  0.266183  0.255857  0.998547  1
  Si  Si10  1  0.762042  0.246599  0.754427  1
  Si  Si11  1  0.237958  0.753401  0.254427  1
  Si  Si12  1  0.377405  0.676992  0.878507  1
  Si  Si13  1  0.622595  0.323008  0.378507  1
  Si  Si14  1  0.114914  0.824543  0.877864  1
  Si  Si15  1  0.885086  0.175457  0.377864  1
  Si  Si16  1  0.677475  0.878464  0.132755  1
  Si  Si17  1  0.322525  0.121536  0.632755  1
  Si  Si18  1  0.827926  0.620328  0.128919  1
  Si  Si19  1  0.172074  0.379672  0.628919  1
  H  H20  1  0.489380  0.492680  0.902266  1
  H  H21  1  0.510620  0.507320  0.402266  1
  H  H22  1  0.425924  0.368965  0.001728  1
  H  H23  1  0.574076  0.631035  0.501728  1
  H  H24  1  0.508000  0.388654  0.765555  1
  H  H25  1  0.492000  0.611346  0.265555  1
  H  H26  1  0.100900  0.084502  0.727190  1
  H  H27  1  0.899100  0.915498  0.227190  1
  H  H28  1  0.013969  0.994488  0.835727  1
  H  H29  1  0.986031  0.005512  0.335727  1
  H  H30  1  0.971865  0.116552  0.761293  1
  H  H31  1  0.028135  0.883448  0.261293  1
  O  O32  1  0.806098  0.798780  0.665942  1
  O  O33  1  0.193902  0.201220  0.165942  1
  O  O34  1  0.638162  0.673464  0.610719  1
  O  O35  1  0.361838  0.326536  0.110719  1
  O  O36  1  0.698895  0.164037  0.892815  1
  O  O37  1  0.301105  0.835963  0.392815  1
  O  O38  1  0.820375  0.334611  0.888886  1
  O  O39  1  0.179625  0.665389  0.388886  1
  O  O40  1  0.492011  0.615705  0.923650  1
  O  O41  1  0.507989  0.384295  0.423650  1
  O  O42  1  0.998520  0.887639  0.864799  1
  O  O43  1  0.001480  0.112361  0.364799  1
  O  O44  1  0.618490  0.993759  0.133459  1
  O  O45  1  0.381510  0.006241  0.633459  1
  O  O46  1  0.888278  0.505679  0.151381  1
  O  O47  1  0.111722  0.494321  0.651381  1
  O  O48  1  0.620608  0.802295  0.973784  1
  O  O49  1  0.379392  0.197705  0.473784  1
  O  O50  1  0.905137  0.699568  0.009194  1
  O  O51  1  0.094863  0.300432  0.509194  1
  O  O52  1  0.204556  0.894438  0.769781  1
  O  O53  1  0.795444  0.105562  0.269781  1
  O  O54  1  0.298709  0.604058  0.747838  1
  O  O55  1  0.701291  0.395942  0.247838  1
  O  O56  1  0.403084  0.785882  0.766444  1
  O  O57  1  0.596916  0.214118  0.266444  1
  O  O58  1  0.101377  0.711247  0.778293  1
  O  O59  1  0.898623  0.288753  0.278293  1
  O  O60  1  0.805430  0.893777  0.073994  1
  O  O61  1  0.194570  0.106223  0.573994  1
  O  O62  1  0.717048  0.601543  0.005585  1
  O  O63  1  0.282952  0.398457  0.505585  1
  O  O64  1  0.323067  0.697466  0.101256  1
  O  O65  1  0.676933  0.302534  0.601256  1
  O  O66  1  0.143004  0.816214  0.124188  1
  O  O67  1  0.856996  0.183786  0.624188  1
  O  O68  1  0.803260  0.664566  0.356965  1
  O  O69  1  0.196740  0.335434  0.856965  1
  O  O70  1  0.670362  0.830728  0.362114  1
  O  O71  1  0.329638  0.169272  0.862114  1
  O  O72  1  0.493938  0.413475  0.902098  1
  O  O73  1  0.506062  0.586525  0.402098  1
  O  O74  1  0.033517  0.076100  0.818640  1
  O  O75  1  0.966483  0.923900  0.318640  1
  O  O76  1  0.947368  0.477983  0.633513  1
  O  O77  1  0.052632  0.522017  0.133513  1
  O  O78  1  0.549521  0.011233  0.644100  1
  O  O79  1  0.450479  0.988767  0.144100  1
