# generated using pymatgen
data_SnGeO3
_symmetry_space_group_name_H-M   'P 1'
_cell_length_a   11.73844563
_cell_length_b   13.42094682
_cell_length_c   7.25551126
_cell_angle_alpha   90.00000000
_cell_angle_beta   90.00000000
_cell_angle_gamma   118.89111086
_symmetry_Int_Tables_number   1
_chemical_formula_structural   SnGeO3
_chemical_formula_sum   'Sn12 Ge12 O36'
_cell_volume   1000.77744829
_cell_formula_units_Z   12
loop_
 _symmetry_equiv_pos_site_id
 _symmetry_equiv_pos_as_xyz
  1  'x, y, z'
loop_
 _atom_site_type_symbol
 _atom_site_label
 _atom_site_symmetry_multiplicity
 _atom_site_fract_x
 _atom_site_fract_y
 _atom_site_fract_z
 _atom_site_occupancy
  Sn  Sn0  1  0.208909  0.900343  0.694962  1
  Sn  Sn1  1  0.131296  0.681589  0.038880  1
  Sn  Sn2  1  0.208909  0.400343  0.305038  1
  Sn  Sn3  1  0.131296  0.181589  0.961120  1
  Sn  Sn4  1  0.416733  0.835760  0.388070  1
  Sn  Sn5  1  0.416733  0.335760  0.611930  1
  Sn  Sn6  1  0.583267  0.664240  0.388070  1
  Sn  Sn7  1  0.583267  0.164240  0.611930  1
  Sn  Sn8  1  0.868704  0.818411  0.038880  1
  Sn  Sn9  1  0.791091  0.599657  0.694962  1
  Sn  Sn10  1  0.868704  0.318411  0.961120  1
  Sn  Sn11  1  0.791091  0.099657  0.305038  1
  Ge  Ge12  1  0.252122  0.960141  0.174291  1
  Ge  Ge13  1  0.142254  0.612859  0.594905  1
  Ge  Ge14  1  0.252122  0.460141  0.825709  1
  Ge  Ge15  1  0.455057  0.845851  0.881922  1
  Ge  Ge16  1  0.142254  0.112859  0.405095  1
  Ge  Ge17  1  0.544943  0.654149  0.881922  1
  Ge  Ge18  1  0.455057  0.345851  0.118078  1
  Ge  Ge19  1  0.857746  0.887141  0.594905  1
  Ge  Ge20  1  0.544943  0.154149  0.118078  1
  Ge  Ge21  1  0.747878  0.539859  0.174291  1
  Ge  Ge22  1  0.857746  0.387141  0.405095  1
  Ge  Ge23  1  0.747878  0.039859  0.825709  1
  O  O24  1  0.143548  0.851184  0.025758  1
  O  O25  1  0.000000  0.500000  0.500000  1
  O  O26  1  0.110571  0.709585  0.726910  1
  O  O27  1  0.280424  0.906848  0.380686  1
  O  O28  1  0.189015  0.556249  0.788484  1
  O  O29  1  0.252917  0.672721  0.417612  1
  O  O30  1  0.143548  0.351184  0.974242  1
  O  O31  1  0.000000  0.000000  0.500000  1
  O  O32  1  0.385033  0.883600  0.697225  1
  O  O33  1  0.346723  0.785199  0.067350  1
  O  O34  1  0.110571  0.209585  0.273090  1
  O  O35  1  0.280424  0.406848  0.619314  1
  O  O36  1  0.396381  0.536319  0.962191  1
  O  O37  1  0.189015  0.056249  0.211516  1
  O  O38  1  0.500000  0.750000  0.772972  1
  O  O39  1  0.252917  0.172721  0.582388  1
  O  O40  1  0.603619  0.963681  0.962191  1
  O  O41  1  0.385033  0.383600  0.302775  1
  O  O42  1  0.346723  0.285199  0.932650  1
  O  O43  1  0.653277  0.714801  0.067350  1
  O  O44  1  0.614967  0.616400  0.697225  1
  O  O45  1  0.396381  0.036319  0.037809  1
  O  O46  1  0.747083  0.827279  0.417612  1
  O  O47  1  0.500000  0.250000  0.227028  1
  O  O48  1  0.810985  0.943751  0.788484  1
  O  O49  1  0.603619  0.463681  0.037809  1
  O  O50  1  0.719576  0.593152  0.380686  1
  O  O51  1  0.889429  0.790415  0.726910  1
  O  O52  1  0.653277  0.214801  0.932650  1
  O  O53  1  0.614967  0.116400  0.302775  1
  O  O54  1  0.856452  0.648816  0.025758  1
  O  O55  1  0.747083  0.327279  0.582388  1
  O  O56  1  0.810985  0.443751  0.211516  1
  O  O57  1  0.719576  0.093152  0.619314  1
  O  O58  1  0.889429  0.290415  0.273090  1
  O  O59  1  0.856452  0.148816  0.974242  1
