# generated using pymatgen
data_Li4V3P8O29
_symmetry_space_group_name_H-M   'P 1'
_cell_length_a   9.80016488
_cell_length_b   9.81272716
_cell_length_c   13.96723913
_cell_angle_alpha   90.04357973
_cell_angle_beta   89.81601921
_cell_angle_gamma   59.93348720
_symmetry_Int_Tables_number   1
_chemical_formula_structural   Li4V3P8O29
_chemical_formula_sum   'Li8 V6 P16 O58'
_cell_volume   1162.43579179
_cell_formula_units_Z   2
loop_
 _symmetry_equiv_pos_site_id
 _symmetry_equiv_pos_as_xyz
  1  'x, y, z'
loop_
 _atom_site_type_symbol
 _atom_site_label
 _atom_site_symmetry_multiplicity
 _atom_site_fract_x
 _atom_site_fract_y
 _atom_site_fract_z
 _atom_site_occupancy
  Li  Li0  1  0.772686  0.907980  0.558894  1
  Li  Li1  1  0.904219  0.323208  0.558081  1
  Li  Li2  1  0.769371  0.319849  0.061731  1
  Li  Li3  1  0.323832  0.904616  0.060881  1
  Li  Li4  1  0.319702  0.769572  0.560127  1
  Li  Li5  1  0.225775  0.677565  0.942171  1
  Li  Li6  1  0.228970  0.093129  0.438946  1
  Li  Li7  1  0.091725  0.230836  0.939924  1
  V  V8  1  0.566052  0.430029  0.255301  1
  V  V9  1  0.434315  0.565069  0.749189  1
  V  V10  1  0.570004  0.002629  0.754828  1
  V  V11  1  0.439346  -0.000936  0.248191  1
  V  V12  1  0.998634  0.572162  0.249332  1
  V  V13  1  0.998314  0.437404  0.749000  1
  P  P14  1  0.915124  0.770499  0.843546  1
  P  P15  1  0.771234  0.914210  0.342342  1
  P  P16  1  0.912594  0.319536  0.341102  1
  P  P17  1  0.667653  0.662121  0.128126  1
  P  P18  1  0.665770  0.668889  0.628119  1
  P  P19  1  0.769305  0.318342  0.843442  1
  P  P20  1  0.685173  0.229715  0.658705  1
  P  P21  1  0.318503  0.911959  0.841305  1
  P  P22  1  0.688322  0.084913  0.155737  1
  P  P23  1  0.317252  0.771811  0.342950  1
  P  P24  1  0.231202  0.681324  0.159683  1
  P  P25  1  0.328404  0.334743  0.371955  1
  P  P26  1  0.329471  0.335155  0.872361  1
  P  P27  1  0.085099  0.685331  0.657181  1
  P  P28  1  0.232242  0.088616  0.658679  1
  P  P29  1  0.088122  0.231889  0.157691  1
  O  O30  1  0.994159  0.764029  0.569873  1
  O  O31  1  0.915042  0.744721  0.332088  1
  O  O32  1  0.766584  0.000574  0.068280  1
  O  O33  1  0.744291  0.914256  0.835702  1
  O  O34  1  0.903803  0.620334  0.823784  1
  O  O35  1  0.815051  0.662744  0.174231  1
  O  O36  1  0.905519  0.478435  0.324236  1
  O  O37  1  0.999308  0.241625  0.068488  1
  O  O38  1  0.917690  0.338626  0.835938  1
  O  O39  1  0.669922  0.817606  0.669428  1
  O  O40  1  0.619108  0.902594  0.321082  1
  O  O41  1  0.814702  0.515452  0.669150  1
  O  O42  1  0.668325  0.658160  0.022093  1
  O  O43  1  0.671614  0.664239  0.521227  1
  O  O44  1  0.669707  0.510936  0.170511  1
  O  O45  1  0.479241  0.902419  0.822886  1
  O  O46  1  0.514432  0.813192  0.166988  1
  O  O47  1  0.744574  0.342244  0.336738  1
  O  O48  1  0.789130  0.206139  0.754170  1
  O  O49  1  0.770306  0.235502  0.572355  1
  O  O50  1  0.763620  0.247421  0.935995  1
  O  O51  1  0.619634  0.478677  0.821981  1
  O  O52  1  0.513068  0.674168  0.667235  1
  O  O53  1  0.660499  0.257183  0.163435  1
  O  O54  1  0.478606  0.618788  0.322063  1
  O  O55  1  0.338434  0.918178  0.337570  1
  O  O56  1  0.789555  0.006375  0.253155  1
  O  O57  1  0.761182  0.992010  0.434341  1
  O  O58  1  0.241717  0.000212  0.568492  1
  O  O59  1  0.662293  0.082689  0.661816  1
  O  O60  1  0.523569  0.378422  0.676299  1
  O  O61  1  0.335257  0.747511  0.840675  1
  O  O62  1  0.478668  0.335439  0.326932  1
  O  O63  1  0.383727  0.521886  0.177455  1
  O  O64  1  0.242201  0.757961  0.069716  1
  O  O65  1  0.245919  0.761234  0.433858  1
  O  O66  1  0.209104  0.792174  0.250630  1
  O  O67  1  0.253350  0.663499  0.659981  1
  O  O68  1  0.480294  0.184792  0.826511  1
  O  O69  1  0.525967  0.095775  0.176723  1
  O  O70  1  0.328068  0.484981  0.833627  1
  O  O71  1  0.327619  0.329863  0.979049  1
  O  O72  1  0.329019  0.335314  0.477850  1
  O  O73  1  0.182787  0.481486  0.325303  1
  O  O74  1  0.383750  0.094929  0.677402  1
  O  O75  1  0.329178  0.183421  0.331540  1
  O  O76  1  0.086661  0.658161  0.163357  1
  O  O77  1  0.001081  0.791872  0.750662  1
  O  O78  1  0.004155  0.761068  0.931106  1
  O  O79  1  0.095927  0.523424  0.677697  1
  O  O80  1  0.183778  0.328077  0.830463  1
  O  O81  1  0.096592  0.382250  0.175835  1
  O  O82  1  0.254744  0.082769  0.158514  1
  O  O83  1  0.242070  0.001426  0.931895  1
  O  O84  1  0.208763  0.001145  0.750299  1
  O  O85  1  0.084409  0.254535  0.659222  1
  O  O86  1  0.000030  0.240970  0.430584  1
  O  O87  1  0.001186  0.208596  0.249758  1
