# generated using pymatgen
data_B84O11
_symmetry_space_group_name_H-M   'P 1'
_cell_length_a   11.80692340
_cell_length_b   7.39569964
_cell_length_c   8.79982277
_cell_angle_alpha   112.22429532
_cell_angle_beta   95.81374858
_cell_angle_gamma   91.22252966
_symmetry_Int_Tables_number   1
_chemical_formula_structural   B84O11
_chemical_formula_sum   'B84 O11'
_cell_volume   706.17540822
_cell_formula_units_Z   1
loop_
 _symmetry_equiv_pos_site_id
 _symmetry_equiv_pos_as_xyz
  1  'x, y, z'
loop_
 _atom_site_type_symbol
 _atom_site_label
 _atom_site_symmetry_multiplicity
 _atom_site_fract_x
 _atom_site_fract_y
 _atom_site_fract_z
 _atom_site_occupancy
  B  B0  1  0.950894  0.090904  0.852528  1
  B  B1  1  0.989809  0.225500  0.567672  1
  B  B2  1  0.949292  0.430451  0.728997  1
  B  B3  1  0.898586  0.848175  0.837288  1
  B  B4  1  0.904541  0.194155  0.716635  1
  B  B5  1  0.950766  0.436590  0.526228  1
  B  B6  1  0.983847  0.234698  0.068859  1
  B  B7  1  0.837173  0.543776  0.653677  1
  B  B8  1  0.904053  0.197175  0.381612  1
  B  B9  1  0.756911  0.472548  0.948645  1
  B  B10  1  0.954852  0.098623  0.194578  1
  B  B11  1  0.808932  0.386609  0.764856  1
  B  B12  1  0.874693  0.051817  0.501640  1
  B  B13  1  0.808435  0.390412  0.431452  1
  B  B14  1  0.663117  0.661474  0.995886  1
  B  B15  1  0.903694  0.855778  0.049177  1
  B  B16  1  0.762420  0.147985  0.621620  1
  B  B17  1  0.844392  0.505393  0.135734  1
  B  B18  1  0.805378  0.709396  0.296353  1
  B  B19  1  0.714713  0.791374  0.715512  1
  B  B20  1  0.665850  0.998580  0.871744  1
  B  B21  1  0.867684  0.061166  0.004183  1
  B  B22  1  0.724130  0.356253  0.579088  1
  B  B23  1  0.763713  0.150814  0.417403  1
  B  B24  1  0.610424  0.416841  0.977924  1
  B  B25  1  0.758956  0.475562  0.285447  1
  B  B26  1  0.621301  0.764365  0.859758  1
  B  B27  1  0.669949  0.007092  0.670366  1
  B  B28  1  0.807147  0.712055  0.092212  1
  B  B29  1  0.694718  0.806653  0.211369  1
  B  B30  1  0.553752  0.112877  0.796655  1
  B  B31  1  0.623845  0.767709  0.526168  1
  B  B32  1  0.664764  0.666073  0.333162  1
  B  B33  1  0.524706  0.957444  0.909144  1
  B  B34  1  0.728226  0.333059  0.071189  1
  B  B35  1  0.592119  0.625231  0.646452  1
  B  B36  1  0.526306  0.961916  0.575427  1
  B  B37  1  0.615134  0.425723  0.189571  1
  B  B38  1  0.478671  0.717718  0.764701  1
  B  B39  1  0.558878  0.080225  0.281900  1
  B  B40  1  0.430670  0.357261  0.856827  1
  B  B41  1  0.518497  0.283578  0.441541  1
  B  B42  1  0.579210  0.631984  0.145598  1
  B  B43  1  0.441397  0.925662  0.722181  1
  B  B44  1  0.481687  0.722939  0.561346  1
  B  B45  1  0.472812  0.049402  0.430497  1
  B  B46  1  0.521161  0.286505  0.238200  1
  B  B47  1  0.387196  0.568936  0.808904  1
  B  B48  1  0.407917  0.380465  0.355666  1
  B  B49  1  0.270746  0.663173  0.925902  1
  B  B50  1  0.474251  0.049268  0.095757  1
  B  B51  1  0.339232  0.331981  0.667952  1
  B  B52  1  0.375853  0.238746  0.475205  1
  B  B53  1  0.307163  0.190150  0.786940  1
  B  B54  1  0.443376  0.907821  0.216505  1
  B  B55  1  0.377983  0.239465  0.142754  1
  B  B56  1  0.242965  0.521285  0.712587  1
  B  B57  1  0.192292  0.282757  0.903442  1
  B  B58  1  0.328078  0.002260  0.333999  1
  B  B59  1  0.276016  0.645222  0.420592  1
  B  B60  1  0.380923  0.564537  0.011276  1
  B  B61  1  0.132443  0.937110  0.995051  1
  B  B62  1  0.236075  0.848299  0.582010  1
  B  B63  1  0.283809  0.214676  0.286459  1
  B  B64  1  0.155405  0.491097  0.860871  1
  B  B65  1  0.196052  0.287712  0.701284  1
  B  B66  1  0.332475  0.006306  0.130979  1
  B  B67  1  0.336031  0.330762  0.999489  1
  B  B68  1  0.192159  0.608196  0.567597  1
  B  B69  1  0.237735  0.852996  0.378063  1
  B  B70  1  0.096162  0.141722  0.949168  1
  B  B71  1  0.125323  0.947076  0.497624  1
  B  B72  1  0.044995  0.899931  0.804709  1
  B  B73  1  0.191762  0.612480  0.233497  1
  B  B74  1  0.240079  0.520551  0.046189  1
  B  B75  1  0.096054  0.801626  0.617992  1
  B  B76  1  0.163737  0.455519  0.345592  1
  B  B77  1  0.016286  0.763871  0.930215  1
  B  B78  1  0.095823  0.804747  0.282513  1
  B  B79  1  0.049633  0.562326  0.473150  1
  B  B80  1  0.100976  0.150496  0.161506  1
  B  B81  1  0.010627  0.773324  0.431614  1
  B  B82  1  0.051046  0.568277  0.269916  1
  B  B83  1  0.049055  0.907909  0.146809  1
  O  O84  1  0.963795  0.445304  0.135188  1
  O  O85  1  0.891352  0.836968  0.432561  1
  O  O86  1  0.677880  0.020658  0.281657  1
  O  O87  1  0.749818  0.123871  0.007061  1
  O  O88  1  0.604327  0.411675  0.578019  1
  O  O89  1  0.321671  0.977545  0.717615  1
  O  O90  1  0.395918  0.593656  0.425019  1
  O  O91  1  0.461779  0.695753  0.148927  1
  O  O92  1  0.250752  0.874826  0.993299  1
  O  O93  1  0.109285  0.161538  0.565344  1
  O  O94  1  0.036710  0.553145  0.862940  1
