# generated using pymatgen
data_Li7(SbS)2
_symmetry_space_group_name_H-M   'P 1'
_cell_length_a   11.27963644
_cell_length_b   8.68482866
_cell_length_c   5.63030591
_cell_angle_alpha   84.88803527
_cell_angle_beta   90.37027396
_cell_angle_gamma   129.96642811
_symmetry_Int_Tables_number   1
_chemical_formula_structural   Li7(SbS)2
_chemical_formula_sum   'Li14 Sb4 S4'
_cell_volume   420.10918396
_cell_formula_units_Z   2
loop_
 _symmetry_equiv_pos_site_id
 _symmetry_equiv_pos_as_xyz
  1  'x, y, z'
loop_
 _atom_site_type_symbol
 _atom_site_label
 _atom_site_symmetry_multiplicity
 _atom_site_fract_x
 _atom_site_fract_y
 _atom_site_fract_z
 _atom_site_occupancy
  Li  Li0  1  0.063390  0.885029  0.485628  1
  Li  Li1  1  0.185125  0.445500  0.916813  1
  Li  Li2  1  0.325994  0.600733  0.346405  1
  Li  Li3  1  0.532565  0.916264  0.761090  1
  Li  Li4  1  0.345274  0.297951  0.507734  1
  Li  Li5  1  0.089945  0.956742  0.968336  1
  Li  Li6  1  0.373603  0.308547  0.010078  1
  Li  Li7  1  0.626397  0.691453  0.989922  1
  Li  Li8  1  0.910055  0.043258  0.031664  1
  Li  Li9  1  0.654726  0.702049  0.492266  1
  Li  Li10  1  0.467435  0.083736  0.238910  1
  Li  Li11  1  0.674006  0.399267  0.653595  1
  Li  Li12  1  0.814875  0.554500  0.083187  1
  Li  Li13  1  0.936610  0.114971  0.514372  1
  Sb  Sb14  1  0.114006  0.661971  0.150102  1
  Sb  Sb15  1  0.323061  0.986180  0.766141  1
  Sb  Sb16  1  0.676939  0.013820  0.233859  1
  Sb  Sb17  1  0.885994  0.338029  0.849898  1
  S  S18  1  0.142568  0.196895  0.237316  1
  S  S19  1  0.421062  0.573340  0.718922  1
  S  S20  1  0.578938  0.426660  0.281078  1
  S  S21  1  0.857432  0.803105  0.762684  1
