# generated using pymatgen
data_Li4Fe2Ni3Sn3O16
_symmetry_space_group_name_H-M   'P 1'
_cell_length_a   6.02562353
_cell_length_b   6.08000838
_cell_length_c   9.64570808
_cell_angle_alpha   90.25678689
_cell_angle_beta   88.46812449
_cell_angle_gamma   120.34922623
_symmetry_Int_Tables_number   1
_chemical_formula_structural   Li4Fe2Ni3Sn3O16
_chemical_formula_sum   'Li4 Fe2 Ni3 Sn3 O16'
_cell_volume   304.82657420
_cell_formula_units_Z   1
loop_
 _symmetry_equiv_pos_site_id
 _symmetry_equiv_pos_as_xyz
  1  'x, y, z'
loop_
 _atom_site_type_symbol
 _atom_site_label
 _atom_site_symmetry_multiplicity
 _atom_site_fract_x
 _atom_site_fract_y
 _atom_site_fract_z
 _atom_site_occupancy
  Li  Li0  1  0.353729  0.673724  0.884680  1
  Li  Li1  1  0.956036  0.978848  0.992779  1
  Li  Li2  1  0.970065  0.985097  0.502795  1
  Li  Li3  1  0.676406  0.336544  0.398341  1
  Fe  Fe4  1  0.335416  0.672438  0.496206  1
  Fe  Fe5  1  0.682944  0.339854  0.988615  1
  Ni  Ni6  1  0.663939  0.832664  0.218750  1
  Ni  Ni7  1  0.834643  0.660840  0.715681  1
  Ni  Ni8  1  0.829465  0.170679  0.714325  1
  Sn  Sn9  1  0.171437  0.831383  0.211445  1
  Sn  Sn10  1  0.172288  0.340077  0.212099  1
  Sn  Sn11  1  0.337669  0.170541  0.713528  1
  O  O12  1  0.147543  0.831333  0.599542  1
  O  O13  1  0.036853  0.518812  0.347817  1
  O  O14  1  0.336887  0.667504  0.093126  1
  O  O15  1  0.006622  0.003476  0.318461  1
  O  O16  1  0.975540  0.002523  0.807815  1
  O  O17  1  0.149216  0.320282  0.598246  1
  O  O18  1  0.490286  0.964169  0.340935  1
  O  O19  1  0.492672  0.530561  0.341781  1
  O  O20  1  0.325911  0.162621  0.084789  1
  O  O21  1  0.659847  0.842522  0.607877  1
  O  O22  1  0.540879  0.494093  0.838061  1
  O  O23  1  0.537363  0.043891  0.837635  1
  O  O24  1  0.689544  0.331463  0.607792  1
  O  O25  1  0.831735  0.670406  0.099525  1
  O  O26  1  0.966650  0.468150  0.832895  1
  O  O27  1  0.828415  0.155807  0.102302  1
