# generated using pymatgen
data_Fe2O3F
_symmetry_space_group_name_H-M   'P 1'
_cell_length_a   4.70778113
_cell_length_b   23.39590681
_cell_length_c   3.00931690
_cell_angle_alpha   90.00000000
_cell_angle_beta   90.00000000
_cell_angle_gamma   92.50890163
_symmetry_Int_Tables_number   1
_chemical_formula_structural   Fe2O3F
_chemical_formula_sum   'Fe10 O15 F5'
_cell_volume   331.13689350
_cell_formula_units_Z   5
loop_
 _symmetry_equiv_pos_site_id
 _symmetry_equiv_pos_as_xyz
  1  'x, y, z'
loop_
 _atom_site_type_symbol
 _atom_site_label
 _atom_site_symmetry_multiplicity
 _atom_site_fract_x
 _atom_site_fract_y
 _atom_site_fract_z
 _atom_site_occupancy
  Fe  Fe0  1  0.958907  -0.000402  0.000000  1
  Fe  Fe1  1  0.063707  0.195489  0.000000  1
  Fe  Fe2  1  0.033023  0.396495  0.000000  1
  Fe  Fe3  1  0.006613  0.596475  0.000000  1
  Fe  Fe4  1  0.987039  0.795580  0.000000  1
  Fe  Fe5  1  0.545611  0.105526  0.500000  1
  Fe  Fe6  1  0.507385  0.303050  0.500000  1
  Fe  Fe7  1  0.481736  0.502680  0.500000  1
  Fe  Fe8  1  0.465798  0.703412  0.500000  1
  Fe  Fe9  1  0.441073  0.904327  0.500000  1
  O  O10  1  0.243025  0.159527  0.500000  1
  O  O11  1  0.204752  0.359032  0.500000  1
  O  O12  1  0.188185  0.559984  0.500000  1
  O  O13  1  0.138800  0.963791  0.500000  1
  O  O14  1  0.176351  0.762531  0.500000  1
  O  O15  1  0.312879  0.458912  0.000000  1
  O  O16  1  0.297681  0.660358  0.000000  1
  O  O17  1  0.272717  0.863264  0.000000  1
  O  O18  1  0.348397  0.259733  0.000000  1
  O  O19  1  0.739104  0.139892  0.000000  1
  O  O20  1  0.711708  0.337552  0.000000  1
  O  O21  1  0.676643  0.738816  0.000000  1
  O  O22  1  0.633772  0.941142  0.000000  1
  O  O23  1  0.693621  0.536702  0.000000  1
  O  O24  1  0.806987  0.041496  0.500000  1
  F  F25  1  0.319750  0.061477  0.000000  1
  F  F26  1  0.854393  0.237296  0.500000  1
  F  F27  1  0.815689  0.436740  0.500000  1
  F  F28  1  0.796195  0.638551  0.500000  1
  F  F29  1  0.778460  0.840573  0.500000  1
