# generated using pymatgen
data_LiVFeO4
_symmetry_space_group_name_H-M   'P 1'
_cell_length_a   5.95331045
_cell_length_b   5.95287059
_cell_length_c   8.32078677
_cell_angle_alpha   89.99991181
_cell_angle_beta   89.99798979
_cell_angle_gamma   89.99949394
_symmetry_Int_Tables_number   1
_chemical_formula_structural   LiVFeO4
_chemical_formula_sum   'Li4 V4 Fe4 O16'
_cell_volume   294.88274774
_cell_formula_units_Z   4
loop_
 _symmetry_equiv_pos_site_id
 _symmetry_equiv_pos_as_xyz
  1  'x, y, z'
loop_
 _atom_site_type_symbol
 _atom_site_label
 _atom_site_symmetry_multiplicity
 _atom_site_fract_x
 _atom_site_fract_y
 _atom_site_fract_z
 _atom_site_occupancy
  Li  Li0  1  0.000011  0.233159  0.999962  1
  Li  Li1  1  0.000010  0.766865  0.500035  1
  Li  Li2  1  0.233322  0.000018  0.250014  1
  Li  Li3  1  0.766703  0.000014  0.749988  1
  V  V4  1  0.229153  0.500001  0.250000  1
  V  V5  1  0.500005  0.229190  0.000000  1
  V  V6  1  0.499999  0.770804  0.500010  1
  V  V7  1  0.770820  0.499997  0.749992  1
  Fe  Fe8  1  0.256462  0.256462  0.625026  1
  Fe  Fe9  1  0.256425  0.743561  0.874991  1
  Fe  Fe10  1  0.743544  0.256444  0.374972  1
  Fe  Fe11  1  0.743549  0.743546  0.125010  1
  O  O12  1  0.017125  0.268800  0.258775  1
  O  O13  1  0.017124  0.731185  0.241212  1
  O  O14  1  0.268842  0.017126  0.991221  1
  O  O15  1  0.268853  0.982891  0.508807  1
  O  O16  1  0.268029  0.485995  0.015591  1
  O  O17  1  0.268025  0.514010  0.484401  1
  O  O18  1  0.485970  0.268017  0.234398  1
  O  O19  1  0.485984  0.731969  0.265609  1
  O  O20  1  0.514039  0.268005  0.765595  1
  O  O21  1  0.513995  0.731978  0.734404  1
  O  O22  1  0.731981  0.513993  0.515601  1
  O  O23  1  0.731979  0.485987  0.984402  1
  O  O24  1  0.731165  0.017111  0.008779  1
  O  O25  1  0.731167  0.982875  0.491201  1
  O  O26  1  0.982872  0.268799  0.741211  1
  O  O27  1  0.982846  0.731199  0.758793  1
