# generated using pymatgen
data_Li3Co3OF7
_symmetry_space_group_name_H-M   'P 1'
_cell_length_a   6.11057213
_cell_length_b   6.09577676
_cell_length_c   6.03208218
_cell_angle_alpha   59.72970047
_cell_angle_beta   90.00000000
_cell_angle_gamma   120.08032198
_symmetry_Int_Tables_number   1
_chemical_formula_structural   Li3Co3OF7
_chemical_formula_sum   'Li3 Co3 O1 F7'
_cell_volume   158.03162343
_cell_formula_units_Z   1
loop_
 _symmetry_equiv_pos_site_id
 _symmetry_equiv_pos_as_xyz
  1  'x, y, z'
loop_
 _atom_site_type_symbol
 _atom_site_label
 _atom_site_symmetry_multiplicity
 _atom_site_fract_x
 _atom_site_fract_y
 _atom_site_fract_z
 _atom_site_occupancy
  Li  Li0  1  0.616360  0.232720  0.122167  1
  Li  Li1  1  0.004998  0.009996  0.988266  1
  Li  Li2  1  0.626195  0.252390  0.630079  1
  Co  Co3  1  0.255964  0.511929  0.273239  1
  Co  Co4  1  0.616434  0.743636  0.615906  1
  Co  Co5  1  0.127202  0.743636  0.615906  1
  O  O6  1  0.382498  0.764996  0.399997  1
  F  F7  1  0.854563  0.234256  0.386246  1
  F  F8  1  0.379693  0.234256  0.386246  1
  F  F9  1  0.864132  0.728264  0.387777  1
  F  F10  1  0.867019  0.266279  0.865977  1
  F  F11  1  0.871239  0.742477  0.849112  1
  F  F12  1  0.399259  0.266279  0.865977  1
  F  F13  1  0.384444  0.768888  0.863107  1
