# generated using pymatgen
data_InPH4NO5
_symmetry_space_group_name_H-M   'P 1'
_cell_length_a   9.57877177
_cell_length_b   9.57877259
_cell_length_c   11.21699863
_cell_angle_alpha   89.99999994
_cell_angle_beta   89.99773673
_cell_angle_gamma   90.00001166
_symmetry_Int_Tables_number   1
_chemical_formula_structural   InPH4NO5
_chemical_formula_sum   'In8 P8 H32 N8 O40'
_cell_volume   1029.19188933
_cell_formula_units_Z   8
loop_
 _symmetry_equiv_pos_site_id
 _symmetry_equiv_pos_as_xyz
  1  'x, y, z'
loop_
 _atom_site_type_symbol
 _atom_site_label
 _atom_site_symmetry_multiplicity
 _atom_site_fract_x
 _atom_site_fract_y
 _atom_site_fract_z
 _atom_site_occupancy
  In  In0  1  0.596466  0.403540  0.249987  1
  In  In1  1  0.403529  0.596466  0.749987  1
  In  In2  1  0.903540  0.903534  0.499983  1
  In  In3  1  0.096466  0.096473  0.999984  1
  In  In4  1  0.153647  0.846350  0.250008  1
  In  In5  1  0.846353  0.153651  0.750004  1
  In  In6  1  0.346350  0.346355  0.500003  1
  In  In7  1  0.653649  0.653647  0.000007  1
  P  P8  1  0.838962  0.685596  0.255349  1
  P  P9  1  0.161036  0.314405  0.755345  1
  P  P10  1  0.185594  0.661035  0.505344  1
  P  P11  1  0.814404  0.338962  0.005347  1
  P  P12  1  0.314407  0.161021  0.244661  1
  P  P13  1  0.685596  0.838976  0.744658  1
  P  P14  1  0.661025  0.185595  0.494657  1
  P  P15  1  0.338977  0.814405  0.994660  1
  H  H16  1  0.940506  0.234427  0.317721  1
  H  H17  1  0.059493  0.765574  0.817721  1
  H  H18  1  0.734426  0.559494  0.567721  1
  H  H19  1  0.265573  0.440507  0.067721  1
  H  H20  1  0.765576  0.059484  0.182275  1
  H  H21  1  0.234425  0.940516  0.682275  1
  H  H22  1  0.559485  0.734426  0.432276  1
  H  H23  1  0.440516  0.265575  0.932275  1
  H  H24  1  0.981575  0.394609  0.367537  1
  H  H25  1  0.018425  0.605391  0.867537  1
  H  H26  1  0.894609  0.518425  0.617537  1
  H  H27  1  0.105391  0.481575  0.117536  1
  H  H28  1  0.605392  0.018425  0.132457  1
  H  H29  1  0.394608  0.981575  0.632457  1
  H  H30  1  0.518425  0.894608  0.382457  1
  H  H31  1  0.481575  0.105392  0.882457  1
  H  H32  1  0.943208  0.369568  0.224484  1
  H  H33  1  0.056792  0.630432  0.724484  1
  H  H34  1  0.869568  0.556793  0.474485  1
  H  H35  1  0.130432  0.443208  0.974484  1
  H  H36  1  0.630426  0.056792  0.275510  1
  H  H37  1  0.369574  0.943208  0.775510  1
  H  H38  1  0.556792  0.869574  0.525510  1
  H  H39  1  0.443208  0.130426  0.025509  1
  H  H40  1  0.096415  0.302941  0.288043  1
  H  H41  1  0.903586  0.697059  0.788043  1
  H  H42  1  0.802941  0.403586  0.538043  1
  H  H43  1  0.197059  0.596415  0.038043  1
  H  H44  1  0.697059  0.903584  0.211949  1
  H  H45  1  0.302940  0.096417  0.711949  1
  H  H46  1  0.403583  0.802941  0.461949  1
  H  H47  1  0.596417  0.197060  0.961949  1
  N  N48  1  0.990558  0.326551  0.298190  1
  N  N49  1  0.009442  0.673449  0.798190  1
  N  N50  1  0.826551  0.509442  0.548190  1
  N  N51  1  0.173449  0.490558  0.048190  1
  N  N52  1  0.673454  0.009440  0.201808  1
  N  N53  1  0.326546  0.990559  0.701808  1
  N  N54  1  0.509440  0.826547  0.451808  1
  N  N55  1  0.490559  0.173453  0.951807  1
  O  O56  1  0.765849  0.751071  0.144103  1
  O  O57  1  0.234152  0.248929  0.644103  1
  O  O58  1  0.251070  0.734152  0.394102  1
  O  O59  1  0.748929  0.265849  0.894102  1
  O  O60  1  0.248925  0.234147  0.355896  1
  O  O61  1  0.751075  0.765854  0.855896  1
  O  O62  1  0.734146  0.251075  0.605896  1
  O  O63  1  0.265854  0.748925  0.105896  1
  O  O64  1  0.779942  0.538603  0.281870  1
  O  O65  1  0.220059  0.461400  0.781872  1
  O  O66  1  0.038600  0.720060  0.531872  1
  O  O67  1  0.961401  0.279941  0.031871  1
  O  O68  1  0.461404  0.220056  0.218147  1
  O  O69  1  0.538596  0.779945  0.718147  1
  O  O70  1  0.720055  0.038597  0.468148  1
  O  O71  1  0.279945  0.961405  0.968147  1
  O  O72  1  0.998784  0.673209  0.238597  1
  O  O73  1  0.001215  0.326793  0.738597  1
  O  O74  1  0.173208  0.501216  0.488597  1
  O  O75  1  0.826793  0.498786  0.988597  1
  O  O76  1  0.326778  0.001211  0.261397  1
  O  O77  1  0.673221  0.998792  0.761398  1
  O  O78  1  0.501210  0.173223  0.511398  1
  O  O79  1  0.498791  0.826779  0.011398  1
  O  O80  1  0.799864  0.782313  0.362254  1
  O  O81  1  0.200137  0.217682  0.862259  1
  O  O82  1  0.282318  0.700138  0.612260  1
  O  O83  1  0.717685  0.299863  0.112256  1
  O  O84  1  0.217672  0.200139  0.137731  1
  O  O85  1  0.782325  0.799861  0.637734  1
  O  O86  1  0.700138  0.282322  0.387736  1
  O  O87  1  0.299861  0.717673  0.887731  1
  O  O88  1  0.472774  0.490893  0.392543  1
  O  O89  1  0.527226  0.509094  0.892549  1
  O  O90  1  0.990900  0.027225  0.642548  1
  O  O91  1  0.009090  0.972775  0.142552  1
  O  O92  1  0.509216  0.527220  0.107483  1
  O  O93  1  0.490794  0.472780  0.607478  1
  O  O94  1  0.027219  0.990780  0.357485  1
  O  O95  1  0.972780  0.009207  0.857478  1
