# generated using pymatgen
data_LiVSi3O8
_symmetry_space_group_name_H-M   'P 1'
_cell_length_a   7.69760150
_cell_length_b   7.39239423
_cell_length_c   7.23275413
_cell_angle_alpha   81.82692974
_cell_angle_beta   108.77100013
_cell_angle_gamma   63.80440933
_symmetry_Int_Tables_number   1
_chemical_formula_structural   LiVSi3O8
_chemical_formula_sum   'Li2 V2 Si6 O16'
_cell_volume   329.51050667
_cell_formula_units_Z   2
loop_
 _symmetry_equiv_pos_site_id
 _symmetry_equiv_pos_as_xyz
  1  'x, y, z'
loop_
 _atom_site_type_symbol
 _atom_site_label
 _atom_site_symmetry_multiplicity
 _atom_site_fract_x
 _atom_site_fract_y
 _atom_site_fract_z
 _atom_site_occupancy
  Li  Li0  1  0.248679  0.726832  0.144627  1
  Li  Li1  1  0.751321  0.273168  0.855373  1
  V  V2  1  0.835657  0.848035  0.805578  1
  V  V3  1  0.164343  0.151965  0.194422  1
  Si  Si4  1  0.222099  0.566238  0.715450  1
  Si  Si5  1  0.456488  0.770748  0.627100  1
  Si  Si6  1  0.175302  0.173461  0.742075  1
  Si  Si7  1  0.824698  0.826539  0.257925  1
  Si  Si8  1  0.543512  0.229252  0.372900  1
  Si  Si9  1  0.777901  0.433762  0.284550  1
  O  O10  1  0.137168  0.690729  0.863899  1
  O  O11  1  0.349057  0.958967  0.720730  1
  O  O12  1  0.039227  0.692039  0.477227  1
  O  O13  1  0.326245  0.858559  0.374735  1
  O  O14  1  0.109538  0.115892  0.924019  1
  O  O15  1  0.441895  0.561438  0.723186  1
  O  O16  1  0.286681  0.317172  0.790583  1
  O  O17  1  0.709912  0.688070  0.710788  1
  O  O18  1  0.290088  0.311930  0.289212  1
  O  O19  1  0.713319  0.682828  0.209417  1
  O  O20  1  0.558105  0.438562  0.276814  1
  O  O21  1  0.890462  0.884108  0.075981  1
  O  O22  1  0.673755  0.141441  0.625266  1
  O  O23  1  0.960773  0.307961  0.522773  1
  O  O24  1  0.650943  0.041033  0.279270  1
  O  O25  1  0.862832  0.309271  0.136101  1
