# generated using pymatgen
data_Li4FeOF5
_symmetry_space_group_name_H-M   'P 1'
_cell_length_a   5.83014872
_cell_length_b   5.81824322
_cell_length_c   13.27038757
_cell_angle_alpha   89.95855645
_cell_angle_beta   90.02067825
_cell_angle_gamma   119.93247063
_symmetry_Int_Tables_number   1
_chemical_formula_structural   Li4FeOF5
_chemical_formula_sum   'Li12 Fe3 O3 F15'
_cell_volume   390.10431376
_cell_formula_units_Z   3
loop_
 _symmetry_equiv_pos_site_id
 _symmetry_equiv_pos_as_xyz
  1  'x, y, z'
loop_
 _atom_site_type_symbol
 _atom_site_label
 _atom_site_symmetry_multiplicity
 _atom_site_fract_x
 _atom_site_fract_y
 _atom_site_fract_z
 _atom_site_occupancy
  Li  Li0  1  0.677782  0.011491  0.654128  1
  Li  Li1  1  0.672922  0.006738  0.949937  1
  Li  Li2  1  0.999967  0.317913  0.496889  1
  Li  Li3  1  0.322151  0.333676  0.654128  1
  Li  Li4  1  0.327011  0.333782  0.949937  1
  Li  Li5  1  0.999967  0.665989  0.343144  1
  Li  Li6  1  0.999967  0.654954  0.660295  1
  Li  Li7  1  0.999967  0.661006  0.954151  1
  Li  Li8  1  0.654006  0.665754  0.497848  1
  Li  Li9  1  0.666867  0.667023  0.792689  1
  Li  Li10  1  0.345928  0.011714  0.497848  1
  Li  Li11  1  0.333066  0.000122  0.792689  1
  Fe  Fe12  1  0.999967  0.334197  0.148853  1
  Fe  Fe13  1  0.666644  0.667255  0.149092  1
  Fe  Fe14  1  0.333290  0.000578  0.149092  1
  O  O15  1  0.666874  0.001144  0.136906  1
  O  O16  1  0.333059  0.334236  0.136906  1
  O  O17  1  0.999967  0.667814  0.126452  1
  F  F18  1  0.664329  0.997313  0.495953  1
  F  F19  1  0.625657  0.959722  0.813646  1
  F  F20  1  0.999967  0.365068  0.288971  1
  F  F21  1  0.999967  0.337482  0.643362  1
  F  F22  1  0.999967  0.326947  0.990213  1
  F  F23  1  0.335604  0.332952  0.495953  1
  F  F24  1  0.374276  0.334031  0.813646  1
  F  F25  1  0.999967  0.668601  0.480527  1
  F  F26  1  0.999967  0.708516  0.817052  1
  F  F27  1  0.698843  0.665561  0.289219  1
  F  F28  1  0.672508  0.666533  0.649620  1
  F  F29  1  0.658668  0.666495  0.990408  1
  F  F30  1  0.301090  0.966683  0.289219  1
  F  F31  1  0.327425  0.993991  0.649620  1
  F  F32  1  0.341265  0.007794  0.990408  1
