# generated using pymatgen
data_Zn3Fe15Cu39(Ge3S32)2
_symmetry_space_group_name_H-M   'P 1'
_cell_length_a   10.48795364
_cell_length_b   10.47680660
_cell_length_c   20.97767756
_cell_angle_alpha   89.97705023
_cell_angle_beta   89.72313995
_cell_angle_gamma   89.79752376
_symmetry_Int_Tables_number   1
_chemical_formula_structural   Zn3Fe15Cu39(Ge3S32)2
_chemical_formula_sum   'Zn3 Fe15 Cu39 Ge6 S64'
_cell_volume   2304.99123241
_cell_formula_units_Z   1
loop_
 _symmetry_equiv_pos_site_id
 _symmetry_equiv_pos_as_xyz
  1  'x, y, z'
loop_
 _atom_site_type_symbol
 _atom_site_label
 _atom_site_symmetry_multiplicity
 _atom_site_fract_x
 _atom_site_fract_y
 _atom_site_fract_z
 _atom_site_occupancy
  Zn  Zn0  1  0.002530  0.011639  0.998107  1
  Zn  Zn1  1  0.997301  0.995616  0.494243  1
  Zn  Zn2  1  0.497514  0.988166  0.998031  1
  Fe  Fe3  1  0.998241  0.499031  0.250614  1
  Fe  Fe4  1  -0.000276  0.500007  0.749816  1
  Fe  Fe5  1  0.249903  0.499591  0.126457  1
  Fe  Fe6  1  0.251026  0.501044  0.627500  1
  Fe  Fe7  1  0.248947  0.500552  0.372534  1
  Fe  Fe8  1  0.250100  0.495377  0.500201  1
  Fe  Fe9  1  0.250157  0.499582  0.872467  1
  Fe  Fe10  1  0.500964  0.500736  0.250415  1
  Fe  Fe11  1  0.501296  0.499903  0.749241  1
  Fe  Fe12  1  0.749142  0.999775  0.247813  1
  Fe  Fe13  1  0.749251  0.255355  0.250435  1
  Fe  Fe14  1  0.750627  0.999829  0.750323  1
  Fe  Fe15  1  0.752166  0.254751  0.749499  1
  Fe  Fe16  1  0.750800  0.743536  0.250497  1
  Fe  Fe17  1  0.747908  0.744578  0.749779  1
  Cu  Cu18  1  0.003529  0.999573  0.250557  1
  Cu  Cu19  1  0.006873  0.992991  0.750900  1
  Cu  Cu20  1  0.002110  0.260545  0.122454  1
  Cu  Cu21  1  0.001710  0.254861  0.626011  1
  Cu  Cu22  1  0.995829  0.751497  0.374804  1
  Cu  Cu23  1  0.008820  0.741187  0.872039  1
  Cu  Cu24  1  0.242709  0.250876  0.997838  1
  Cu  Cu25  1  0.250520  0.245438  0.249529  1
  Cu  Cu26  1  0.255936  0.241173  0.752797  1
  Cu  Cu27  1  0.257307  0.749193  0.997803  1
  Cu  Cu28  1  0.250712  0.752701  0.499322  1
  Cu  Cu29  1  0.250438  0.753470  0.248766  1
  Cu  Cu30  1  0.243622  0.757750  0.753303  1
  Cu  Cu31  1  0.491717  0.258631  0.872260  1
  Cu  Cu32  1  0.497777  0.739349  0.122405  1
  Cu  Cu33  1  0.499873  0.254357  0.374919  1
  Cu  Cu34  1  0.504952  0.752780  0.625771  1
  Cu  Cu35  1  0.496724  0.000446  0.250770  1
  Cu  Cu36  1  0.492240  0.007006  0.751190  1
  Cu  Cu37  1  0.502479  0.998245  0.504494  1
  Cu  Cu38  1  0.496560  0.499192  0.000031  1
  Cu  Cu39  1  0.507983  0.504102  0.496002  1
  Cu  Cu40  1  0.501129  0.249897  0.127750  1
  Cu  Cu41  1  0.495521  0.251316  0.626462  1
  Cu  Cu42  1  0.495773  0.749995  0.875980  1
  Cu  Cu43  1  0.499287  0.741220  0.374667  1
  Cu  Cu44  1  0.750039  0.499863  0.123195  1
  Cu  Cu45  1  0.742524  0.994410  0.621353  1
  Cu  Cu46  1  0.756092  0.503683  0.620265  1
  Cu  Cu47  1  0.749995  0.499719  0.875998  1
  Cu  Cu48  1  0.743920  0.504157  0.379608  1
  Cu  Cu49  1  0.750106  0.000078  0.876959  1
  Cu  Cu50  1  0.756623  0.997145  0.378701  1
  Cu  Cu51  1  0.003553  0.250816  0.373359  1
  Cu  Cu52  1  0.998507  0.750306  0.127725  1
  Cu  Cu53  1  0.998572  0.739100  0.625693  1
  Cu  Cu54  1  0.004453  0.249688  0.875971  1
  Cu  Cu55  1  0.003539  0.500758  0.000040  1
  Cu  Cu56  1  0.992248  0.504056  0.504109  1
  Ge  Ge57  1  0.249903  -0.000276  0.124605  1
  Ge  Ge58  1  0.255220  0.001795  0.624368  1
  Ge  Ge59  1  0.247385  -0.000059  0.376709  1
  Ge  Ge60  1  0.753853  0.249301  0.000881  1
  Ge  Ge61  1  0.748561  0.249213  0.499205  1
  Ge  Ge62  1  0.746484  0.750106  0.000785  1
  S  S63  1  0.129414  0.131610  0.437098  1
  S  S64  1  0.124556  0.871583  0.063427  1
  S  S65  1  0.132018  0.125397  0.932489  1
  S  S66  1  0.124014  0.872804  0.565778  1
  S  S67  1  0.122328  0.126057  0.185697  1
  S  S68  1  0.125534  0.125002  0.687050  1
  S  S69  1  0.124442  0.871846  0.312837  1
  S  S70  1  0.125262  0.878260  0.815821  1
  S  S71  1  0.133069  0.384191  0.063998  1
  S  S72  1  0.129865  0.386060  0.566079  1
  S  S73  1  0.128585  0.618796  0.436624  1
  S  S74  1  0.132465  0.617750  0.935157  1
  S  S75  1  0.124537  0.623071  0.188265  1
  S  S76  1  0.125611  0.378863  0.310664  1
  S  S77  1  0.125068  0.374951  0.810666  1
  S  S78  1  0.126679  0.621624  0.689760  1
  S  S79  1  0.373458  0.621831  0.310807  1
  S  S80  1  0.375609  0.624704  0.810718  1
  S  S81  1  0.374096  0.378661  0.689714  1
  S  S82  1  0.374754  0.376843  0.188526  1
  S  S83  1  0.366836  0.615911  0.063896  1
  S  S84  1  0.371471  0.618410  0.563692  1
  S  S85  1  0.370709  0.386075  0.434235  1
  S  S86  1  0.367672  0.382276  0.935179  1
  S  S87  1  0.374909  0.125766  0.314126  1
  S  S88  1  0.374635  0.122676  0.816225  1
  S  S89  1  0.377725  0.874016  0.185509  1
  S  S90  1  0.376138  0.871847  0.688694  1
  S  S91  1  0.375605  0.128520  0.063435  1
  S  S92  1  0.376433  0.126757  0.563113  1
  S  S93  1  0.379874  0.874452  0.436450  1
  S  S94  1  0.368195  0.874913  0.932413  1
  S  S95  1  0.621377  0.125537  0.437353  1
  S  S96  1  0.622730  0.132174  0.935985  1
  S  S97  1  0.628816  0.871408  0.066142  1
  S  S98  1  0.623240  0.869146  0.561521  1
  S  S99  1  0.623242  0.373704  0.062216  1
  S  S100  1  0.623635  0.373247  0.562938  1
  S  S101  1  0.622579  0.624194  0.936779  1
  S  S102  1  0.627467  0.633306  0.438664  1
  S  S103  1  0.629858  0.131238  0.192385  1
  S  S104  1  0.630869  0.128883  0.690353  1
  S  S105  1  0.630581  0.871541  0.310318  1
  S  S106  1  0.628683  0.872059  0.809726  1
  S  S107  1  0.625424  0.378776  0.311664  1
  S  S108  1  0.625135  0.622429  0.189822  1
  S  S109  1  0.625415  0.621265  0.688414  1
  S  S110  1  0.625499  0.376643  0.809699  1
  S  S111  1  0.874912  0.377357  0.189949  1
  S  S112  1  0.874726  0.620637  0.311682  1
  S  S113  1  0.874782  0.378911  0.688977  1
  S  S114  1  0.874220  0.623280  0.809788  1
  S  S115  1  0.869374  0.127913  0.309924  1
  S  S116  1  0.871770  0.128272  0.809345  1
  S  S117  1  0.869375  0.869121  0.191949  1
  S  S118  1  0.868477  0.870345  0.689606  1
  S  S119  1  0.876808  0.626344  0.062173  1
  S  S120  1  0.870596  0.634228  0.560696  1
  S  S121  1  0.875997  0.373603  0.437145  1
  S  S122  1  0.877588  0.375908  0.936779  1
  S  S123  1  0.871077  0.128710  0.066148  1
  S  S124  1  0.876361  0.128475  0.563782  1
  S  S125  1  0.868772  0.862382  0.438570  1
  S  S126  1  0.877749  0.868130  0.935751  1
