# generated using pymatgen
data_Mo9O26
_symmetry_space_group_name_H-M   'P 1'
_cell_length_a   8.21959542
_cell_length_b   15.43246927
_cell_length_c   17.17315885
_cell_angle_alpha   95.19106818
_cell_angle_beta   89.99841324
_cell_angle_gamma   105.45022811
_symmetry_Int_Tables_number   1
_chemical_formula_structural   Mo9O26
_chemical_formula_sum   'Mo36 O104'
_cell_volume   2090.40028954
_cell_formula_units_Z   4
loop_
 _symmetry_equiv_pos_site_id
 _symmetry_equiv_pos_as_xyz
  1  'x, y, z'
loop_
 _atom_site_type_symbol
 _atom_site_label
 _atom_site_symmetry_multiplicity
 _atom_site_fract_x
 _atom_site_fract_y
 _atom_site_fract_z
 _atom_site_occupancy
  Mo  Mo0  1  0.770728  0.952475  0.083423  1
  Mo  Mo1  1  0.539330  0.500167  0.751311  1
  Mo  Mo2  1  0.654531  0.722463  0.162032  1
  Mo  Mo3  1  0.292253  0.165148  0.134870  1
  Mo  Mo4  1  0.377123  0.165257  0.631808  1
  Mo  Mo5  1  0.461741  0.499978  0.248165  1
  Mo  Mo6  1  0.730582  0.046845  0.917997  1
  Mo  Mo7  1  0.229596  0.047067  0.917216  1
  Mo  Mo8  1  0.039520  0.499551  0.748043  1
  Mo  Mo9  1  0.483906  0.387757  0.043631  1
  Mo  Mo10  1  0.874080  0.165111  0.634627  1
  Mo  Mo11  1  0.432261  0.281122  0.340152  1
  Mo  Mo12  1  0.594499  0.609981  0.453912  1
  Mo  Mo13  1  0.149814  0.719341  0.159480  1
  Mo  Mo14  1  0.128373  0.835520  0.365098  1
  Mo  Mo15  1  0.095722  0.612723  0.457158  1
  Mo  Mo16  1  0.406786  0.390141  0.545910  1
  Mo  Mo17  1  0.818391  0.047923  0.417195  1
  Mo  Mo18  1  0.984744  0.390600  0.046580  1
  Mo  Mo19  1  0.067714  0.722337  0.662680  1
  Mo  Mo20  1  0.181113  0.953118  0.583008  1
  Mo  Mo21  1  0.569991  0.719478  0.660032  1
  Mo  Mo22  1  0.961410  0.501191  0.252387  1
  Mo  Mo23  1  0.271257  0.953545  0.082644  1
  Mo  Mo24  1  0.906117  0.388416  0.543229  1
  Mo  Mo25  1  0.517433  0.611039  0.956540  1
  Mo  Mo26  1  0.933493  0.278514  0.337804  1
  Mo  Mo27  1  0.707603  0.834618  0.865823  1
  Mo  Mo28  1  0.345698  0.277966  0.837761  1
  Mo  Mo29  1  0.790035  0.164955  0.131857  1
  Mo  Mo30  1  0.212271  0.835002  0.868815  1
  Mo  Mo31  1  0.623912  0.835527  0.368353  1
  Mo  Mo32  1  0.850671  0.280737  0.840225  1
  Mo  Mo33  1  0.683084  0.953089  0.582470  1
  Mo  Mo34  1  0.016082  0.609630  0.953553  1
  Mo  Mo35  1  0.317297  0.047868  0.418170  1
  O  O36  1  0.690503  0.376293  0.531198  1
  O  O37  1  0.844113  0.212140  0.733721  1
  O  O38  1  0.280171  0.079302  0.530405  1
  O  O39  1  0.502753  0.559568  0.853776  1
  O  O40  1  0.935557  0.328148  0.938995  1
  O  O41  1  0.049657  0.614961  0.705022  1
  O  O42  1  0.368793  0.212676  0.234002  1
  O  O43  1  0.720882  0.920679  0.969468  1
  O  O44  1  0.836088  0.213578  0.232887  1
  O  O45  1  0.058644  0.559875  0.354192  1
  O  O46  1  0.339269  0.155043  0.378356  1
  O  O47  1  0.722770  0.961198  0.833877  1
  O  O48  1  0.471719  0.954870  0.575825  1
  O  O49  1  0.751621  0.504273  0.762497  1
  O  O50  1  0.326422  0.153334  0.877519  1
  O  O51  1  0.246739  0.494000  0.736414  1
  O  O52  1  0.687566  0.376143  0.031283  1
  O  O53  1  0.607962  0.671530  0.561358  1
  O  O54  1  0.055859  0.560821  0.853700  1
  O  O55  1  0.375097  0.267105  0.084353  1
  O  O56  1  0.981612  0.949782  0.083895  1
  O  O57  1  0.447547  0.386236  0.294417  1
  O  O58  1  0.864192  0.734724  0.674705  1
  O  O59  1  0.644367  0.281307  0.346461  1
  O  O60  1  0.568224  0.616061  0.205979  1
  O  O61  1  0.426280  0.840833  0.878801  1
  O  O62  1  0.062879  0.670808  0.061410  1
  O  O63  1  0.944213  0.327576  0.439891  1
  O  O64  1  0.555493  0.614540  0.705883  1
  O  O65  1  0.942725  0.439735  0.646017  1
  O  O66  1  0.111324  0.733873  0.415855  1
  O  O67  1  0.031380  0.049593  0.416692  1
  O  O68  1  0.772587  0.039489  0.166138  1
  O  O69  1  0.619692  0.734890  0.418766  1
  O  O70  1  0.505398  0.561403  0.354683  1
  O  O71  1  0.128985  0.264045  0.826652  1
  O  O72  1  0.798455  0.078154  0.030600  1
  O  O73  1  0.871300  0.736975  0.173229  1
  O  O74  1  0.204962  0.921934  0.970024  1
  O  O75  1  0.056695  0.674388  0.560380  1
  O  O76  1  0.584844  0.158590  0.621191  1
  O  O77  1  0.718862  0.922081  0.469779  1
  O  O78  1  0.360765  0.717592  0.152427  1
  O  O79  1  0.278579  0.079038  0.031424  1
  O  O80  1  0.384520  0.326594  0.939703  1
  O  O81  1  0.313166  0.622105  0.968866  1
  O  O82  1  0.517831  0.045317  0.925795  1
  O  O83  1  0.630476  0.787942  0.766568  1
  O  O84  1  0.921092  0.837309  0.861961  1
  O  O85  1  0.200801  0.921796  0.469282  1
  O  O86  1  0.500712  0.441159  0.146506  1
  O  O87  1  0.999268  0.500360  0.500554  1
  O  O88  1  0.484702  0.956488  0.075826  1
  O  O89  1  0.310456  0.623079  0.470011  1
  O  O90  1  0.892426  0.266706  0.583567  1
  O  O91  1  0.754260  0.506872  0.263923  1
  O  O92  1  0.248918  0.494378  0.236506  1
  O  O93  1  0.804246  0.607440  0.444410  1
  O  O94  1  0.059458  0.615362  0.206622  1
  O  O95  1  0.968315  0.951877  0.582401  1
  O  O96  1  0.944965  0.440073  0.145786  1
  O  O97  1  0.430931  0.384715  0.794060  1
  O  O98  1  0.276860  0.038625  0.167024  1
  O  O99  1  0.940547  0.385441  0.794193  1
  O  O100  1  0.357767  0.718834  0.653292  1
  O  O101  1  0.638958  0.281290  0.846342  1
  O  O102  1  0.801102  0.078893  0.531294  1
  O  O103  1  0.084739  0.162417  0.638628  1
  O  O104  1  0.381262  0.266178  0.582056  1
  O  O105  1  0.528515  0.046230  0.425982  1
  O  O106  1  0.762418  0.038398  0.666668  1
  O  O107  1  0.623897  0.732587  0.916379  1
  O  O108  1  0.239180  0.962380  0.333894  1
  O  O109  1  0.576116  0.159623  0.122529  1
  O  O110  1  0.229398  0.960292  0.834423  1
  O  O111  1  0.917300  0.837914  0.361462  1
  O  O112  1  0.266773  0.040072  0.665713  1
  O  O113  1  0.803189  0.605414  0.944251  1
  O  O114  1  0.000733  0.499450  0.999674  1
  O  O115  1  0.503264  0.500364  0.499615  1
  O  O116  1  0.395098  0.328357  0.438811  1
  O  O117  1  0.382737  0.213353  0.733243  1
  O  O118  1  0.197665  0.394086  0.554207  1
  O  O119  1  0.887185  0.265717  0.081668  1
  O  O120  1  0.619066  0.787320  0.267107  1
  O  O121  1  0.816042  0.154057  0.878300  1
  O  O122  1  0.416164  0.841957  0.378472  1
  O  O123  1  0.115174  0.734522  0.919188  1
  O  O124  1  0.951273  0.385207  0.294532  1
  O  O125  1  0.662477  0.845487  0.621504  1
  O  O126  1  0.197669  0.394423  0.055838  1
  O  O127  1  0.669666  0.846298  0.122800  1
  O  O128  1  0.171665  0.847235  0.623749  1
  O  O129  1  0.500865  0.499917  0.999788  1
  O  O130  1  0.732494  0.961054  0.334477  1
  O  O131  1  0.186490  0.845269  0.120593  1
  O  O132  1  0.137360  0.266260  0.327231  1
  O  O133  1  0.494628  0.439865  0.645575  1
  O  O134  1  0.017422  0.047396  0.917121  1
  O  O135  1  0.078400  0.161696  0.138512  1
  O  O136  1  0.617571  0.672773  0.060044  1
  O  O137  1  0.158399  0.789236  0.265651  1
  O  O138  1  0.167901  0.785971  0.767765  1
  O  O139  1  0.826776  0.154366  0.377619  1
