# generated using pymatgen
data_LiMn4(BO3)4
_symmetry_space_group_name_H-M   'P 1'
_cell_length_a   5.79137715
_cell_length_b   9.10266019
_cell_length_c   5.32978452
_cell_angle_alpha   92.95235332
_cell_angle_beta   112.19592990
_cell_angle_gamma   105.91585979
_symmetry_Int_Tables_number   1
_chemical_formula_structural   LiMn4(BO3)4
_chemical_formula_sum   'Li1 Mn4 B4 O12'
_cell_volume   246.35185152
_cell_formula_units_Z   1
loop_
 _symmetry_equiv_pos_site_id
 _symmetry_equiv_pos_as_xyz
  1  'x, y, z'
loop_
 _atom_site_type_symbol
 _atom_site_label
 _atom_site_symmetry_multiplicity
 _atom_site_fract_x
 _atom_site_fract_y
 _atom_site_fract_z
 _atom_site_occupancy
  Li  Li0  1  0.328339  0.806135  0.745880  1
  Mn  Mn1  1  0.737552  0.391145  0.746508  1
  Mn  Mn2  1  0.755709  0.889560  0.280576  1
  Mn  Mn3  1  0.272277  0.122001  0.765102  1
  Mn  Mn4  1  0.247683  0.602495  0.226764  1
  B  B5  1  0.753045  0.052740  0.791108  1
  B  B6  1  0.734584  0.535664  0.271555  1
  B  B7  1  0.254543  0.463266  0.711693  1
  B  B8  1  0.255399  0.948299  0.224583  1
  O  O9  1  0.892842  0.076994  0.621927  1
  O  O10  1  0.866432  0.557486  0.094783  1
  O  O11  1  0.720277  0.408289  0.389301  1
  O  O12  1  0.646482  0.168620  0.831222  1
  O  O13  1  0.618230  0.646627  0.299107  1
  O  O14  1  0.283002  0.081628  0.119293  1
  O  O15  1  0.699735  0.918618  0.885337  1
  O  O16  1  0.367811  0.352318  0.678096  1
  O  O17  1  0.320125  0.825402  0.131090  1
  O  O18  1  0.278985  0.595525  0.602311  1
  O  O19  1  0.122466  0.439090  0.887162  1
  O  O20  1  0.175964  0.935105  0.444872  1
