# generated using pymatgen
data_LiFe5O3F5
_symmetry_space_group_name_H-M   'P 1'
_cell_length_a   6.31473730
_cell_length_b   6.37873797
_cell_length_c   6.25886093
_cell_angle_alpha   59.94853448
_cell_angle_beta   90.44134569
_cell_angle_gamma   120.91651716
_symmetry_Int_Tables_number   1
_chemical_formula_structural   LiFe5O3F5
_chemical_formula_sum   'Li1 Fe5 O3 F5'
_cell_volume   176.32148931
_cell_formula_units_Z   1
loop_
 _symmetry_equiv_pos_site_id
 _symmetry_equiv_pos_as_xyz
  1  'x, y, z'
loop_
 _atom_site_type_symbol
 _atom_site_label
 _atom_site_symmetry_multiplicity
 _atom_site_fract_x
 _atom_site_fract_y
 _atom_site_fract_z
 _atom_site_occupancy
  Li  Li0  1  0.617828  0.745086  0.617828  1
  Fe  Fe1  1  0.610374  0.221349  0.138185  1
  Fe  Fe2  1  0.964950  0.029598  0.964950  1
  Fe  Fe3  1  0.621961  0.246937  0.621961  1
  Fe  Fe4  1  0.292848  0.493939  0.292848  1
  Fe  Fe5  1  0.138185  0.749159  0.610374  1
  O  O6  1  0.397750  0.223645  0.397750  1
  O  O7  1  0.846963  0.285705  0.846963  1
  O  O8  1  0.392776  0.769067  0.392776  1
  F  F9  1  0.875270  0.234786  0.383789  1
  F  F10  1  0.870196  0.759648  0.373964  1
  F  F11  1  0.373964  0.263416  0.870196  1
  F  F12  1  0.863144  0.734363  0.863144  1
  F  F13  1  0.383789  0.743305  0.875270  1
