# generated using pymatgen
data_LiSn(PO3)3
_symmetry_space_group_name_H-M   'P 1'
_cell_length_a   7.94240427
_cell_length_b   12.96189096
_cell_length_c   9.35169672
_cell_angle_alpha   90.00000000
_cell_angle_beta   90.00000000
_cell_angle_gamma   90.00000000
_symmetry_Int_Tables_number   1
_chemical_formula_structural   LiSn(PO3)3
_chemical_formula_sum   'Li4 Sn4 P12 O36'
_cell_volume   962.74388022
_cell_formula_units_Z   4
loop_
 _symmetry_equiv_pos_site_id
 _symmetry_equiv_pos_as_xyz
  1  'x, y, z'
loop_
 _atom_site_type_symbol
 _atom_site_label
 _atom_site_symmetry_multiplicity
 _atom_site_fract_x
 _atom_site_fract_y
 _atom_site_fract_z
 _atom_site_occupancy
  Li  Li0  1  0.250000  0.441195  0.512197  1
  Li  Li1  1  0.250000  0.058805  0.012197  1
  Li  Li2  1  0.750000  0.558805  0.487803  1
  Li  Li3  1  0.750000  0.941195  0.987803  1
  Sn  Sn4  1  0.250000  0.717222  0.472519  1
  Sn  Sn5  1  0.250000  0.782778  0.972519  1
  Sn  Sn6  1  0.750000  0.217222  0.027481  1
  Sn  Sn7  1  0.750000  0.282778  0.527481  1
  P  P8  1  0.062724  0.348034  0.261367  1
  P  P9  1  0.062724  0.151966  0.761367  1
  P  P10  1  0.250000  0.971608  0.704562  1
  P  P11  1  0.250000  0.528392  0.204562  1
  P  P12  1  0.437276  0.151966  0.761367  1
  P  P13  1  0.437276  0.348034  0.261367  1
  P  P14  1  0.562724  0.651966  0.738633  1
  P  P15  1  0.562724  0.848034  0.238633  1
  P  P16  1  0.750000  0.028392  0.295438  1
  P  P17  1  0.750000  0.471608  0.795438  1
  P  P18  1  0.937276  0.651966  0.738633  1
  P  P19  1  0.937276  0.848034  0.238633  1
  O  O20  1  0.976011  0.759231  0.334298  1
  O  O21  1  0.976011  0.740769  0.834298  1
  O  O22  1  0.051561  0.878134  0.116225  1
  O  O23  1  0.051561  0.621866  0.616225  1
  O  O24  1  0.093571  0.047840  0.666712  1
  O  O25  1  0.093571  0.452160  0.166712  1
  O  O26  1  0.250000  0.333216  0.337591  1
  O  O27  1  0.250000  0.619205  0.109207  1
  O  O28  1  0.250000  0.880795  0.609207  1
  O  O29  1  0.250000  0.953935  0.866288  1
  O  O30  1  0.250000  0.166784  0.837591  1
  O  O31  1  0.250000  0.546065  0.366288  1
  O  O32  1  0.406429  0.047840  0.666712  1
  O  O33  1  0.406429  0.452160  0.166712  1
  O  O34  1  0.448439  0.878134  0.116225  1
  O  O35  1  0.448439  0.621866  0.616225  1
  O  O36  1  0.523989  0.759231  0.334298  1
  O  O37  1  0.523989  0.740769  0.834298  1
  O  O38  1  0.476011  0.259231  0.165702  1
  O  O39  1  0.476011  0.240769  0.665702  1
  O  O40  1  0.551561  0.378134  0.383775  1
  O  O41  1  0.551561  0.121866  0.883775  1
  O  O42  1  0.593571  0.547840  0.833288  1
  O  O43  1  0.593571  0.952160  0.333288  1
  O  O44  1  0.750000  0.046065  0.133712  1
  O  O45  1  0.750000  0.119205  0.390793  1
  O  O46  1  0.750000  0.453935  0.633712  1
  O  O47  1  0.750000  0.380795  0.890793  1
  O  O48  1  0.750000  0.666784  0.662409  1
  O  O49  1  0.750000  0.833216  0.162409  1
  O  O50  1  0.906429  0.547840  0.833288  1
  O  O51  1  0.906429  0.952160  0.333288  1
  O  O52  1  0.948439  0.378134  0.383775  1
  O  O53  1  0.948439  0.121866  0.883775  1
  O  O54  1  0.023989  0.240769  0.665702  1
  O  O55  1  0.023989  0.259231  0.165702  1
