# generated using pymatgen
data_Li4Nb2Fe3Sn3O16
_symmetry_space_group_name_H-M   'P 1'
_cell_length_a   6.23098300
_cell_length_b   6.19353987
_cell_length_c   9.97154271
_cell_angle_alpha   90.07100989
_cell_angle_beta   90.05776695
_cell_angle_gamma   119.89274696
_symmetry_Int_Tables_number   1
_chemical_formula_structural   Li4Nb2Fe3Sn3O16
_chemical_formula_sum   'Li4 Nb2 Fe3 Sn3 O16'
_cell_volume   333.62281572
_cell_formula_units_Z   1
loop_
 _symmetry_equiv_pos_site_id
 _symmetry_equiv_pos_as_xyz
  1  'x, y, z'
loop_
 _atom_site_type_symbol
 _atom_site_label
 _atom_site_symmetry_multiplicity
 _atom_site_fract_x
 _atom_site_fract_y
 _atom_site_fract_z
 _atom_site_occupancy
  Li  Li0  1  0.345072  0.672550  0.901880  1
  Li  Li1  1  0.986986  0.993194  0.984908  1
  Li  Li2  1  0.990649  0.995518  0.496846  1
  Li  Li3  1  0.659434  0.329428  0.405104  1
  Nb  Nb4  1  0.352202  0.676300  0.496960  1
  Nb  Nb5  1  0.704105  0.352147  0.977306  1
  Fe  Fe6  1  0.657266  0.828383  0.212075  1
  Fe  Fe7  1  0.833232  0.660799  0.713494  1
  Fe  Fe8  1  0.833101  0.172377  0.713515  1
  Sn  Sn9  1  0.169169  0.832032  0.214987  1
  Sn  Sn10  1  0.169203  0.337227  0.214739  1
  Sn  Sn11  1  0.342905  0.171502  0.714910  1
  O  O12  1  0.182690  0.839727  0.587441  1
  O  O13  1  0.026603  0.513274  0.339145  1
  O  O14  1  0.326535  0.663631  0.102487  1
  O  O15  1  0.993674  0.996763  0.311595  1
  O  O16  1  0.001172  0.000958  0.799574  1
  O  O17  1  0.182979  0.343329  0.587542  1
  O  O18  1  0.466620  0.955609  0.348022  1
  O  O19  1  0.467374  0.511592  0.347748  1
  O  O20  1  0.316683  0.158220  0.097412  1
  O  O21  1  0.657846  0.828847  0.583498  1
  O  O22  1  0.511661  0.470947  0.853797  1
  O  O23  1  0.511216  0.040432  0.853599  1
  O  O24  1  0.667716  0.333525  0.609911  1
  O  O25  1  0.834774  0.660808  0.090692  1
  O  O26  1  0.974971  0.487771  0.858377  1
  O  O27  1  0.834162  0.173409  0.090278  1
