# generated using pymatgen
data_TiV4FeO12
_symmetry_space_group_name_H-M   'P 1'
_cell_length_a   6.87941667
_cell_length_b   6.87941667
_cell_length_c   5.73963856
_cell_angle_alpha   75.32724820
_cell_angle_beta   104.67274475
_cell_angle_gamma   95.46666625
_symmetry_Int_Tables_number   1
_chemical_formula_structural   TiV4FeO12
_chemical_formula_sum   'Ti1 V4 Fe1 O12'
_cell_volume   254.06767851
_cell_formula_units_Z   1
loop_
 _symmetry_equiv_pos_site_id
 _symmetry_equiv_pos_as_xyz
  1  'x, y, z'
loop_
 _atom_site_type_symbol
 _atom_site_label
 _atom_site_symmetry_multiplicity
 _atom_site_fract_x
 _atom_site_fract_y
 _atom_site_fract_z
 _atom_site_occupancy
  Ti  Ti0  1  0.905890  0.905890  0.250000  1
  V  V1  1  0.205802  0.612190  0.749081  1
  V  V2  1  0.388439  0.809264  0.249927  1
  V  V3  1  0.612190  0.205802  0.750919  1
  V  V4  1  0.809264  0.388439  0.250073  1
  Fe  Fe5  1  0.086935  0.086935  0.750000  1
  O  O6  1  0.035112  0.812149  0.617835  1
  O  O7  1  0.085990  0.383986  0.764405  1
  O  O8  1  0.175145  0.963289  0.134541  1
  O  O9  1  0.374116  0.644283  0.555321  1
  O  O10  1  0.383986  0.085990  0.735595  1
  O  O11  1  0.336542  0.631272  0.047807  1
  O  O12  1  0.644283  0.374116  0.944679  1
  O  O13  1  0.642199  0.907396  0.278955  1
  O  O14  1  0.631272  0.336542  0.452193  1
  O  O15  1  0.812149  0.035112  0.882165  1
  O  O16  1  0.907396  0.642199  0.221045  1
  O  O17  1  0.963289  0.175145  0.365459  1
