# generated using pymatgen
data_LiSb(PO3)4
_symmetry_space_group_name_H-M   'P 1'
_cell_length_a   7.48510627
_cell_length_b   9.02324609
_cell_length_c   9.31734656
_cell_angle_alpha   115.73821480
_cell_angle_beta   113.68298941
_cell_angle_gamma   65.49529348
_symmetry_Int_Tables_number   1
_chemical_formula_structural   LiSb(PO3)4
_chemical_formula_sum   'Li2 Sb2 P8 O24'
_cell_volume   496.59951528
_cell_formula_units_Z   2
loop_
 _symmetry_equiv_pos_site_id
 _symmetry_equiv_pos_as_xyz
  1  'x, y, z'
loop_
 _atom_site_type_symbol
 _atom_site_label
 _atom_site_symmetry_multiplicity
 _atom_site_fract_x
 _atom_site_fract_y
 _atom_site_fract_z
 _atom_site_occupancy
  Li  Li0  1  0.000000  0.500000  0.500000  1
  Li  Li1  1  0.000000  0.000000  0.000000  1
  Sb  Sb2  1  0.724159  0.750000  0.750000  1
  Sb  Sb3  1  0.275841  0.250000  0.250000  1
  P  P4  1  0.684757  0.884263  0.160849  1
  P  P5  1  0.318315  0.792498  0.097610  1
  P  P6  1  0.013203  0.707502  0.402390  1
  P  P7  1  0.408172  0.615737  0.339151  1
  P  P8  1  0.591828  0.384263  0.660849  1
  P  P9  1  0.986797  0.292498  0.597610  1
  P  P10  1  0.681685  0.207502  0.902390  1
  P  P11  1  0.315243  0.115737  0.839151  1
  O  O12  1  0.250315  0.970713  0.216685  1
  O  O13  1  0.802763  0.826771  0.037715  1
  O  O14  1  0.833516  0.856706  0.332256  1
  O  O15  1  0.547037  0.758745  0.091678  1
  O  O16  1  0.436686  0.926700  0.791422  1
  O  O17  1  0.214104  0.741255  0.408322  1
  O  O18  1  0.357965  0.643294  0.167744  1
  O  O19  1  0.008480  0.740628  0.572125  1
  O  O20  1  0.591819  0.673229  0.462285  1
  O  O21  1  0.176983  0.759372  0.927875  1
  O  O22  1  0.004343  0.529287  0.283315  1
  O  O23  1  0.571964  0.573300  0.708578  1
  O  O24  1  0.428036  0.426700  0.291422  1
  O  O25  1  0.995657  0.470713  0.716685  1
  O  O26  1  0.823017  0.240628  0.072125  1
  O  O27  1  0.408181  0.326771  0.537715  1
  O  O28  1  0.991520  0.259372  0.427875  1
  O  O29  1  0.642035  0.356706  0.832256  1
  O  O30  1  0.785896  0.258745  0.591678  1
  O  O31  1  0.563314  0.073300  0.208578  1
  O  O32  1  0.452963  0.241255  0.908322  1
  O  O33  1  0.166484  0.143294  0.667744  1
  O  O34  1  0.197237  0.173229  0.962285  1
  O  O35  1  0.749685  0.029287  0.783315  1
