# generated using pymatgen
data_Li3Mn4F19
_symmetry_space_group_name_H-M   'P 1'
_cell_length_a   5.58639036
_cell_length_b   12.11592638
_cell_length_c   12.13165115
_cell_angle_alpha   113.88628595
_cell_angle_beta   87.28596926
_cell_angle_gamma   113.61953533
_symmetry_Int_Tables_number   1
_chemical_formula_structural   Li3Mn4F19
_chemical_formula_sum   'Li6 Mn8 F38'
_cell_volume   681.39791376
_cell_formula_units_Z   2
loop_
 _symmetry_equiv_pos_site_id
 _symmetry_equiv_pos_as_xyz
  1  'x, y, z'
loop_
 _atom_site_type_symbol
 _atom_site_label
 _atom_site_symmetry_multiplicity
 _atom_site_fract_x
 _atom_site_fract_y
 _atom_site_fract_z
 _atom_site_occupancy
  Li  Li0  1  0.467107  0.862546  0.918327  1
  Li  Li1  1  0.196967  0.240427  0.459640  1
  Li  Li2  1  0.402888  0.536562  0.224592  1
  Li  Li3  1  0.597112  0.463438  0.775408  1
  Li  Li4  1  0.803033  0.759573  0.540360  1
  Li  Li5  1  0.532893  0.137454  0.081673  1
  Mn  Mn6  1  0.084793  0.985781  0.794910  1
  Mn  Mn7  1  0.187074  0.567967  0.621185  1
  Mn  Mn8  1  0.111867  0.328999  0.973506  1
  Mn  Mn9  1  0.386494  0.867606  0.376266  1
  Mn  Mn10  1  0.613506  0.132394  0.623734  1
  Mn  Mn11  1  0.888133  0.671001  0.026494  1
  Mn  Mn12  1  0.812926  0.432033  0.378815  1
  Mn  Mn13  1  0.915207  0.014219  0.205090  1
  F  F14  1  0.112351  0.799016  0.447592  1
  F  F15  1  0.136029  0.021318  0.311583  1
  F  F16  1  0.334332  0.995869  0.899999  1
  F  F17  1  0.175037  0.779152  0.232375  1
  F  F18  1  0.206806  0.759209  0.993228  1
  F  F19  1  0.307270  0.722638  0.754062  1
  F  F20  1  0.119466  0.486309  0.075853  1
  F  F21  1  0.048100  0.404360  0.472748  1
  F  F22  1  0.988044  0.183371  0.305055  1
  F  F23  1  0.098891  0.499085  0.311322  1
  F  F24  1  0.165391  0.170512  0.882398  1
  F  F25  1  0.455243  0.643065  0.546494  1
  F  F26  1  0.366253  0.500518  0.674874  1
  F  F27  1  0.331810  0.403508  0.885954  1
  F  F28  1  0.500969  0.739120  0.336473  1
  F  F29  1  0.638880  0.964703  0.303012  1
  F  F30  1  0.172265  0.062537  0.118402  1
  F  F31  1  0.309261  0.342925  0.093545  1
  F  F32  1  0.632101  0.956637  0.522364  1
  F  F33  1  0.367899  0.043363  0.477636  1
  F  F34  1  0.690739  0.657075  0.906455  1
  F  F35  1  0.827735  0.937463  0.881598  1
  F  F36  1  0.361120  0.035297  0.696988  1
  F  F37  1  0.499031  0.260880  0.663527  1
  F  F38  1  0.668190  0.596492  0.114046  1
  F  F39  1  0.633747  0.499482  0.325126  1
  F  F40  1  0.544757  0.356935  0.453506  1
  F  F41  1  0.834609  0.829488  0.117602  1
  F  F42  1  0.901109  0.500915  0.688678  1
  F  F43  1  0.011956  0.816629  0.694945  1
  F  F44  1  0.951900  0.595640  0.527252  1
  F  F45  1  0.880534  0.513691  0.924147  1
  F  F46  1  0.692730  0.277362  0.245938  1
  F  F47  1  0.793194  0.240791  0.006772  1
  F  F48  1  0.824963  0.220848  0.767625  1
  F  F49  1  0.665668  0.004131  0.100001  1
  F  F50  1  0.863971  0.978682  0.688417  1
  F  F51  1  0.887649  0.200985  0.552408  1
