# generated using pymatgen
data_Li3VCrP2(HO5)2
_symmetry_space_group_name_H-M   'P 1'
_cell_length_a   5.22824342
_cell_length_b   5.57622176
_cell_length_c   7.56144685
_cell_angle_alpha   108.83346223
_cell_angle_beta   109.69480763
_cell_angle_gamma   94.91723830
_symmetry_Int_Tables_number   1
_chemical_formula_structural   Li3VCrP2(HO5)2
_chemical_formula_sum   'Li3 V1 Cr1 P2 H2 O10'
_cell_volume   191.70048538
_cell_formula_units_Z   1
loop_
 _symmetry_equiv_pos_site_id
 _symmetry_equiv_pos_as_xyz
  1  'x, y, z'
loop_
 _atom_site_type_symbol
 _atom_site_label
 _atom_site_symmetry_multiplicity
 _atom_site_fract_x
 _atom_site_fract_y
 _atom_site_fract_z
 _atom_site_occupancy
  Li  Li0  1  0.765111  0.396317  0.828434  1
  Li  Li1  1  0.225406  0.592249  0.260543  1
  Li  Li2  1  0.519856  0.850657  0.156326  1
  V  V3  1  0.010561  0.003902  0.507179  1
  Cr  Cr4  1  0.997170  0.999801  0.991530  1
  P  P5  1  0.656715  0.361877  0.222443  1
  P  P6  1  0.337699  0.633236  0.755268  1
  H  H7  1  0.335116  0.089080  0.348030  1
  H  H8  1  0.646666  0.938157  0.663159  1
  O  O9  1  0.836542  0.048965  0.730011  1
  O  O10  1  0.719850  0.212021  0.366026  1
  O  O11  1  0.337984  0.345225  0.666205  1
  O  O12  1  0.350963  0.247875  0.066942  1
  O  O13  1  0.865156  0.334060  0.111967  1
  O  O14  1  0.135944  0.675878  0.871826  1
  O  O15  1  0.639583  0.760185  0.928398  1
  O  O16  1  0.669062  0.654027  0.324449  1
  O  O17  1  0.283631  0.760676  0.597753  1
  O  O18  1  0.171070  0.944888  0.261642  1
