# generated using pymatgen
data_Li3Bi(PO4)2
_symmetry_space_group_name_H-M   'P 1'
_cell_length_a   4.75549705
_cell_length_b   5.20425905
_cell_length_c   15.14421388
_cell_angle_alpha   83.44138214
_cell_angle_beta   90.00000000
_cell_angle_gamma   62.81370812
_symmetry_Int_Tables_number   1
_chemical_formula_structural   Li3Bi(PO4)2
_chemical_formula_sum   'Li6 Bi2 P4 O16'
_cell_volume   330.63583505
_cell_formula_units_Z   2
loop_
 _symmetry_equiv_pos_site_id
 _symmetry_equiv_pos_as_xyz
  1  'x, y, z'
loop_
 _atom_site_type_symbol
 _atom_site_label
 _atom_site_symmetry_multiplicity
 _atom_site_fract_x
 _atom_site_fract_y
 _atom_site_fract_z
 _atom_site_occupancy
  Li  Li0  1  0.646288  0.647581  0.679674  1
  Li  Li1  1  0.706132  0.647581  0.179674  1
  Li  Li2  1  0.293868  0.352419  0.820326  1
  Li  Li3  1  0.353712  0.352419  0.320326  1
  Li  Li4  1  0.950847  0.000000  0.750000  1
  Li  Li5  1  0.049153  0.000000  0.250000  1
  Bi  Bi6  1  0.000000  0.000000  0.500000  1
  Bi  Bi7  1  0.000000  0.000000  0.000000  1
  P  P8  1  0.623846  0.687739  0.874043  1
  P  P9  1  0.688415  0.687739  0.374043  1
  P  P10  1  0.311585  0.312261  0.625957  1
  P  P11  1  0.376154  0.312261  0.125957  1
  O  O12  1  0.273927  0.938557  0.852324  1
  O  O13  1  0.787515  0.938557  0.352324  1
  O  O14  1  0.746708  0.746557  0.959263  1
  O  O15  1  0.506735  0.746557  0.459263  1
  O  O16  1  0.834705  0.676445  0.794829  1
  O  O17  1  0.005315  0.610628  0.607212  1
  O  O18  1  0.488850  0.676445  0.294829  1
  O  O19  1  0.384057  0.610628  0.107212  1
  O  O20  1  0.615943  0.389372  0.892788  1
  O  O21  1  0.511150  0.323555  0.705171  1
  O  O22  1  0.994685  0.389372  0.392788  1
  O  O23  1  0.165295  0.323555  0.205171  1
  O  O24  1  0.493265  0.253443  0.540737  1
  O  O25  1  0.253292  0.253443  0.040737  1
  O  O26  1  0.212485  0.061443  0.647676  1
  O  O27  1  0.726073  0.061443  0.147676  1
