# generated using pymatgen
data_V25O32
_symmetry_space_group_name_H-M   'P 1'
_cell_length_a   8.67944036
_cell_length_b   9.61736460
_cell_length_c   9.61736480
_cell_angle_alpha   79.17064553
_cell_angle_beta   63.83038178
_cell_angle_gamma   63.83038650
_symmetry_Int_Tables_number   1
_chemical_formula_structural   V25O32
_chemical_formula_sum   'V25 O32'
_cell_volume   646.62240546
_cell_formula_units_Z   1
loop_
 _symmetry_equiv_pos_site_id
 _symmetry_equiv_pos_as_xyz
  1  'x, y, z'
loop_
 _atom_site_type_symbol
 _atom_site_label
 _atom_site_symmetry_multiplicity
 _atom_site_fract_x
 _atom_site_fract_y
 _atom_site_fract_z
 _atom_site_occupancy
  V  V0  1  0.000000  0.121580  0.378420  1
  V  V1  1  0.134636  0.365713  0.379285  1
  V  V2  1  0.382913  0.117331  0.116704  1
  V  V3  1  0.125234  0.744520  0.253692  1
  V  V4  1  1.000000  0.869204  0.630796  1
  V  V5  1  0.252623  0.363082  0.608724  1
  V  V6  1  0.246130  0.118880  0.873521  1
  V  V7  1  0.500000  0.365859  0.134141  1
  V  V8  1  0.127335  0.875084  0.874373  1
  V  V9  1  0.382208  0.377584  0.870701  1
  V  V10  1  0.383077  0.617901  0.610689  1
  V  V11  1  0.358498  0.891489  0.376704  1
  V  V12  1  0.641502  0.123296  0.608511  1
  V  V13  1  0.617087  0.383296  0.382669  1
  V  V14  1  0.617792  0.629299  0.122416  1
  V  V15  1  0.865364  0.120715  0.134287  1
  V  V16  1  0.500000  0.891020  0.608980  1
  V  V17  1  0.500000  0.622369  0.877631  1
  V  V18  1  0.753870  0.626479  0.381120  1
  V  V19  1  0.747377  0.891276  0.136918  1
  V  V20  1  1.000000  0.379686  0.120315  1
  V  V21  1  0.874766  0.246308  0.755480  1
  V  V22  1  0.616923  0.889311  0.882099  1
  V  V23  1  0.872665  0.625627  0.624916  1
  V  V24  1  0.000000  0.615621  0.884379  1
  O  O25  1  0.119798  0.135304  0.119580  1
  O  O26  1  0.005154  0.377899  0.622638  1
  O  O27  1  0.007000  0.121009  0.885954  1
  O  O28  1  0.267964  0.353336  0.119968  1
  O  O29  1  0.250592  0.120449  0.349738  1
  O  O30  1  0.119372  0.612496  0.640986  1
  O  O31  1  0.157217  0.361298  0.863491  1
  O  O32  1  0.129234  0.875364  0.382034  1
  O  O33  1  0.377699  0.377367  0.367135  1
  O  O34  1  0.396805  0.120460  0.632805  1
  O  O35  1  0.391209  0.610351  0.124221  1
  O  O36  1  0.622301  0.132865  0.122633  1
  O  O37  1  0.268604  0.614614  0.853798  1
  O  O38  1  0.263194  0.860118  0.618511  1
  O  O39  1  0.484012  0.370943  0.621986  1
  O  O40  1  0.483143  0.135332  0.869006  1
  O  O41  1  0.515988  0.878014  0.129057  1
  O  O42  1  0.516857  0.630994  0.364668  1
  O  O43  1  0.749408  0.150262  0.379551  1
  O  O44  1  0.732036  0.380032  0.146664  1
  O  O45  1  0.386387  0.879969  0.849488  1
  O  O46  1  0.608791  0.375779  0.889649  1
  O  O47  1  0.603195  0.867195  0.379540  1
  O  O48  1  0.613613  0.650512  0.620031  1
  O  O49  1  0.870766  0.117966  0.624636  1
  O  O50  1  0.842783  0.636509  0.138702  1
  O  O51  1  0.880202  0.380420  0.364696  1
  O  O52  1  0.736806  0.881489  0.639882  1
  O  O53  1  0.731396  0.646202  0.885386  1
  O  O54  1  0.993000  0.614046  0.378991  1
  O  O55  1  0.994846  0.877362  0.122101  1
  O  O56  1  0.880628  0.859014  0.887504  1
