# generated using pymatgen
data_Fe3O5F
_symmetry_space_group_name_H-M   'P 1'
_cell_length_a   4.63895523
_cell_length_b   7.59296164
_cell_length_c   5.53528087
_cell_angle_alpha   94.56376976
_cell_angle_beta   90.00000000
_cell_angle_gamma   90.00000000
_symmetry_Int_Tables_number   1
_chemical_formula_structural   Fe3O5F
_chemical_formula_sum   'Fe6 O10 F2'
_cell_volume   194.35328471
_cell_formula_units_Z   2
loop_
 _symmetry_equiv_pos_site_id
 _symmetry_equiv_pos_as_xyz
  1  'x, y, z'
loop_
 _atom_site_type_symbol
 _atom_site_label
 _atom_site_symmetry_multiplicity
 _atom_site_fract_x
 _atom_site_fract_y
 _atom_site_fract_z
 _atom_site_occupancy
  Fe  Fe0  1  0.520345  0.670021  0.158659  1
  Fe  Fe1  1  0.490230  0.996626  0.491427  1
  Fe  Fe2  1  0.486973  0.343679  0.830836  1
  Fe  Fe3  1  0.990230  0.670041  0.675240  1
  Fe  Fe4  1  0.986973  0.322987  0.335831  1
  Fe  Fe5  1  0.020345  0.996645  0.008008  1
  O  O6  1  0.808406  0.436439  0.627917  1
  O  O7  1  0.809260  0.782111  0.963890  1
  O  O8  1  0.803670  0.092849  0.292188  1
  O  O9  1  0.691607  0.764372  0.462002  1
  O  O10  1  0.691898  0.440473  0.127418  1
  O  O11  1  0.303670  0.573818  0.874479  1
  O  O12  1  0.308406  0.230227  0.538750  1
  O  O13  1  0.309260  0.884555  0.202777  1
  O  O14  1  0.191898  0.226194  0.039249  1
  O  O15  1  0.191607  0.902295  0.704664  1
  F  F16  1  0.697610  0.103829  0.798082  1
  F  F17  1  0.197610  0.562837  0.368584  1
