# generated using pymatgen
data_LiV2OF5
_symmetry_space_group_name_H-M   'P 1'
_cell_length_a   5.31162992
_cell_length_b   5.52642574
_cell_length_c   17.15506670
_cell_angle_alpha   87.45600972
_cell_angle_beta   98.21777685
_cell_angle_gamma   118.74997836
_symmetry_Int_Tables_number   1
_chemical_formula_structural   LiV2OF5
_chemical_formula_sum   'Li4 V8 O4 F20'
_cell_volume   436.79255487
_cell_formula_units_Z   4
loop_
 _symmetry_equiv_pos_site_id
 _symmetry_equiv_pos_as_xyz
  1  'x, y, z'
loop_
 _atom_site_type_symbol
 _atom_site_label
 _atom_site_symmetry_multiplicity
 _atom_site_fract_x
 _atom_site_fract_y
 _atom_site_fract_z
 _atom_site_occupancy
  Li  Li0  1  0.689218  0.889564  0.437377  1
  Li  Li1  1  0.591953  0.221718  0.927593  1
  Li  Li2  1  0.320814  0.603380  0.064439  1
  Li  Li3  1  0.083362  0.442930  0.673035  1
  V  V4  1  0.744979  0.393247  0.131815  1
  V  V5  1  0.507408  0.734288  0.245412  1
  V  V6  1  0.239578  0.100877  0.375025  1
  V  V7  1  0.503020  0.267387  0.746304  1
  V  V8  1  0.735880  0.849901  0.628441  1
  V  V9  1  0.001640  0.022204  0.998141  1
  V  V10  1  0.002048  0.516709  0.494558  1
  V  V11  1  0.232915  0.608857  0.877029  1
  O  O12  1  0.564210  0.590485  0.155655  1
  O  O13  1  0.507177  0.556651  0.687266  1
  O  O14  1  0.011796  0.807589  0.436626  1
  O  O15  1  0.012529  0.314074  0.936417  1
  F  F16  1  0.961513  0.200348  0.089201  1
  F  F17  1  0.006238  0.699074  0.060591  1
  F  F18  1  0.974581  0.198361  0.569399  1
  F  F19  1  0.507873  0.047876  0.179334  1
  F  F20  1  0.959480  0.654640  0.597498  1
  F  F21  1  0.956534  0.472793  0.775341  1
  F  F22  1  0.447558  0.238552  0.024899  1
  F  F23  1  0.933416  0.965468  0.282982  1
  F  F24  1  0.565622  0.273027  0.464121  1
  F  F25  1  0.560771  0.079488  0.662747  1
  F  F26  1  0.483524  0.430409  0.316918  1
  F  F27  1  0.459104  0.419095  0.847557  1
  F  F28  1  0.464428  0.721736  0.526687  1
  F  F29  1  0.450863  0.898691  0.343366  1
  F  F30  1  0.031044  0.293432  0.414949  1
  F  F31  1  0.547647  0.797449  0.973762  1
  F  F32  1  0.060096  0.060678  0.714962  1
  F  F33  1  0.076919  0.537417  0.219426  1
  F  F34  1  0.484260  0.962218  0.822709  1
  F  F35  1  0.066170  0.840701  0.909764  1
