# generated using pymatgen
data_Li3Co5OF11
_symmetry_space_group_name_H-M   'P 1'
_cell_length_a   5.23416560
_cell_length_b   5.62296594
_cell_length_c   9.25053384
_cell_angle_alpha   85.83162292
_cell_angle_beta   73.91072498
_cell_angle_gamma   118.28712495
_symmetry_Int_Tables_number   1
_chemical_formula_structural   Li3Co5OF11
_chemical_formula_sum   'Li3 Co5 O1 F11'
_cell_volume   223.55771132
_cell_formula_units_Z   1
loop_
 _symmetry_equiv_pos_site_id
 _symmetry_equiv_pos_as_xyz
  1  'x, y, z'
loop_
 _atom_site_type_symbol
 _atom_site_label
 _atom_site_symmetry_multiplicity
 _atom_site_fract_x
 _atom_site_fract_y
 _atom_site_fract_z
 _atom_site_occupancy
  Li  Li0  1  0.154209  0.364030  0.058346  1
  Li  Li1  1  0.145089  0.867035  0.577004  1
  Li  Li2  1  0.861839  0.649932  0.927119  1
  Co  Co3  1  0.352338  0.873513  0.173757  1
  Co  Co4  1  0.334780  0.366196  0.665000  1
  Co  Co5  1  0.622700  0.600117  0.331185  1
  Co  Co6  1  0.652946  0.134632  0.827962  1
  Co  Co7  1  0.883049  0.139195  0.426542  1
  O  O8  1  0.253067  0.281473  0.475685  1
  F  F9  1  0.046929  0.018457  0.220983  1
  F  F10  1  0.049620  0.529675  0.728592  1
  F  F11  1  0.459869  0.889369  0.371050  1
  F  F12  1  0.551068  0.626512  0.123455  1
  F  F13  1  0.253278  0.788034  0.973267  1
  F  F14  1  0.744098  0.220831  0.032523  1
  F  F15  1  0.760636  0.718938  0.529329  1
  F  F16  1  0.431734  0.362451  0.866479  1
  F  F17  1  0.563682  0.117685  0.625227  1
  F  F18  1  0.950281  0.481134  0.278351  1
  F  F19  1  0.928788  0.970789  0.788145  1
