# generated using pymatgen
data_Co4OF11
_symmetry_space_group_name_H-M   'P 1'
_cell_length_a   7.37696750
_cell_length_b   5.07630559
_cell_length_c   5.29069980
_cell_angle_alpha   88.85020941
_cell_angle_beta   86.05539702
_cell_angle_gamma   90.31527516
_symmetry_Int_Tables_number   1
_chemical_formula_structural   Co4OF11
_chemical_formula_sum   'Co4 O1 F11'
_cell_volume   197.61090281
_cell_formula_units_Z   1
loop_
 _symmetry_equiv_pos_site_id
 _symmetry_equiv_pos_as_xyz
  1  'x, y, z'
loop_
 _atom_site_type_symbol
 _atom_site_label
 _atom_site_symmetry_multiplicity
 _atom_site_fract_x
 _atom_site_fract_y
 _atom_site_fract_z
 _atom_site_occupancy
  Co  Co0  1  0.001987  0.488896  0.503408  1
  Co  Co1  1  0.004889  0.005643  0.984548  1
  Co  Co2  1  0.501438  0.499664  0.499311  1
  Co  Co3  1  0.501648  0.000111  0.999800  1
  O  O4  1  0.042013  0.218764  0.702747  1
  F  F5  1  0.058858  0.306946  0.193448  1
  F  F6  1  0.252477  0.885782  0.995939  1
  F  F7  1  0.440808  0.314321  0.804416  1
  F  F8  1  0.248611  0.614880  0.500184  1
  F  F9  1  0.442760  0.188534  0.305872  1
  F  F10  1  0.556995  0.810952  0.693746  1
  F  F11  1  0.751430  0.379851  0.500856  1
  F  F12  1  0.556970  0.683448  0.194262  1
  F  F13  1  0.747022  0.111810  0.006391  1
  F  F14  1  0.942645  0.694799  0.805247  1
  F  F15  1  0.949450  0.795598  0.309825  1
