# generated using pymatgen
data_LiMnF3
_symmetry_space_group_name_H-M   'P 1'
_cell_length_a   8.85939983
_cell_length_b   8.85939983
_cell_length_c   6.25491194
_cell_angle_alpha   90.00000000
_cell_angle_beta   90.00000000
_cell_angle_gamma   90.00000000
_symmetry_Int_Tables_number   1
_chemical_formula_structural   LiMnF3
_chemical_formula_sum   'Li8 Mn8 F24'
_cell_volume   490.94156651
_cell_formula_units_Z   8
loop_
 _symmetry_equiv_pos_site_id
 _symmetry_equiv_pos_as_xyz
  1  'x, y, z'
loop_
 _atom_site_type_symbol
 _atom_site_label
 _atom_site_symmetry_multiplicity
 _atom_site_fract_x
 _atom_site_fract_y
 _atom_site_fract_z
 _atom_site_occupancy
  Li  Li0  1  0.099283  0.198343  0.411336  1
  Li  Li1  1  0.301657  0.099283  0.088664  1
  Li  Li2  1  0.198343  0.400717  0.088664  1
  Li  Li3  1  0.400717  0.301657  0.411336  1
  Li  Li4  1  0.599283  0.698343  0.588664  1
  Li  Li5  1  0.801657  0.599283  0.911336  1
  Li  Li6  1  0.698343  0.900717  0.911336  1
  Li  Li7  1  0.900717  0.801657  0.588664  1
  Mn  Mn8  1  0.057096  0.772787  0.147106  1
  Mn  Mn9  1  0.227213  0.557096  0.647106  1
  Mn  Mn10  1  0.272787  0.942904  0.647106  1
  Mn  Mn11  1  0.442904  0.727213  0.147106  1
  Mn  Mn12  1  0.557096  0.272787  0.852894  1
  Mn  Mn13  1  0.727213  0.057096  0.352894  1
  Mn  Mn14  1  0.772787  0.442904  0.352894  1
  Mn  Mn15  1  0.942904  0.227213  0.852894  1
  F  F16  1  0.077584  0.072241  0.687102  1
  F  F17  1  0.095480  0.199940  0.103840  1
  F  F18  1  0.108974  0.748386  0.523365  1
  F  F19  1  0.072241  0.422416  0.812898  1
  F  F20  1  0.248386  0.891026  0.023365  1
  F  F21  1  0.199940  0.404520  0.396160  1
  F  F22  1  0.300060  0.095480  0.396160  1
  F  F23  1  0.251614  0.608974  0.023365  1
  F  F24  1  0.427759  0.077584  0.812898  1
  F  F25  1  0.391026  0.751614  0.523365  1
  F  F26  1  0.404520  0.300060  0.103840  1
  F  F27  1  0.422416  0.427759  0.687102  1
  F  F28  1  0.577584  0.572241  0.312898  1
  F  F29  1  0.595480  0.699940  0.896160  1
  F  F30  1  0.608974  0.248386  0.476635  1
  F  F31  1  0.572241  0.922416  0.187102  1
  F  F32  1  0.748386  0.391026  0.976635  1
  F  F33  1  0.699940  0.904520  0.603840  1
  F  F34  1  0.800060  0.595480  0.603840  1
  F  F35  1  0.751614  0.108974  0.976635  1
  F  F36  1  0.927759  0.577584  0.187102  1
  F  F37  1  0.891026  0.251614  0.476635  1
  F  F38  1  0.904520  0.800060  0.896160  1
  F  F39  1  0.922416  0.927759  0.312898  1
