# generated using pymatgen
data_V2PH10C2N2O8F
_symmetry_space_group_name_H-M   'P 1'
_cell_length_a   8.40997365
_cell_length_b   9.28677472
_cell_length_c   12.61299842
_cell_angle_alpha   90.00000000
_cell_angle_beta   90.00000000
_cell_angle_gamma   90.00000000
_symmetry_Int_Tables_number   1
_chemical_formula_structural   V2PH10C2N2O8F
_chemical_formula_sum   'V8 P4 H40 C8 N8 O32 F4'
_cell_volume   985.09448318
_cell_formula_units_Z   4
loop_
 _symmetry_equiv_pos_site_id
 _symmetry_equiv_pos_as_xyz
  1  'x, y, z'
loop_
 _atom_site_type_symbol
 _atom_site_label
 _atom_site_symmetry_multiplicity
 _atom_site_fract_x
 _atom_site_fract_y
 _atom_site_fract_z
 _atom_site_occupancy
  V  V0  1  0.254836  0.567053  0.105544  1
  V  V1  1  0.245164  0.432947  0.605544  1
  V  V2  1  0.754836  0.932947  0.894456  1
  V  V3  1  0.745164  0.067053  0.394456  1
  V  V4  1  0.522796  0.293160  0.003828  1
  V  V5  1  0.977204  0.706840  0.503828  1
  V  V6  1  0.022796  0.206840  0.996172  1
  V  V7  1  0.477204  0.793160  0.496172  1
  P  P8  1  0.258584  0.567296  0.364463  1
  P  P9  1  0.241416  0.432704  0.864463  1
  P  P10  1  0.758584  0.932704  0.635537  1
  P  P11  1  0.741416  0.067296  0.135537  1
  H  H12  1  0.388133  0.166412  0.677896  1
  H  H13  1  0.111867  0.833588  0.177896  1
  H  H14  1  0.888133  0.333588  0.322104  1
  H  H15  1  0.611867  0.666412  0.822104  1
  H  H16  1  0.456829  0.994547  0.693082  1
  H  H17  1  0.043171  0.005453  0.193082  1
  H  H18  1  0.956829  0.505453  0.306918  1
  H  H19  1  0.543171  0.494547  0.806918  1
  H  H20  1  0.430664  0.101510  0.798606  1
  H  H21  1  0.069336  0.898490  0.298606  1
  H  H22  1  0.930664  0.398490  0.201394  1
  H  H23  1  0.569336  0.601510  0.701394  1
  H  H24  1  0.226495  0.739115  0.912719  1
  H  H25  1  0.273505  0.260885  0.412719  1
  H  H26  1  0.726495  0.760885  0.087281  1
  H  H27  1  0.773505  0.239115  0.587281  1
  H  H28  1  0.194488  0.917900  0.935006  1
  H  H29  1  0.305512  0.082100  0.435006  1
  H  H30  1  0.694488  0.582100  0.064994  1
  H  H31  1  0.805512  0.417900  0.564994  1
  H  H32  1  0.377018  0.855542  0.899040  1
  H  H33  1  0.122982  0.144458  0.399040  1
  H  H34  1  0.877018  0.644458  0.100960  1
  H  H35  1  0.622982  0.355542  0.600960  1
  H  H36  1  0.292098  0.792167  0.727431  1
  H  H37  1  0.207902  0.207833  0.227431  1
  H  H38  1  0.792098  0.707833  0.272569  1
  H  H39  1  0.707902  0.292167  0.772569  1
  H  H40  1  0.091181  0.818165  0.762440  1
  H  H41  1  0.408819  0.181835  0.262440  1
  H  H42  1  0.591181  0.681835  0.237560  1
  H  H43  1  0.908819  0.318165  0.737560  1
  H  H44  1  0.149084  0.087456  0.788099  1
  H  H45  1  0.350916  0.912544  0.288098  1
  H  H46  1  0.649084  0.412544  0.211901  1
  H  H47  1  0.850916  0.587456  0.711901  1
  H  H48  1  0.161192  0.020449  0.657150  1
  H  H49  1  0.338808  0.979551  0.157150  1
  H  H50  1  0.661192  0.479551  0.342850  1
  H  H51  1  0.838808  0.520449  0.842850  1
  C  C52  1  0.211408  0.860520  0.773517  1
  C  C53  1  0.288592  0.139480  0.273517  1
  C  C54  1  0.711408  0.639480  0.226483  1
  C  C55  1  0.788592  0.360520  0.726483  1
  C  C56  1  0.216171  0.015395  0.735648  1
  C  C57  1  0.283829  0.984605  0.235648  1
  C  C58  1  0.716171  0.484605  0.264352  1
  C  C59  1  0.783829  0.515395  0.764352  1
  N  N60  1  0.382569  0.072316  0.725751  1
  N  N61  1  0.117431  0.927684  0.225751  1
  N  N62  1  0.882569  0.427684  0.274249  1
  N  N63  1  0.617431  0.572316  0.774249  1
  N  N64  1  0.254011  0.843676  0.887941  1
  N  N65  1  0.245989  0.156324  0.387941  1
  N  N66  1  0.754011  0.656324  0.112059  1
  N  N67  1  0.745989  0.343676  0.612059  1
  O  O68  1  0.232782  0.555989  0.946648  1
  O  O69  1  0.267218  0.444011  0.446648  1
  O  O70  1  0.732782  0.944011  0.053352  1
  O  O71  1  0.767218  0.055989  0.553352  1
  O  O72  1  0.100242  0.327029  0.880327  1
  O  O73  1  0.399758  0.672971  0.380327  1
  O  O74  1  0.600242  0.172971  0.119673  1
  O  O75  1  0.899758  0.827029  0.619673  1
  O  O76  1  0.232142  0.502426  0.753687  1
  O  O77  1  0.267858  0.497574  0.253687  1
  O  O78  1  0.732142  0.997574  0.246313  1
  O  O79  1  0.767858  0.002426  0.746313  1
  O  O80  1  0.403089  0.350862  0.872118  1
  O  O81  1  0.096911  0.649138  0.372118  1
  O  O82  1  0.903089  0.149138  0.127882  1
  O  O83  1  0.596911  0.850862  0.627882  1
  O  O84  1  0.912922  0.167653  0.378456  1
  O  O85  1  0.587078  0.832347  0.878456  1
  O  O86  1  0.412922  0.332347  0.621544  1
  O  O87  1  0.087078  0.667653  0.121544  1
  O  O88  1  0.603434  0.186625  0.393679  1
  O  O89  1  0.896566  0.813375  0.893679  1
  O  O90  1  0.103434  0.313375  0.606321  1
  O  O91  1  0.396566  0.686625  0.106321  1
  O  O92  1  0.883134  0.121371  0.921499  1
  O  O93  1  0.616866  0.878629  0.421499  1
  O  O94  1  0.383134  0.378629  0.078501  1
  O  O95  1  0.116866  0.621371  0.578501  1
  O  O96  1  0.173906  0.096271  0.010459  1
  O  O97  1  0.326094  0.903729  0.510459  1
  O  O98  1  0.673906  0.403729  0.989541  1
  O  O99  1  0.826094  0.596271  0.489541  1
  F  F100  1  0.548838  0.123433  0.917225  1
  F  F101  1  0.951162  0.876567  0.417225  1
  F  F102  1  0.048838  0.376567  0.082775  1
  F  F103  1  0.451162  0.623433  0.582775  1
