# generated using pymatgen
data_Cs(WO3)3
_symmetry_space_group_name_H-M   'P 1'
_cell_length_a   7.54327360
_cell_length_b   7.54621926
_cell_length_c   3.88745932
_cell_angle_alpha   90.00028183
_cell_angle_beta   89.99943611
_cell_angle_gamma   119.98708380
_symmetry_Int_Tables_number   1
_chemical_formula_structural   Cs(WO3)3
_chemical_formula_sum   'Cs1 W3 O9'
_cell_volume   191.66476403
_cell_formula_units_Z   1
loop_
 _symmetry_equiv_pos_site_id
 _symmetry_equiv_pos_as_xyz
  1  'x, y, z'
loop_
 _atom_site_type_symbol
 _atom_site_label
 _atom_site_symmetry_multiplicity
 _atom_site_fract_x
 _atom_site_fract_y
 _atom_site_fract_z
 _atom_site_occupancy
  Cs  Cs0  1  0.999319  0.000000  0.000122  1
  W  W1  1  0.998981  0.500225  0.499936  1
  W  W2  1  0.498756  0.499775  0.499936  1
  W  W3  1  0.499338  1.000000  0.499932  1
  O  O4  1  0.998806  0.500610  -0.000010  1
  O  O5  1  0.209839  0.788840  0.500017  1
  O  O6  1  0.209340  0.422099  0.500015  1
  O  O7  1  0.576693  0.788387  0.500018  1
  O  O8  1  0.498196  0.499390  -0.000010  1
  O  O9  1  0.420999  0.211160  0.500017  1
  O  O10  1  0.499372  0.000000  -0.000006  1
  O  O11  1  0.787240  0.577901  0.500015  1
  O  O12  1  0.788306  0.211613  0.500018  1
