# generated using pymatgen
data_MnAl2P2(HO)18
_symmetry_space_group_name_H-M   'P 1'
_cell_length_a   10.25515538
_cell_length_b   10.60728010
_cell_length_c   7.07345571
_cell_angle_alpha   90.14872810
_cell_angle_beta   69.99815637
_cell_angle_gamma   72.10489547
_symmetry_Int_Tables_number   1
_chemical_formula_structural   MnAl2P2(HO)18
_chemical_formula_sum   'Mn2 Al4 P4 H36 O36'
_cell_volume   683.04541328
_cell_formula_units_Z   2
loop_
 _symmetry_equiv_pos_site_id
 _symmetry_equiv_pos_as_xyz
  1  'x, y, z'
loop_
 _atom_site_type_symbol
 _atom_site_label
 _atom_site_symmetry_multiplicity
 _atom_site_fract_x
 _atom_site_fract_y
 _atom_site_fract_z
 _atom_site_occupancy
  Mn  Mn0  1  0.269528  0.489543  0.369738  1
  Mn  Mn1  1  0.730472  0.510457  0.630262  1
  Al  Al2  1  0.000000  0.000000  0.000000  1
  Al  Al3  1  0.500000  0.000000  0.500000  1
  Al  Al4  1  0.748356  0.003735  0.740882  1
  Al  Al5  1  0.251644  0.996265  0.259118  1
  P  P6  1  0.092245  0.818544  0.566731  1
  P  P7  1  0.461093  0.172298  0.134580  1
  P  P8  1  0.538907  0.827702  0.865420  1
  P  P9  1  0.907755  0.181456  0.433269  1
  H  H10  1  0.035791  0.144854  0.704604  1
  H  H11  1  0.056315  0.215940  0.895811  1
  H  H12  1  0.049637  0.391472  0.634912  1
  H  H13  1  0.010158  0.335093  0.187018  1
  H  H14  1  0.149237  0.283704  0.442299  1
  H  H15  1  0.348299  0.255748  0.652195  1
  H  H16  1  0.178452  0.257979  0.073441  1
  H  H17  1  0.445493  0.171317  0.777098  1
  H  H18  1  0.126575  0.467017  0.100839  1
  H  H19  1  0.230903  0.739920  0.827608  1
  H  H20  1  0.329901  0.524105  0.707821  1
  H  H21  1  0.258722  0.977956  0.919683  1
  H  H22  1  0.385099  0.670080  0.853617  1
  H  H23  1  0.183345  0.595003  0.061704  1
  H  H24  1  0.530247  0.385971  0.911883  1
  H  H25  1  0.466660  0.399671  0.597994  1
  H  H26  1  0.272938  0.955742  0.581740  1
  H  H27  1  0.666545  0.292295  0.729547  1
  H  H28  1  0.333455  0.707705  0.270453  1
  H  H29  1  0.727062  0.044258  0.418260  1
  H  H30  1  0.533340  0.600329  0.402006  1
  H  H31  1  0.469753  0.614029  0.088117  1
  H  H32  1  0.816655  0.404997  0.938296  1
  H  H33  1  0.614901  0.329920  0.146383  1
  H  H34  1  0.741278  0.022044  0.080317  1
  H  H35  1  0.670099  0.475895  0.292179  1
  H  H36  1  0.769097  0.260080  0.172392  1
  H  H37  1  0.873425  0.532983  0.899161  1
  H  H38  1  0.554507  0.828683  0.222902  1
  H  H39  1  0.821548  0.742021  0.926559  1
  H  H40  1  0.651701  0.744252  0.347805  1
  H  H41  1  0.850763  0.716296  0.557701  1
  H  H42  1  0.989842  0.664907  0.812982  1
  H  H43  1  0.950363  0.608528  0.365088  1
  H  H44  1  0.943685  0.784060  0.104189  1
  H  H45  1  0.964209  0.855146  0.295396  1
  O  O46  1  0.015494  0.151809  0.852364  1
  O  O47  1  0.065901  0.116905  0.433735  1
  O  O48  1  0.146033  0.360919  0.522215  1
  O  O49  1  0.092633  0.324404  0.054356  1
  O  O50  1  0.124222  0.667677  0.576781  1
  O  O51  1  0.386609  0.166623  0.691749  1
  O  O52  1  0.114001  0.881064  0.750350  1
  O  O53  1  0.291642  0.656566  0.860570  1
  O  O54  1  0.135638  0.545374  0.169080  1
  O  O55  1  0.310063  0.152319  0.174712  1
  O  O56  1  0.560099  0.123794  0.908586  1
  O  O57  1  0.363690  0.439713  0.612275  1
  O  O58  1  0.200838  0.841913  0.365439  1
  O  O59  1  0.539402  0.094811  0.271577  1
  O  O60  1  0.673636  0.003021  0.528234  1
  O  O61  1  0.439478  0.323495  0.167187  1
  O  O62  1  0.593301  0.386368  0.771172  1
  O  O63  1  0.825001  0.007288  0.952278  1
  O  O64  1  0.174999  0.992712  0.047722  1
  O  O65  1  0.406699  0.613632  0.228828  1
  O  O66  1  0.560522  0.676505  0.832813  1
  O  O67  1  0.326364  0.996979  0.471766  1
  O  O68  1  0.460598  0.905189  0.728423  1
  O  O69  1  0.799162  0.158087  0.634561  1
  O  O70  1  0.636310  0.560287  0.387725  1
  O  O71  1  0.439902  0.876206  0.091414  1
  O  O72  1  0.689937  0.847681  0.825288  1
  O  O73  1  0.864362  0.454626  0.830920  1
  O  O74  1  0.708358  0.343434  0.139430  1
  O  O75  1  0.885999  0.118936  0.249650  1
  O  O76  1  0.613391  0.833377  0.308251  1
  O  O77  1  0.875778  0.332323  0.423219  1
  O  O78  1  0.907367  0.675596  0.945644  1
  O  O79  1  0.853967  0.639081  0.477785  1
  O  O80  1  0.934099  0.883095  0.566265  1
  O  O81  1  0.984506  0.848191  0.147636  1
