# generated using pymatgen
data_LiV2P4(HO8)2
_symmetry_space_group_name_H-M   'P 1'
_cell_length_a   4.87820665
_cell_length_b   7.88900953
_cell_length_c   7.34340893
_cell_angle_alpha   89.87921061
_cell_angle_beta   104.58605472
_cell_angle_gamma   89.55278966
_symmetry_Int_Tables_number   1
_chemical_formula_structural   LiV2P4(HO8)2
_chemical_formula_sum   'Li1 V2 P4 H2 O16'
_cell_volume   273.48637003
_cell_formula_units_Z   1
loop_
 _symmetry_equiv_pos_site_id
 _symmetry_equiv_pos_as_xyz
  1  'x, y, z'
loop_
 _atom_site_type_symbol
 _atom_site_label
 _atom_site_symmetry_multiplicity
 _atom_site_fract_x
 _atom_site_fract_y
 _atom_site_fract_z
 _atom_site_occupancy
  Li  Li0  1  0.392442  0.866768  0.847691  1
  V  V1  1  0.497497  0.494512  0.003624  1
  V  V2  1  0.988426  0.006658  0.486258  1
  P  P3  1  0.132758  0.357005  0.271664  1
  P  P4  1  0.369407  0.847812  0.232015  1
  P  P5  1  0.623371  0.154478  0.760877  1
  P  P6  1  0.873987  0.652706  0.732117  1
  H  H7  1  0.533294  0.507921  0.512163  1
  H  H8  1  0.962779  0.010675  0.988337  1
  O  O9  1  0.139573  0.558555  0.852460  1
  O  O10  1  0.036581  0.173123  0.325441  1
  O  O11  1  0.162149  0.840143  0.362353  1
  O  O12  1  0.264243  0.445906  0.451436  1
  O  O13  1  0.362433  0.051244  0.654001  1
  O  O14  1  0.542539  0.330839  0.813064  1
  O  O15  1  0.242575  0.947291  0.053545  1
  O  O16  1  0.328063  0.327882  0.137915  1
  O  O17  1  0.660478  0.676118  0.855782  1
  O  O18  1  0.746894  0.047143  0.941384  1
  O  O19  1  0.463181  0.671004  0.188483  1
  O  O20  1  0.638001  0.944147  0.352487  1
  O  O21  1  0.745242  0.557512  0.550102  1
  O  O22  1  0.837769  0.163613  0.636504  1
  O  O23  1  0.984308  0.827912  0.681880  1
  O  O24  1  0.856454  0.441764  0.153117  1
