# generated using pymatgen
data_NaFe(PO3)3
_symmetry_space_group_name_H-M   'P 1'
_cell_length_a   8.77609427
_cell_length_b   8.69311130
_cell_length_c   9.03868301
_cell_angle_alpha   90.00000000
_cell_angle_beta   90.00000000
_cell_angle_gamma   90.00000000
_symmetry_Int_Tables_number   1
_chemical_formula_structural   NaFe(PO3)3
_chemical_formula_sum   'Na4 Fe4 P12 O36'
_cell_volume   689.57526576
_cell_formula_units_Z   4
loop_
 _symmetry_equiv_pos_site_id
 _symmetry_equiv_pos_as_xyz
  1  'x, y, z'
loop_
 _atom_site_type_symbol
 _atom_site_label
 _atom_site_symmetry_multiplicity
 _atom_site_fract_x
 _atom_site_fract_y
 _atom_site_fract_z
 _atom_site_occupancy
  Na  Na0  1  0.152480  0.868164  0.392942  1
  Na  Na1  1  0.347520  0.131836  0.892942  1
  Na  Na2  1  0.652480  0.631836  0.607058  1
  Na  Na3  1  0.847520  0.368164  0.107058  1
  Fe  Fe4  1  0.127451  0.142908  0.159230  1
  Fe  Fe5  1  0.372549  0.857092  0.659230  1
  Fe  Fe6  1  0.627451  0.357092  0.840770  1
  Fe  Fe7  1  0.872549  0.642908  0.340770  1
  P  P8  1  0.031827  0.675982  0.687753  1
  P  P9  1  0.193540  0.519994  0.191244  1
  P  P10  1  0.197687  0.192117  0.560118  1
  P  P11  1  0.302313  0.807883  0.060118  1
  P  P12  1  0.306460  0.480006  0.691243  1
  P  P13  1  0.468173  0.324018  0.187753  1
  P  P14  1  0.531827  0.824018  0.312247  1
  P  P15  1  0.693540  0.980006  0.808757  1
  P  P16  1  0.697687  0.307883  0.439882  1
  P  P17  1  0.802313  0.692117  0.939882  1
  P  P18  1  0.806460  0.019994  0.308756  1
  P  P19  1  0.968173  0.175982  0.812247  1
  O  O20  1  0.043681  0.219585  0.655375  1
  O  O21  1  0.106691  0.384022  0.132147  1
  O  O22  1  0.088337  0.123831  0.918888  1
  O  O23  1  0.119536  0.610127  0.314482  1
  O  O24  1  0.132941  0.806305  0.639292  1
  O  O25  1  0.138159  0.532652  0.741331  1
  O  O26  1  0.153683  0.148214  0.405962  1
  O  O27  1  0.194967  0.911787  0.144358  1
  O  O28  1  0.232105  0.635445  0.055126  1
  O  O29  1  0.267895  0.364555  0.555126  1
  O  O30  1  0.305033  0.088213  0.644358  1
  O  O31  1  0.346317  0.851786  0.905962  1
  O  O32  1  0.361841  0.467348  0.241331  1
  O  O33  1  0.367059  0.193695  0.139292  1
  O  O34  1  0.380464  0.389873  0.814482  1
  O  O35  1  0.411663  0.876169  0.418888  1
  O  O36  1  0.393309  0.615978  0.632147  1
  O  O37  1  0.456319  0.780415  0.155375  1
  O  O38  1  0.543681  0.280415  0.344625  1
  O  O39  1  0.606691  0.115978  0.867853  1
  O  O40  1  0.588337  0.376169  0.081112  1
  O  O41  1  0.619536  0.889873  0.685518  1
  O  O42  1  0.632941  0.693695  0.360708  1
  O  O43  1  0.638159  0.967348  0.258669  1
  O  O44  1  0.653683  0.351786  0.594038  1
  O  O45  1  0.694967  0.588213  0.855642  1
  O  O46  1  0.732105  0.864555  0.944874  1
  O  O47  1  0.767895  0.135445  0.444874  1
  O  O48  1  0.805033  0.411787  0.355642  1
  O  O49  1  0.846317  0.648214  0.094038  1
  O  O50  1  0.861841  0.032652  0.758669  1
  O  O51  1  0.867059  0.306305  0.860708  1
  O  O52  1  0.880464  0.110127  0.185518  1
  O  O53  1  0.911663  0.623831  0.581112  1
  O  O54  1  0.893309  0.884022  0.367853  1
  O  O55  1  0.956319  0.719585  0.844625  1
