# generated using pymatgen
data_Li3Mn4(BO3)4
_symmetry_space_group_name_H-M   'P 1'
_cell_length_a   5.30397567
_cell_length_b   13.96921553
_cell_length_c   10.30321599
_cell_angle_alpha   90.45555307
_cell_angle_beta   91.99463355
_cell_angle_gamma   79.13485941
_symmetry_Int_Tables_number   1
_chemical_formula_structural   Li3Mn4(BO3)4
_chemical_formula_sum   'Li9 Mn12 B12 O36'
_cell_volume   749.24993629
_cell_formula_units_Z   3
loop_
 _symmetry_equiv_pos_site_id
 _symmetry_equiv_pos_as_xyz
  1  'x, y, z'
loop_
 _atom_site_type_symbol
 _atom_site_label
 _atom_site_symmetry_multiplicity
 _atom_site_fract_x
 _atom_site_fract_y
 _atom_site_fract_z
 _atom_site_occupancy
  Li  Li0  1  0.141466  0.007998  0.161964  1
  Li  Li1  1  0.177672  0.336709  0.903117  1
  Li  Li2  1  0.164802  0.984876  0.671316  1
  Li  Li3  1  0.502879  0.324418  0.670796  1
  Li  Li4  1  0.480126  0.342830  0.159786  1
  Li  Li5  1  0.512080  0.664531  0.400335  1
  Li  Li6  1  0.843865  0.652896  0.669384  1
  Li  Li7  1  0.813518  0.675791  0.155371  1
  Li  Li8  1  0.835953  0.000899  0.399528  1
  Mn  Mn9  1  0.036402  0.229332  0.134134  1
  Mn  Mn10  1  0.273619  0.109533  0.882407  1
  Mn  Mn11  1  0.064048  0.557284  0.382488  1
  Mn  Mn12  1  0.286041  0.765871  0.633644  1
  Mn  Mn13  1  0.608782  0.104056  0.636383  1
  Mn  Mn14  1  0.378636  0.557320  0.127828  1
  Mn  Mn15  1  0.626783  0.450966  0.878529  1
  Mn  Mn16  1  0.715893  0.229114  0.386593  1
  Mn  Mn17  1  0.396915  0.886254  0.382500  1
  Mn  Mn18  1  0.953767  0.436886  0.623589  1
  Mn  Mn19  1  0.704644  0.895550  0.125949  1
  Mn  Mn20  1  0.950013  0.782866  0.879544  1
  B  B21  1  0.053061  0.217506  0.645719  1
  B  B22  1  0.068952  0.554107  0.880096  1
  B  B23  1  0.271204  0.111814  0.374096  1
  B  B24  1  0.407008  0.550892  0.621940  1
  B  B25  1  0.269960  0.779909  0.122539  1
  B  B26  1  0.597702  0.116620  0.121618  1
  B  B27  1  0.389226  0.882533  0.876042  1
  B  B28  1  0.715425  0.222718  0.878618  1
  B  B29  1  0.611883  0.451333  0.363396  1
  B  B30  1  0.725918  0.885058  0.632035  1
  B  B31  1  0.946446  0.450316  0.121228  1
  B  B32  1  0.944994  0.779750  0.371565  1
  O  O33  1  0.184205  0.024377  0.361952  1
  O  O34  1  0.108822  0.196758  0.333298  1
  O  O35  1  0.199141  0.124704  0.688622  1
  O  O36  1  0.012717  0.538833  0.161118  1
  O  O37  1  0.164273  0.297278  0.650027  1
  O  O38  1  0.125982  0.367557  0.103014  1
  O  O39  1  0.145632  0.557336  0.590211  1
  O  O40  1  0.015555  0.777496  0.073229  1
  O  O41  1  0.340508  0.110364  0.074026  1
  O  O42  1  0.312243  0.548573  0.943010  1
  O  O43  1  0.195887  0.773894  0.420873  1
  O  O44  1  0.520703  0.112449  0.424093  1
  O  O45  1  0.306336  0.796506  0.840570  1
  O  O46  1  0.548624  0.310709  0.869217  1
  O  O47  1  0.633051  0.136618  0.845924  1
  O  O48  1  0.230287  0.970984  0.861070  1
  O  O49  1  0.526047  0.367255  0.344295  1
  O  O50  1  0.451891  0.542004  0.318046  1
  O  O51  1  0.548657  0.463555  0.671096  1
  O  O52  1  0.327217  0.869209  0.161119  1
  O  O53  1  0.649807  0.207384  0.153441  1
  O  O54  1  0.519474  0.630734  0.600951  1
  O  O55  1  0.444177  0.695258  0.136702  1
  O  O56  1  0.773852  0.033442  0.140486  1
  O  O57  1  0.469752  0.885742  0.597130  1
  O  O58  1  0.800257  0.221622  0.600490  1
  O  O59  1  0.686503  0.448616  0.094565  1
  O  O60  1  0.639140  0.875810  0.924086  1
  O  O61  1  0.974631  0.221272  0.916626  1
  O  O62  1  0.839792  0.458658  0.425362  1
  O  O63  1  0.914153  0.640571  0.854723  1
  O  O64  1  0.002451  0.465768  0.840759  1
  O  O65  1  0.843588  0.696624  0.354064  1
  O  O66  1  0.793985  0.870030  0.336878  1
  O  O67  1  0.876086  0.797360  0.684752  1
  O  O68  1  0.834483  0.964833  0.611079  1
