# generated using pymatgen
data_Li2Cr3SnO8
_symmetry_space_group_name_H-M   'P 1'
_cell_length_a   8.51019620
_cell_length_b   8.51869985
_cell_length_c   8.57792266
_cell_angle_alpha   90.07931315
_cell_angle_beta   90.00717521
_cell_angle_gamma   89.99740950
_symmetry_Int_Tables_number   1
_chemical_formula_structural   Li2Cr3SnO8
_chemical_formula_sum   'Li8 Cr12 Sn4 O32'
_cell_volume   621.86282531
_cell_formula_units_Z   4
loop_
 _symmetry_equiv_pos_site_id
 _symmetry_equiv_pos_as_xyz
  1  'x, y, z'
loop_
 _atom_site_type_symbol
 _atom_site_label
 _atom_site_symmetry_multiplicity
 _atom_site_fract_x
 _atom_site_fract_y
 _atom_site_fract_z
 _atom_site_occupancy
  Li  Li0  1  0.000854  0.001586  0.001144  1
  Li  Li1  1  0.247971  0.247771  0.247197  1
  Li  Li2  1  0.253021  0.752773  0.747300  1
  Li  Li3  1  0.498536  0.998497  0.501300  1
  Li  Li4  1  0.500965  0.498362  0.998847  1
  Li  Li5  1  0.747997  0.252211  0.752728  1
  Li  Li6  1  0.753007  0.747236  0.252698  1
  Li  Li7  1  0.998529  0.501515  0.498629  1
  Cr  Cr8  1  0.116189  0.134323  0.625879  1
  Cr  Cr9  1  0.124768  0.379448  0.868654  1
  Cr  Cr10  1  0.129725  0.626592  0.118881  1
  Cr  Cr11  1  0.370251  0.372689  0.618528  1
  Cr  Cr12  1  0.375320  0.619563  0.368573  1
  Cr  Cr13  1  0.384009  0.865297  0.125753  1
  Cr  Cr14  1  0.616111  0.365587  0.374060  1
  Cr  Cr15  1  0.624916  0.120704  0.131149  1
  Cr  Cr16  1  0.629944  0.873431  0.881148  1
  Cr  Cr17  1  0.870232  0.127217  0.381570  1
  Cr  Cr18  1  0.875304  0.880441  0.631427  1
  Cr  Cr19  1  0.883907  0.634547  0.874176  1
  Sn  Sn20  1  0.124575  0.875844  0.375743  1
  Sn  Sn21  1  0.375412  0.124177  0.875915  1
  Sn  Sn22  1  0.624493  0.624172  0.624370  1
  Sn  Sn23  1  0.875430  0.375787  0.124172  1
  O  O24  1  0.107896  0.121845  0.392157  1
  O  O25  1  0.114645  0.899458  0.620527  1
  O  O26  1  0.105624  0.615946  0.885870  1
  O  O27  1  0.129104  0.142845  0.859388  1
  O  O28  1  0.120213  0.389270  0.106487  1
  O  O29  1  0.131992  0.356546  0.634908  1
  O  O30  1  0.137652  0.631423  0.355682  1
  O  O31  1  0.150183  0.865700  0.130765  1
  O  O32  1  0.349129  0.133694  0.630910  1
  O  O33  1  0.362205  0.368141  0.855521  1
  O  O34  1  0.367662  0.643001  0.135073  1
  O  O35  1  0.379829  0.610041  0.606341  1
  O  O36  1  0.370676  0.856708  0.359327  1
  O  O37  1  0.394126  0.382529  0.384948  1
  O  O38  1  0.385865  0.101346  0.120353  1
  O  O39  1  0.392387  0.878190  0.891790  1
  O  O40  1  0.607859  0.378128  0.607890  1
  O  O41  1  0.614677  0.600682  0.379542  1
  O  O42  1  0.605790  0.884369  0.113920  1
  O  O43  1  0.629205  0.357112  0.140606  1
  O  O44  1  0.620260  0.110681  0.893341  1
  O  O45  1  0.632061  0.143434  0.364930  1
  O  O46  1  0.637665  0.868474  0.644506  1
  O  O47  1  0.650322  0.634244  0.869333  1
  O  O48  1  0.849160  0.366250  0.369121  1
  O  O49  1  0.862325  0.131860  0.144400  1
  O  O50  1  0.867715  0.856945  0.864985  1
  O  O51  1  0.879925  0.889886  0.393794  1
  O  O52  1  0.870576  0.643264  0.640785  1
  O  O53  1  0.894060  0.117580  0.615253  1
  O  O54  1  0.885689  0.398954  0.879650  1
  O  O55  1  0.892058  0.621826  0.108198  1
