# generated using pymatgen
data_Li24Mn5Cr7O36
_symmetry_space_group_name_H-M   'P 1'
_cell_length_a   5.03676556
_cell_length_b   13.25991659
_cell_length_c   9.75458212
_cell_angle_alpha   96.85031411
_cell_angle_beta   95.10874831
_cell_angle_gamma   100.51657922
_symmetry_Int_Tables_number   1
_chemical_formula_structural   Li24Mn5Cr7O36
_chemical_formula_sum   'Li24 Mn5 Cr7 O36'
_cell_volume   631.85291675
_cell_formula_units_Z   1
loop_
 _symmetry_equiv_pos_site_id
 _symmetry_equiv_pos_as_xyz
  1  'x, y, z'
loop_
 _atom_site_type_symbol
 _atom_site_label
 _atom_site_symmetry_multiplicity
 _atom_site_fract_x
 _atom_site_fract_y
 _atom_site_fract_z
 _atom_site_occupancy
  Li  Li0  1  0.833320  0.166778  0.000415  1
  Li  Li1  1  0.952383  0.386017  0.998808  1
  Li  Li2  1  0.997909  0.748732  0.249678  1
  Li  Li3  1  0.667076  0.084897  0.249864  1
  Li  Li4  1  0.952925  0.886951  0.501330  1
  Li  Li5  1  0.619947  0.219548  0.500672  1
  Li  Li6  1  0.834611  0.667443  0.499207  1
  Li  Li7  1  0.504139  0.001411  0.500424  1
  Li  Li8  1  0.720322  0.446340  0.499646  1
  Li  Li9  1  0.666380  0.583945  0.749495  1
  Li  Li10  1  0.500466  0.500183  0.000066  1
  Li  Li11  1  0.718645  0.947642  0.999223  1
  Li  Li12  1  0.380589  0.278488  0.999794  1
  Li  Li13  1  0.616633  0.719378  0.000433  1
  Li  Li14  1  0.280705  0.054048  0.000876  1
  Li  Li15  1  0.329989  0.416211  0.250317  1
  Li  Li16  1  0.280474  0.554292  0.500804  1
  Li  Li17  1  0.164062  0.332682  0.500502  1
  Li  Li18  1  0.379535  0.778161  0.499153  1
  Li  Li19  1  0.047998  0.112818  0.498880  1
  Li  Li20  1  0.329316  0.916250  0.750398  1
  Li  Li21  1  0.167746  0.833371  0.998651  1
  Li  Li22  1  0.999263  0.250117  0.750084  1
  Li  Li23  1  0.050033  0.613537  0.999858  1
  Mn  Mn24  1  0.889180  0.027834  0.750387  1
  Mn  Mn25  1  0.889962  0.528240  0.250116  1
  Mn  Mn26  1  0.221148  0.193063  0.248861  1
  Mn  Mn27  1  0.219828  0.693266  0.748208  1
  Mn  Mn28  1  0.112943  0.472490  0.750898  1
  Cr  Cr29  1  0.771490  0.306792  0.250179  1
  Cr  Cr30  1  0.770129  0.805880  0.750420  1
  Cr  Cr31  1  0.563106  0.363228  0.751923  1
  Cr  Cr32  1  0.437593  0.138133  0.748339  1
  Cr  Cr33  1  0.561172  0.864171  0.252125  1
  Cr  Cr34  1  0.438667  0.638554  0.248914  1
  Cr  Cr35  1  0.110820  0.969048  0.250223  1
  O  O36  1  0.999496  0.071580  0.139222  1
  O  O37  1  0.932680  0.215238  0.363857  1
  O  O38  1  0.996784  0.571355  0.638548  1
  O  O39  1  0.861425  0.358160  0.638167  1
  O  O40  1  0.739387  0.118108  0.635194  1
  O  O41  1  0.669546  0.404511  0.138248  1
  O  O42  1  0.932704  0.715991  0.863397  1
  O  O43  1  0.812152  0.476718  0.861609  1
  O  O44  1  0.599448  0.049459  0.863106  1
  O  O45  1  0.864642  0.859518  0.137493  1
  O  O46  1  0.739528  0.618562  0.134546  1
  O  O47  1  0.516388  0.188477  0.136944  1
  O  O48  1  0.662906  0.263921  0.863180  1
  O  O49  1  0.803309  0.974570  0.363057  1
  O  O50  1  0.599172  0.549386  0.362999  1
  O  O51  1  0.481263  0.308487  0.361415  1
  O  O52  1  0.665453  0.762901  0.362701  1
  O  O53  1  0.333618  0.095180  0.361700  1
  O  O54  1  0.670799  0.903899  0.638440  1
  O  O55  1  0.339874  0.237024  0.637715  1
  O  O56  1  0.516728  0.688574  0.637366  1
  O  O57  1  0.400838  0.450069  0.636781  1
  O  O58  1  0.187096  0.022783  0.638049  1
  O  O59  1  0.337807  0.737235  0.138098  1
  O  O60  1  0.477570  0.808159  0.861226  1
  O  O61  1  0.260290  0.382456  0.865557  1
  O  O62  1  0.141319  0.142444  0.861076  1
  O  O63  1  0.407287  0.948561  0.134688  1
  O  O64  1  0.187730  0.523179  0.138316  1
  O  O65  1  0.067968  0.284732  0.136534  1
  O  O66  1  0.335138  0.595274  0.861776  1
  O  O67  1  0.260831  0.884152  0.366215  1
  O  O68  1  0.141044  0.643057  0.361342  1
  O  O69  1  0.004150  0.431182  0.363118  1
  O  O70  1  0.070004  0.784668  0.635769  1
  O  O71  1  0.003120  0.930494  0.863383  1
