# generated using pymatgen
data_NbO2
_symmetry_space_group_name_H-M   'P 1'
_cell_length_a   9.95467111
_cell_length_b   5.05623762
_cell_length_c   5.35745540
_cell_angle_alpha   90.00093540
_cell_angle_beta   90.00743753
_cell_angle_gamma   89.99946185
_symmetry_Int_Tables_number   1
_chemical_formula_structural   NbO2
_chemical_formula_sum   'Nb8 O16'
_cell_volume   269.65777851
_cell_formula_units_Z   8
loop_
 _symmetry_equiv_pos_site_id
 _symmetry_equiv_pos_as_xyz
  1  'x, y, z'
loop_
 _atom_site_type_symbol
 _atom_site_label
 _atom_site_symmetry_multiplicity
 _atom_site_fract_x
 _atom_site_fract_y
 _atom_site_fract_z
 _atom_site_occupancy
  Nb  Nb0  1  0.142721  0.553999  0.854042  1
  Nb  Nb1  1  0.142736  0.946033  0.354050  1
  Nb  Nb2  1  0.357273  0.445974  0.354046  1
  Nb  Nb3  1  0.357285  0.054074  0.854028  1
  Nb  Nb4  1  0.642797  0.945921  0.145913  1
  Nb  Nb5  1  0.642788  0.554116  0.645912  1
  Nb  Nb6  1  0.857253  0.445952  0.145914  1
  Nb  Nb7  1  0.857258  0.054085  0.645915  1
  O  O8  1  0.031270  0.823676  0.656470  1
  O  O9  1  0.031274  0.676314  0.156402  1
  O  O10  1  0.214183  0.242682  0.100878  1
  O  O11  1  0.214182  0.257278  0.601015  1
  O  O12  1  0.285722  0.742786  0.100844  1
  O  O13  1  0.285725  0.757202  0.600993  1
  O  O14  1  0.468726  0.176249  0.156411  1
  O  O15  1  0.468745  0.323733  0.656512  1
  O  O16  1  0.531193  0.676244  0.343616  1
  O  O17  1  0.531187  0.823745  0.843531  1
  O  O18  1  0.714194  0.242744  0.399152  1
  O  O19  1  0.714191  0.257228  0.899033  1
  O  O20  1  0.785825  0.742732  0.399132  1
  O  O21  1  0.785820  0.757239  0.899002  1
  O  O22  1  0.968820  0.176243  0.343637  1
  O  O23  1  0.968832  0.323751  0.843552  1
