# generated using pymatgen
data_V4OF11
_symmetry_space_group_name_H-M   'P 1'
_cell_length_a   5.25772668
_cell_length_b   5.46642019
_cell_length_c   17.51291659
_cell_angle_alpha   91.58080677
_cell_angle_beta   98.81247229
_cell_angle_gamma   60.99764143
_symmetry_Int_Tables_number   1
_chemical_formula_structural   V4OF11
_chemical_formula_sum   'V8 O2 F22'
_cell_volume   434.38699995
_cell_formula_units_Z   2
loop_
 _symmetry_equiv_pos_site_id
 _symmetry_equiv_pos_as_xyz
  1  'x, y, z'
loop_
 _atom_site_type_symbol
 _atom_site_label
 _atom_site_symmetry_multiplicity
 _atom_site_fract_x
 _atom_site_fract_y
 _atom_site_fract_z
 _atom_site_occupancy
  V  V0  1  0.773874  0.597296  0.120507  1
  V  V1  1  0.741754  0.129774  0.624381  1
  V  V2  1  0.512215  0.238545  0.249718  1
  V  V3  1  0.496422  0.755189  0.749916  1
  V  V4  1  0.279218  0.857947  0.381715  1
  V  V5  1  0.246411  0.380484  0.875433  1
  V  V6  1  0.997857  0.009626  0.002535  1
  V  V7  1  0.987910  0.505190  0.498187  1
  O  O8  1  0.949765  0.323601  0.065934  1
  O  O9  1  0.569747  0.714158  0.453927  1
  F  F10  1  0.931535  0.829088  0.090001  1
  F  F11  1  0.973379  0.816994  0.562283  1
  F  F12  1  0.546086  0.922650  0.185417  1
  F  F13  1  0.936377  0.028825  0.292312  1
  F  F14  1  0.916694  0.346293  0.586320  1
  F  F15  1  0.922915  0.540611  0.786466  1
  F  F16  1  0.424775  0.797302  0.038580  1
  F  F17  1  0.572882  0.417881  0.163804  1
  F  F18  1  0.569616  0.912004  0.661156  1
  F  F19  1  0.471241  0.563937  0.310303  1
  F  F20  1  0.515778  0.439811  0.687065  1
  F  F21  1  0.420460  0.086402  0.336189  1
  F  F22  1  0.416544  0.291473  0.536541  1
  F  F23  1  0.425107  0.590376  0.839040  1
  F  F24  1  0.574740  0.209282  0.964437  1
  F  F25  1  0.079156  0.658581  0.411621  1
  F  F26  1  0.079436  0.456706  0.212073  1
  F  F27  1  0.068928  0.968572  0.713082  1
  F  F28  1  0.475994  0.066426  0.812507  1
  F  F29  1  0.026393  0.695283  0.939248  1
  F  F30  1  0.023429  0.180079  0.437356  1
  F  F31  1  0.073363  0.169613  0.911946  1
