# generated using pymatgen
data_Tm2Sb2O7
_symmetry_space_group_name_H-M   'P 1'
_cell_length_a   7.50580358
_cell_length_b   7.50593073
_cell_length_c   18.32047344
_cell_angle_alpha   90.00934897
_cell_angle_beta   89.99217923
_cell_angle_gamma   119.99885257
_symmetry_Int_Tables_number   1
_chemical_formula_structural   Tm2Sb2O7
_chemical_formula_sum   'Tm12 Sb12 O42'
_cell_volume   893.86943267
_cell_formula_units_Z   6
loop_
 _symmetry_equiv_pos_site_id
 _symmetry_equiv_pos_as_xyz
  1  'x, y, z'
loop_
 _atom_site_type_symbol
 _atom_site_label
 _atom_site_symmetry_multiplicity
 _atom_site_fract_x
 _atom_site_fract_y
 _atom_site_fract_z
 _atom_site_occupancy
  Tm  Tm0  1  0.000210  0.840326  0.666759  1
  Tm  Tm1  1  0.000184  0.832644  0.166676  1
  Tm  Tm2  1  0.177058  0.681682  0.011427  1
  Tm  Tm3  1  0.159369  0.159449  0.999992  1
  Tm  Tm4  1  0.504631  0.822394  0.678081  1
  Tm  Tm5  1  0.167750  0.166827  0.499955  1
  Tm  Tm6  1  0.317980  0.495514  0.344752  1
  Tm  Tm7  1  0.495559  0.318026  0.655296  1
  Tm  Tm8  1  0.681774  0.177085  0.988601  1
  Tm  Tm9  1  0.822286  0.504640  0.321920  1
  Tm  Tm10  1  0.832681  0.000128  0.833333  1
  Tm  Tm11  1  0.840184  0.000120  0.333322  1
  Sb  Sb12  1  0.999670  0.323172  0.166700  1
  Sb  Sb13  1  0.999893  0.310026  0.666633  1
  Sb  Sb14  1  0.168837  0.669564  0.501528  1
  Sb  Sb15  1  0.500811  0.831340  0.168249  1
  Sb  Sb16  1  0.330486  0.499316  0.834865  1
  Sb  Sb17  1  0.310021  0.999831  0.333278  1
  Sb  Sb18  1  0.676462  0.676554  0.500117  1
  Sb  Sb19  1  0.323510  0.999919  0.833378  1
  Sb  Sb20  1  0.689609  0.689578  -0.000001  1
  Sb  Sb21  1  0.499281  0.330555  0.165184  1
  Sb  Sb22  1  0.669704  0.168830  0.498388  1
  Sb  Sb23  1  0.831296  0.500856  0.831763  1
  O  O24  1  0.021907  0.852527  0.284260  1
  O  O25  1  0.980477  0.802419  0.802744  1
  O  O26  1  0.102940  0.655059  0.394163  1
  O  O27  1  0.063557  0.463482  0.802306  1
  O  O28  1  0.325117  0.992158  0.956985  1
  O  O29  1  0.239493  0.691353  0.606897  1
  O  O30  1  0.007897  0.333092  0.290005  1
  O  O31  1  0.199715  0.688347  0.139260  1
  O  O32  1  0.399000  0.937162  0.468976  1
  O  O33  1  0.451858  0.760741  0.273556  1
  O  O34  1  0.488913  0.800393  0.805883  1
  O  O35  1  0.344825  0.447791  0.727518  1
  O  O36  1  0.147532  0.169378  0.617572  1
  O  O37  1  0.311580  0.511227  0.472614  1
  O  O38  1  0.197669  0.178492  0.136156  1
  O  O39  1  0.169364  0.147497  0.382337  1
  O  O40  1  0.309104  0.548849  0.940168  1
  O  O41  1  0.178354  0.197751  0.863915  1
  O  O42  1  0.552584  0.897090  0.060873  1
  O  O43  1  0.536491  0.600131  0.135539  1
  O  O44  1  0.821802  0.019387  0.469488  1
  O  O45  1  0.667220  0.674565  0.623702  1
  O  O46  1  0.447909  0.344986  0.272506  1
  O  O47  1  0.600083  0.536578  0.864420  1
  O  O48  1  0.333146  0.007803  0.709877  1
  O  O49  1  0.830399  0.977621  0.950905  1
  O  O50  1  0.548735  0.308908  0.059868  1
  O  O51  1  0.674665  0.667088  0.376470  1
  O  O52  1  0.511765  0.312071  0.527408  1
  O  O53  1  0.463270  0.063544  0.197739  1
  O  O54  1  0.691364  0.239126  0.392988  1
  O  O55  1  0.688315  0.199702  0.860759  1
  O  O56  1  0.896959  0.552600  0.939149  1
  O  O57  1  0.977739  0.830485  0.049092  1
  O  O58  1  0.800339  0.489052  0.194144  1
  O  O59  1  0.018975  0.821364  0.530519  1
  O  O60  1  0.760699  0.451519  0.726473  1
  O  O61  1  0.655190  0.102719  0.605749  1
  O  O62  1  0.936380  0.399755  0.531104  1
  O  O63  1  0.802428  0.980549  0.197229  1
  O  O64  1  0.992316  0.325153  0.042878  1
  O  O65  1  0.852682  0.022119  0.715743  1
