# generated using pymatgen
data_Co2O3F
_symmetry_space_group_name_H-M   'P 1'
_cell_length_a   5.27656299
_cell_length_b   9.26333426
_cell_length_c   5.27656299
_cell_angle_alpha   77.65753678
_cell_angle_beta   67.39038109
_cell_angle_gamma   97.86698757
_symmetry_Int_Tables_number   1
_chemical_formula_structural   Co2O3F
_chemical_formula_sum   'Co8 O12 F4'
_cell_volume   225.62061994
_cell_formula_units_Z   4
loop_
 _symmetry_equiv_pos_site_id
 _symmetry_equiv_pos_as_xyz
  1  'x, y, z'
loop_
 _atom_site_type_symbol
 _atom_site_label
 _atom_site_symmetry_multiplicity
 _atom_site_fract_x
 _atom_site_fract_y
 _atom_site_fract_z
 _atom_site_occupancy
  Co  Co0  1  0.625000  0.250000  0.875000  1
  Co  Co1  1  0.897862  0.764767  0.633094  1
  Co  Co2  1  0.503717  0.999630  0.496804  1
  Co  Co3  1  0.746283  0.500370  0.253196  1
  Co  Co4  1  0.253566  0.500370  0.745913  1
  Co  Co5  1  0.125000  0.250000  0.375000  1
  Co  Co6  1  0.352138  0.735233  0.116906  1
  Co  Co7  1  0.996433  0.999630  0.004087  1
  O  O8  1  0.923997  0.152804  0.771116  1
  O  O9  1  0.326003  0.347196  0.978884  1
  O  O10  1  0.578976  0.847096  0.728063  1
  O  O11  1  0.826080  0.347196  0.478807  1
  O  O12  1  0.892962  0.094336  0.298627  1
  O  O13  1  0.110511  0.904818  0.705693  1
  O  O14  1  0.357038  0.405664  0.451373  1
  O  O15  1  0.174840  0.652904  0.518120  1
  O  O16  1  0.671024  0.652904  0.021937  1
  O  O17  1  0.423920  0.152804  0.271193  1
  O  O18  1  0.075160  0.847096  0.231880  1
  O  O19  1  0.139489  0.595182  0.044307  1
  F  F20  1  0.840382  0.393203  0.947179  1
  F  F21  1  0.668403  0.610828  0.557576  1
  F  F22  1  0.409618  0.106797  0.802821  1
  F  F23  1  0.581597  0.889172  0.192424  1
