# generated using pymatgen
data_Ti3Mn2Fe(PO4)6
_symmetry_space_group_name_H-M   'P 1'
_cell_length_a   8.65999405
_cell_length_b   8.65999322
_cell_length_c   8.65999399
_cell_angle_alpha   60.19751294
_cell_angle_beta   60.19750961
_cell_angle_gamma   60.19751354
_symmetry_Int_Tables_number   1
_chemical_formula_structural   Ti3Mn2Fe(PO4)6
_chemical_formula_sum   'Ti3 Mn2 Fe1 P6 O24'
_cell_volume   461.29185029
_cell_formula_units_Z   1
loop_
 _symmetry_equiv_pos_site_id
 _symmetry_equiv_pos_as_xyz
  1  'x, y, z'
loop_
 _atom_site_type_symbol
 _atom_site_label
 _atom_site_symmetry_multiplicity
 _atom_site_fract_x
 _atom_site_fract_y
 _atom_site_fract_z
 _atom_site_occupancy
  Ti  Ti0  1  0.144111  0.144111  0.144111  1
  Ti  Ti1  1  0.353971  0.353971  0.353971  1
  Ti  Ti2  1  0.647353  0.647353  0.647353  1
  Mn  Mn3  1  0.995990  0.995990  0.995990  1
  Mn  Mn4  1  0.499496  0.499496  0.499496  1
  Fe  Fe5  1  0.854799  0.854799  0.854799  1
  P  P6  1  0.252904  0.541824  0.955893  1
  P  P7  1  0.541824  0.955893  0.252904  1
  P  P8  1  0.955893  0.252904  0.541824  1
  P  P9  1  0.046845  0.751930  0.455015  1
  P  P10  1  0.455015  0.046845  0.751930  1
  P  P11  1  0.751930  0.455015  0.046845  1
  O  O12  1  0.114923  0.323997  0.486985  1
  O  O13  1  0.323997  0.486985  0.114923  1
  O  O14  1  0.060688  0.912365  0.258677  1
  O  O15  1  0.486985  0.114923  0.323997  1
  O  O16  1  0.017151  0.809889  0.606780  1
  O  O17  1  0.238571  0.585533  0.430524  1
  O  O18  1  0.258677  0.060688  0.912365  1
  O  O19  1  0.430524  0.238571  0.585533  1
  O  O20  1  0.190278  0.378941  0.001840  1
  O  O21  1  0.585533  0.430524  0.238571  1
  O  O22  1  0.095527  0.731762  0.947211  1
  O  O23  1  0.378941  0.001840  0.190278  1
  O  O24  1  0.606780  0.017151  0.809889  1
  O  O25  1  0.912365  0.258677  0.060688  1
  O  O26  1  0.418430  0.552383  0.763925  1
  O  O27  1  0.809889  0.606780  0.017151  1
  O  O28  1  0.552383  0.763925  0.418430  1
  O  O29  1  0.731762  0.947211  0.095527  1
  O  O30  1  0.763925  0.418430  0.552383  1
  O  O31  1  0.001840  0.190278  0.378941  1
  O  O32  1  0.502006  0.880659  0.690822  1
  O  O33  1  0.947211  0.095527  0.731762  1
  O  O34  1  0.690822  0.502006  0.880659  1
  O  O35  1  0.880659  0.690822  0.502006  1
