# generated using pymatgen
data_NaLi7Fe8(SiO3)16
_symmetry_space_group_name_H-M   'P 1'
_cell_length_a   12.90680567
_cell_length_b   12.91283246
_cell_length_c   5.35891549
_cell_angle_alpha   81.04149022
_cell_angle_beta   81.03163882
_cell_angle_gamma   85.80969112
_symmetry_Int_Tables_number   1
_chemical_formula_structural   NaLi7Fe8(SiO3)16
_chemical_formula_sum   'Na1 Li7 Fe8 Si16 O48'
_cell_volume   870.36401117
_cell_formula_units_Z   1
loop_
 _symmetry_equiv_pos_site_id
 _symmetry_equiv_pos_as_xyz
  1  'x, y, z'
loop_
 _atom_site_type_symbol
 _atom_site_label
 _atom_site_symmetry_multiplicity
 _atom_site_fract_x
 _atom_site_fract_y
 _atom_site_fract_z
 _atom_site_occupancy
  Na  Na0  1  0.894680  0.356792  0.496646  1
  Li  Li1  1  0.119923  0.130760  0.001560  1
  Li  Li2  1  0.380599  0.369129  0.998579  1
  Li  Li3  1  0.618933  0.130511  0.498375  1
  Li  Li4  1  0.118710  0.630333  0.498791  1
  Li  Li5  1  0.381095  0.869619  0.501432  1
  Li  Li6  1  0.619804  0.630906  0.001448  1
  Li  Li7  1  0.880132  0.868667  0.998638  1
  Fe  Fe8  1  0.199050  0.050797  0.497358  1
  Fe  Fe9  1  0.301836  0.448875  0.503498  1
  Fe  Fe10  1  0.198752  0.551951  0.003683  1
  Fe  Fe11  1  0.698228  0.051456  0.001765  1
  Fe  Fe12  1  0.301387  0.948460  0.997290  1
  Fe  Fe13  1  0.799954  0.449871  0.997092  1
  Fe  Fe14  1  0.698434  0.551528  0.497225  1
  Fe  Fe15  1  0.801224  0.948191  0.502309  1
  Si  Si16  1  0.058898  0.398304  0.791286  1
  Si  Si17  1  0.352983  0.192399  0.713892  1
  Si  Si18  1  0.148073  0.307526  0.288774  1
  Si  Si19  1  0.442384  0.103060  0.213832  1
  Si  Si20  1  0.645544  0.308178  0.781393  1
  Si  Si21  1  0.146979  0.807752  0.778829  1
  Si  Si22  1  0.442174  0.603265  0.721261  1
  Si  Si23  1  0.942418  0.101493  0.718974  1
  Si  Si24  1  0.557211  0.396713  0.279845  1
  Si  Si25  1  0.057725  0.897048  0.278824  1
  Si  Si26  1  0.851903  0.190723  0.216087  1
  Si  Si27  1  0.352857  0.692446  0.221200  1
  Si  Si28  1  0.557433  0.897087  0.786181  1
  Si  Si29  1  0.853331  0.692882  0.712904  1
  Si  Si30  1  0.646726  0.807678  0.286085  1
  Si  Si31  1  0.941896  0.604480  0.211293  1
  O  O32  1  0.062315  0.054173  0.703915  1
  O  O33  1  0.264577  0.101686  0.779511  1
  O  O34  1  0.076408  0.321043  0.566796  1
  O  O35  1  0.351641  0.014691  0.279385  1
  O  O36  1  0.193996  0.187563  0.287266  1
  O  O37  1  0.070170  0.325538  0.067472  1
  O  O38  1  0.430269  0.173758  0.936065  1
  O  O39  1  0.306050  0.312203  0.714804  1
  O  O40  1  0.150144  0.485426  0.721250  1
  O  O41  1  0.423776  0.180198  0.436239  1
  O  O42  1  0.061404  0.555806  0.214502  1
  O  O43  1  0.562253  0.056238  0.214560  1
  O  O44  1  0.235707  0.398418  0.221226  1
  O  O45  1  0.851008  0.014385  0.786669  1
  O  O46  1  0.351260  0.515155  0.786842  1
  O  O47  1  0.195388  0.688124  0.795697  1
  O  O48  1  0.695717  0.188883  0.795604  1
  O  O49  1  0.574904  0.319148  0.545934  1
  O  O50  1  0.075662  0.819732  0.544859  1
  O  O51  1  0.264773  0.601445  0.286341  1
  O  O52  1  0.764552  0.099716  0.285667  1
  O  O53  1  0.437759  0.445809  0.296216  1
  O  O54  1  0.567389  0.324440  0.047727  1
  O  O55  1  0.069706  0.825647  0.045076  1
  O  O56  1  0.430110  0.674774  0.954990  1
  O  O57  1  0.930571  0.174211  0.950476  1
  O  O58  1  0.561703  0.555129  0.704630  1
  O  O59  1  0.235065  0.898768  0.713553  1
  O  O60  1  0.730490  0.401665  0.719204  1
  O  O61  1  0.424119  0.680638  0.455144  1
  O  O62  1  0.924289  0.177568  0.449910  1
  O  O63  1  0.304355  0.812107  0.204499  1
  O  O64  1  0.801945  0.309653  0.192287  1
  O  O65  1  0.148769  0.985109  0.213614  1
  O  O66  1  0.648081  0.484732  0.214265  1
  O  O67  1  0.764826  0.602455  0.778762  1
  O  O68  1  0.940145  0.448280  0.800558  1
  O  O69  1  0.437525  0.943986  0.785221  1
  O  O70  1  0.575886  0.819969  0.563842  1
  O  O71  1  0.848487  0.519421  0.274399  1
  O  O72  1  0.693201  0.687977  0.285076  1
  O  O73  1  0.569340  0.826458  0.063958  1
  O  O74  1  0.931368  0.676070  0.933648  1
  O  O75  1  0.805855  0.812554  0.714166  1
  O  O76  1  0.648128  0.985487  0.720682  1
  O  O77  1  0.924407  0.681066  0.435228  1
  O  O78  1  0.735171  0.898273  0.220419  1
  O  O79  1  0.938054  0.945544  0.295496  1
