# generated using pymatgen
data_Li6V3P8O29
_symmetry_space_group_name_H-M   'P 1'
_cell_length_a   9.82101578
_cell_length_b   9.82030837
_cell_length_c   13.88352940
_cell_angle_alpha   89.87776502
_cell_angle_beta   89.88701845
_cell_angle_gamma   60.03819201
_symmetry_Int_Tables_number   1
_chemical_formula_structural   Li6V3P8O29
_chemical_formula_sum   'Li12 V6 P16 O58'
_cell_volume   1160.05300292
_cell_formula_units_Z   2
loop_
 _symmetry_equiv_pos_site_id
 _symmetry_equiv_pos_as_xyz
  1  'x, y, z'
loop_
 _atom_site_type_symbol
 _atom_site_label
 _atom_site_symmetry_multiplicity
 _atom_site_fract_x
 _atom_site_fract_y
 _atom_site_fract_z
 _atom_site_occupancy
  Li  Li0  1  0.903885  0.771558  0.060914  1
  Li  Li1  1  0.771197  0.904318  0.560973  1
  Li  Li2  1  0.904298  0.323938  0.560731  1
  Li  Li3  1  0.771545  0.325187  0.060599  1
  Li  Li4  1  0.325083  0.903914  0.060768  1
  Li  Li5  1  0.674827  0.228467  0.439257  1
  Li  Li6  1  0.323144  0.771590  0.560837  1
  Li  Li7  1  0.675807  0.095800  0.938992  1
  Li  Li8  1  0.227975  0.677301  0.939733  1
  Li  Li9  1  0.095905  0.675080  0.439377  1
  Li  Li10  1  0.228470  0.096374  0.439119  1
  Li  Li11  1  0.095635  0.228608  0.939066  1
  V  V12  1  0.567697  0.432727  0.249741  1
  V  V13  1  0.434411  0.565050  0.750407  1
  V  V14  1  0.567158  0.999645  0.750484  1
  V  V15  1  0.432560  0.999749  0.249912  1
  V  V16  1  0.001014  0.566432  0.250505  1
  V  V17  1  -0.000093  0.432900  0.749330  1
  P  P18  1  0.911944  0.768085  0.842023  1
  P  P19  1  0.768507  0.912092  0.342393  1
  P  P20  1  0.912112  0.319244  0.342416  1
  P  P21  1  0.666763  0.666914  0.126108  1
  P  P22  1  0.666578  0.666196  0.626334  1
  P  P23  1  0.769070  0.318848  0.841982  1
  P  P24  1  0.681313  0.230953  0.657819  1
  P  P25  1  0.318311  0.912199  0.842878  1
  P  P26  1  0.680788  0.087959  0.157647  1
  P  P27  1  0.319586  0.767884  0.342135  1
  P  P28  1  0.231753  0.680422  0.157564  1
  P  P29  1  0.333428  0.332990  0.373958  1
  P  P30  1  0.333616  0.333312  0.873768  1
  P  P31  1  0.087801  0.681414  0.657006  1
  P  P32  1  0.231871  0.087968  0.657907  1
  P  P33  1  0.087754  0.231685  0.157908  1
  O  O34  1  0.997527  0.759863  0.566890  1
  O  O35  1  0.917254  0.747405  0.341667  1
  O  O36  1  0.760124  0.999495  0.067174  1
  O  O37  1  0.746972  0.917094  0.841668  1
  O  O38  1  0.901126  0.619199  0.825228  1
  O  O39  1  0.813707  0.674189  0.167245  1
  O  O40  1  0.899768  0.479263  0.324851  1
  O  O41  1  0.999406  0.241020  0.067561  1
  O  O42  1  0.918941  0.333631  0.840900  1
  O  O43  1  0.674008  0.812161  0.667093  1
  O  O44  1  0.619529  0.901419  0.325040  1
  O  O45  1  0.812665  0.511572  0.666514  1
  O  O46  1  0.666963  0.667316  0.018499  1
  O  O47  1  0.663381  0.666410  0.518994  1
  O  O48  1  0.675460  0.512219  0.166868  1
  O  O49  1  0.478151  0.901731  0.824820  1
  O  O50  1  0.512288  0.812729  0.166952  1
  O  O51  1  0.747426  0.334571  0.341480  1
  O  O52  1  0.791829  0.208069  0.750037  1
  O  O53  1  0.760864  0.239660  0.567412  1
  O  O54  1  0.759110  0.240092  0.932668  1
  O  O55  1  0.622032  0.479367  0.825251  1
  O  O56  1  0.512908  0.671312  0.668952  1
  O  O57  1  0.664955  0.252940  0.158371  1
  O  O58  1  0.478908  0.619186  0.325387  1
  O  O59  1  0.335329  0.917251  0.341289  1
  O  O60  1  0.790656  0.000131  0.249833  1
  O  O61  1  0.758921  0.000683  0.432546  1
  O  O62  1  0.241354  0.998991  0.567429  1
  O  O63  1  0.665187  0.081747  0.659130  1
  O  O64  1  0.521407  0.379578  0.673428  1
  O  O65  1  0.333495  0.748593  0.842932  1
  O  O66  1  0.487209  0.325279  0.333067  1
  O  O67  1  0.380262  0.520801  0.175319  1
  O  O68  1  0.241390  0.760405  0.067243  1
  O  O69  1  0.239687  0.759089  0.432750  1
  O  O70  1  0.209573  0.790429  0.250079  1
  O  O71  1  0.250978  0.666948  0.657389  1
  O  O72  1  0.488073  0.187691  0.833425  1
  O  O73  1  0.521102  0.098953  0.175045  1
  O  O74  1  0.328302  0.487797  0.831336  1
  O  O75  1  0.333702  0.336863  0.981056  1
  O  O76  1  0.332472  0.333088  0.481514  1
  O  O77  1  0.186254  0.488387  0.332975  1
  O  O78  1  0.380174  0.099287  0.675031  1
  O  O79  1  0.324477  0.187597  0.332967  1
  O  O80  1  0.082755  0.665763  0.158341  1
  O  O81  1  0.999239  0.790946  0.749763  1
  O  O82  1  0.000792  0.758816  0.932393  1
  O  O83  1  0.098854  0.521480  0.675406  1
  O  O84  1  0.187633  0.326463  0.832976  1
  O  O85  1  0.098237  0.380965  0.174285  1
  O  O86  1  0.252834  0.082795  0.158629  1
  O  O87  1  0.240036  0.002294  0.932987  1
  O  O88  1  0.209012  0.000557  0.750113  1
  O  O89  1  0.082747  0.252972  0.658218  1
  O  O90  1  0.000764  0.239654  0.432874  1
  O  O91  1  0.999851  0.208999  0.250121  1
