# generated using pymatgen
data_Li4MnV3(P2O7)4
_symmetry_space_group_name_H-M   'P 1'
_cell_length_a   9.59318331
_cell_length_b   9.63854451
_cell_length_c   7.16138404
_cell_angle_alpha   79.76080949
_cell_angle_beta   79.12051709
_cell_angle_gamma   119.11758531
_symmetry_Int_Tables_number   1
_chemical_formula_structural   Li4MnV3(P2O7)4
_chemical_formula_sum   'Li4 Mn1 V3 P8 O28'
_cell_volume   539.31224628
_cell_formula_units_Z   1
loop_
 _symmetry_equiv_pos_site_id
 _symmetry_equiv_pos_as_xyz
  1  'x, y, z'
loop_
 _atom_site_type_symbol
 _atom_site_label
 _atom_site_symmetry_multiplicity
 _atom_site_fract_x
 _atom_site_fract_y
 _atom_site_fract_z
 _atom_site_occupancy
  Li  Li0  1  0.069336  0.430125  0.324671  1
  Li  Li1  1  0.318292  0.180759  0.674514  1
  Li  Li2  1  0.567611  0.928866  0.324861  1
  Li  Li3  1  0.820420  0.682219  0.674753  1
  Mn  Mn4  1  0.258880  0.257740  0.267961  1
  V  V5  1  0.756653  0.756480  0.271585  1
  V  V6  1  0.494238  0.994325  0.727575  1
  V  V7  1  0.993458  0.492377  0.727974  1
  P  P8  1  0.349259  0.528283  0.522851  1
  P  P9  1  0.850430  0.029390  0.521488  1
  P  P10  1  0.670523  0.455127  0.086840  1
  P  P11  1  0.172287  0.955326  0.087731  1
  P  P12  1  0.294302  0.581460  0.913674  1
  P  P13  1  0.794837  0.078669  0.913920  1
  P  P14  1  0.219611  0.899971  0.481842  1
  P  P15  1  0.720477  0.401350  0.477984  1
  O  O16  1  0.190138  0.123917  0.084333  1
  O  O17  1  0.016924  0.193364  0.391882  1
  O  O18  1  0.203127  0.045251  0.505053  1
  O  O19  1  0.277972  0.482180  0.114686  1
  O  O20  1  0.486694  0.310901  0.144891  1
  O  O21  1  0.335540  0.371621  0.481316  1
  O  O22  1  0.199393  0.541599  0.506454  1
  O  O23  1  0.700228  0.042749  0.505940  1
  O  O24  1  0.556973  0.235056  0.605044  1
  O  O25  1  0.056322  0.731143  0.604619  1
  O  O26  1  0.625611  0.059348  0.916534  1
  O  O27  1  0.125020  0.561287  0.913608  1
  O  O28  1  0.345255  0.498989  0.753304  1
  O  O29  1  0.751748  0.405447  0.246695  1
  O  O30  1  0.251989  0.906495  0.248845  1
  O  O31  1  0.688434  0.622307  0.085281  1
  O  O32  1  0.515795  0.692534  0.395407  1
  O  O33  1  0.707375  0.551103  0.494032  1
  O  O34  1  0.878456  0.416829  0.517277  1
  O  O35  1  0.379164  0.915696  0.517555  1
  O  O36  1  0.937041  0.261227  0.851073  1
  O  O37  1  0.438142  0.764418  0.846706  1
  O  O38  1  0.275433  0.970181  0.887132  1
  O  O39  1  0.775131  0.471988  0.885879  1
  O  O40  1  0.778256  0.974861  0.113742  1
  O  O41  1  0.988569  0.813121  0.148587  1
  O  O42  1  0.833494  0.871524  0.481673  1
  O  O43  1  0.845586  0.997973  0.752225  1
