# generated using pymatgen
data_Li3MnV(PO4)3
_symmetry_space_group_name_H-M   'P 1'
_cell_length_a   8.65850164
_cell_length_b   8.65850185
_cell_length_c   6.32692492
_cell_angle_alpha   74.21412328
_cell_angle_beta   105.78587981
_cell_angle_gamma   84.63431056
_symmetry_Int_Tables_number   1
_chemical_formula_structural   Li3MnV(PO4)3
_chemical_formula_sum   'Li6 Mn2 V2 P6 O24'
_cell_volume   431.97642228
_cell_formula_units_Z   2
loop_
 _symmetry_equiv_pos_site_id
 _symmetry_equiv_pos_as_xyz
  1  'x, y, z'
loop_
 _atom_site_type_symbol
 _atom_site_label
 _atom_site_symmetry_multiplicity
 _atom_site_fract_x
 _atom_site_fract_y
 _atom_site_fract_z
 _atom_site_occupancy
  Li  Li0  1  0.003361  0.004639  0.751102  1
  Li  Li1  1  0.287415  0.289277  0.250748  1
  Li  Li2  1  0.499784  0.499958  0.499588  1
  Li  Li3  1  0.500042  0.500216  0.999588  1
  Li  Li4  1  0.710723  0.712585  0.750748  1
  Li  Li5  1  0.995361  0.996639  0.251102  1
  Mn  Mn6  1  0.624691  0.056221  0.869262  1
  Mn  Mn7  1  0.943779  0.375309  0.369262  1
  V  V8  1  0.058294  0.623723  0.639587  1
  V  V9  1  0.376277  0.941706  0.139587  1
  P  P10  1  0.286870  0.285788  0.750683  1
  P  P11  1  0.139086  0.665413  0.136639  1
  P  P12  1  0.334587  0.860914  0.636639  1
  P  P13  1  0.660659  0.133747  0.365423  1
  P  P14  1  0.866253  0.339341  0.865423  1
  P  P15  1  0.714212  0.713130  0.250683  1
  O  O16  1  0.013279  0.661694  0.910110  1
  O  O17  1  0.053808  0.613975  0.326803  1
  O  O18  1  0.257948  0.174114  0.967270  1
  O  O19  1  0.171990  0.263573  0.526281  1
  O  O20  1  0.151168  0.841439  0.599038  1
  O  O21  1  0.265831  0.461442  0.768030  1
  O  O22  1  0.158561  0.848832  0.099038  1
  O  O23  1  0.297878  0.545320  0.204607  1
  O  O24  1  0.386025  0.946192  0.826803  1
  O  O25  1  0.338306  0.986721  0.410110  1
  O  O26  1  0.462186  0.257945  0.728895  1
  O  O27  1  0.454680  0.702122  0.704607  1
  O  O28  1  0.546261  0.296205  0.294657  1
  O  O29  1  0.538558  0.734169  0.268030  1
  O  O30  1  0.658395  0.011792  0.596753  1
  O  O31  1  0.595263  0.046634  0.174118  1
  O  O32  1  0.703795  0.453739  0.794657  1
  O  O33  1  0.855464  0.156734  0.890404  1
  O  O34  1  0.742055  0.537814  0.228895  1
  O  O35  1  0.843266  0.144536  0.390404  1
  O  O36  1  0.825886  0.742052  0.467270  1
  O  O37  1  0.736427  0.828010  0.026281  1
  O  O38  1  0.953366  0.404737  0.674118  1
  O  O39  1  0.988208  0.341605  0.096753  1
