# generated using pymatgen
data_Li32Ti5Cr11O48
_symmetry_space_group_name_H-M   'P 1'
_cell_length_a   5.04104735
_cell_length_b   5.04104745
_cell_length_c   38.57732373
_cell_angle_alpha   89.01919832
_cell_angle_beta   90.98080209
_cell_angle_gamma   60.37408353
_symmetry_Int_Tables_number   1
_chemical_formula_structural   Li32Ti5Cr11O48
_chemical_formula_sum   'Li32 Ti5 Cr11 O48'
_cell_volume   851.68159390
_cell_formula_units_Z   1
loop_
 _symmetry_equiv_pos_site_id
 _symmetry_equiv_pos_as_xyz
  1  'x, y, z'
loop_
 _atom_site_type_symbol
 _atom_site_label
 _atom_site_symmetry_multiplicity
 _atom_site_fract_x
 _atom_site_fract_y
 _atom_site_fract_z
 _atom_site_occupancy
  Li  Li0  1  0.088145  0.086829  0.249921  1
  Li  Li1  1  0.000848  0.502053  0.999959  1
  Li  Li2  1  0.062234  0.437234  0.187500  1
  Li  Li3  1  0.127053  0.375848  0.375041  1
  Li  Li4  1  0.185710  0.316014  0.562575  1
  Li  Li5  1  0.244411  0.252180  0.749824  1
  Li  Li6  1  0.312541  0.187497  0.937528  1
  Li  Li7  1  0.034585  0.786281  0.124898  1
  Li  Li8  1  0.379911  0.127359  0.125001  1
  Li  Li9  1  0.165845  0.654500  0.500065  1
  Li  Li10  1  0.279500  0.540845  0.874935  1
  Li  Li11  1  0.439268  0.058611  0.312471  1
  Li  Li12  1  0.497601  0.999475  0.499983  1
  Li  Li13  1  0.411281  0.409585  0.250102  1
  Li  Li14  1  0.529156  0.293650  0.625050  1
  Li  Li15  1  0.217335  0.960924  0.625419  1
  Li  Li16  1  0.343621  0.836561  0.999867  1
  Li  Li17  1  0.656886  0.161375  0.999952  1
  Li  Li18  1  0.786375  0.031886  0.375048  1
  Li  Li19  1  0.461561  0.718621  0.375133  1
  Li  Li20  1  0.585924  0.592335  0.749581  1
  Li  Li21  1  0.562428  0.937428  0.687500  1
  Li  Li22  1  0.711829  0.463145  0.125079  1
  Li  Li23  1  0.836632  0.345199  0.499785  1
  Li  Li24  1  0.624475  0.872601  0.875017  1
  Li  Li25  1  0.970199  0.211632  0.875215  1
  Li  Li26  1  0.683611  0.814268  0.062529  1
  Li  Li27  1  0.752359  0.754911  0.249999  1
  Li  Li28  1  0.812497  0.687541  0.437472  1
  Li  Li29  1  0.877180  0.619411  0.625176  1
  Li  Li30  1  0.941014  0.560710  0.812425  1
  Li  Li31  1  0.918650  0.904156  0.749950  1
  Ti  Ti32  1  0.025555  0.142507  0.062690  1
  Ti  Ti33  1  0.599969  0.232577  0.812190  1
  Ti  Ti34  1  0.396136  0.771136  0.187500  1
  Ti  Ti35  1  0.767507  0.400555  0.312310  1
  Ti  Ti36  1  0.857577  0.974969  0.562810  1
  Cr  Cr37  1  0.141277  0.016546  0.437563  1
  Cr  Cr38  1  0.106664  0.727571  0.312793  1
  Cr  Cr39  1  0.232928  0.607928  0.687500  1
  Cr  Cr40  1  0.352571  0.481664  0.062207  1
  Cr  Cr41  1  0.483729  0.358159  0.437402  1
  Cr  Cr42  1  0.272590  0.893713  0.812631  1
  Cr  Cr43  1  0.731187  0.106187  0.187500  1
  Cr  Cr44  1  0.518713  0.647590  0.562369  1
  Cr  Cr45  1  0.641546  0.516277  0.937437  1
  Cr  Cr46  1  0.890962  0.265962  0.687500  1
  Cr  Cr47  1  0.983159  0.858730  0.937598  1
  O  O48  1  0.090872  0.049480  0.340502  1
  O  O49  1  0.050758  0.090012  0.159198  1
  O  O50  1  0.075009  0.435274  0.283796  1
  O  O51  1  0.194903  0.304709  0.659343  1
  O  O52  1  0.060274  0.450009  0.091204  1
  O  O53  1  0.181246  0.318631  0.465775  1
  O  O54  1  0.304425  0.200937  0.841892  1
  O  O55  1  0.321069  0.173899  0.032944  1
  O  O56  1  0.443753  0.056355  0.409205  1
  O  O57  1  0.066187  0.787019  0.215556  1
  O  O58  1  0.429943  0.073293  0.216449  1
  O  O59  1  0.190234  0.660845  0.591298  1
  O  O60  1  0.332407  0.532935  0.965742  1
  O  O61  1  0.042277  0.808814  0.034324  1
  O  O62  1  0.157935  0.707407  0.409258  1
  O  O63  1  0.285845  0.565234  0.783702  1
  O  O64  1  0.217567  0.917525  0.715633  1
  O  O65  1  0.191430  0.957551  0.534534  1
  O  O66  1  0.292429  0.841858  0.909288  1
  O  O67  1  0.433814  0.417277  0.340676  1
  O  O68  1  0.582289  0.282015  0.715757  1
  O  O69  1  0.412019  0.441187  0.159444  1
  O  O70  1  0.534489  0.325798  0.534626  1
  O  O71  1  0.658340  0.207096  0.909235  1
  O  O72  1  0.338862  0.809767  0.091169  1
  O  O73  1  0.466858  0.667429  0.465712  1
  O  O74  1  0.582551  0.566430  0.840466  1
  O  O75  1  0.434767  0.713862  0.283831  1
  O  O76  1  0.542525  0.592567  0.659367  1
  O  O77  1  0.689922  0.164565  0.090265  1
  O  O78  1  0.832096  0.033340  0.465765  1
  O  O79  1  0.789565  0.064922  0.284735  1
  O  O80  1  0.715012  0.425758  0.215802  1
  O  O81  1  0.835299  0.310409  0.590497  1
  O  O82  1  0.966910  0.167807  0.965834  1
  O  O83  1  0.674480  0.465872  0.034498  1
  O  O84  1  0.792807  0.341910  0.409166  1
  O  O85  1  0.564579  0.925473  0.783583  1
  O  O86  1  0.935409  0.210299  0.784503  1
  O  O87  1  0.550473  0.939579  0.591417  1
  O  O88  1  0.681355  0.818753  0.965795  1
  O  O89  1  0.698293  0.804943  0.158551  1
  O  O90  1  0.825937  0.679425  0.533108  1
  O  O91  1  0.943631  0.556246  0.909225  1
  O  O92  1  0.798899  0.696069  0.342056  1
  O  O93  1  0.929709  0.569903  0.715657  1
  O  O94  1  0.950798  0.909489  0.840374  1
  O  O95  1  0.907015  0.957289  0.659243  1
