# generated using pymatgen
data_Li5Fe8(BO3)8
_symmetry_space_group_name_H-M   'P 1'
_cell_length_a   5.27622340
_cell_length_b   9.08401301
_cell_length_c   11.37150743
_cell_angle_alpha   113.17468788
_cell_angle_beta   77.54342912
_cell_angle_gamma   89.94095371
_symmetry_Int_Tables_number   1
_chemical_formula_structural   Li5Fe8(BO3)8
_chemical_formula_sum   'Li5 Fe8 B8 O24'
_cell_volume   487.00860923
_cell_formula_units_Z   1
loop_
 _symmetry_equiv_pos_site_id
 _symmetry_equiv_pos_as_xyz
  1  'x, y, z'
loop_
 _atom_site_type_symbol
 _atom_site_label
 _atom_site_symmetry_multiplicity
 _atom_site_fract_x
 _atom_site_fract_y
 _atom_site_fract_z
 _atom_site_occupancy
  Li  Li0  1  0.171403  0.164121  0.341232  1
  Li  Li1  1  0.611466  0.051833  0.096791  1
  Li  Li2  1  0.922398  0.430890  0.839028  1
  Li  Li3  1  0.110740  0.552084  0.102664  1
  Li  Li4  1  0.423852  0.928554  0.834767  1
  Fe  Fe5  1  0.402858  0.279094  0.869352  1
  Fe  Fe6  1  0.091455  0.230760  0.120140  1
  Fe  Fe7  1  0.842259  0.140190  0.620124  1
  Fe  Fe8  1  0.652729  0.353903  0.372549  1
  Fe  Fe9  1  0.347964  0.639331  0.616643  1
  Fe  Fe10  1  0.154019  0.842090  0.366898  1
  Fe  Fe11  1  0.906596  0.778256  0.871629  1
  Fe  Fe12  1  0.606294  0.718443  0.121992  1
  B  B13  1  0.638728  0.017397  0.370780  1
  B  B14  1  0.900454  0.103304  0.870773  1
  B  B15  1  0.149985  0.515479  0.371054  1
  B  B16  1  0.401660  0.607770  0.873011  1
  B  B17  1  0.848508  0.481685  0.626803  1
  B  B18  1  0.607503  0.390378  0.116152  1
  B  B19  1  0.346151  0.978411  0.620744  1
  B  B20  1  0.099242  0.897526  0.127848  1
  O  O21  1  0.141771  0.117661  0.902288  1
  O  O22  1  0.472510  0.118710  0.654364  1
  O  O23  1  0.234304  0.029444  0.137880  1
  O  O24  1  0.522223  0.146175  0.364720  1
  O  O25  1  0.882192  0.027499  0.409864  1
  O  O26  1  0.812076  0.209267  0.821221  1
  O  O27  1  0.247493  0.489770  0.887105  1
  O  O28  1  0.051756  0.365621  0.333228  1
  O  O29  1  0.699355  0.275403  0.154350  1
  O  O30  1  0.624584  0.479459  0.582877  1
  O  O31  1  0.942554  0.346772  0.638362  1
  O  O32  1  0.368743  0.373021  0.079128  1
  O  O33  1  0.641758  0.620102  0.906484  1
  O  O34  1  0.365130  0.535854  0.425694  1
  O  O35  1  0.311467  0.718557  0.829982  1
  O  O36  1  0.977959  0.619718  0.663040  1
  O  O37  1  0.753063  0.512389  0.110488  1
  O  O38  1  0.194946  0.780621  0.165462  1
  O  O39  1  0.126162  0.972262  0.568067  1
  O  O40  1  0.430028  0.853059  0.643811  1
  O  O41  1  0.045023  0.640104  0.351329  1
  O  O42  1  0.743187  0.989655  0.889989  1
  O  O43  1  0.527869  0.871649  0.337106  1
  O  O44  1  0.868127  0.877154  0.086228  1
