# generated using pymatgen
data_Li4Fe3Co2Cu3O16
_symmetry_space_group_name_H-M   'P 1'
_cell_length_a   5.82924813
_cell_length_b   5.83946900
_cell_length_c   9.28002048
_cell_angle_alpha   89.99366737
_cell_angle_beta   89.59278930
_cell_angle_gamma   120.08532913
_symmetry_Int_Tables_number   1
_chemical_formula_structural   Li4Fe3Co2Cu3O16
_chemical_formula_sum   'Li4 Fe3 Co2 Cu3 O16'
_cell_volume   273.32321489
_cell_formula_units_Z   1
loop_
 _symmetry_equiv_pos_site_id
 _symmetry_equiv_pos_as_xyz
  1  'x, y, z'
loop_
 _atom_site_type_symbol
 _atom_site_label
 _atom_site_symmetry_multiplicity
 _atom_site_fract_x
 _atom_site_fract_y
 _atom_site_fract_z
 _atom_site_occupancy
  Li  Li0  1  0.322178  0.660562  0.897514  1
  Li  Li1  1  0.005957  0.002947  0.995008  1
  Li  Li2  1  0.012901  0.006861  0.489633  1
  Li  Li3  1  0.663745  0.332037  0.395228  1
  Fe  Fe4  1  0.660527  0.830070  0.212526  1
  Fe  Fe5  1  0.827889  0.659204  0.713301  1
  Fe  Fe6  1  0.827972  0.168981  0.713345  1
  Co  Co7  1  0.335413  0.667923  0.484845  1
  Co  Co8  1  0.660389  0.330016  0.986573  1
  Cu  Cu9  1  0.170310  0.825345  0.211049  1
  Cu  Cu10  1  0.170303  0.344876  0.211024  1
  Cu  Cu11  1  0.343973  0.171636  0.710387  1
  O  O12  1  0.167188  0.823644  0.593098  1
  O  O13  1  0.045373  0.522960  0.353818  1
  O  O14  1  0.327054  0.663210  0.107501  1
  O  O15  1  0.014647  0.007699  0.296342  1
  O  O16  1  0.015105  0.007801  0.802309  1
  O  O17  1  0.166944  0.344659  0.593109  1
  O  O18  1  0.480532  0.955822  0.351976  1
  O  O19  1  0.480292  0.524671  0.352351  1
  O  O20  1  0.346363  0.172895  0.092190  1
  O  O21  1  0.660481  0.830361  0.598347  1
  O  O22  1  0.520032  0.478384  0.852200  1
  O  O23  1  0.520870  0.040816  0.852634  1
  O  O24  1  0.658136  0.328948  0.604112  1
  O  O25  1  0.821796  0.655398  0.094585  1
  O  O26  1  0.951730  0.476090  0.848437  1
  O  O27  1  0.821904  0.166485  0.094397  1
