# generated using pymatgen
data_NiPH4ClO3
_symmetry_space_group_name_H-M   'P 1'
_cell_length_a   7.34602812
_cell_length_b   13.28189936
_cell_length_c   9.54350976
_cell_angle_alpha   90.00000000
_cell_angle_beta   90.00000000
_cell_angle_gamma   90.00000000
_symmetry_Int_Tables_number   1
_chemical_formula_structural   NiPH4ClO3
_chemical_formula_sum   'Ni8 P8 H32 Cl8 O24'
_cell_volume   931.15267151
_cell_formula_units_Z   8
loop_
 _symmetry_equiv_pos_site_id
 _symmetry_equiv_pos_as_xyz
  1  'x, y, z'
loop_
 _atom_site_type_symbol
 _atom_site_label
 _atom_site_symmetry_multiplicity
 _atom_site_fract_x
 _atom_site_fract_y
 _atom_site_fract_z
 _atom_site_occupancy
  Ni  Ni0  1  0.621096  0.503617  0.356471  1
  Ni  Ni1  1  0.121096  0.996383  0.643529  1
  Ni  Ni2  1  0.378904  0.003617  0.143529  1
  Ni  Ni3  1  0.878904  0.496383  0.856471  1
  Ni  Ni4  1  0.378904  0.496383  0.643529  1
  Ni  Ni5  1  0.878904  0.003617  0.356471  1
  Ni  Ni6  1  0.621096  0.996383  0.856471  1
  Ni  Ni7  1  0.121096  0.503617  0.143529  1
  P  P8  1  0.722241  0.152663  0.110250  1
  P  P9  1  0.222241  0.347337  0.889750  1
  P  P10  1  0.277759  0.652663  0.389750  1
  P  P11  1  0.777759  0.847337  0.610250  1
  P  P12  1  0.277759  0.847337  0.889750  1
  P  P13  1  0.777759  0.652663  0.110250  1
  P  P14  1  0.722241  0.347337  0.610250  1
  P  P15  1  0.222241  0.152663  0.389750  1
  H  H16  1  0.798535  0.217524  0.009513  1
  H  H17  1  0.298535  0.282476  0.990487  1
  H  H18  1  0.201465  0.717524  0.490487  1
  H  H19  1  0.701465  0.782476  0.509513  1
  H  H20  1  0.201465  0.782476  0.990487  1
  H  H21  1  0.701465  0.717524  0.009513  1
  H  H22  1  0.798535  0.282476  0.509513  1
  H  H23  1  0.298535  0.217524  0.490487  1
  H  H24  1  0.627177  0.214417  0.205817  1
  H  H25  1  0.127177  0.285583  0.794183  1
  H  H26  1  0.372823  0.714417  0.294183  1
  H  H27  1  0.872823  0.785583  0.705817  1
  H  H28  1  0.372823  0.785583  0.794183  1
  H  H29  1  0.872823  0.714417  0.205817  1
  H  H30  1  0.627177  0.285583  0.705817  1
  H  H31  1  0.127177  0.214417  0.294183  1
  H  H32  1  0.068961  0.093283  0.075588  1
  H  H33  1  0.568961  0.406717  0.924412  1
  H  H34  1  0.931039  0.593283  0.424412  1
  H  H35  1  0.431039  0.906717  0.575588  1
  H  H36  1  0.931039  0.906717  0.924412  1
  H  H37  1  0.431039  0.593283  0.075588  1
  H  H38  1  0.068961  0.406717  0.575588  1
  H  H39  1  0.568961  0.093283  0.424412  1
  H  H40  1  0.201928  0.089298  0.940428  1
  H  H41  1  0.701928  0.410702  0.059572  1
  H  H42  1  0.798072  0.589298  0.559572  1
  H  H43  1  0.298072  0.910702  0.440428  1
  H  H44  1  0.798072  0.910702  0.059572  1
  H  H45  1  0.298072  0.589298  0.940428  1
  H  H46  1  0.201928  0.410702  0.440428  1
  H  H47  1  0.701928  0.089298  0.559572  1
  Cl  Cl48  1  0.373877  0.401427  0.236581  1
  Cl  Cl49  1  0.873877  0.098573  0.763419  1
  Cl  Cl50  1  0.626123  0.901427  0.263419  1
  Cl  Cl51  1  0.126123  0.598573  0.736581  1
  Cl  Cl52  1  0.626123  0.598573  0.763419  1
  Cl  Cl53  1  0.126123  0.901427  0.236581  1
  Cl  Cl54  1  0.373877  0.098573  0.736581  1
  Cl  Cl55  1  0.873877  0.401427  0.263419  1
  O  O56  1  0.579885  0.085744  0.036109  1
  O  O57  1  0.079885  0.414256  0.963891  1
  O  O58  1  0.420115  0.585744  0.463891  1
  O  O59  1  0.920115  0.914256  0.536109  1
  O  O60  1  0.420115  0.914256  0.963891  1
  O  O61  1  0.920115  0.585744  0.036109  1
  O  O62  1  0.579885  0.414256  0.536109  1
  O  O63  1  0.079885  0.085744  0.463891  1
  O  O64  1  0.197248  0.098580  0.042415  1
  O  O65  1  0.697248  0.401421  0.957585  1
  O  O66  1  0.802752  0.598580  0.457585  1
  O  O67  1  0.302752  0.901420  0.542415  1
  O  O68  1  0.802752  0.901420  0.957585  1
  O  O69  1  0.302752  0.598580  0.042415  1
  O  O70  1  0.197248  0.401421  0.542415  1
  O  O71  1  0.697248  0.098580  0.457585  1
  O  O72  1  0.878563  0.096298  0.182197  1
  O  O73  1  0.378563  0.403702  0.817803  1
  O  O74  1  0.121437  0.596298  0.317803  1
  O  O75  1  0.621437  0.903702  0.682197  1
  O  O76  1  0.121437  0.903702  0.817803  1
  O  O77  1  0.621437  0.596298  0.182197  1
  O  O78  1  0.878563  0.403702  0.682197  1
  O  O79  1  0.378563  0.096298  0.317803  1
