# generated using pymatgen
data_H16RhN5(ClO4)2
_symmetry_space_group_name_H-M   'P 1'
_cell_length_a   10.36246005
_cell_length_b   8.17291762
_cell_length_c   15.44601889
_cell_angle_alpha   90.00000000
_cell_angle_beta   90.00000000
_cell_angle_gamma   90.00000000
_symmetry_Int_Tables_number   1
_chemical_formula_structural   H16RhN5(ClO4)2
_chemical_formula_sum   'H64 Rh4 N20 Cl8 O32'
_cell_volume   1308.14700818
_cell_formula_units_Z   4
loop_
 _symmetry_equiv_pos_site_id
 _symmetry_equiv_pos_as_xyz
  1  'x, y, z'
loop_
 _atom_site_type_symbol
 _atom_site_label
 _atom_site_symmetry_multiplicity
 _atom_site_fract_x
 _atom_site_fract_y
 _atom_site_fract_z
 _atom_site_occupancy
  H  H0  1  0.629325  0.013881  0.247216  1
  H  H1  1  0.870675  0.986119  0.747216  1
  H  H2  1  0.129325  0.486119  0.752784  1
  H  H3  1  0.370675  0.513881  0.252784  1
  H  H4  1  0.500938  0.958163  0.192718  1
  H  H5  1  0.999062  0.041837  0.692718  1
  H  H6  1  0.000938  0.541837  0.807282  1
  H  H7  1  0.499062  0.458163  0.307282  1
  H  H8  1  0.532777  0.871807  0.286055  1
  H  H9  1  0.967223  0.128193  0.786055  1
  H  H10  1  0.032777  0.628193  0.713945  1
  H  H11  1  0.467223  0.371807  0.213945  1
  H  H12  1  0.874521  0.644668  0.284116  1
  H  H13  1  0.625479  0.355332  0.784116  1
  H  H14  1  0.374522  0.855332  0.715884  1
  H  H15  1  0.125478  0.144668  0.215884  1
  H  H16  1  0.864432  0.846565  0.283005  1
  H  H17  1  0.635568  0.153435  0.783005  1
  H  H18  1  0.364432  0.653435  0.716995  1
  H  H19  1  0.135568  0.346565  0.216995  1
  H  H20  1  0.761567  0.736965  0.338653  1
  H  H21  1  0.738433  0.263035  0.838653  1
  H  H22  1  0.261567  0.763035  0.661347  1
  H  H23  1  0.238433  0.236965  0.161347  1
  H  H24  1  0.865113  0.499194  0.160016  1
  H  H25  1  0.634887  0.500806  0.660016  1
  H  H26  1  0.365113  0.000806  0.839984  1
  H  H27  1  0.134887  0.999194  0.339984  1
  H  H28  1  0.748561  0.452312  0.093156  1
  H  H29  1  0.751439  0.547688  0.593156  1
  H  H30  1  0.248561  0.047688  0.906844  1
  H  H31  1  0.251439  0.952312  0.406844  1
  H  H32  1  0.859555  0.584025  0.064342  1
  H  H33  1  0.640445  0.415975  0.564342  1
  H  H34  1  0.359555  0.915975  0.935658  1
  H  H35  1  0.140445  0.084025  0.435658  1
  H  H36  1  0.515092  0.615829  0.061796  1
  H  H37  1  0.984908  0.384171  0.561796  1
  H  H38  1  0.015092  0.884171  0.938204  1
  H  H39  1  0.484908  0.115829  0.438204  1
  H  H40  1  0.491088  0.814252  0.070432  1
  H  H41  1  0.008912  0.185748  0.570432  1
  H  H42  1  0.991088  0.685748  0.929568  1
  H  H43  1  0.508912  0.314252  0.429568  1
  H  H44  1  0.607430  0.744776  0.007455  1
  H  H45  1  0.892570  0.255224  0.507455  1
  H  H46  1  0.107430  0.755224  0.992545  1
  H  H47  1  0.392570  0.244776  0.492545  1
  H  H48  1  0.900367  0.943492  0.125572  1
  H  H49  1  0.599633  0.056508  0.625572  1
  H  H50  1  0.400367  0.556508  0.874428  1
  H  H51  1  0.099633  0.443492  0.374428  1
  H  H52  1  0.808194  0.919480  0.040070  1
  H  H53  1  0.691806  0.080520  0.540070  1
  H  H54  1  0.308194  0.580520  0.959930  1
  H  H55  1  0.191806  0.419480  0.459930  1
  H  H56  1  0.766576  0.049986  0.114663  1
  H  H57  1  0.733424  0.950014  0.614663  1
  H  H58  1  0.266576  0.450014  0.885337  1
  H  H59  1  0.233424  0.549986  0.385337  1
  H  H60  1  0.610132  0.598492  0.216027  1
  H  H61  1  0.889868  0.401508  0.716027  1
  H  H62  1  0.110132  0.901508  0.783973  1
  H  H63  1  0.389868  0.098492  0.283973  1
  Rh  Rh64  1  0.690366  0.735456  0.171342  1
  Rh  Rh65  1  0.809634  0.264544  0.671342  1
  Rh  Rh66  1  0.190366  0.764544  0.828658  1
  Rh  Rh67  1  0.309634  0.235456  0.328658  1
  N  N68  1  0.574517  0.913679  0.230283  1
  N  N69  1  0.925483  0.086321  0.730283  1
  N  N70  1  0.074517  0.586321  0.769717  1
  N  N71  1  0.425483  0.413679  0.269717  1
  N  N72  1  0.811136  0.740925  0.281178  1
  N  N73  1  0.688864  0.259075  0.781178  1
  N  N74  1  0.311136  0.759075  0.718822  1
  N  N75  1  0.188864  0.240925  0.218822  1
  N  N76  1  0.803204  0.548397  0.115382  1
  N  N77  1  0.696796  0.451603  0.615382  1
  N  N78  1  0.303204  0.951603  0.884618  1
  N  N79  1  0.196796  0.048397  0.384618  1
  N  N80  1  0.561276  0.726473  0.065349  1
  N  N81  1  0.938724  0.273527  0.565349  1
  N  N82  1  0.061276  0.773527  0.934651  1
  N  N83  1  0.438724  0.226473  0.434651  1
  N  N84  1  0.806166  0.936161  0.105706  1
  N  N85  1  0.693834  0.063839  0.605706  1
  N  N86  1  0.306166  0.563839  0.894294  1
  N  N87  1  0.193834  0.436161  0.394294  1
  Cl  Cl88  1  0.679540  0.748970  0.830701  1
  Cl  Cl89  1  0.820460  0.251030  0.330701  1
  Cl  Cl90  1  0.179540  0.751030  0.169299  1
  Cl  Cl91  1  0.320460  0.248970  0.669299  1
  Cl  Cl92  1  0.005338  0.754524  0.535556  1
  Cl  Cl93  1  0.494662  0.245476  0.035556  1
  Cl  Cl94  1  0.505338  0.745476  0.464444  1
  Cl  Cl95  1  0.994662  0.254524  0.964444  1
  O  O96  1  0.589800  0.614702  0.810610  1
  O  O97  1  0.910200  0.385298  0.310610  1
  O  O98  1  0.089800  0.885298  0.189390  1
  O  O99  1  0.410200  0.114702  0.689390  1
  O  O100  1  0.770740  0.768547  0.759790  1
  O  O101  1  0.729260  0.231453  0.259790  1
  O  O102  1  0.270740  0.731453  0.240210  1
  O  O103  1  0.229260  0.268547  0.740210  1
  O  O104  1  0.749776  0.709747  0.910791  1
  O  O105  1  0.750224  0.290253  0.410791  1
  O  O106  1  0.249776  0.790253  0.089209  1
  O  O107  1  0.250224  0.209747  0.589209  1
  O  O108  1  0.605741  0.899396  0.843541  1
  O  O109  1  0.894259  0.100604  0.343541  1
  O  O110  1  0.105741  0.600604  0.156459  1
  O  O111  1  0.394259  0.399396  0.656459  1
  O  O112  1  0.555979  0.581709  0.445508  1
  O  O113  1  0.944021  0.418291  0.945508  1
  O  O114  1  0.055979  0.918291  0.554492  1
  O  O115  1  0.444021  0.081709  0.054492  1
  O  O116  1  0.596825  0.868309  0.430726  1
  O  O117  1  0.903175  0.131691  0.930726  1
  O  O118  1  0.096825  0.631691  0.569274  1
  O  O119  1  0.403175  0.368309  0.069274  1
  O  O120  1  0.881564  0.734372  0.580305  1
  O  O121  1  0.618436  0.265628  0.080305  1
  O  O122  1  0.381564  0.765628  0.419695  1
  O  O123  1  0.118436  0.234372  0.919695  1
  O  O124  1  0.489629  0.767584  0.556973  1
  O  O125  1  0.010371  0.232416  0.056973  1
  O  O126  1  0.989629  0.732416  0.443027  1
  O  O127  1  0.510371  0.267584  0.943027  1
