# generated using pymatgen
data_Li3V3P8O29
_symmetry_space_group_name_H-M   'P 1'
_cell_length_a   9.76634000
_cell_length_b   9.76394054
_cell_length_c   14.35830066
_cell_angle_alpha   90.56769621
_cell_angle_beta   90.55123086
_cell_angle_gamma   60.33746568
_symmetry_Int_Tables_number   1
_chemical_formula_structural   Li3V3P8O29
_chemical_formula_sum   'Li6 V6 P16 O58'
_cell_volume   1189.67882335
_cell_formula_units_Z   2
loop_
 _symmetry_equiv_pos_site_id
 _symmetry_equiv_pos_as_xyz
  1  'x, y, z'
loop_
 _atom_site_type_symbol
 _atom_site_label
 _atom_site_symmetry_multiplicity
 _atom_site_fract_x
 _atom_site_fract_y
 _atom_site_fract_z
 _atom_site_occupancy
  Li  Li0  1  0.918092  0.299068  0.553300  1
  Li  Li1  1  0.307552  0.920094  0.065854  1
  Li  Li2  1  0.307230  0.778220  0.549116  1
  Li  Li3  1  0.699384  0.083092  0.946475  1
  Li  Li4  1  0.221232  0.693182  0.950818  1
  Li  Li5  1  0.079297  0.693699  0.434296  1
  V  V6  1  0.572930  0.427115  0.250101  1
  V  V7  1  0.437077  0.563006  0.749949  1
  V  V8  1  0.569416  0.995236  0.743872  1
  V  V9  1  0.430967  0.007239  0.258065  1
  V  V10  1  0.992438  0.568882  0.241940  1
  V  V11  1  0.004784  0.430797  0.756183  1
  P  P12  1  0.914944  0.774664  0.834281  1
  P  P13  1  0.775245  0.913096  0.339146  1
  P  P14  1  0.915102  0.318032  0.340529  1
  P  P15  1  0.654784  0.671532  0.131741  1
  P  P16  1  0.668758  0.660101  0.632477  1
  P  P17  1  0.772146  0.314546  0.840881  1
  P  P18  1  0.685934  0.227905  0.659295  1
  P  P19  1  0.324160  0.910262  0.844958  1
  P  P20  1  0.681490  0.084852  0.159421  1
  P  P21  1  0.321542  0.767848  0.338840  1
  P  P22  1  0.232071  0.678271  0.160932  1
  P  P23  1  0.327730  0.345744  0.367952  1
  P  P24  1  0.339711  0.331647  0.867659  1
  P  P25  1  0.089567  0.676343  0.655106  1
  P  P26  1  0.225559  0.084956  0.665959  1
  P  P27  1  0.086767  0.224324  0.160616  1
  O  O28  1  0.019692  0.737265  0.562661  1
  O  O29  1  0.916854  0.741101  0.333128  1
  O  O30  1  0.746477  0.009711  0.068374  1
  O  O31  1  0.745655  0.918550  0.835594  1
  O  O32  1  0.905859  0.619341  0.821176  1
  O  O33  1  0.809145  0.667948  0.174043  1
  O  O34  1  0.904114  0.478951  0.317926  1
  O  O35  1  0.003746  0.225677  0.074749  1
  O  O36  1  0.914301  0.343758  0.833193  1
  O  O37  1  0.667998  0.812169  0.675816  1
  O  O38  1  0.618464  0.907011  0.322145  1
  O  O39  1  0.817774  0.513139  0.672242  1
  O  O40  1  0.654007  0.669892  0.028565  1
  O  O41  1  0.655250  0.666443  0.529624  1
  O  O42  1  0.658523  0.522705  0.176595  1
  O  O43  1  0.482008  0.902622  0.818617  1
  O  O44  1  0.508144  0.820557  0.173272  1
  O  O45  1  0.746376  0.340538  0.330566  1
  O  O46  1  0.793271  0.207163  0.750001  1
  O  O47  1  0.764297  0.237234  0.574329  1
  O  O48  1  0.762574  0.236119  0.925683  1
  O  O49  1  0.619532  0.475943  0.821308  1
  O  O50  1  0.516695  0.665814  0.676185  1
  O  O51  1  0.658815  0.253540  0.170008  1
  O  O52  1  0.479849  0.616924  0.323567  1
  O  O53  1  0.343850  0.913978  0.335650  1
  O  O54  1  0.796847  0.988660  0.243899  1
  O  O55  1  0.774490  0.996679  0.425109  1
  O  O56  1  0.232694  0.988420  0.584283  1
  O  O57  1  0.656546  0.085870  0.667152  1
  O  O58  1  0.524440  0.380462  0.678663  1
  O  O59  1  0.340735  0.743129  0.834217  1
  O  O60  1  0.476655  0.341666  0.323184  1
  O  O61  1  0.383350  0.520381  0.176348  1
  O  O62  1  0.237616  0.760669  0.074457  1
  O  O63  1  0.239535  0.762167  0.425459  1
  O  O64  1  0.210299  0.789579  0.249961  1
  O  O65  1  0.256926  0.659234  0.665445  1
  O  O66  1  0.486718  0.182299  0.828120  1
  O  O67  1  0.520870  0.095216  0.181885  1
  O  O68  1  0.334229  0.483518  0.823754  1
  O  O69  1  0.333098  0.345620  0.970497  1
  O  O70  1  0.328605  0.347879  0.471142  1
  O  O71  1  0.178864  0.492230  0.326318  1
  O  O72  1  0.380935  0.093907  0.678879  1
  O  O73  1  0.332001  0.190691  0.326044  1
  O  O74  1  0.086132  0.655711  0.164126  1
  O  O75  1  0.987582  0.795660  0.737957  1
  O  O76  1  0.011014  0.767418  0.916088  1
  O  O77  1  0.096957  0.518490  0.681294  1
  O  O78  1  0.187793  0.332445  0.824211  1
  O  O79  1  0.093234  0.380952  0.178202  1
  O  O80  1  0.258724  0.082230  0.166930  1
  O  O81  1  0.263919  0.979415  0.937634  1
  O  O82  1  0.204502  0.012927  0.762479  1
  O  O83  1  0.081781  0.254255  0.664423  1
  O  O84  1  0.991345  0.253138  0.431293  1
  O  O85  1  0.010644  0.202767  0.255771  1
