# generated using pymatgen
data_LiFe2OF5
_symmetry_space_group_name_H-M   'P 1'
_cell_length_a   5.34813319
_cell_length_b   4.85368871
_cell_length_c   15.21430478
_cell_angle_alpha   90.00000000
_cell_angle_beta   89.31129087
_cell_angle_gamma   90.00000000
_symmetry_Int_Tables_number   1
_chemical_formula_structural   LiFe2OF5
_chemical_formula_sum   'Li4 Fe8 O4 F20'
_cell_volume   394.90703467
_cell_formula_units_Z   4
loop_
 _symmetry_equiv_pos_site_id
 _symmetry_equiv_pos_as_xyz
  1  'x, y, z'
loop_
 _atom_site_type_symbol
 _atom_site_label
 _atom_site_symmetry_multiplicity
 _atom_site_fract_x
 _atom_site_fract_y
 _atom_site_fract_z
 _atom_site_occupancy
  Li  Li0  1  0.129102  0.006959  0.574369  1
  Li  Li1  1  0.129102  0.493041  0.074369  1
  Li  Li2  1  0.814843  0.505046  0.926600  1
  Li  Li3  1  0.814843  0.994954  0.426600  1
  Fe  Fe4  1  0.281161  0.518467  0.749320  1
  Fe  Fe5  1  0.302949  0.966298  0.904397  1
  Fe  Fe6  1  0.281161  0.981533  0.249319  1
  Fe  Fe7  1  0.302949  0.533702  0.404397  1
  Fe  Fe8  1  0.617081  0.477137  0.586986  1
  Fe  Fe9  1  0.792495  0.020909  0.752414  1
  Fe  Fe10  1  0.617081  0.022863  0.086986  1
  Fe  Fe11  1  0.792495  0.479091  0.252414  1
  O  O12  1  0.092788  0.831847  0.802204  1
  O  O13  1  0.092788  0.668153  0.302204  1
  O  O14  1  0.548104  0.276488  0.695804  1
  O  O15  1  0.548104  0.223512  0.195804  1
  F  F16  1  0.165835  0.326070  0.861831  1
  F  F17  1  0.078679  0.751800  0.975642  1
  F  F18  1  0.165835  0.173930  0.361831  1
  F  F19  1  0.078679  0.748200  0.475642  1
  F  F20  1  0.350076  0.289228  0.516833  1
  F  F21  1  0.334498  0.722748  0.637368  1
  F  F22  1  0.565664  0.719394  0.808467  1
  F  F23  1  0.350076  0.210772  0.016833  1
  F  F24  1  0.645129  0.184789  0.863245  1
  F  F25  1  0.334498  0.777252  0.137368  1
  F  F26  1  0.571198  0.774494  0.978061  1
  F  F27  1  0.565664  0.780606  0.308467  1
  F  F28  1  0.645129  0.315211  0.363245  1
  F  F29  1  0.571198  0.725506  0.478061  1
  F  F30  1  0.848103  0.237286  0.530143  1
  F  F31  1  0.823361  0.777821  0.644386  1
  F  F32  1  0.038932  0.273584  0.691932  1
  F  F33  1  0.848103  0.262714  0.030143  1
  F  F34  1  0.823361  0.722179  0.144385  1
  F  F35  1  0.038932  0.226416  0.191932  1
