# generated using pymatgen
data_Fe6OF11
_symmetry_space_group_name_H-M   'P 1'
_cell_length_a   4.83752860
_cell_length_b   4.83752860
_cell_length_c   9.69334408
_cell_angle_alpha   90.00000000
_cell_angle_beta   90.00000000
_cell_angle_gamma   89.54044705
_symmetry_Int_Tables_number   1
_chemical_formula_structural   Fe6OF11
_chemical_formula_sum   'Fe6 O1 F11'
_cell_volume   226.83326853
_cell_formula_units_Z   1
loop_
 _symmetry_equiv_pos_site_id
 _symmetry_equiv_pos_as_xyz
  1  'x, y, z'
loop_
 _atom_site_type_symbol
 _atom_site_label
 _atom_site_symmetry_multiplicity
 _atom_site_fract_x
 _atom_site_fract_y
 _atom_site_fract_z
 _atom_site_occupancy
  Fe  Fe0  1  0.009414  0.990586  0.015260  1
  Fe  Fe1  1  0.009414  0.990586  0.318073  1
  Fe  Fe2  1  0.000147  0.999853  0.666667  1
  Fe  Fe3  1  0.480626  0.519374  0.166667  1
  Fe  Fe4  1  0.503602  0.496398  0.834820  1
  Fe  Fe5  1  0.503602  0.496398  0.498513  1
  O  O6  1  0.194210  0.805790  0.166667  1
  F  F7  1  0.199090  0.800910  0.494501  1
  F  F8  1  0.199090  0.800910  0.838833  1
  F  F9  1  0.292938  0.293726  0.996826  1
  F  F10  1  0.292938  0.293726  0.336508  1
  F  F11  1  0.300043  0.296465  0.666667  1
  F  F12  1  0.706274  0.707062  0.996826  1
  F  F13  1  0.706274  0.707062  0.336508  1
  F  F14  1  0.703535  0.699957  0.666667  1
  F  F15  1  0.785784  0.214216  0.166667  1
  F  F16  1  0.806511  0.193489  0.841051  1
  F  F17  1  0.806511  0.193489  0.492282  1
