# generated using pymatgen
data_Cr3NiTe2(PO4)6
_symmetry_space_group_name_H-M   'P 1'
_cell_length_a   8.82402916
_cell_length_b   8.82402941
_cell_length_c   8.82402952
_cell_angle_alpha   58.53971372
_cell_angle_beta   58.53971517
_cell_angle_gamma   58.53971669
_symmetry_Int_Tables_number   1
_chemical_formula_structural   Cr3NiTe2(PO4)6
_chemical_formula_sum   'Cr3 Ni1 Te2 P6 O24'
_cell_volume   469.60597025
_cell_formula_units_Z   1
loop_
 _symmetry_equiv_pos_site_id
 _symmetry_equiv_pos_as_xyz
  1  'x, y, z'
loop_
 _atom_site_type_symbol
 _atom_site_label
 _atom_site_symmetry_multiplicity
 _atom_site_fract_x
 _atom_site_fract_y
 _atom_site_fract_z
 _atom_site_occupancy
  Cr  Cr0  1  0.143733  0.143733  0.143733  1
  Cr  Cr1  1  0.353692  0.353692  0.353692  1
  Cr  Cr2  1  0.647267  0.647267  0.647267  1
  Ni  Ni3  1  0.846857  0.846857  0.846857  1
  Te  Te4  1  0.987471  0.987471  0.987471  1
  Te  Te5  1  0.495931  0.495931  0.495931  1
  P  P6  1  0.040912  0.751512  0.458521  1
  P  P7  1  0.458521  0.040912  0.751512  1
  P  P8  1  0.751512  0.458521  0.040912  1
  P  P9  1  0.254350  0.537326  0.963700  1
  P  P10  1  0.537326  0.963700  0.254350  1
  P  P11  1  0.963700  0.254350  0.537326  1
  O  O12  1  0.120821  0.298665  0.511807  1
  O  O13  1  0.298665  0.511807  0.120821  1
  O  O14  1  0.065863  0.914228  0.260339  1
  O  O15  1  0.511807  0.120821  0.298665  1
  O  O16  1  0.236527  0.579275  0.432028  1
  O  O17  1  0.022366  0.797895  0.610190  1
  O  O18  1  0.260339  0.065863  0.914228  1
  O  O19  1  0.432028  0.236527  0.579275  1
  O  O20  1  0.579275  0.432028  0.236527  1
  O  O21  1  0.193631  0.389253  0.993750  1
  O  O22  1  0.084267  0.741329  0.939187  1
  O  O23  1  0.389253  0.993750  0.193631  1
  O  O24  1  0.610190  0.022366  0.797895  1
  O  O25  1  0.914228  0.260339  0.065863  1
  O  O26  1  0.797895  0.610190  0.022366  1
  O  O27  1  0.418263  0.565317  0.769703  1
  O  O28  1  0.565317  0.769703  0.418263  1
  O  O29  1  0.741329  0.939187  0.084267  1
  O  O30  1  0.993750  0.193631  0.389253  1
  O  O31  1  0.769703  0.418263  0.565317  1
  O  O32  1  0.489345  0.884385  0.700288  1
  O  O33  1  0.939187  0.084267  0.741329  1
  O  O34  1  0.700288  0.489345  0.884385  1
  O  O35  1  0.884385  0.700288  0.489345  1
