# generated using pymatgen
data_K2FePCO7
_symmetry_space_group_name_H-M   'P 1'
_cell_length_a   9.67066077
_cell_length_b   6.83733480
_cell_length_c   5.58082418
_cell_angle_alpha   90.00000000
_cell_angle_beta   91.36531996
_cell_angle_gamma   90.00000000
_symmetry_Int_Tables_number   1
_chemical_formula_structural   K2FePCO7
_chemical_formula_sum   'K4 Fe2 P2 C2 O14'
_cell_volume   368.90795476
_cell_formula_units_Z   2
loop_
 _symmetry_equiv_pos_site_id
 _symmetry_equiv_pos_as_xyz
  1  'x, y, z'
loop_
 _atom_site_type_symbol
 _atom_site_label
 _atom_site_symmetry_multiplicity
 _atom_site_fract_x
 _atom_site_fract_y
 _atom_site_fract_z
 _atom_site_occupancy
  K  K0  1  0.242574  0.479089  0.244782  1
  K  K1  1  0.242574  0.020911  0.244782  1
  K  K2  1  0.757426  0.520911  0.755219  1
  K  K3  1  0.757426  0.979089  0.755219  1
  Fe  Fe4  1  0.359407  0.750000  0.769413  1
  Fe  Fe5  1  0.640593  0.250000  0.230587  1
  P  P6  1  0.432718  0.250000  0.718659  1
  P  P7  1  0.567282  0.750000  0.281341  1
  C  C8  1  0.098589  0.750000  0.730644  1
  C  C9  1  0.901411  0.250000  0.269356  1
  O  O10  1  0.029881  0.250000  0.291688  1
  O  O11  1  0.167396  0.750000  0.938052  1
  O  O12  1  0.183898  0.750000  0.547683  1
  O  O13  1  0.345093  0.063101  0.755544  1
  O  O14  1  0.345093  0.436899  0.755544  1
  O  O15  1  0.439542  0.750000  0.104306  1
  O  O16  1  0.485095  0.250000  0.453449  1
  O  O17  1  0.514905  0.750000  0.546551  1
  O  O18  1  0.560458  0.250000  0.895694  1
  O  O19  1  0.654907  0.563101  0.244456  1
  O  O20  1  0.654907  0.936899  0.244456  1
  O  O21  1  0.816102  0.250000  0.452317  1
  O  O22  1  0.832604  0.250000  0.061948  1
  O  O23  1  0.970119  0.750000  0.708312  1
