# generated using pymatgen
data_SiBi2O5
_symmetry_space_group_name_H-M   'P 1'
_cell_length_a   10.84936675
_cell_length_b   3.90540938
_cell_length_c   11.07085468
_cell_angle_alpha   90.00000000
_cell_angle_beta   90.00000000
_cell_angle_gamma   90.00000000
_symmetry_Int_Tables_number   1
_chemical_formula_structural   SiBi2O5
_chemical_formula_sum   'Si4 Bi8 O20'
_cell_volume   469.08560454
_cell_formula_units_Z   4
loop_
 _symmetry_equiv_pos_site_id
 _symmetry_equiv_pos_as_xyz
  1  'x, y, z'
loop_
 _atom_site_type_symbol
 _atom_site_label
 _atom_site_symmetry_multiplicity
 _atom_site_fract_x
 _atom_site_fract_y
 _atom_site_fract_z
 _atom_site_occupancy
  Si  Si0  1  0.205443  0.250000  0.140838  1
  Si  Si1  1  0.294557  0.750000  0.640838  1
  Si  Si2  1  0.705443  0.250000  0.359162  1
  Si  Si3  1  0.794557  0.750000  0.859162  1
  Bi  Bi4  1  0.075051  0.250000  0.782364  1
  Bi  Bi5  1  0.146454  0.250000  0.454795  1
  Bi  Bi6  1  0.353546  0.750000  0.954795  1
  Bi  Bi7  1  0.424949  0.750000  0.282364  1
  Bi  Bi8  1  0.575051  0.250000  0.717636  1
  Bi  Bi9  1  0.646454  0.250000  0.045205  1
  Bi  Bi10  1  0.853546  0.750000  0.545205  1
  Bi  Bi11  1  0.924949  0.750000  0.217636  1
  O  O12  1  0.001788  0.250000  0.599990  1
  O  O13  1  0.060908  0.250000  0.183490  1
  O  O14  1  0.233397  0.750000  0.133270  1
  O  O15  1  0.192676  0.750000  0.755284  1
  O  O16  1  0.241846  0.250000  0.993254  1
  O  O17  1  0.258154  0.750000  0.493254  1
  O  O18  1  0.307324  0.250000  0.255284  1
  O  O19  1  0.266603  0.250000  0.633270  1
  O  O20  1  0.439092  0.750000  0.683490  1
  O  O21  1  0.498212  0.750000  0.099990  1
  O  O22  1  0.501788  0.250000  0.900010  1
  O  O23  1  0.560908  0.250000  0.316510  1
  O  O24  1  0.733397  0.750000  0.366730  1
  O  O25  1  0.692676  0.750000  0.744716  1
  O  O26  1  0.741846  0.250000  0.506746  1
  O  O27  1  0.758154  0.750000  0.006746  1
  O  O28  1  0.807324  0.250000  0.244716  1
  O  O29  1  0.766603  0.250000  0.866730  1
  O  O30  1  0.939092  0.750000  0.816510  1
  O  O31  1  0.998212  0.750000  0.400010  1
