# generated using pymatgen
data_MnH4(OF2)2
_symmetry_space_group_name_H-M   'P 1'
_cell_length_a   6.27809087
_cell_length_b   6.71461588
_cell_length_c   7.87548962
_cell_angle_alpha   94.53657910
_cell_angle_beta   113.48969748
_cell_angle_gamma   62.12822371
_symmetry_Int_Tables_number   1
_chemical_formula_structural   MnH4(OF2)2
_chemical_formula_sum   'Mn2 H8 O4 F8'
_cell_volume   266.79360921
_cell_formula_units_Z   2
loop_
 _symmetry_equiv_pos_site_id
 _symmetry_equiv_pos_as_xyz
  1  'x, y, z'
loop_
 _atom_site_type_symbol
 _atom_site_label
 _atom_site_symmetry_multiplicity
 _atom_site_fract_x
 _atom_site_fract_y
 _atom_site_fract_z
 _atom_site_occupancy
  Mn  Mn0  1  0.497141  0.749833  0.749088  1
  Mn  Mn1  1  0.497886  0.250167  0.250912  1
  H  H2  1  0.099047  0.934564  0.433328  1
  H  H3  1  0.659830  0.799901  0.095393  1
  H  H4  1  0.335537  0.700260  0.403504  1
  H  H5  1  0.394542  0.434190  0.933686  1
  H  H6  1  0.895044  0.565810  0.066314  1
  H  H7  1  0.632293  0.299740  0.596496  1
  H  H8  1  0.364339  0.200099  0.904607  1
  H  H9  1  0.600283  0.065436  0.566672  1
  O  O10  1  0.254567  0.779108  0.493234  1
  O  O11  1  0.740159  0.721196  0.005533  1
  O  O12  1  0.455822  0.278804  0.994467  1
  O  O13  1  0.540442  0.220892  0.506766  1
  F  F14  1  0.556002  0.956308  0.235936  1
  F  F15  1  0.677094  0.844825  0.669339  1
  F  F16  1  0.316702  0.653525  0.826956  1
  F  F17  1  0.440117  0.544063  0.265291  1
  F  F18  1  0.718890  0.455937  0.734709  1
  F  F19  1  0.143271  0.346475  0.173044  1
  F  F20  1  0.852579  0.155175  0.330661  1
  F  F21  1  0.276373  0.043692  0.764064  1
