# generated using pymatgen
data_CaGd2O4
_symmetry_space_group_name_H-M   'P 1'
_cell_length_a   6.88665348
_cell_length_b   6.94034682
_cell_length_c   6.88668811
_cell_angle_alpha   60.25540088
_cell_angle_beta   90.00003453
_cell_angle_gamma   119.74442973
_symmetry_Int_Tables_number   1
_chemical_formula_structural   CaGd2O4
_chemical_formula_sum   'Ca2 Gd4 O8'
_cell_volume   234.53353873
_cell_formula_units_Z   2
loop_
 _symmetry_equiv_pos_site_id
 _symmetry_equiv_pos_as_xyz
  1  'x, y, z'
loop_
 _atom_site_type_symbol
 _atom_site_label
 _atom_site_symmetry_multiplicity
 _atom_site_fract_x
 _atom_site_fract_y
 _atom_site_fract_z
 _atom_site_occupancy
  Ca  Ca0  1  0.000001  0.000003  0.999999  1
  Ca  Ca1  1  0.749999  0.499997  0.750001  1
  Gd  Gd2  1  0.375000  0.250000  0.375000  1
  Gd  Gd3  1  0.875000  0.250000  0.375000  1
  Gd  Gd4  1  0.375000  0.750000  0.375000  1
  Gd  Gd5  1  0.375000  0.750000  0.875000  1
  O  O6  1  0.139507  0.279014  0.131685  1
  O  O7  1  0.610493  0.220986  0.160699  1
  O  O8  1  0.589302  0.720987  0.139506  1
  O  O9  1  0.131684  0.720987  0.139508  1
  O  O10  1  0.610493  0.220986  0.618315  1
  O  O11  1  0.139507  0.279014  0.589301  1
  O  O12  1  0.160698  0.779013  0.610494  1
  O  O13  1  0.618316  0.779013  0.610492  1
