# generated using pymatgen
data_Li2MnFe(BO3)2
_symmetry_space_group_name_H-M   'P 1'
_cell_length_a   8.24376074
_cell_length_b   14.30912621
_cell_length_c   3.16511120
_cell_angle_alpha   90.00000000
_cell_angle_beta   90.00000000
_cell_angle_gamma   90.15147225
_symmetry_Int_Tables_number   1
_chemical_formula_structural   Li2MnFe(BO3)2
_chemical_formula_sum   'Li6 Mn3 Fe3 B6 O18'
_cell_volume   373.35841800
_cell_formula_units_Z   3
loop_
 _symmetry_equiv_pos_site_id
 _symmetry_equiv_pos_as_xyz
  1  'x, y, z'
loop_
 _atom_site_type_symbol
 _atom_site_label
 _atom_site_symmetry_multiplicity
 _atom_site_fract_x
 _atom_site_fract_y
 _atom_site_fract_z
 _atom_site_occupancy
  Li  Li0  1  0.292757  0.990238  0.500000  1
  Li  Li1  1  0.341688  0.357594  0.500000  1
  Li  Li2  1  0.367957  0.651133  0.500000  1
  Li  Li3  1  0.792760  0.492037  0.500000  1
  Li  Li4  1  0.841364  0.857553  0.500000  1
  Li  Li5  1  0.867017  0.150666  0.500000  1
  Mn  Mn6  1  0.133255  0.506283  0.000000  1
  Mn  Mn7  1  0.191819  0.179766  0.000000  1
  Mn  Mn8  1  0.634500  0.005945  0.000000  1
  Fe  Fe9  1  0.174949  0.816079  0.000000  1
  Fe  Fe10  1  0.675522  0.316649  0.000000  1
  Fe  Fe11  1  0.687919  0.680240  0.000000  1
  B  B12  1  0.999204  0.668081  0.500000  1
  B  B13  1  0.999768  0.998732  0.000000  1
  B  B14  1  0.997871  0.333345  0.500000  1
  B  B15  1  0.501822  0.167591  0.500000  1
  B  B16  1  0.501247  0.499314  0.000000  1
  B  B17  1  0.498679  0.832497  0.500000  1
  O  O18  1  0.008999  0.430088  0.500000  1
  O  O19  1  0.017344  0.764669  0.500000  1
  O  O20  1  0.137028  0.611354  0.500000  1
  O  O21  1  0.138103  0.279815  0.500000  1
  O  O22  1  0.153909  0.958153  0.000000  1
  O  O23  1  0.348520  0.125932  0.500000  1
  O  O24  1  0.346635  0.790116  0.500000  1
  O  O25  1  0.363487  0.443298  0.000000  1
  O  O26  1  0.487482  0.596534  0.000000  1
  O  O27  1  0.510978  0.929092  0.500000  1
  O  O28  1  0.517572  0.264385  0.500000  1
  O  O29  1  0.639240  0.111331  0.500000  1
  O  O30  1  0.638376  0.777895  0.500000  1
  O  O31  1  0.654499  0.458192  0.000000  1
  O  O32  1  0.845014  0.627859  0.500000  1
  O  O33  1  0.846487  0.290223  0.500000  1
  O  O34  1  0.863061  0.941762  0.000000  1
  O  O35  1  0.983169  0.095559  0.000000  1
