# generated using pymatgen
data_Li6V3P8O29
_symmetry_space_group_name_H-M   'P 1'
_cell_length_a   9.81076301
_cell_length_b   9.83388106
_cell_length_c   13.94256527
_cell_angle_alpha   90.24584196
_cell_angle_beta   90.47945998
_cell_angle_gamma   60.07850208
_symmetry_Int_Tables_number   1
_chemical_formula_structural   Li6V3P8O29
_chemical_formula_sum   'Li12 V6 P16 O58'
_cell_volume   1165.81286734
_cell_formula_units_Z   2
loop_
 _symmetry_equiv_pos_site_id
 _symmetry_equiv_pos_as_xyz
  1  'x, y, z'
loop_
 _atom_site_type_symbol
 _atom_site_label
 _atom_site_symmetry_multiplicity
 _atom_site_fract_x
 _atom_site_fract_y
 _atom_site_fract_z
 _atom_site_occupancy
  Li  Li0  1  0.776787  0.920698  0.558736  1
  Li  Li1  1  0.913648  0.314247  0.560547  1
  Li  Li2  1  0.674782  0.659881  0.383949  1
  Li  Li3  1  0.675916  0.661433  0.885880  1
  Li  Li4  1  0.763782  0.327610  0.065136  1
  Li  Li5  1  0.324415  0.909730  0.062708  1
  Li  Li6  1  0.314784  0.772833  0.561067  1
  Li  Li7  1  0.665229  0.100334  0.941676  1
  Li  Li8  1  0.233099  0.662467  0.942429  1
  Li  Li9  1  0.091538  0.681323  0.435944  1
  Li  Li10  1  0.225391  0.095565  0.439541  1
  Li  Li11  1  0.999851  0.000745  0.004318  1
  V  V12  1  0.564708  0.431700  0.254046  1
  V  V13  1  0.431579  0.565514  0.746248  1
  V  V14  1  0.568388  0.001302  0.748139  1
  V  V15  1  0.435859  0.001611  0.248620  1
  V  V16  1  0.996710  0.565982  0.242244  1
  V  V17  1  0.007528  0.429884  0.756270  1
  P  P18  1  0.913899  0.777805  0.840198  1
  P  P19  1  0.772165  0.908565  0.341423  1
  P  P20  1  0.910674  0.321313  0.343903  1
  P  P21  1  0.663105  0.663780  0.127102  1
  P  P22  1  0.669593  0.665727  0.627345  1
  P  P23  1  0.772662  0.317338  0.845037  1
  P  P24  1  0.685856  0.230909  0.658576  1
  P  P25  1  0.319240  0.905880  0.843796  1
  P  P26  1  0.687266  0.086062  0.157187  1
  P  P27  1  0.322301  0.771102  0.341899  1
  P  P28  1  0.228094  0.685744  0.157695  1
  P  P29  1  0.327624  0.336504  0.370604  1
  P  P30  1  0.337626  0.334671  0.874089  1
  P  P31  1  0.084094  0.679523  0.654286  1
  P  P32  1  0.229896  0.085716  0.659982  1
  P  P33  1  0.083078  0.223604  0.158345  1
  O  O34  1  0.999156  0.755787  0.562576  1
  O  O35  1  0.920782  0.744726  0.338871  1
  O  O36  1  0.772801  0.010404  0.066191  1
  O  O37  1  0.742674  0.921195  0.840316  1
  O  O38  1  0.898863  0.627937  0.833947  1
  O  O39  1  0.808885  0.669080  0.169641  1
  O  O40  1  0.890247  0.486501  0.326191  1
  O  O41  1  0.989683  0.208880  0.077089  1
  O  O42  1  0.916154  0.338496  0.841535  1
  O  O43  1  0.672742  0.815778  0.665276  1
  O  O44  1  0.628414  0.883363  0.321175  1
  O  O45  1  0.816857  0.517801  0.670934  1
  O  O46  1  0.662412  0.661307  0.019090  1
  O  O47  1  0.671187  0.663901  0.519530  1
  O  O48  1  0.671659  0.510732  0.166581  1
  O  O49  1  0.482920  0.890384  0.830225  1
  O  O50  1  0.509815  0.812388  0.164414  1
  O  O51  1  0.745881  0.340586  0.340960  1
  O  O52  1  0.786014  0.206350  0.756076  1
  O  O53  1  0.770037  0.241389  0.574392  1
  O  O54  1  0.768537  0.232680  0.934552  1
  O  O55  1  0.624222  0.480641  0.830022  1
  O  O56  1  0.514646  0.672533  0.664018  1
  O  O57  1  0.660186  0.254428  0.163119  1
  O  O58  1  0.489782  0.629174  0.325649  1
  O  O59  1  0.336234  0.920485  0.343949  1
  O  O60  1  0.791476  0.998088  0.250423  1
  O  O61  1  0.754438  0.995893  0.431922  1
  O  O62  1  0.245636  0.996681  0.568976  1
  O  O63  1  0.662593  0.085855  0.658054  1
  O  O64  1  0.524079  0.382047  0.676438  1
  O  O65  1  0.340495  0.737853  0.836868  1
  O  O66  1  0.471748  0.341412  0.325962  1
  O  O67  1  0.385466  0.532793  0.168763  1
  O  O68  1  0.222195  0.778068  0.068918  1
  O  O69  1  0.246836  0.752967  0.430777  1
  O  O70  1  0.212582  0.792529  0.250923  1
  O  O71  1  0.247893  0.668103  0.657995  1
  O  O72  1  0.487592  0.187335  0.833903  1
  O  O73  1  0.530450  0.085727  0.168720  1
  O  O74  1  0.326875  0.487586  0.831696  1
  O  O75  1  0.335009  0.338850  0.980460  1
  O  O76  1  0.323709  0.340645  0.477219  1
  O  O77  1  0.177330  0.481914  0.326321  1
  O  O78  1  0.380965  0.095002  0.680496  1
  O  O79  1  0.332896  0.182619  0.329885  1
  O  O80  1  0.087671  0.660653  0.161082  1
  O  O81  1  0.985854  0.797140  0.740952  1
  O  O82  1  0.008049  0.788359  0.921564  1
  O  O83  1  0.097783  0.520860  0.673963  1
  O  O84  1  0.188229  0.332992  0.828061  1
  O  O85  1  0.084239  0.379099  0.164804  1
  O  O86  1  0.252042  0.082140  0.159454  1
  O  O87  1  0.233706  0.983037  0.933694  1
  O  O88  1  0.211907  0.995241  0.750909  1
  O  O89  1  0.084347  0.249458  0.660185  1
  O  O90  1  0.001921  0.247952  0.434805  1
  O  O91  1  0.008842  0.205799  0.258103  1
