# generated using pymatgen
data_LiFe2(BO3)2
_symmetry_space_group_name_H-M   'P 1'
_cell_length_a   5.27559978
_cell_length_b   5.27765427
_cell_length_c   10.05598790
_cell_angle_alpha   89.85802781
_cell_angle_beta   90.28405643
_cell_angle_gamma   119.98713223
_symmetry_Int_Tables_number   1
_chemical_formula_structural   LiFe2(BO3)2
_chemical_formula_sum   'Li2 Fe4 B4 O12'
_cell_volume   242.50411512
_cell_formula_units_Z   2
loop_
 _symmetry_equiv_pos_site_id
 _symmetry_equiv_pos_as_xyz
  1  'x, y, z'
loop_
 _atom_site_type_symbol
 _atom_site_label
 _atom_site_symmetry_multiplicity
 _atom_site_fract_x
 _atom_site_fract_y
 _atom_site_fract_z
 _atom_site_occupancy
  Li  Li0  1  0.163937  0.023960  0.164212  1
  Li  Li1  1  0.139975  0.976040  0.664212  1
  Fe  Fe2  1  0.513346  0.340602  0.880790  1
  Fe  Fe3  1  0.172745  0.659398  0.380790  1
  Fe  Fe4  1  0.814869  0.308546  0.628245  1
  Fe  Fe5  1  0.506322  0.691454  0.128245  1
  B  B6  1  0.173144  0.666795  0.874802  1
  B  B7  1  0.506348  0.333205  0.374802  1
  B  B8  1  0.493490  0.660278  0.628824  1
  B  B9  1  0.833212  0.339722  0.128824  1
  O  O10  1  0.275267  0.056266  0.358349  1
  O  O11  1  0.070416  0.608071  0.172132  1
  O  O12  1  0.462346  0.391929  0.672132  1
  O  O13  1  0.576078  0.335246  0.083836  1
  O  O14  1  0.240831  0.664754  0.583836  1
  O  O15  1  0.847262  0.089676  0.131775  1
  O  O16  1  0.219003  0.943734  0.858349  1
  O  O17  1  0.771878  0.380197  0.423814  1
  O  O18  1  0.391682  0.619803  0.923814  1
  O  O19  1  0.475299  0.570597  0.338095  1
  O  O20  1  0.904701  0.429403  0.838095  1
  O  O21  1  0.757587  0.910324  0.631775  1
