# generated using pymatgen
data_Ba5Nb2O10
_symmetry_space_group_name_H-M   'P 1'
_cell_length_a   6.17795299
_cell_length_b   6.17873834
_cell_length_c   18.33528405
_cell_angle_alpha   89.99954479
_cell_angle_beta   90.00097362
_cell_angle_gamma   120.22517820
_symmetry_Int_Tables_number   1
_chemical_formula_structural   Ba5Nb2O10
_chemical_formula_sum   'Ba10 Nb4 O20'
_cell_volume   604.74566634
_cell_formula_units_Z   2
loop_
 _symmetry_equiv_pos_site_id
 _symmetry_equiv_pos_as_xyz
  1  'x, y, z'
loop_
 _atom_site_type_symbol
 _atom_site_label
 _atom_site_symmetry_multiplicity
 _atom_site_fract_x
 _atom_site_fract_y
 _atom_site_fract_z
 _atom_site_occupancy
  Ba  Ba0  1  0.331874  0.668025  0.249499  1
  Ba  Ba1  1  0.307705  0.692202  0.018425  1
  Ba  Ba2  1  0.996240  0.003662  0.135078  1
  Ba  Ba3  1  0.000510  0.999533  0.364954  1
  Ba  Ba4  1  0.003927  0.996643  0.635102  1
  Ba  Ba5  1  0.999627  0.000656  0.864966  1
  Ba  Ba6  1  0.350879  0.649368  0.480342  1
  Ba  Ba7  1  0.692276  0.307801  0.518421  1
  Ba  Ba8  1  0.668589  0.332416  0.749496  1
  Ba  Ba9  1  0.649101  0.350626  0.980341  1
  Nb  Nb10  1  0.336780  0.663339  0.669275  1
  Nb  Nb11  1  0.330970  0.669047  0.830194  1
  Nb  Nb12  1  0.663223  0.336680  0.169271  1
  Nb  Nb13  1  0.669016  0.330959  0.330187  1
  O  O14  1  0.063100  0.937248  0.000267  1
  O  O15  1  0.016263  0.524546  0.619876  1
  O  O16  1  0.024126  0.496040  0.885328  1
  O  O17  1  0.187259  0.812660  0.754865  1
  O  O18  1  0.187273  0.373074  0.747556  1
  O  O19  1  0.475423  0.983709  0.619843  1
  O  O20  1  0.504001  0.975817  0.885340  1
  O  O21  1  0.626932  0.812461  0.747557  1
  O  O22  1  0.484839  0.515039  0.610544  1
  O  O23  1  0.493479  0.506367  0.878752  1
  O  O24  1  0.506314  0.493434  0.378750  1
  O  O25  1  0.515068  0.484881  0.110526  1
  O  O26  1  0.373019  0.187394  0.247538  1
  O  O27  1  0.524576  0.016286  0.119850  1
  O  O28  1  0.812549  0.626894  0.247557  1
  O  O29  1  0.495973  0.024122  0.385311  1
  O  O30  1  0.812686  0.187296  0.254863  1
  O  O31  1  0.983692  0.475394  0.119858  1
  O  O32  1  0.975818  0.503902  0.385332  1
  O  O33  1  0.936889  0.062780  0.500264  1
