# generated using pymatgen
data_Li4Co3Sb5O16
_symmetry_space_group_name_H-M   'P 1'
_cell_length_a   6.25199727
_cell_length_b   6.19236246
_cell_length_c   10.26463345
_cell_angle_alpha   90.00340342
_cell_angle_beta   90.38929799
_cell_angle_gamma   119.68329316
_symmetry_Int_Tables_number   1
_chemical_formula_structural   Li4Co3Sb5O16
_chemical_formula_sum   'Li4 Co3 Sb5 O16'
_cell_volume   345.23354257
_cell_formula_units_Z   1
loop_
 _symmetry_equiv_pos_site_id
 _symmetry_equiv_pos_as_xyz
  1  'x, y, z'
loop_
 _atom_site_type_symbol
 _atom_site_label
 _atom_site_symmetry_multiplicity
 _atom_site_fract_x
 _atom_site_fract_y
 _atom_site_fract_z
 _atom_site_occupancy
  Li  Li0  1  0.323865  0.661945  0.889545  1
  Li  Li1  1  0.987742  0.993884  0.987569  1
  Li  Li2  1  0.994579  0.997329  0.503485  1
  Li  Li3  1  0.646525  0.323257  0.399581  1
  Co  Co4  1  0.660746  0.830353  0.213673  1
  Co  Co5  1  0.835745  0.664421  0.713659  1
  Co  Co6  1  0.835795  0.171369  0.713665  1
  Sb  Sb7  1  0.165298  0.830774  0.215648  1
  Sb  Sb8  1  0.358108  0.679051  0.510757  1
  Sb  Sb9  1  0.165255  0.334513  0.215621  1
  Sb  Sb10  1  0.342454  0.171209  0.717633  1
  Sb  Sb11  1  0.693748  0.346938  0.973825  1
  O  O12  1  0.178196  0.855179  0.604280  1
  O  O13  1  0.010469  0.505279  0.320329  1
  O  O14  1  0.309305  0.654633  0.105888  1
  O  O15  1  0.013590  0.006869  0.320260  1
  O  O16  1  0.018658  0.009394  0.807891  1
  O  O17  1  0.178271  0.323067  0.604270  1
  O  O18  1  0.470087  0.967892  0.323819  1
  O  O19  1  0.470084  0.502250  0.323797  1
  O  O20  1  0.298038  0.148947  0.106163  1
  O  O21  1  0.688696  0.844350  0.599425  1
  O  O22  1  0.507919  0.474778  0.839068  1
  O  O23  1  0.507906  0.033161  0.839121  1
  O  O24  1  0.648412  0.324145  0.609911  1
  O  O25  1  0.861006  0.699206  0.103238  1
  O  O26  1  0.968575  0.484284  0.842466  1
  O  O27  1  0.860925  0.161822  0.103257  1
