# generated using pymatgen
data_Fe3(OF2)2
_symmetry_space_group_name_H-M   'P 1'
_cell_length_a   10.86826349
_cell_length_b   6.67103805
_cell_length_c   3.10776022
_cell_angle_alpha   90.00000000
_cell_angle_beta   90.00000000
_cell_angle_gamma   72.12622497
_symmetry_Int_Tables_number   1
_chemical_formula_structural   Fe3(OF2)2
_chemical_formula_sum   'Fe6 O4 F8'
_cell_volume   214.44558732
_cell_formula_units_Z   2
loop_
 _symmetry_equiv_pos_site_id
 _symmetry_equiv_pos_as_xyz
  1  'x, y, z'
loop_
 _atom_site_type_symbol
 _atom_site_label
 _atom_site_symmetry_multiplicity
 _atom_site_fract_x
 _atom_site_fract_y
 _atom_site_fract_z
 _atom_site_occupancy
  Fe  Fe0  1  0.016627  0.991679  0.000000  1
  Fe  Fe1  1  0.009669  0.495186  0.500000  1
  Fe  Fe2  1  0.316707  0.341727  0.000000  1
  Fe  Fe3  1  0.666653  0.166601  0.500000  1
  Fe  Fe4  1  0.323690  0.838258  0.500000  1
  Fe  Fe5  1  0.666720  0.666543  0.000000  1
  O  O6  1  0.207065  0.396502  0.500000  1
  O  O7  1  0.126276  0.936885  0.500000  1
  O  O8  1  0.666685  0.368246  0.000000  1
  O  O9  1  0.666675  0.964955  0.000000  1
  F  F10  1  0.988513  0.300842  0.000000  1
  F  F11  1  0.344869  0.032557  0.000000  1
  F  F12  1  0.988424  0.710695  0.000000  1
  F  F13  1  0.457137  0.271531  0.500000  1
  F  F14  1  0.344740  0.622815  0.000000  1
  F  F15  1  0.876191  0.061732  0.500000  1
  F  F16  1  0.536032  0.731984  0.500000  1
  F  F17  1  0.797329  0.601263  0.500000  1
