# generated using pymatgen
data_Dy5Bi11O24
_symmetry_space_group_name_H-M   'P 1'
_cell_length_a   9.55717528
_cell_length_b   9.55553869
_cell_length_c   15.63476104
_cell_angle_alpha   90.01262764
_cell_angle_beta   90.02208628
_cell_angle_gamma   109.48224834
_symmetry_Int_Tables_number   1
_chemical_formula_structural   Dy5Bi11O24
_chemical_formula_sum   'Dy10 Bi22 O48'
_cell_volume   1346.07757396
_cell_formula_units_Z   2
loop_
 _symmetry_equiv_pos_site_id
 _symmetry_equiv_pos_as_xyz
  1  'x, y, z'
loop_
 _atom_site_type_symbol
 _atom_site_label
 _atom_site_symmetry_multiplicity
 _atom_site_fract_x
 _atom_site_fract_y
 _atom_site_fract_z
 _atom_site_occupancy
  Dy  Dy0  1  0.855992  0.143810  0.107574  1
  Dy  Dy1  1  0.998719  0.496609  0.001213  1
  Dy  Dy2  1  0.593385  0.341573  0.125063  1
  Dy  Dy3  1  0.749826  0.751416  0.248377  1
  Dy  Dy4  1  0.501900  0.000442  0.499452  1
  Dy  Dy5  1  0.248745  0.248916  0.247523  1
  Dy  Dy6  1  0.249818  0.251617  0.750801  1
  Dy  Dy7  1  0.998618  0.498260  0.500204  1
  Dy  Dy8  1  0.500816  0.002539  0.002258  1
  Dy  Dy9  1  0.749195  0.749047  0.749946  1
  Bi  Bi10  1  0.907842  0.157304  0.373134  1
  Bi  Bi11  1  0.486787  0.019359  0.263774  1
  Bi  Bi12  1  0.735807  0.767015  0.018608  1
  Bi  Bi13  1  0.890674  0.108629  0.641239  1
  Bi  Bi14  1  0.393018  0.607790  0.140835  1
  Bi  Bi15  1  0.640052  0.360102  0.389059  1
  Bi  Bi16  1  0.012720  0.479683  0.231922  1
  Bi  Bi17  1  0.765932  0.734527  0.483161  1
  Bi  Bi18  1  0.592801  0.343109  0.625105  1
  Bi  Bi19  1  0.091101  0.842667  0.125640  1
  Bi  Bi20  1  0.404757  0.656464  0.374430  1
  Bi  Bi21  1  0.906207  0.154752  0.877304  1
  Bi  Bi22  1  0.234556  0.264680  0.515084  1
  Bi  Bi23  1  0.984820  0.515089  0.766888  1
  Bi  Bi24  1  0.609267  0.391086  0.860789  1
  Bi  Bi25  1  0.110473  0.889826  0.359066  1
  Bi  Bi26  1  0.358605  0.640786  0.608998  1
  Bi  Bi27  1  0.515319  0.985114  0.735162  1
  Bi  Bi28  1  0.267174  0.234403  0.986329  1
  Bi  Bi29  1  0.408498  0.657692  0.876018  1
  Bi  Bi30  1  0.094240  0.844018  0.625097  1
  Bi  Bi31  1  0.141275  0.859700  0.891247  1
  O  O32  1  0.842859  0.385264  0.112971  1
  O  O33  1  0.606851  0.100069  0.133241  1
  O  O34  1  0.528764  0.253079  0.989092  1
  O  O35  1  0.502556  0.280567  0.261035  1
  O  O36  1  0.346641  0.345910  0.116960  1
  O  O37  1  0.651798  0.105338  0.384062  1
  O  O38  1  0.647843  0.593549  0.134723  1
  O  O39  1  0.744949  0.017423  0.982664  1
  O  O40  1  0.900858  0.414689  0.367399  1
  O  O41  1  0.967943  0.247313  0.515778  1
  O  O42  1  0.472058  0.754754  0.020032  1
  O  O43  1  0.867096  0.911543  0.139277  1
  O  O44  1  0.656722  0.121919  0.609978  1
  O  O45  1  0.000270  0.220881  0.226103  1
  O  O46  1  0.155076  0.620279  0.109980  1
  O  O47  1  0.166034  0.152549  0.380376  1
  O  O48  1  0.458852  0.224033  0.492494  1
  O  O49  1  0.257050  0.489865  0.272401  1
  O  O50  1  0.756214  0.487415  0.522873  1
  O  O51  1  0.257971  0.990334  0.024453  1
  O  O52  1  0.853357  0.901096  0.365449  1
  O  O53  1  0.523066  0.789837  0.241494  1
  O  O54  1  0.627301  0.595513  0.358263  1
  O  O55  1  0.031048  0.747256  0.482575  1
  O  O56  1  0.345417  0.878960  0.390289  1
  O  O57  1  0.844273  0.375288  0.891039  1
  O  O58  1  0.834983  0.848602  0.616686  1
  O  O59  1  0.541025  0.774180  0.504702  1
  O  O60  1  0.736960  0.505925  0.727438  1
  O  O61  1  0.240949  0.006568  0.225478  1
  O  O62  1  0.147700  0.100535  0.635065  1
  O  O63  1  0.241212  0.509504  0.476252  1
  O  O64  1  0.474511  0.210382  0.757303  1
  O  O65  1  0.974508  0.711248  0.255334  1
  O  O66  1  0.370862  0.406288  0.639838  1
  O  O67  1  0.498916  0.719055  0.733505  1
  O  O68  1  0.664744  0.651615  0.882468  1
  O  O69  1  0.758491  0.990918  0.774382  1
  O  O70  1  0.350555  0.898005  0.614759  1
  O  O71  1  0.354833  0.402369  0.866093  1
  O  O72  1  0.098415  0.584680  0.633366  1
  O  O73  1  0.024792  0.291658  0.744980  1
  O  O74  1  0.129467  0.093820  0.859482  1
  O  O75  1  0.998777  0.781886  0.767297  1
  O  O76  1  0.033180  0.267443  0.010568  1
  O  O77  1  0.150705  0.601539  0.885049  1
  O  O78  1  0.404019  0.918224  0.869253  1
  O  O79  1  0.958588  0.722807  0.994401  1
