# generated using pymatgen
data_Li2TiMn3O8
_symmetry_space_group_name_H-M   'P 1'
_cell_length_a   5.79180674
_cell_length_b   10.48987175
_cell_length_c   8.86663277
_cell_angle_alpha   115.41174567
_cell_angle_beta   89.73434390
_cell_angle_gamma   105.87179974
_symmetry_Int_Tables_number   1
_chemical_formula_structural   Li2TiMn3O8
_chemical_formula_sum   'Li6 Ti3 Mn9 O24'
_cell_volume   464.06881225
_cell_formula_units_Z   3
loop_
 _symmetry_equiv_pos_site_id
 _symmetry_equiv_pos_as_xyz
  1  'x, y, z'
loop_
 _atom_site_type_symbol
 _atom_site_label
 _atom_site_symmetry_multiplicity
 _atom_site_fract_x
 _atom_site_fract_y
 _atom_site_fract_z
 _atom_site_occupancy
  Li  Li0  1  0.166707  0.833324  0.166630  1
  Li  Li1  1  0.822494  0.666533  0.833415  1
  Li  Li2  1  0.166681  0.333348  0.166650  1
  Li  Li3  1  0.997590  0.496057  0.498287  1
  Li  Li4  1  0.510873  0.000175  0.499969  1
  Li  Li5  1  0.335880  0.170654  0.835045  1
  Ti  Ti6  1  0.328979  0.666793  0.333614  1
  Ti  Ti7  1  0.666716  0.333373  0.666632  1
  Ti  Ti8  1  0.004386  -0.000047  0.999729  1
  Mn  Mn9  1  0.834779  0.666746  0.332905  1
  Mn  Mn10  1  0.666825  0.833407  0.666763  1
  Mn  Mn11  1  0.503942  0.504154  0.999585  1
  Mn  Mn12  1  0.166625  0.833425  0.666755  1
  Mn  Mn13  1  0.999054  0.494723  0.998386  1
  Mn  Mn14  1  0.829351  0.162457  0.333695  1
  Mn  Mn15  1  0.498399  0.999827  0.000363  1
  Mn  Mn16  1  0.334218  0.171953  0.334953  1
  Mn  Mn17  1  0.166776  0.333202  0.666680  1
  O  O18  1  0.827970  0.641655  0.064383  1
  O  O19  1  0.659244  0.813144  0.437205  1
  O  O20  1  0.485463  0.975758  0.731677  1
  O  O21  1  0.317057  0.644316  0.093392  1
  O  O22  1  0.162217  0.810322  0.389794  1
  O  O23  1  0.991300  0.978999  0.761585  1
  O  O24  1  0.847873  0.690931  0.601712  1
  O  O25  1  0.674128  0.853515  0.896141  1
  O  O26  1  0.515024  0.521587  0.228015  1
  O  O27  1  0.341999  0.687760  0.571790  1
  O  O28  1  0.171108  0.856351  0.943477  1
  O  O29  1  0.019773  0.522514  0.276552  1
  O  O30  1  0.984378  0.475157  0.730438  1
  O  O31  1  0.818315  0.145069  0.105283  1
  O  O32  1  0.659372  0.313607  0.429382  1
  O  O33  1  0.492191  0.483950  0.768488  1
  O  O34  1  0.313575  0.144165  0.056785  1
  O  O35  1  0.142600  0.309737  0.398983  1
  O  O36  1  0.016226  0.022333  0.239908  1
  O  O37  1  0.841063  0.182656  0.564803  1
  O  O38  1  0.673878  0.353067  0.903969  1
  O  O39  1  0.505308  0.025006  0.268848  1
  O  O40  1  0.348971  0.191396  0.602927  1
  O  O41  1  0.190682  0.356904  0.934403  1
