# generated using pymatgen
data_Cu9P4(HO10)2
_symmetry_space_group_name_H-M   'P 1'
_cell_length_a   8.23529737
_cell_length_b   8.93248819
_cell_length_c   5.95585848
_cell_angle_alpha   102.09793714
_cell_angle_beta   94.31491440
_cell_angle_gamma   113.33603182
_symmetry_Int_Tables_number   1
_chemical_formula_structural   Cu9P4(HO10)2
_chemical_formula_sum   'Cu9 P4 H2 O20'
_cell_volume   387.18971840
_cell_formula_units_Z   1
loop_
 _symmetry_equiv_pos_site_id
 _symmetry_equiv_pos_as_xyz
  1  'x, y, z'
loop_
 _atom_site_type_symbol
 _atom_site_label
 _atom_site_symmetry_multiplicity
 _atom_site_fract_x
 _atom_site_fract_y
 _atom_site_fract_z
 _atom_site_occupancy
  Cu  Cu0  1  0.000000  0.000000  0.000000  1
  Cu  Cu1  1  0.602342  0.944542  0.818686  1
  Cu  Cu2  1  0.397658  0.055458  0.181314  1
  Cu  Cu3  1  0.679616  0.643732  0.973639  1
  Cu  Cu4  1  0.320384  0.356268  0.026361  1
  Cu  Cu5  1  0.819379  0.708487  0.564279  1
  Cu  Cu6  1  0.180621  0.291513  0.435721  1
  Cu  Cu7  1  0.779849  0.317807  0.681527  1
  Cu  Cu8  1  0.220151  0.682193  0.318473  1
  P  P9  1  0.247614  0.592995  0.799296  1
  P  P10  1  0.752386  0.407005  0.200704  1
  P  P11  1  0.271490  0.030412  0.663161  1
  P  P12  1  0.728510  0.969588  0.336839  1
  H  H13  1  0.955418  0.615935  0.863323  1
  H  H14  1  0.044582  0.384065  0.136677  1
  O  O15  1  0.828621  0.561520  0.772294  1
  O  O16  1  0.171379  0.438480  0.227706  1
  O  O17  1  0.761522  0.833730  0.835327  1
  O  O18  1  0.238478  0.166270  0.164673  1
  O  O19  1  0.432392  0.054574  0.846361  1
  O  O20  1  0.567608  0.945426  0.153639  1
  O  O21  1  0.328809  0.705112  0.633770  1
  O  O22  1  0.671191  0.294888  0.366230  1
  O  O23  1  0.090069  0.924355  0.728676  1
  O  O24  1  0.909931  0.075645  0.271324  1
  O  O25  1  0.287497  0.209850  0.666169  1
  O  O26  1  0.712503  0.790150  0.333831  1
  O  O27  1  0.095113  0.417994  0.667222  1
  O  O28  1  0.904887  0.582006  0.332778  1
  O  O29  1  0.719564  0.063374  0.584432  1
  O  O30  1  0.280436  0.936626  0.415568  1
  O  O31  1  0.402237  0.560133  0.913521  1
  O  O32  1  0.597763  0.439867  0.086479  1
  O  O33  1  0.171040  0.681667  0.988310  1
  O  O34  1  0.828960  0.318333  0.011690  1
