# generated using pymatgen
data_V4O7F5
_symmetry_space_group_name_H-M   'P 1'
_cell_length_a   5.26107707
_cell_length_b   7.35116581
_cell_length_c   5.37429263
_cell_angle_alpha   91.67777150
_cell_angle_beta   90.43454882
_cell_angle_gamma   89.94147910
_symmetry_Int_Tables_number   1
_chemical_formula_structural   V4O7F5
_chemical_formula_sum   'V4 O7 F5'
_cell_volume   207.75588682
_cell_formula_units_Z   1
loop_
 _symmetry_equiv_pos_site_id
 _symmetry_equiv_pos_as_xyz
  1  'x, y, z'
loop_
 _atom_site_type_symbol
 _atom_site_label
 _atom_site_symmetry_multiplicity
 _atom_site_fract_x
 _atom_site_fract_y
 _atom_site_fract_z
 _atom_site_occupancy
  V  V0  1  0.500645  0.468011  0.467954  1
  V  V1  1  0.465904  0.976168  0.534698  1
  V  V2  1  0.020586  0.527067  0.994113  1
  V  V3  1  0.956864  0.023553  0.025399  1
  O  O4  1  0.927067  0.251140  0.002054  1
  O  O5  1  0.720649  0.967673  0.213380  1
  O  O6  1  0.577027  0.248628  0.499601  1
  O  O7  1  0.429701  0.749897  0.503962  1
  O  O8  1  0.305289  0.461305  0.215408  1
  O  O9  1  0.289923  0.033616  0.781372  1
  O  O10  1  0.074191  0.752282  0.997565  1
  F  F11  1  0.798675  0.544192  0.296397  1
  F  F12  1  0.793739  0.959350  0.707577  1
  F  F13  1  0.709558  0.536633  0.781049  1
  F  F14  1  0.217013  0.044856  0.284757  1
  F  F15  1  0.213169  0.455630  0.694715  1
