# generated using pymatgen
data_LiV8F33
_symmetry_space_group_name_H-M   'P 1'
_cell_length_a   8.88629891
_cell_length_b   8.88450364
_cell_length_c   18.44490677
_cell_angle_alpha   89.87436513
_cell_angle_beta   90.06280583
_cell_angle_gamma   119.99331803
_symmetry_Int_Tables_number   1
_chemical_formula_structural   LiV8F33
_chemical_formula_sum   'Li2 V16 F66'
_cell_volume   1261.21572556
_cell_formula_units_Z   2
loop_
 _symmetry_equiv_pos_site_id
 _symmetry_equiv_pos_as_xyz
  1  'x, y, z'
loop_
 _atom_site_type_symbol
 _atom_site_label
 _atom_site_symmetry_multiplicity
 _atom_site_fract_x
 _atom_site_fract_y
 _atom_site_fract_z
 _atom_site_occupancy
  Li  Li0  1  0.333113  0.667869  0.134007  1
  Li  Li1  1  0.666887  0.334756  0.634007  1
  V  V2  1  0.005305  0.674510  0.246525  1
  V  V3  1  0.003419  0.339831  0.879502  1
  V  V4  1  0.336503  0.996084  0.879561  1
  V  V5  1  0.000145  0.999421  0.006332  1
  V  V6  1  0.999855  0.999277  0.506332  1
  V  V7  1  0.333427  0.667584  0.619796  1
  V  V8  1  0.326070  0.331407  0.246571  1
  V  V9  1  0.331362  0.326545  0.746658  1
  V  V10  1  0.668638  0.995184  0.246658  1
  V  V11  1  0.660198  0.663228  0.879657  1
  V  V12  1  0.663497  0.659581  0.379561  1
  V  V13  1  0.339802  0.003029  0.379657  1
  V  V14  1  0.666573  0.334157  0.119796  1
  V  V15  1  0.994695  0.669206  0.746525  1
  V  V16  1  0.673930  0.005337  0.746571  1
  V  V17  1  0.996581  0.336411  0.379502  1
  F  F18  1  0.068959  0.866478  0.050645  1
  F  F19  1  0.069364  0.866053  0.198606  1
  F  F20  1  0.131354  0.930276  0.433178  1
  F  F21  1  0.141824  0.871418  0.810750  1
  F  F22  1  0.202718  0.799679  0.311618  1
  F  F23  1  0.063978  0.540924  0.810728  1
  F  F24  1  0.126572  0.604697  0.187311  1
  F  F25  1  0.200578  0.734962  0.692407  1
  F  F26  1  0.251158  0.797911  0.927842  1
  F  F27  1  0.131255  0.527885  0.426482  1
  F  F28  1  0.132334  0.530954  0.576209  1
  F  F29  1  0.396686  0.868193  0.426835  1
  F  F30  1  0.069080  0.200658  0.433190  1
  F  F31  1  0.401399  0.869500  0.576427  1
  F  F32  1  0.201286  0.452246  0.927849  1
  F  F33  1  0.128599  0.270254  0.810763  1
  F  F34  1  0.476916  0.935860  0.810898  1
  F  F35  1  0.200325  0.402915  0.311454  1
  F  F36  1  0.477396  0.874096  0.187427  1
  F  F37  1  0.133940  0.200679  0.050021  1
  F  F38  1  0.135312  0.204359  0.198355  1
  F  F39  1  0.266614  0.469111  0.693187  1
  F  F40  1  0.533101  0.798636  0.692778  1
  F  F41  1  0.201628  0.131174  0.550043  1
  F  F42  1  0.204178  0.136322  0.698120  1
  F  F43  1  0.396276  0.523173  0.187379  1
  F  F44  1  0.200098  0.068026  0.933012  1
  F  F45  1  0.467325  0.599726  0.575858  1
  F  F46  1  0.547616  0.748378  0.927986  1
  F  F47  1  0.471957  0.602554  0.426613  1
  F  F48  1  0.459177  0.523098  0.811104  1
  F  F49  1  0.597159  0.797613  0.311600  1
  F  F50  1  0.270126  0.128624  0.310958  1
  F  F51  1  0.402841  0.200454  0.811600  1
  F  F52  1  0.729874  0.858499  0.810958  1
  F  F53  1  0.523084  0.458944  0.310898  1
  F  F54  1  0.795822  0.932144  0.198120  1
  F  F55  1  0.522604  0.396699  0.687427  1
  F  F56  1  0.798372  0.929546  0.050043  1
  F  F57  1  0.466899  0.265534  0.192778  1
  F  F58  1  0.452384  0.200763  0.427986  1
  F  F59  1  0.603314  0.471507  0.926835  1
  F  F60  1  0.598601  0.468102  0.076427  1
  F  F61  1  0.799902  0.867929  0.433012  1
  F  F62  1  0.528043  0.130597  0.926613  1
  F  F63  1  0.868646  0.798922  0.933178  1
  F  F64  1  0.532675  0.132402  0.075858  1
  F  F65  1  0.748842  0.546753  0.427842  1
  F  F66  1  0.858176  0.729594  0.310750  1
  F  F67  1  0.540823  0.063922  0.311104  1
  F  F68  1  0.797282  0.596961  0.811618  1
  F  F69  1  0.603724  0.126897  0.687379  1
  F  F70  1  0.931041  0.797520  0.550645  1
  F  F71  1  0.930636  0.796689  0.698606  1
  F  F72  1  0.799422  0.534385  0.192407  1
  F  F73  1  0.733386  0.202497  0.193187  1
  F  F74  1  0.873428  0.478125  0.687311  1
  F  F75  1  0.867666  0.398620  0.076209  1
  F  F76  1  0.798714  0.250959  0.427849  1
  F  F77  1  0.868745  0.396630  0.926482  1
  F  F78  1  0.936022  0.476946  0.310728  1
  F  F79  1  0.799675  0.202591  0.811454  1
  F  F80  1  0.871401  0.141655  0.310763  1
  F  F81  1  0.864688  0.069046  0.698355  1
  F  F82  1  0.866060  0.066738  0.550021  1
  F  F83  1  0.930920  0.131579  0.933190  1
