# generated using pymatgen
data_Li2CuSiO4
_symmetry_space_group_name_H-M   'P 1'
_cell_length_a   6.30464643
_cell_length_b   10.64197902
_cell_length_c   5.00786231
_cell_angle_alpha   90.00532127
_cell_angle_beta   90.00001160
_cell_angle_gamma   90.00003669
_symmetry_Int_Tables_number   1
_chemical_formula_structural   Li2CuSiO4
_chemical_formula_sum   'Li8 Cu4 Si4 O16'
_cell_volume   335.99708663
_cell_formula_units_Z   4
loop_
 _symmetry_equiv_pos_site_id
 _symmetry_equiv_pos_as_xyz
  1  'x, y, z'
loop_
 _atom_site_type_symbol
 _atom_site_label
 _atom_site_symmetry_multiplicity
 _atom_site_fract_x
 _atom_site_fract_y
 _atom_site_fract_z
 _atom_site_occupancy
  Li  Li0  1  0.998454  0.411198  0.181261  1
  Li  Li1  1  0.998487  0.911180  0.318745  1
  Li  Li2  1  0.501513  0.911180  0.318744  1
  Li  Li3  1  0.501546  0.411198  0.181261  1
  Li  Li4  1  0.498473  0.088792  0.681264  1
  Li  Li5  1  0.498450  0.588827  0.818734  1
  Li  Li6  1  0.001527  0.088792  0.681264  1
  Li  Li7  1  0.001550  0.588827  0.818734  1
  Cu  Cu8  1  0.250000  0.343761  0.685304  1
  Cu  Cu9  1  0.250000  0.843788  0.814761  1
  Cu  Cu10  1  0.750000  0.656241  0.314722  1
  Cu  Cu11  1  0.750000  0.156216  0.185271  1
  Si  Si12  1  0.250000  0.170464  0.170570  1
  Si  Si13  1  0.250000  0.670460  0.329436  1
  Si  Si14  1  0.750000  0.329534  0.670546  1
  Si  Si15  1  0.750000  0.829543  0.829436  1
  O  O16  1  0.963854  0.404089  0.778243  1
  O  O17  1  0.963821  0.904110  0.721727  1
  O  O18  1  0.250000  0.317349  0.276484  1
  O  O19  1  0.250000  0.668877  0.658749  1
  O  O20  1  0.250000  0.168924  0.841228  1
  O  O21  1  0.250000  0.817334  0.223582  1
  O  O22  1  0.536179  0.904109  0.721727  1
  O  O23  1  0.536146  0.404089  0.778243  1
  O  O24  1  0.463849  0.595909  0.221740  1
  O  O25  1  0.463841  0.095905  0.278243  1
  O  O26  1  0.750000  0.682656  0.723544  1
  O  O27  1  0.750000  0.182656  0.776459  1
  O  O28  1  0.750000  0.331089  0.341234  1
  O  O29  1  0.750000  0.831089  0.158762  1
  O  O30  1  0.036151  0.595909  0.221740  1
  O  O31  1  0.036159  0.095905  0.278243  1
