# generated using pymatgen
data_Li3VPCO7
_symmetry_space_group_name_H-M   'P 1'
_cell_length_a   9.77918424
_cell_length_b   9.66911989
_cell_length_c   6.51258824
_cell_angle_alpha   90.00000000
_cell_angle_beta   90.00000000
_cell_angle_gamma   62.30374072
_symmetry_Int_Tables_number   1
_chemical_formula_structural   Li3VPCO7
_chemical_formula_sum   'Li12 V4 P4 C4 O28'
_cell_volume   545.24848830
_cell_formula_units_Z   4
loop_
 _symmetry_equiv_pos_site_id
 _symmetry_equiv_pos_as_xyz
  1  'x, y, z'
loop_
 _atom_site_type_symbol
 _atom_site_label
 _atom_site_symmetry_multiplicity
 _atom_site_fract_x
 _atom_site_fract_y
 _atom_site_fract_z
 _atom_site_occupancy
  Li  Li0  1  0.889026  0.438043  0.733810  1
  Li  Li1  1  0.889026  0.938043  0.766190  1
  Li  Li2  1  0.711281  0.269089  0.978024  1
  Li  Li3  1  0.711281  0.769089  0.521976  1
  Li  Li4  1  0.625888  0.071395  0.248615  1
  Li  Li5  1  0.625888  0.571395  0.251385  1
  Li  Li6  1  0.374112  0.428605  0.751385  1
  Li  Li7  1  0.374112  0.928605  0.748615  1
  Li  Li8  1  0.288720  0.230911  0.021976  1
  Li  Li9  1  0.288720  0.730911  0.478024  1
  Li  Li10  1  0.110974  0.061957  0.266190  1
  Li  Li11  1  0.110974  0.561957  0.233810  1
  V  V12  1  0.751532  0.236219  0.478063  1
  V  V13  1  0.751532  0.736219  0.021937  1
  V  V14  1  0.248468  0.263781  0.521937  1
  V  V15  1  0.248468  0.763781  0.978063  1
  P  P16  1  0.591989  0.063058  0.762039  1
  P  P17  1  0.591989  0.563058  0.737961  1
  P  P18  1  0.408011  0.436942  0.237961  1
  P  P19  1  0.408011  0.936942  0.262039  1
  C  C20  1  0.946236  0.393072  0.243696  1
  C  C21  1  0.946236  0.893072  0.256304  1
  C  C22  1  0.053764  0.106928  0.756304  1
  C  C23  1  0.053764  0.606928  0.743696  1
  O  O24  1  0.926427  0.032355  0.301345  1
  O  O25  1  0.926427  0.532355  0.198655  1
  O  O26  1  0.912048  0.217724  0.724520  1
  O  O27  1  0.833060  0.361087  0.255297  1
  O  O28  1  0.912048  0.717724  0.775480  1
  O  O29  1  0.833060  0.861087  0.244703  1
  O  O30  1  0.685356  0.078857  0.943292  1
  O  O31  1  0.682484  0.063124  0.565456  1
  O  O32  1  0.682484  0.563124  0.934544  1
  O  O33  1  0.685356  0.578856  0.556708  1
  O  O34  1  0.578109  0.306736  0.241859  1
  O  O35  1  0.592897  0.400992  0.722936  1
  O  O36  1  0.578109  0.806736  0.258141  1
  O  O37  1  0.592897  0.900992  0.777064  1
  O  O38  1  0.407103  0.099008  0.277064  1
  O  O39  1  0.421891  0.193264  0.758141  1
  O  O40  1  0.407103  0.599008  0.222936  1
  O  O41  1  0.421891  0.693264  0.741859  1
  O  O42  1  0.314644  0.421144  0.056708  1
  O  O43  1  0.317516  0.436876  0.434544  1
  O  O44  1  0.317516  0.936876  0.065456  1
  O  O45  1  0.314644  0.921144  0.443292  1
  O  O46  1  0.166940  0.138913  0.744703  1
  O  O47  1  0.087952  0.282276  0.275480  1
  O  O48  1  0.166940  0.638913  0.755297  1
  O  O49  1  0.087952  0.782276  0.224520  1
  O  O50  1  0.073573  0.467645  0.698655  1
  O  O51  1  0.073573  0.967645  0.801345  1
