# generated using pymatgen
data_LiMnF4
_symmetry_space_group_name_H-M   'P 1'
_cell_length_a   4.56374292
_cell_length_b   11.56462017
_cell_length_c   5.35001433
_cell_angle_alpha   90.00000000
_cell_angle_beta   90.00225045
_cell_angle_gamma   90.00000000
_symmetry_Int_Tables_number   1
_chemical_formula_structural   LiMnF4
_chemical_formula_sum   'Li4 Mn4 F16'
_cell_volume   282.36280701
_cell_formula_units_Z   4
loop_
 _symmetry_equiv_pos_site_id
 _symmetry_equiv_pos_as_xyz
  1  'x, y, z'
loop_
 _atom_site_type_symbol
 _atom_site_label
 _atom_site_symmetry_multiplicity
 _atom_site_fract_x
 _atom_site_fract_y
 _atom_site_fract_z
 _atom_site_occupancy
  Li  Li0  1  0.000000  0.325562  0.750000  1
  Li  Li1  1  0.000000  0.674438  0.250000  1
  Li  Li2  1  0.500000  0.174450  0.250000  1
  Li  Li3  1  0.500000  0.825551  0.750000  1
  Mn  Mn4  1  0.000000  0.071668  0.750000  1
  Mn  Mn5  1  0.000000  0.928332  0.250000  1
  Mn  Mn6  1  0.500000  0.428276  0.250000  1
  Mn  Mn7  1  0.500000  0.571724  0.750000  1
  F  F8  1  0.235690  0.048230  0.100888  1
  F  F9  1  0.235690  0.951770  0.600888  1
  F  F10  1  0.224921  0.186174  0.598405  1
  F  F11  1  0.224921  0.813826  0.098405  1
  F  F12  1  0.275065  0.313835  0.098456  1
  F  F13  1  0.275065  0.686164  0.598456  1
  F  F14  1  0.264324  0.548212  0.100907  1
  F  F15  1  0.264324  0.451788  0.600907  1
  F  F16  1  0.735676  0.451788  0.899093  1
  F  F17  1  0.735676  0.548212  0.399093  1
  F  F18  1  0.724935  0.686164  0.901544  1
  F  F19  1  0.724935  0.313835  0.401544  1
  F  F20  1  0.775079  0.186174  0.901595  1
  F  F21  1  0.775079  0.813826  0.401595  1
  F  F22  1  0.764310  0.048230  0.399112  1
  F  F23  1  0.764310  0.951770  0.899112  1
