# generated using pymatgen
data_Mg(IO3)2
_symmetry_space_group_name_H-M   'P 1'
_cell_length_a   6.72020342
_cell_length_b   11.05572741
_cell_length_c   7.89562401
_cell_angle_alpha   90.00000000
_cell_angle_beta   110.64310303
_cell_angle_gamma   90.00000000
_symmetry_Int_Tables_number   1
_chemical_formula_structural   Mg(IO3)2
_chemical_formula_sum   'Mg4 I8 O24'
_cell_volume   548.95497850
_cell_formula_units_Z   4
loop_
 _symmetry_equiv_pos_site_id
 _symmetry_equiv_pos_as_xyz
  1  'x, y, z'
loop_
 _atom_site_type_symbol
 _atom_site_label
 _atom_site_symmetry_multiplicity
 _atom_site_fract_x
 _atom_site_fract_y
 _atom_site_fract_z
 _atom_site_occupancy
  Mg  Mg0  1  0.197140  0.903276  0.062071  1
  Mg  Mg1  1  0.302860  0.403276  0.437929  1
  Mg  Mg2  1  0.697140  0.596724  0.562071  1
  Mg  Mg3  1  0.802860  0.096724  0.937929  1
  I  I4  1  0.281846  0.207365  0.927338  1
  I  I5  1  0.218154  0.707365  0.572662  1
  I  I6  1  0.244504  0.081773  0.468139  1
  I  I7  1  0.255496  0.581773  0.031861  1
  I  I8  1  0.744504  0.418227  0.968139  1
  I  I9  1  0.755496  0.918227  0.531861  1
  I  I10  1  0.781846  0.292635  0.427338  1
  I  I11  1  0.718154  0.792635  0.072662  1
  O  O12  1  0.129340  0.081778  0.982320  1
  O  O13  1  0.038055  0.897805  0.669877  1
  O  O14  1  0.007301  0.614253  0.593115  1
  O  O15  1  0.130373  0.218261  0.684670  1
  O  O16  1  0.369627  0.718261  0.815330  1
  O  O17  1  0.147748  0.719256  0.100392  1
  O  O18  1  0.185469  0.463748  0.167476  1
  O  O19  1  0.492699  0.114253  0.906885  1
  O  O20  1  0.314531  0.963748  0.332524  1
  O  O21  1  0.352252  0.219256  0.399608  1
  O  O22  1  0.461944  0.397805  0.830123  1
  O  O23  1  0.370660  0.581778  0.517680  1
  O  O24  1  0.629340  0.418222  0.482320  1
  O  O25  1  0.538056  0.602195  0.169877  1
  O  O26  1  0.647748  0.780744  0.600392  1
  O  O27  1  0.685469  0.036252  0.667476  1
  O  O28  1  0.507301  0.885747  0.093115  1
  O  O29  1  0.814531  0.536252  0.832524  1
  O  O30  1  0.852252  0.280744  0.899608  1
  O  O31  1  0.630373  0.281739  0.184670  1
  O  O32  1  0.869627  0.781739  0.315330  1
  O  O33  1  0.992699  0.385747  0.406885  1
  O  O34  1  0.961944  0.102195  0.330123  1
  O  O35  1  0.870660  0.918222  0.017680  1
