# generated using pymatgen
data_Na2V13O22
_symmetry_space_group_name_H-M   'P 1'
_cell_length_a   7.75725567
_cell_length_b   14.07305399
_cell_length_c   7.75725567
_cell_angle_alpha   90.00000000
_cell_angle_beta   96.69903601
_cell_angle_gamma   90.00000000
_symmetry_Int_Tables_number   1
_chemical_formula_structural   Na2V13O22
_chemical_formula_sum   'Na4 V26 O44'
_cell_volume   841.06449378
_cell_formula_units_Z   2
loop_
 _symmetry_equiv_pos_site_id
 _symmetry_equiv_pos_as_xyz
  1  'x, y, z'
loop_
 _atom_site_type_symbol
 _atom_site_label
 _atom_site_symmetry_multiplicity
 _atom_site_fract_x
 _atom_site_fract_y
 _atom_site_fract_z
 _atom_site_occupancy
  Na  Na0  1  0.338314  0.093457  0.338314  1
  Na  Na1  1  0.838314  0.406543  0.838314  1
  Na  Na2  1  0.161686  0.593457  0.161686  1
  Na  Na3  1  0.661686  0.906543  0.661686  1
  V  V4  1  0.188558  0.817809  0.932629  1
  V  V5  1  0.067371  0.182191  0.811442  1
  V  V6  1  0.228897  0.500000  0.771103  1
  V  V7  1  0.447354  0.348146  0.937860  1
  V  V8  1  0.062140  0.651854  0.552646  1
  V  V9  1  0.437860  0.151854  0.947354  1
  V  V10  1  0.052646  0.848146  0.562140  1
  V  V11  1  0.271103  0.000000  0.728897  1
  V  V12  1  0.432629  0.682191  0.688558  1
  V  V13  1  0.311442  0.317809  0.567371  1
  V  V14  1  0.000000  0.000000  0.000000  1
  V  V15  1  0.669071  0.159689  0.669071  1
  V  V16  1  0.169071  0.340311  0.169071  1
  V  V17  1  0.500000  0.500000  0.500000  1
  V  V18  1  0.330929  0.840311  0.330929  1
  V  V19  1  0.830929  0.659689  0.830929  1
  V  V20  1  0.567371  0.317809  0.311442  1
  V  V21  1  0.688558  0.682191  0.432629  1
  V  V22  1  0.728897  0.000000  0.271103  1
  V  V23  1  0.562140  0.848146  0.052646  1
  V  V24  1  0.947354  0.151854  0.437860  1
  V  V25  1  0.552646  0.651854  0.062140  1
  V  V26  1  0.937860  0.348146  0.447354  1
  V  V27  1  0.771103  0.500000  0.228897  1
  V  V28  1  0.811442  0.182191  0.067371  1
  V  V29  1  0.932629  0.817809  0.188558  1
  O  O30  1  0.231987  0.425051  0.979188  1
  O  O31  1  0.020812  0.574949  0.768013  1
  O  O32  1  0.215069  0.078191  0.947182  1
  O  O33  1  0.052818  0.921809  0.784931  1
  O  O34  1  0.389629  0.906520  0.879879  1
  O  O35  1  0.120121  0.093480  0.610371  1
  O  O36  1  0.290435  0.250000  0.790435  1
  O  O37  1  0.209565  0.750000  0.709565  1
  O  O38  1  0.379879  0.593480  0.889629  1
  O  O39  1  0.110371  0.406520  0.620121  1
  O  O40  1  0.630090  0.241568  0.885728  1
  O  O41  1  0.114272  0.758432  0.369910  1
  O  O42  1  0.130090  0.258432  0.385728  1
  O  O43  1  0.614272  0.741568  0.869910  1
  O  O44  1  0.447182  0.421809  0.715069  1
  O  O45  1  0.284931  0.578191  0.552818  1
  O  O46  1  0.479188  0.074949  0.731987  1
  O  O47  1  0.268013  0.925051  0.520812  1
  O  O48  1  0.859796  0.099541  0.859796  1
  O  O49  1  0.504223  0.241319  0.504223  1
  O  O50  1  0.004223  0.258681  0.004223  1
  O  O51  1  0.359796  0.400459  0.359796  1
  O  O52  1  0.640204  0.599541  0.640204  1
  O  O53  1  0.495777  0.758681  0.495777  1
  O  O54  1  0.140204  0.900459  0.140204  1
  O  O55  1  0.995777  0.741319  0.995777  1
  O  O56  1  0.731987  0.074949  0.479188  1
  O  O57  1  0.520812  0.925051  0.268013  1
  O  O58  1  0.715069  0.421809  0.447182  1
  O  O59  1  0.552818  0.578191  0.284931  1
  O  O60  1  0.385728  0.258432  0.130090  1
  O  O61  1  0.369910  0.758432  0.114272  1
  O  O62  1  0.885728  0.241568  0.630090  1
  O  O63  1  0.869910  0.741568  0.614272  1
  O  O64  1  0.620121  0.406520  0.110371  1
  O  O65  1  0.889629  0.593480  0.379879  1
  O  O66  1  0.790435  0.250000  0.290435  1
  O  O67  1  0.709565  0.750000  0.209565  1
  O  O68  1  0.610371  0.093480  0.120121  1
  O  O69  1  0.879879  0.906520  0.389629  1
  O  O70  1  0.947182  0.078191  0.215069  1
  O  O71  1  0.784931  0.921809  0.052818  1
  O  O72  1  0.979188  0.425051  0.231987  1
  O  O73  1  0.768013  0.574949  0.020812  1
