# generated using pymatgen
data_V4(OF3)3
_symmetry_space_group_name_H-M   'P 1'
_cell_length_a   5.27861524
_cell_length_b   5.37811231
_cell_length_c   9.04521248
_cell_angle_alpha   74.41647863
_cell_angle_beta   90.07251409
_cell_angle_gamma   61.20814441
_symmetry_Int_Tables_number   1
_chemical_formula_structural   V4(OF3)3
_chemical_formula_sum   'V4 O3 F9'
_cell_volume   214.15501542
_cell_formula_units_Z   1
loop_
 _symmetry_equiv_pos_site_id
 _symmetry_equiv_pos_as_xyz
  1  'x, y, z'
loop_
 _atom_site_type_symbol
 _atom_site_label
 _atom_site_symmetry_multiplicity
 _atom_site_fract_x
 _atom_site_fract_y
 _atom_site_fract_z
 _atom_site_occupancy
  V  V0  1  0.749678  0.500786  0.250220  1
  V  V1  1  0.498669  0.974403  0.494187  1
  V  V2  1  0.264533  0.519967  0.744706  1
  V  V3  1  0.000577  0.025783  0.007241  1
  O  O4  1  0.960385  0.238712  0.120107  1
  O  O5  1  0.540013  0.762505  0.379266  1
  O  O6  1  0.406779  0.738504  0.669462  1
  F  F7  1  0.918303  0.749490  0.581631  1
  F  F8  1  0.927645  0.744338  0.168989  1
  F  F9  1  0.424878  0.749869  0.075808  1
  F  F10  1  0.572717  0.257089  0.331724  1
  F  F11  1  0.578120  0.241990  0.921579  1
  F  F12  1  0.461368  0.239186  0.624841  1
  F  F13  1  0.038363  0.748858  0.880754  1
  F  F14  1  0.083487  0.255838  0.825902  1
  F  F15  1  0.074485  0.252682  0.423582  1
