# generated using pymatgen
data_Ba2Y5Cl19
_symmetry_space_group_name_H-M   'P 1'
_cell_length_a   9.19651587
_cell_length_b   7.43742783
_cell_length_c   29.75729041
_cell_angle_alpha   90.00000000
_cell_angle_beta   95.99613479
_cell_angle_gamma   90.00000000
_symmetry_Int_Tables_number   1
_chemical_formula_structural   Ba2Y5Cl19
_chemical_formula_sum   'Ba4 Y10 Cl38'
_cell_volume   2024.21621752
_cell_formula_units_Z   2
loop_
 _symmetry_equiv_pos_site_id
 _symmetry_equiv_pos_as_xyz
  1  'x, y, z'
loop_
 _atom_site_type_symbol
 _atom_site_label
 _atom_site_symmetry_multiplicity
 _atom_site_fract_x
 _atom_site_fract_y
 _atom_site_fract_z
 _atom_site_occupancy
  Ba  Ba0  1  0.227853  0.785626  0.742827  1
  Ba  Ba1  1  0.244536  0.709851  0.174508  1
  Ba  Ba2  1  0.755464  0.209851  0.825492  1
  Ba  Ba3  1  0.772147  0.285626  0.257173  1
  Y  Y4  1  0.165392  0.237502  0.970091  1
  Y  Y5  1  0.176969  0.256572  0.539093  1
  Y  Y6  1  0.146887  0.765052  0.326502  1
  Y  Y7  1  0.432094  0.729417  0.895912  1
  Y  Y8  1  0.539636  0.749872  0.603514  1
  Y  Y9  1  0.460364  0.249872  0.396486  1
  Y  Y10  1  0.567906  0.229417  0.104088  1
  Y  Y11  1  0.853113  0.265052  0.673498  1
  Y  Y12  1  0.823031  0.756572  0.460907  1
  Y  Y13  1  0.834608  0.737502  0.029909  1
  Cl  Cl14  1  0.036686  0.935336  0.993277  1
  Cl  Cl15  1  0.969529  0.565828  0.707046  1
  Cl  Cl16  1  0.060743  0.239949  0.616938  1
  Cl  Cl17  1  0.022444  0.104387  0.741475  1
  Cl  Cl18  1  0.028625  0.973776  0.502175  1
  Cl  Cl19  1  0.302385  0.546193  0.956558  1
  Cl  Cl20  1  0.978835  0.755731  0.109922  1
  Cl  Cl21  1  0.369734  0.044596  0.934097  1
  Cl  Cl22  1  0.190281  0.730595  0.840147  1
  Cl  Cl23  1  0.306776  0.554063  0.573658  1
  Cl  Cl24  1  0.352349  0.770017  0.271729  1
  Cl  Cl25  1  0.233157  0.449046  0.363043  1
  Cl  Cl26  1  0.472224  0.730526  0.686434  1
  Cl  Cl27  1  0.359455  0.278268  0.477034  1
  Cl  Cl28  1  0.375298  0.038661  0.583430  1
  Cl  Cl29  1  0.312325  0.941975  0.389612  1
  Cl  Cl30  1  0.439831  0.386366  0.171634  1
  Cl  Cl31  1  0.686374  0.740504  0.947911  1
  Cl  Cl32  1  0.520664  0.428172  0.861073  1
  Cl  Cl33  1  0.479336  0.928172  0.138927  1
  Cl  Cl34  1  0.313626  0.240504  0.052089  1
  Cl  Cl35  1  0.560169  0.886366  0.828366  1
  Cl  Cl36  1  0.687675  0.441975  0.610388  1
  Cl  Cl37  1  0.624702  0.538661  0.416570  1
  Cl  Cl38  1  0.640545  0.778268  0.522966  1
  Cl  Cl39  1  0.527776  0.230526  0.313566  1
  Cl  Cl40  1  0.766843  0.949046  0.636957  1
  Cl  Cl41  1  0.647651  0.270017  0.728271  1
  Cl  Cl42  1  0.693224  0.054063  0.426342  1
  Cl  Cl43  1  0.809719  0.230595  0.159853  1
  Cl  Cl44  1  0.630266  0.544596  0.065903  1
  Cl  Cl45  1  0.021165  0.255731  0.890078  1
  Cl  Cl46  1  0.697615  0.046193  0.043442  1
  Cl  Cl47  1  0.971375  0.473776  0.497825  1
  Cl  Cl48  1  0.977556  0.604387  0.258524  1
  Cl  Cl49  1  0.939257  0.739949  0.383062  1
  Cl  Cl50  1  0.030471  0.065828  0.292954  1
  Cl  Cl51  1  0.963314  0.435336  0.006723  1
