# generated using pymatgen
data_Li2MnVO4
_symmetry_space_group_name_H-M   'P 1'
_cell_length_a   5.14119610
_cell_length_b   6.10945616
_cell_length_c   7.77976755
_cell_angle_alpha   81.59783384
_cell_angle_beta   72.00232128
_cell_angle_gamma   88.30836038
_symmetry_Int_Tables_number   1
_chemical_formula_structural   Li2MnVO4
_chemical_formula_sum   'Li6 Mn3 V3 O12'
_cell_volume   229.87879216
_cell_formula_units_Z   3
loop_
 _symmetry_equiv_pos_site_id
 _symmetry_equiv_pos_as_xyz
  1  'x, y, z'
loop_
 _atom_site_type_symbol
 _atom_site_label
 _atom_site_symmetry_multiplicity
 _atom_site_fract_x
 _atom_site_fract_y
 _atom_site_fract_z
 _atom_site_occupancy
  Li  Li0  1  0.992687  0.487316  0.006229  1
  Li  Li1  1  0.997130  0.319252  0.675501  1
  Li  Li2  1  0.999075  0.998108  0.998990  1
  Li  Li3  1  0.006839  0.678786  0.327290  1
  Li  Li4  1  0.001169  0.168835  0.334114  1
  Li  Li5  1  0.002384  0.846569  0.658311  1
  Mn  Mn6  1  0.506221  0.749683  0.999635  1
  Mn  Mn7  1  0.494139  0.417121  0.334272  1
  Mn  Mn8  1  0.500322  0.582880  0.666239  1
  V  V9  1  0.495026  0.246896  0.998784  1
  V  V10  1  0.504920  0.919887  0.334551  1
  V  V11  1  0.500096  0.083658  0.666436  1
  O  O12  1  0.281709  0.958827  0.154633  1
  O  O13  1  0.261837  0.449083  0.173374  1
  O  O14  1  0.259886  0.115011  0.501457  1
  O  O15  1  0.283893  0.634822  0.490498  1
  O  O16  1  0.255338  0.283180  0.838109  1
  O  O17  1  0.291228  0.797734  0.821861  1
  O  O18  1  0.737910  0.717638  0.159882  1
  O  O19  1  0.718323  0.208034  0.178519  1
  O  O20  1  0.708734  0.369155  0.511340  1
  O  O21  1  0.744757  0.883565  0.495220  1
  O  O22  1  0.716156  0.532166  0.842849  1
  O  O23  1  0.740220  0.051792  0.831906  1
