# generated using pymatgen
data_Mn3(OF2)2
_symmetry_space_group_name_H-M   'P 1'
_cell_length_a   4.83727817
_cell_length_b   7.94437053
_cell_length_c   5.78563523
_cell_angle_alpha   94.34614637
_cell_angle_beta   94.69088788
_cell_angle_gamma   86.54238133
_symmetry_Int_Tables_number   1
_chemical_formula_structural   Mn3(OF2)2
_chemical_formula_sum   'Mn6 O4 F8'
_cell_volume   220.62718292
_cell_formula_units_Z   2
loop_
 _symmetry_equiv_pos_site_id
 _symmetry_equiv_pos_as_xyz
  1  'x, y, z'
loop_
 _atom_site_type_symbol
 _atom_site_label
 _atom_site_symmetry_multiplicity
 _atom_site_fract_x
 _atom_site_fract_y
 _atom_site_fract_z
 _atom_site_occupancy
  Mn  Mn0  1  0.515166  0.999342  0.513316  1
  Mn  Mn1  1  0.500000  0.666667  0.166667  1
  Mn  Mn2  1  0.484834  0.333991  0.820018  1
  Mn  Mn3  1  0.000000  0.666667  0.666667  1
  Mn  Mn4  1  0.018708  0.325198  0.344701  1
  Mn  Mn5  1  0.981292  0.008135  0.988633  1
  O  O6  1  0.687422  0.109045  0.796271  1
  O  O7  1  0.698565  0.769607  0.466659  1
  O  O8  1  0.301435  0.563726  0.866674  1
  O  O9  1  0.312578  0.224288  0.537062  1
  F  F10  1  0.812997  0.439234  0.627010  1
  F  F11  1  0.804632  0.767911  0.966400  1
  F  F12  1  0.804797  0.100899  0.291278  1
  F  F13  1  0.703195  0.424527  0.128873  1
  F  F14  1  0.296805  0.908806  0.204460  1
  F  F15  1  0.195368  0.565422  0.366933  1
  F  F16  1  0.195203  0.232434  0.042056  1
  F  F17  1  0.187003  0.894099  0.706323  1
