# generated using pymatgen
data_Li2VCrP2(HO5)2
_symmetry_space_group_name_H-M   'P 1'
_cell_length_a   5.42699041
_cell_length_b   14.45847961
_cell_length_c   7.45249164
_cell_angle_alpha   95.19234682
_cell_angle_beta   69.50997864
_cell_angle_gamma   87.42331291
_symmetry_Int_Tables_number   1
_chemical_formula_structural   Li2VCrP2(HO5)2
_chemical_formula_sum   'Li6 V3 Cr3 P6 H6 O30'
_cell_volume   543.67946032
_cell_formula_units_Z   3
loop_
 _symmetry_equiv_pos_site_id
 _symmetry_equiv_pos_as_xyz
  1  'x, y, z'
loop_
 _atom_site_type_symbol
 _atom_site_label
 _atom_site_symmetry_multiplicity
 _atom_site_fract_x
 _atom_site_fract_y
 _atom_site_fract_z
 _atom_site_occupancy
  Li  Li0  1  0.734323  0.692201  0.868299  1
  Li  Li1  1  0.932578  0.641334  0.464621  1
  Li  Li2  1  0.599459  0.973969  0.797528  1
  Li  Li3  1  0.400468  0.025120  0.202527  1
  Li  Li4  1  0.067615  0.359049  0.534986  1
  Li  Li5  1  0.265687  0.308346  0.132111  1
  V  V6  1  0.334316  0.166918  0.666486  1
  V  V7  1  0.000130  0.500075  0.999949  1
  V  V8  1  -0.000011  0.999461  0.999801  1
  Cr  Cr9  1  0.665650  0.832988  0.333393  1
  Cr  Cr10  1  0.666166  0.333496  0.333657  1
  Cr  Cr11  1  0.333751  0.666938  0.666561  1
  P  P12  1  0.979504  0.148552  0.380350  1
  P  P13  1  0.686882  0.185717  0.954188  1
  P  P14  1  0.645740  0.481421  0.712191  1
  P  P15  1  0.354591  0.518906  0.287751  1
  P  P16  1  0.312377  0.814075  0.048141  1
  P  P17  1  0.021029  0.851312  0.617316  1
  H  H18  1  0.953272  0.325928  0.988264  1
  H  H19  1  0.711762  0.005953  0.347749  1
  H  H20  1  0.618178  0.660822  0.321540  1
  H  H21  1  0.380401  0.341137  0.678038  1
  H  H22  1  0.290493  0.991703  0.652874  1
  H  H23  1  0.046530  0.674307  0.011474  1
  O  O24  1  0.919100  0.900598  0.826096  1
  O  O25  1  0.957265  0.218481  0.838913  1
  O  O26  1  0.862264  0.451752  0.792055  1
  O  O27  1  0.803349  0.881396  0.539621  1
  O  O28  1  0.701232  0.077618  0.959074  1
  O  O29  1  0.962964  0.256449  0.375403  1
  O  O30  1  0.629831  0.589358  0.707366  1
  O  O31  1  0.747385  0.432683  0.502723  1
  O  O32  1  0.950418  0.371315  0.097183  1
  O  O33  1  0.709878  0.114936  0.495226  1
  O  O34  1  0.714677  0.960792  0.238447  1
  O  O35  1  0.412847  0.765510  0.838520  1
  O  O36  1  0.471544  0.215924  0.873875  1
  O  O37  1  0.619657  0.705346  0.430482  1
  O  O38  1  0.376421  0.447999  0.827855  1
  O  O39  1  0.623979  0.552230  0.172100  1
  O  O40  1  0.381839  0.295913  0.569280  1
  O  O41  1  0.530032  0.784051  0.125845  1
  O  O42  1  0.585588  0.234199  0.163749  1
  O  O43  1  0.281996  0.037941  0.762031  1
  O  O44  1  0.292925  0.884783  0.503081  1
  O  O45  1  0.050243  0.628861  0.902429  1
  O  O46  1  0.253408  0.567591  0.497238  1
  O  O47  1  0.370337  0.410929  0.292261  1
  O  O48  1  0.037938  0.743568  0.623638  1
  O  O49  1  0.297491  0.922093  0.042385  1
  O  O50  1  0.195007  0.118468  0.460613  1
  O  O51  1  0.137786  0.548467  0.208049  1
  O  O52  1  0.039888  0.781565  0.163047  1
  O  O53  1  0.081822  0.099455  0.171616  1
