# generated using pymatgen
data_Li5Fe8(BO3)8
_symmetry_space_group_name_H-M   'P 1'
_cell_length_a   5.22009549
_cell_length_b   9.08148344
_cell_length_c   10.25588668
_cell_angle_alpha   90.98588285
_cell_angle_beta   90.76003474
_cell_angle_gamma   89.82965781
_symmetry_Int_Tables_number   1
_chemical_formula_structural   Li5Fe8(BO3)8
_chemical_formula_sum   'Li5 Fe8 B8 O24'
_cell_volume   486.07615106
_cell_formula_units_Z   1
loop_
 _symmetry_equiv_pos_site_id
 _symmetry_equiv_pos_as_xyz
  1  'x, y, z'
loop_
 _atom_site_type_symbol
 _atom_site_label
 _atom_site_symmetry_multiplicity
 _atom_site_fract_x
 _atom_site_fract_y
 _atom_site_fract_z
 _atom_site_occupancy
  Li  Li0  1  0.853317  0.829924  0.661716  1
  Li  Li1  1  0.812955  0.833754  0.169921  1
  Li  Li2  1  0.677343  0.665110  0.408857  1
  Li  Li3  1  0.662954  0.677903  0.915233  1
  Li  Li4  1  0.318071  0.332135  0.154985  1
  Fe  Fe5  1  0.832056  0.169912  0.630985  1
  Fe  Fe6  1  0.818564  0.496761  0.136300  1
  Fe  Fe7  1  0.681346  0.012745  0.880070  1
  Fe  Fe8  1  0.662160  0.333284  0.382183  1
  Fe  Fe9  1  0.344977  0.652482  0.625770  1
  Fe  Fe10  1  0.329836  0.994531  0.127688  1
  Fe  Fe11  1  0.171169  0.848886  0.389178  1
  Fe  Fe12  1  0.162697  0.494931  0.874680  1
  B  B13  1  0.846309  0.502444  0.626274  1
  B  B14  1  0.834410  0.161096  0.129690  1
  B  B15  1  0.662891  0.999800  0.377479  1
  B  B16  1  0.660377  0.342450  0.875399  1
  B  B17  1  0.328741  0.998559  0.636205  1
  B  B18  1  0.323777  0.670577  0.120253  1
  B  B19  1  0.171167  0.511256  0.366739  1
  B  B20  1  0.174846  0.824923  0.883093  1
  O  O21  1  0.906472  0.516485  0.340610  1
  O  O22  1  0.912179  0.830145  0.863890  1
  O  O23  1  0.785631  0.218661  0.828066  1
  O  O24  1  0.767792  0.123408  0.437130  1
  O  O25  1  0.793464  0.866671  0.368220  1
  O  O26  1  0.800407  0.468986  0.913607  1
  O  O27  1  0.724010  0.636122  0.607919  1
  O  O28  1  0.700593  0.031959  0.093767  1
  O  O29  1  0.733326  0.371664  0.585676  1
  O  O30  1  0.699017  0.287216  0.162057  1
  O  O31  1  0.588535  0.677414  0.115106  1
  O  O32  1  0.594582  0.998693  0.666353  1
  O  O33  1  0.418602  0.004464  0.320473  1
  O  O34  1  0.401782  0.344309  0.891457  1
  O  O35  1  0.311257  0.695494  0.848932  1
  O  O36  1  0.295388  0.636434  0.417868  1
  O  O37  1  0.307878  0.386509  0.339190  1
  O  O38  1  0.316058  0.941332  0.934890  1
  O  O39  1  0.193522  0.542382  0.082364  1
  O  O40  1  0.183143  0.123078  0.644025  1
  O  O41  1  0.214099  0.865440  0.597471  1
  O  O42  1  0.182717  0.794507  0.160587  1
  O  O43  1  0.097005  0.157747  0.130423  1
  O  O44  1  0.089064  0.500210  0.683175  1
