# generated using pymatgen
data_V3S
_symmetry_space_group_name_H-M   'P 1'
_cell_length_a   4.55085483
_cell_length_b   7.05525091
_cell_length_c   7.05531909
_cell_angle_alpha   84.02265290
_cell_angle_beta   108.81583685
_cell_angle_gamma   108.81420763
_symmetry_Int_Tables_number   1
_chemical_formula_structural   V3S
_chemical_formula_sum   'V12 S4'
_cell_volume   202.96574237
_cell_formula_units_Z   4
loop_
 _symmetry_equiv_pos_site_id
 _symmetry_equiv_pos_as_xyz
  1  'x, y, z'
loop_
 _atom_site_type_symbol
 _atom_site_label
 _atom_site_symmetry_multiplicity
 _atom_site_fract_x
 _atom_site_fract_y
 _atom_site_fract_z
 _atom_site_occupancy
  V  V0  1  0.542950  0.601758  0.000090  1
  V  V1  1  0.357358  0.357358  0.357358  1
  V  V2  1  0.642587  0.642587  0.642587  1
  V  V3  1  0.330035  0.182939  0.000051  1
  V  V4  1  0.852955  0.000051  0.182939  1
  V  V5  1  0.058898  0.000090  0.601758  1
  V  V6  1  0.000006  0.642576  0.357403  1
  V  V7  1  0.670043  0.999982  0.817125  1
  V  V8  1  0.457029  0.999924  0.398194  1
  V  V9  1  0.999974  0.357403  0.642576  1
  V  V10  1  0.147064  0.817125  0.999982  1
  V  V11  1  0.941089  0.398194  0.999924  1
  S  S12  1  0.499982  0.288574  0.711424  1
  S  S13  1  0.788556  0.288556  0.288556  1
  S  S14  1  0.211461  0.711461  0.711461  1
  S  S15  1  0.500015  0.711424  0.288574  1
