# generated using pymatgen
data_H18Se3(NO3)4
_symmetry_space_group_name_H-M   'P 1'
_cell_length_a   8.78815976
_cell_length_b   11.72286228
_cell_length_c   11.43605328
_cell_angle_alpha   118.30269538
_cell_angle_beta   97.35500996
_cell_angle_gamma   100.81715985
_symmetry_Int_Tables_number   1
_chemical_formula_structural   H18Se3(NO3)4
_chemical_formula_sum   'H36 Se6 N8 O24'
_cell_volume   986.29617804
_cell_formula_units_Z   2
loop_
 _symmetry_equiv_pos_site_id
 _symmetry_equiv_pos_as_xyz
  1  'x, y, z'
loop_
 _atom_site_type_symbol
 _atom_site_label
 _atom_site_symmetry_multiplicity
 _atom_site_fract_x
 _atom_site_fract_y
 _atom_site_fract_z
 _atom_site_occupancy
  H  H0  1  0.024888  0.014154  0.331187  1
  H  H1  1  0.975112  0.985846  0.668813  1
  H  H2  1  0.792319  0.352654  0.468231  1
  H  H3  1  0.207681  0.647347  0.531769  1
  H  H4  1  0.594385  0.611123  0.029904  1
  H  H5  1  0.405615  0.388877  0.970096  1
  H  H6  1  0.933297  0.554988  0.320743  1
  H  H7  1  0.066703  0.445012  0.679257  1
  H  H8  1  0.489523  0.275528  0.940727  1
  H  H9  1  0.510477  0.724472  0.059273  1
  H  H10  1  0.851339  0.470435  0.982949  1
  H  H11  1  0.148661  0.529565  0.017051  1
  H  H12  1  0.664169  0.053876  0.734940  1
  H  H13  1  0.335831  0.946124  0.265060  1
  H  H14  1  0.473397  0.052036  0.885797  1
  H  H15  1  0.526603  0.947964  0.114203  1
  H  H16  1  0.639501  0.917751  0.833922  1
  H  H17  1  0.360499  0.082249  0.166078  1
  H  H18  1  0.427112  0.575339  0.516504  1
  H  H19  1  0.572888  0.424661  0.483496  1
  H  H20  1  0.127812  0.902722  0.898090  1
  H  H21  1  0.872188  0.097278  0.101910  1
  H  H22  1  0.926031  0.537991  0.714404  1
  H  H23  1  0.073969  0.462009  0.285596  1
  H  H24  1  0.108778  0.747558  0.601470  1
  H  H25  1  0.891222  0.252442  0.398530  1
  H  H26  1  0.580384  0.646826  0.709064  1
  H  H27  1  0.419616  0.353174  0.290936  1
  H  H28  1  0.639077  0.089577  0.491021  1
  H  H29  1  0.360923  0.910423  0.508979  1
  H  H30  1  0.559402  0.848715  0.679351  1
  H  H31  1  0.440598  0.151285  0.320649  1
  H  H32  1  0.662711  0.700473  0.307699  1
  H  H33  1  0.337289  0.299527  0.692301  1
  H  H34  1  0.819253  0.807660  0.431884  1
  H  H35  1  0.180747  0.192340  0.568116  1
  Se  Se36  1  0.778388  0.156537  0.620087  1
  Se  Se37  1  0.221612  0.843463  0.379913  1
  Se  Se38  1  0.581000  0.378452  0.254375  1
  Se  Se39  1  0.419000  0.621548  0.745625  1
  Se  Se40  1  0.835991  0.905066  0.122101  1
  Se  Se41  1  0.164009  0.094934  0.877899  1
  N  N42  1  0.714819  0.508702  0.872418  1
  N  N43  1  0.285181  0.491298  0.127582  1
  N  N44  1  0.955471  0.460840  0.289384  1
  N  N45  1  0.044529  0.539160  0.710616  1
  N  N46  1  0.143752  0.639643  0.732215  1
  N  N47  1  0.856248  0.360357  0.267785  1
  N  N48  1  0.776068  0.706838  0.354233  1
  N  N49  1  0.223932  0.293162  0.645767  1
  O  O50  1  0.645494  0.128893  0.719282  1
  O  O51  1  0.354506  0.871107  0.280718  1
  O  O52  1  0.846341  0.459884  0.891859  1
  O  O53  1  0.153659  0.540116  0.108141  1
  O  O54  1  0.880606  0.040451  0.575241  1
  O  O55  1  0.119394  0.959549  0.424759  1
  O  O56  1  0.863599  0.302872  0.485493  1
  O  O57  1  0.136401  0.697128  0.514507  1
  O  O58  1  0.316457  0.509651  0.241282  1
  O  O59  1  0.683543  0.490349  0.758718  1
  O  O60  1  0.543059  0.218227  0.128636  1
  O  O61  1  0.456941  0.781773  0.871364  1
  O  O62  1  0.665277  0.436706  0.446805  1
  O  O63  1  0.334723  0.563294  0.553195  1
  O  O64  1  0.343818  0.085608  0.251303  1
  O  O65  1  0.656182  0.914392  0.748697  1
  O  O66  1  0.527262  0.659217  0.085928  1
  O  O67  1  0.472738  0.340783  0.914072  1
  O  O68  1  0.810537  0.002095  0.040125  1
  O  O69  1  0.189463  0.997905  0.959875  1
  O  O70  1  0.945304  0.808947  0.039290  1
  O  O71  1  0.054696  0.191053  0.960710  1
  O  O72  1  0.967999  0.050048  0.278956  1
  O  O73  1  0.032001  0.949952  0.721044  1
