# generated using pymatgen
data_Li3Fe(PO4)2
_symmetry_space_group_name_H-M   'P 1'
_cell_length_a   8.26734920
_cell_length_b   8.22375409
_cell_length_c   10.49345121
_cell_angle_alpha   90.01473396
_cell_angle_beta   89.98904365
_cell_angle_gamma   75.93826797
_symmetry_Int_Tables_number   1
_chemical_formula_structural   Li3Fe(PO4)2
_chemical_formula_sum   'Li12 Fe4 P8 O32'
_cell_volume   692.05705543
_cell_formula_units_Z   4
loop_
 _symmetry_equiv_pos_site_id
 _symmetry_equiv_pos_as_xyz
  1  'x, y, z'
loop_
 _atom_site_type_symbol
 _atom_site_label
 _atom_site_symmetry_multiplicity
 _atom_site_fract_x
 _atom_site_fract_y
 _atom_site_fract_z
 _atom_site_occupancy
  Li  Li0  1  0.905244  0.602330  0.663849  1
  Li  Li1  1  0.781412  0.457402  0.415183  1
  Li  Li2  1  0.655928  0.847621  0.853269  1
  Li  Li3  1  0.723251  0.535626  0.941072  1
  Li  Li4  1  0.662232  0.351917  0.658281  1
  Li  Li5  1  0.597444  0.396901  0.174253  1
  Li  Li6  1  0.404363  0.604270  0.836484  1
  Li  Li7  1  0.281483  0.457280  0.085268  1
  Li  Li8  1  0.155894  0.846404  0.645819  1
  Li  Li9  1  0.223742  0.533728  0.560032  1
  Li  Li10  1  0.162902  0.351920  0.841906  1
  Li  Li11  1  0.097597  0.396897  0.326260  1
  Fe  Fe12  1  0.912950  0.094332  0.843129  1
  Fe  Fe13  1  0.412838  0.093901  0.657057  1
  Fe  Fe14  1  0.594640  0.901223  0.333508  1
  Fe  Fe15  1  0.093918  0.901679  0.166880  1
  P  P16  1  0.959170  0.759393  0.411382  1
  P  P17  1  0.969389  0.287236  0.087060  1
  P  P18  1  0.529079  0.714140  0.591082  1
  P  P19  1  0.458951  0.760494  0.088740  1
  P  P20  1  0.539831  0.237104  0.905417  1
  P  P21  1  0.469689  0.286478  0.413082  1
  P  P22  1  0.028877  0.714449  0.909079  1
  P  P23  1  0.040408  0.236581  0.594778  1
  O  O24  1  0.998097  0.771942  0.048743  1
  O  O25  1  0.918431  0.601936  0.357717  1
  O  O26  1  0.984513  0.272361  0.459387  1
  O  O27  1  0.874548  0.665052  0.852598  1
  O  O28  1  0.800357  0.909561  0.406739  1
  O  O29  1  0.954746  0.119335  0.149770  1
  O  O30  1  0.894528  0.190024  0.675592  1
  O  O31  1  0.799570  0.411305  0.090735  1
  O  O32  1  0.688370  0.571300  0.603754  1
  O  O33  1  0.597623  0.814104  0.168181  1
  O  O34  1  0.554010  0.871264  0.672721  1
  O  O35  1  0.692873  0.076182  0.888521  1
  O  O36  1  0.521869  0.733555  0.948784  1
  O  O37  1  0.611033  0.352602  0.358387  1
  O  O38  1  0.498614  0.771448  0.451404  1
  O  O39  1  0.591116  0.384600  0.837661  1
  O  O40  1  0.418910  0.602273  0.141499  1
  O  O41  1  0.511314  0.240126  0.562064  1
  O  O42  1  0.484573  0.271449  0.040926  1
  O  O43  1  0.374575  0.664953  0.647408  1
  O  O44  1  0.299901  0.910307  0.094372  1
  O  O45  1  0.455707  0.119126  0.349221  1
  O  O46  1  0.394195  0.190143  0.824448  1
  O  O47  1  0.299628  0.409809  0.410354  1
  O  O48  1  0.097673  0.813488  0.332021  1
  O  O49  1  0.188198  0.571680  0.896535  1
  O  O50  1  0.053895  0.871549  0.827423  1
  O  O51  1  0.193155  0.075296  0.610534  1
  O  O52  1  0.022456  0.730934  0.551114  1
  O  O53  1  0.111306  0.351922  0.141969  1
  O  O54  1  0.092586  0.383260  0.662889  1
  O  O55  1  0.010036  0.242040  0.937728  1
