# generated using pymatgen
data_Na4Sn2C4SO16
_symmetry_space_group_name_H-M   'P 1'
_cell_length_a   10.22110493
_cell_length_b   9.94921322
_cell_length_c   9.94921265
_cell_angle_alpha   91.12278665
_cell_angle_beta   61.49975127
_cell_angle_gamma   61.49975285
_symmetry_Int_Tables_number   1
_chemical_formula_structural   Na4Sn2C4SO16
_chemical_formula_sum   'Na8 Sn4 C8 S2 O32'
_cell_volume   740.25950946
_cell_formula_units_Z   2
loop_
 _symmetry_equiv_pos_site_id
 _symmetry_equiv_pos_as_xyz
  1  'x, y, z'
loop_
 _atom_site_type_symbol
 _atom_site_label
 _atom_site_symmetry_multiplicity
 _atom_site_fract_x
 _atom_site_fract_y
 _atom_site_fract_z
 _atom_site_occupancy
  Na  Na0  1  0.250000  0.423040  0.076960  1
  Na  Na1  1  0.250000  0.828268  0.078268  1
  Na  Na2  1  0.250000  0.421732  0.671732  1
  Na  Na3  1  0.250000  0.826960  0.673040  1
  Na  Na4  1  0.750000  0.173040  0.326960  1
  Na  Na5  1  0.750000  0.578268  0.328268  1
  Na  Na6  1  0.750000  0.171732  0.921732  1
  Na  Na7  1  0.750000  0.576960  0.923040  1
  Sn  Sn8  1  0.000000  0.000000  0.500000  1
  Sn  Sn9  1  0.000000  0.500000  0.500000  1
  Sn  Sn10  1  0.500000  0.000000  0.000000  1
  Sn  Sn11  1  0.500000  0.000000  0.500000  1
  C  C12  1  0.072805  0.208943  0.262503  1
  C  C13  1  0.072805  0.218252  0.664692  1
  C  C14  1  0.427195  0.237497  0.291057  1
  C  C15  1  0.427195  0.835308  0.281748  1
  C  C16  1  0.572805  0.164692  0.718252  1
  C  C17  1  0.572805  0.762503  0.708943  1
  C  C18  1  0.927195  0.781748  0.335308  1
  C  C19  1  0.927195  0.791057  0.737497  1
  S  S20  1  0.250000  0.625000  0.875000  1
  S  S21  1  0.750000  0.375000  0.125000  1
  O  O22  1  0.208580  0.086909  0.133067  1
  O  O23  1  0.055926  0.348327  0.278119  1
  O  O24  1  0.055926  0.095747  0.665955  1
  O  O25  1  0.047603  0.645886  0.329656  1
  O  O26  1  0.208580  0.204511  0.658353  1
  O  O27  1  0.444074  0.221881  0.151673  1
  O  O28  1  0.291420  0.366933  0.413091  1
  O  O29  1  0.047603  0.806512  0.622741  1
  O  O30  1  0.547603  0.122741  0.306513  1
  O  O31  1  0.291420  0.841647  0.295489  1
  O  O32  1  0.137214  0.557104  0.930456  1
  O  O33  1  0.637214  0.430456  0.057104  1
  O  O34  1  0.555926  0.165955  0.595747  1
  O  O35  1  0.452397  0.170344  0.854114  1
  O  O36  1  0.137214  0.805682  0.932330  1
  O  O37  1  0.362786  0.567670  0.694318  1
  O  O38  1  0.637214  0.432330  0.305682  1
  O  O39  1  0.862786  0.194318  0.067670  1
  O  O40  1  0.547603  0.829656  0.145886  1
  O  O41  1  0.444074  0.834045  0.404253  1
  O  O42  1  0.362786  0.569544  0.942896  1
  O  O43  1  0.862786  0.442896  0.069544  1
  O  O44  1  0.708580  0.158353  0.704511  1
  O  O45  1  0.452397  0.877259  0.693488  1
  O  O46  1  0.952397  0.193488  0.377259  1
  O  O47  1  0.708580  0.633067  0.586909  1
  O  O48  1  0.555926  0.778119  0.848327  1
  O  O49  1  0.791420  0.795489  0.341647  1
  O  O50  1  0.952397  0.354114  0.670344  1
  O  O51  1  0.944074  0.904253  0.334045  1
  O  O52  1  0.944074  0.651673  0.721881  1
  O  O53  1  0.791420  0.913091  0.866933  1
