# generated using pymatgen
data_Li3Fe3(OF)4
_symmetry_space_group_name_H-M   'P 1'
_cell_length_a   5.07316604
_cell_length_b   9.83596677
_cell_length_c   3.03658656
_cell_angle_alpha   90.00000000
_cell_angle_beta   90.00000000
_cell_angle_gamma   90.53320799
_symmetry_Int_Tables_number   1
_chemical_formula_structural   Li3Fe3(OF)4
_chemical_formula_sum   'Li3 Fe3 O4 F4'
_cell_volume   151.51756703
_cell_formula_units_Z   1
loop_
 _symmetry_equiv_pos_site_id
 _symmetry_equiv_pos_as_xyz
  1  'x, y, z'
loop_
 _atom_site_type_symbol
 _atom_site_label
 _atom_site_symmetry_multiplicity
 _atom_site_fract_x
 _atom_site_fract_y
 _atom_site_fract_z
 _atom_site_occupancy
  Li  Li0  1  0.998440  0.840181  0.750000  1
  Li  Li1  1  0.414588  0.036191  0.750000  1
  Li  Li2  1  0.934236  0.459260  0.250000  1
  Fe  Fe3  1  0.472331  0.362947  0.750000  1
  Fe  Fe4  1  0.532205  0.629808  0.250000  1
  Fe  Fe5  1  0.976113  0.154199  0.250000  1
  O  O6  1  0.195010  0.211553  0.750000  1
  O  O7  1  0.299813  0.466280  0.250000  1
  O  O8  1  0.698054  0.283646  0.250000  1
  O  O9  1  0.718139  0.535721  0.750000  1
  F  F10  1  0.213574  0.977991  0.250000  1
  F  F11  1  0.334463  0.728129  0.750000  1
  F  F12  1  0.785279  0.037931  0.750000  1
  F  F13  1  0.801916  0.776163  0.250000  1
