# generated using pymatgen
data_Ge2N2O
_symmetry_space_group_name_H-M   'P 1'
_cell_length_a   5.35834907
_cell_length_b   5.57286213
_cell_length_c   5.57286213
_cell_angle_alpha   57.80310977
_cell_angle_beta   98.78768090
_cell_angle_gamma   81.21231910
_symmetry_Int_Tables_number   1
_chemical_formula_structural   Ge2N2O
_chemical_formula_sum   'Ge4 N4 O2'
_cell_volume   133.60189386
_cell_formula_units_Z   2
loop_
 _symmetry_equiv_pos_site_id
 _symmetry_equiv_pos_as_xyz
  1  'x, y, z'
loop_
 _atom_site_type_symbol
 _atom_site_label
 _atom_site_symmetry_multiplicity
 _atom_site_fract_x
 _atom_site_fract_y
 _atom_site_fract_z
 _atom_site_occupancy
  Ge  Ge0  1  0.494708  0.833295  0.822666  1
  Ge  Ge1  1  0.498320  0.498675  0.503982  1
  Ge  Ge2  1  0.994708  0.344001  0.333372  1
  Ge  Ge3  1  0.998320  0.662685  0.667992  1
  N  N4  1  0.636740  0.739551  0.586798  1
  N  N5  1  0.629526  0.502641  0.212803  1
  N  N6  1  0.136740  0.579869  0.427115  1
  N  N7  1  0.129526  0.953864  0.664025  1
  O  O8  1  0.115706  0.351765  0.049679  1
  O  O9  1  0.615706  0.116987  0.814902  1
