# generated using pymatgen
data_Ti(SO4)2
_symmetry_space_group_name_H-M   'P 1'
_cell_length_a   8.90781157
_cell_length_b   8.90781202
_cell_length_c   8.90781194
_cell_angle_alpha   56.08479877
_cell_angle_beta   56.08480320
_cell_angle_gamma   56.08479830
_symmetry_Int_Tables_number   1
_chemical_formula_structural   Ti(SO4)2
_chemical_formula_sum   'Ti3 S6 O24'
_cell_volume   454.48566717
_cell_formula_units_Z   3
loop_
 _symmetry_equiv_pos_site_id
 _symmetry_equiv_pos_as_xyz
  1  'x, y, z'
loop_
 _atom_site_type_symbol
 _atom_site_label
 _atom_site_symmetry_multiplicity
 _atom_site_fract_x
 _atom_site_fract_y
 _atom_site_fract_z
 _atom_site_occupancy
  Ti  Ti0  1  0.357272  0.357272  0.357272  1
  Ti  Ti1  1  0.643285  0.643285  0.643285  1
  Ti  Ti2  1  0.852559  0.852559  0.852559  1
  S  S3  1  0.032206  0.752425  0.466748  1
  S  S4  1  0.466748  0.032206  0.752425  1
  S  S5  1  0.752425  0.466748  0.032206  1
  S  S6  1  0.256431  0.527647  0.959522  1
  S  S7  1  0.527647  0.959522  0.256431  1
  S  S8  1  0.959522  0.256431  0.527647  1
  O  O9  1  0.118554  0.293837  0.504782  1
  O  O10  1  0.293837  0.504782  0.118554  1
  O  O11  1  0.008858  0.945664  0.331684  1
  O  O12  1  0.504782  0.118554  0.293837  1
  O  O13  1  0.016837  0.724075  0.659176  1
  O  O14  1  0.225816  0.603983  0.396416  1
  O  O15  1  0.396416  0.225816  0.603983  1
  O  O16  1  0.331684  0.008858  0.945664  1
  O  O17  1  0.603983  0.396416  0.225816  1
  O  O18  1  0.054380  0.679010  0.971309  1
  O  O19  1  0.285572  0.350232  0.966982  1
  O  O20  1  0.350232  0.966982  0.285572  1
  O  O21  1  0.659176  0.016837  0.724075  1
  O  O22  1  0.724075  0.659176  0.016837  1
  O  O23  1  0.945664  0.331684  0.008858  1
  O  O24  1  0.388546  0.626885  0.770341  1
  O  O25  1  0.679010  0.971309  0.054380  1
  O  O26  1  0.626885  0.770341  0.388546  1
  O  O27  1  0.770341  0.388546  0.626885  1
  O  O28  1  0.966982  0.285572  0.350232  1
  O  O29  1  0.511740  0.887023  0.682561  1
  O  O30  1  0.971309  0.054380  0.679010  1
  O  O31  1  0.682561  0.511740  0.887023  1
  O  O32  1  0.887023  0.682561  0.511740  1
