# generated using pymatgen
data_Mn7P6(HO6)4
_symmetry_space_group_name_H-M   'P 1'
_cell_length_a   6.64333634
_cell_length_b   8.14696522
_cell_length_c   10.02133123
_cell_angle_alpha   67.76256733
_cell_angle_beta   70.14824695
_cell_angle_gamma   78.66714359
_symmetry_Int_Tables_number   1
_chemical_formula_structural   Mn7P6(HO6)4
_chemical_formula_sum   'Mn7 P6 H4 O24'
_cell_volume   470.76762549
_cell_formula_units_Z   1
loop_
 _symmetry_equiv_pos_site_id
 _symmetry_equiv_pos_as_xyz
  1  'x, y, z'
loop_
 _atom_site_type_symbol
 _atom_site_label
 _atom_site_symmetry_multiplicity
 _atom_site_fract_x
 _atom_site_fract_y
 _atom_site_fract_z
 _atom_site_occupancy
  Mn  Mn0  1  0.000000  0.000000  0.000000  1
  Mn  Mn1  1  0.471989  0.717785  0.488233  1
  Mn  Mn2  1  0.528011  0.282215  0.511767  1
  Mn  Mn3  1  0.997897  0.814771  0.714815  1
  Mn  Mn4  1  0.002103  0.185229  0.285185  1
  Mn  Mn5  1  0.724879  0.454958  0.894520  1
  Mn  Mn6  1  0.275121  0.545042  0.105480  1
  P  P7  1  0.554654  0.144541  0.218075  1
  P  P8  1  0.445346  0.855459  0.781925  1
  P  P9  1  0.023029  0.771187  0.385318  1
  P  P10  1  0.976971  0.228813  0.614682  1
  P  P11  1  0.738649  0.582515  0.178176  1
  P  P12  1  0.261351  0.417485  0.821824  1
  H  H13  1  0.819890  0.503359  0.597731  1
  H  H14  1  0.180110  0.496641  0.402269  1
  H  H15  1  0.627699  0.876024  0.192342  1
  H  H16  1  0.372301  0.123976  0.807658  1
  O  O17  1  0.610802  0.543107  0.091143  1
  O  O18  1  0.389198  0.456893  0.908857  1
  O  O19  1  0.044452  0.535698  0.831714  1
  O  O20  1  0.955548  0.464302  0.168286  1
  O  O21  1  0.649536  0.169648  0.329427  1
  O  O22  1  0.350464  0.830352  0.670573  1
  O  O23  1  0.667739  0.754249  0.778438  1
  O  O24  1  0.332261  0.245751  0.221562  1
  O  O25  1  0.790084  0.782083  0.107430  1
  O  O26  1  0.209916  0.217917  0.892570  1
  O  O27  1  0.833607  0.382588  0.678652  1
  O  O28  1  0.166393  0.617412  0.321348  1
  O  O29  1  0.801614  0.703515  0.478751  1
  O  O30  1  0.198386  0.296485  0.521249  1
  O  O31  1  0.969193  0.061728  0.756265  1
  O  O32  1  0.030807  0.938272  0.243735  1
  O  O33  1  0.870958  0.199774  0.510377  1
  O  O34  1  0.129042  0.800226  0.489623  1
  O  O35  1  0.602066  0.544172  0.345372  1
  O  O36  1  0.397934  0.455828  0.654628  1
  O  O37  1  0.720469  0.186637  0.058300  1
  O  O38  1  0.279531  0.813363  0.941700  1
  O  O39  1  0.480012  0.061102  0.731627  1
  O  O40  1  0.519988  0.938898  0.268373  1
