# generated using pymatgen
data_Ca2Fe3Sb(PO4)6
_symmetry_space_group_name_H-M   'P 1'
_cell_length_a   8.91176263
_cell_length_b   8.91176222
_cell_length_c   8.91176244
_cell_angle_alpha   58.22929293
_cell_angle_beta   58.22929451
_cell_angle_gamma   58.22929683
_symmetry_Int_Tables_number   1
_chemical_formula_structural   Ca2Fe3Sb(PO4)6
_chemical_formula_sum   'Ca2 Fe3 Sb1 P6 O24'
_cell_volume   480.16478969
_cell_formula_units_Z   1
loop_
 _symmetry_equiv_pos_site_id
 _symmetry_equiv_pos_as_xyz
  1  'x, y, z'
loop_
 _atom_site_type_symbol
 _atom_site_label
 _atom_site_symmetry_multiplicity
 _atom_site_fract_x
 _atom_site_fract_y
 _atom_site_fract_z
 _atom_site_occupancy
  Ca  Ca0  1  0.994332  0.994332  0.994332  1
  Ca  Ca1  1  0.500115  0.500115  0.500115  1
  Fe  Fe2  1  0.352750  0.352750  0.352750  1
  Fe  Fe3  1  0.648095  0.648095  0.648095  1
  Fe  Fe4  1  0.851473  0.851473  0.851473  1
  Sb  Sb5  1  0.146802  0.146802  0.146802  1
  P  P6  1  0.042018  0.747755  0.462362  1
  P  P7  1  0.462362  0.042018  0.747755  1
  P  P8  1  0.747755  0.462362  0.042018  1
  P  P9  1  0.252248  0.544306  0.957899  1
  P  P10  1  0.544306  0.957899  0.252248  1
  P  P11  1  0.957899  0.252248  0.544306  1
  O  O12  1  0.123915  0.291094  0.506562  1
  O  O13  1  0.291094  0.506562  0.123915  1
  O  O14  1  0.062082  0.924739  0.268937  1
  O  O15  1  0.506562  0.123915  0.291094  1
  O  O16  1  0.010026  0.794980  0.620488  1
  O  O17  1  0.229862  0.584498  0.434310  1
  O  O18  1  0.268937  0.062082  0.924739  1
  O  O19  1  0.434310  0.229862  0.584498  1
  O  O20  1  0.584498  0.434310  0.229862  1
  O  O21  1  0.212222  0.376276  0.984555  1
  O  O22  1  0.080222  0.726043  0.939247  1
  O  O23  1  0.376276  0.984555  0.212222  1
  O  O24  1  0.620488  0.010026  0.794980  1
  O  O25  1  0.924739  0.268937  0.062082  1
  O  O26  1  0.794980  0.620488  0.010026  1
  O  O27  1  0.420136  0.559557  0.771917  1
  O  O28  1  0.559557  0.771917  0.420136  1
  O  O29  1  0.726043  0.939247  0.080222  1
  O  O30  1  0.771917  0.420136  0.559557  1
  O  O31  1  0.984555  0.212222  0.376276  1
  O  O32  1  0.485165  0.877406  0.715606  1
  O  O33  1  0.939247  0.080222  0.726043  1
  O  O34  1  0.715606  0.485165  0.877406  1
  O  O35  1  0.877406  0.715606  0.485165  1
