# generated using pymatgen
data_Gd5(AsO6)2
_symmetry_space_group_name_H-M   'P 1'
_cell_length_a   6.89701501
_cell_length_b   7.37877814
_cell_length_c   6.89701501
_cell_angle_alpha   74.46528232
_cell_angle_beta   128.88641168
_cell_angle_gamma   105.53471768
_symmetry_Int_Tables_number   1
_chemical_formula_structural   Gd5(AsO6)2
_chemical_formula_sum   'Gd5 As2 O12'
_cell_volume   260.89842190
_cell_formula_units_Z   1
loop_
 _symmetry_equiv_pos_site_id
 _symmetry_equiv_pos_as_xyz
  1  'x, y, z'
loop_
 _atom_site_type_symbol
 _atom_site_label
 _atom_site_symmetry_multiplicity
 _atom_site_fract_x
 _atom_site_fract_y
 _atom_site_fract_z
 _atom_site_occupancy
  Gd  Gd0  1  0.303059  0.639808  0.696941  1
  Gd  Gd1  1  0.304228  0.165888  0.695772  1
  Gd  Gd2  1  0.000000  0.500000  0.000000  1
  Gd  Gd3  1  0.695772  0.834112  0.304228  1
  Gd  Gd4  1  0.696941  0.360192  0.303059  1
  As  As5  1  0.242683  0.000000  0.242683  1
  As  As6  1  0.757317  0.000000  0.757317  1
  O  O7  1  0.000605  0.172896  0.999395  1
  O  O8  1  0.579501  0.921140  0.896276  1
  O  O9  1  0.103724  0.921140  0.420499  1
  O  O10  1  0.597932  0.424025  0.903801  1
  O  O11  1  0.096199  0.424025  0.402068  1
  O  O12  1  0.500379  0.824088  0.499621  1
  O  O13  1  0.499621  0.175912  0.500379  1
  O  O14  1  0.402068  0.575975  0.096199  1
  O  O15  1  0.903801  0.575975  0.597932  1
  O  O16  1  0.420499  0.078859  0.103724  1
  O  O17  1  0.896276  0.078859  0.579501  1
  O  O18  1  0.999395  0.827104  0.000605  1
