# generated using pymatgen
data_As3H12C4S5N
_symmetry_space_group_name_H-M   'P 1'
_cell_length_a   9.76401331
_cell_length_b   10.67442552
_cell_length_c   14.32658198
_cell_angle_alpha   91.35933986
_cell_angle_beta   98.89787382
_cell_angle_gamma   92.23695138
_symmetry_Int_Tables_number   1
_chemical_formula_structural   As3H12C4S5N
_chemical_formula_sum   'As12 H48 C16 S20 N4'
_cell_volume   1473.42755392
_cell_formula_units_Z   4
loop_
 _symmetry_equiv_pos_site_id
 _symmetry_equiv_pos_as_xyz
  1  'x, y, z'
loop_
 _atom_site_type_symbol
 _atom_site_label
 _atom_site_symmetry_multiplicity
 _atom_site_fract_x
 _atom_site_fract_y
 _atom_site_fract_z
 _atom_site_occupancy
  As  As0  1  0.062347  0.967004  0.623479  1
  As  As1  1  0.183886  0.758491  0.810402  1
  As  As2  1  0.170877  0.273835  0.704471  1
  As  As3  1  0.186477  0.596022  0.017711  1
  As  As4  1  0.394590  0.483382  0.864720  1
  As  As5  1  0.402915  0.068681  0.574936  1
  As  As6  1  0.597085  0.931319  0.425064  1
  As  As7  1  0.605410  0.516618  0.135280  1
  As  As8  1  0.813523  0.403978  0.982289  1
  As  As9  1  0.829123  0.726165  0.295529  1
  As  As10  1  0.816114  0.241509  0.189598  1
  As  As11  1  0.937653  0.032996  0.376521  1
  H  H12  1  0.040961  0.517688  0.377254  1
  H  H13  1  0.099167  0.640297  0.464649  1
  H  H14  1  0.278989  0.981175  0.990090  1
  H  H15  1  0.157029  0.483047  0.482503  1
  H  H16  1  0.135449  0.680377  0.267837  1
  H  H17  1  0.115855  0.046676  0.146488  1
  H  H18  1  0.207609  0.777433  0.369390  1
  H  H19  1  0.363776  0.134497  0.988938  1
  H  H20  1  0.197839  0.461829  0.261359  1
  H  H21  1  0.205486  0.905860  0.129233  1
  H  H22  1  0.243061  0.994962  0.239708  1
  H  H23  1  0.286334  0.391119  0.365112  1
  H  H24  1  0.184612  0.120983  0.001619  1
  H  H25  1  0.237829  0.248398  0.153644  1
  H  H26  1  0.319228  0.719918  0.290881  1
  H  H27  1  0.360424  0.704278  0.491859  1
  H  H28  1  0.461311  0.934507  0.886748  1
  H  H29  1  0.382975  0.539749  0.507363  1
  H  H30  1  0.380978  0.495031  0.298227  1
  H  H31  1  0.505228  0.976596  0.774837  1
  H  H32  1  0.374355  0.198651  0.242993  1
  H  H33  1  0.467504  0.621856  0.421373  1
  H  H34  1  0.549289  0.084279  0.874671  1
  H  H35  1  0.584291  0.740233  0.866012  1
  H  H36  1  0.415709  0.259767  0.133988  1
  H  H37  1  0.450711  0.915721  0.125329  1
  H  H38  1  0.532496  0.378144  0.578627  1
  H  H39  1  0.625645  0.801349  0.757007  1
  H  H40  1  0.494772  0.023404  0.225163  1
  H  H41  1  0.619022  0.504969  0.701773  1
  H  H42  1  0.617025  0.460251  0.492637  1
  H  H43  1  0.538689  0.065493  0.113252  1
  H  H44  1  0.639576  0.295722  0.508141  1
  H  H45  1  0.680772  0.280082  0.709119  1
  H  H46  1  0.762171  0.751602  0.846356  1
  H  H47  1  0.815388  0.879017  0.998381  1
  H  H48  1  0.713666  0.608881  0.634888  1
  H  H49  1  0.756939  0.005038  0.760292  1
  H  H50  1  0.794514  0.094140  0.870767  1
  H  H51  1  0.802161  0.538171  0.738641  1
  H  H52  1  0.636224  0.865503  0.011062  1
  H  H53  1  0.792391  0.222567  0.630610  1
  H  H54  1  0.884145  0.953324  0.853512  1
  H  H55  1  0.864551  0.319623  0.732163  1
  H  H56  1  0.842971  0.516953  0.517497  1
  H  H57  1  0.721011  0.018825  0.009910  1
  H  H58  1  0.900833  0.359703  0.535351  1
  H  H59  1  0.959039  0.482312  0.622746  1
  C  C60  1  0.127539  0.554382  0.430024  1
  C  C61  1  0.225838  0.698922  0.322633  1
  C  C62  1  0.214205  -0.000124  0.162940  1
  C  C63  1  0.281021  0.474931  0.322085  1
  C  C64  1  0.375289  0.614789  0.456386  1
  C  C65  1  0.285271  0.078272  0.018259  1
  C  C66  1  0.338869  0.205699  0.166812  1
  C  C67  1  0.537810  0.985282  0.851455  1
  C  C68  1  0.462190  0.014718  0.148545  1
  C  C69  1  0.661131  0.794301  0.833188  1
  C  C70  1  0.714729  0.921728  0.981741  1
  C  C71  1  0.624711  0.385211  0.543614  1
  C  C72  1  0.718979  0.525069  0.677915  1
  C  C73  1  0.785795  0.000124  0.837060  1
  C  C74  1  0.774162  0.301078  0.677367  1
  C  C75  1  0.872461  0.445618  0.569976  1
  S  S76  1  0.026629  0.674367  0.896788  1
  S  S77  1  0.001213  0.217059  0.309996  1
  S  S78  1  0.120933  0.078487  0.764601  1
  S  S79  1  0.225620  0.406619  0.943716  1
  S  S80  1  0.185249  0.217492  0.556107  1
  S  S81  1  0.266374  0.585208  0.740361  1
  S  S82  1  0.271451  0.891022  0.601156  1
  S  S83  1  0.372127  0.707881  0.997015  1
  S  S84  1  0.401439  0.303822  0.771385  1
  S  S85  1  0.394709  0.077288  0.418346  1
  S  S86  1  0.605291  0.922712  0.581654  1
  S  S87  1  0.598561  0.696178  0.228615  1
  S  S88  1  0.627873  0.292119  0.002985  1
  S  S89  1  0.728549  0.108978  0.398844  1
  S  S90  1  0.733626  0.414792  0.259639  1
  S  S91  1  0.814751  0.782508  0.443893  1
  S  S92  1  0.774380  0.593381  0.056284  1
  S  S93  1  0.879067  0.921513  0.235399  1
  S  S94  1  0.998787  0.782941  0.690004  1
  S  S95  1  0.973371  0.325633  0.103212  1
  N  N96  1  0.251177  0.585202  0.382089  1
  N  N97  1  0.325072  0.074925  0.123950  1
  N  N98  1  0.674928  0.925075  0.876050  1
  N  N99  1  0.748823  0.414798  0.617911  1
