# generated using pymatgen
data_K7H12Pt4C16(N8O3)2
_symmetry_space_group_name_H-M   'P 1'
_cell_length_a   9.81393459
_cell_length_b   10.29231517
_cell_length_c   11.05580841
_cell_angle_alpha   101.99523423
_cell_angle_beta   109.14680112
_cell_angle_gamma   106.39582411
_symmetry_Int_Tables_number   1
_chemical_formula_structural   K7H12Pt4C16(N8O3)2
_chemical_formula_sum   'K7 H12 Pt4 C16 N16 O6'
_cell_volume   954.82994761
_cell_formula_units_Z   1
loop_
 _symmetry_equiv_pos_site_id
 _symmetry_equiv_pos_as_xyz
  1  'x, y, z'
loop_
 _atom_site_type_symbol
 _atom_site_label
 _atom_site_symmetry_multiplicity
 _atom_site_fract_x
 _atom_site_fract_y
 _atom_site_fract_z
 _atom_site_occupancy
  K  K0  1  0.011279  0.654395  0.397156  1
  K  K1  1  0.366959  0.766874  0.862896  1
  K  K2  1  0.275425  0.069543  0.675090  1
  K  K3  1  0.724585  0.930338  0.325374  1
  K  K4  1  0.988521  0.499742  0.995711  1
  K  K5  1  0.630999  0.230631  0.138821  1
  K  K6  1  0.990210  0.345931  0.603190  1
  H  H7  1  0.252405  0.903147  0.365518  1
  H  H8  1  0.271935  0.339244  0.877124  1
  H  H9  1  0.374955  0.875857  0.476800  1
  H  H10  1  0.383485  0.424908  0.825795  1
  H  H11  1  0.349766  0.717108  0.155152  1
  H  H12  1  0.344270  0.580074  0.062770  1
  H  H13  1  0.639460  0.412367  0.934382  1
  H  H14  1  0.637895  0.277558  0.841565  1
  H  H15  1  0.616847  0.575015  0.174089  1
  H  H16  1  0.625627  0.123607  0.523197  1
  H  H17  1  0.726706  0.661806  0.122053  1
  H  H18  1  0.747256  0.096053  0.635035  1
  Pt  Pt19  1  0.000455  0.000492  0.000139  1
  Pt  Pt20  1  0.236432  0.244405  0.257964  1
  Pt  Pt21  1  0.500108  0.500088  0.499771  1
  Pt  Pt22  1  0.763931  0.756658  0.741559  1
  C  C23  1  0.180154  0.000290  0.951054  1
  C  C24  1  0.041341  0.783943  0.161773  1
  C  C25  1  0.088570  0.346462  0.234743  1
  C  C26  1  0.063665  0.130775  0.432052  1
  C  C27  1  0.336327  0.536378  0.556875  1
  C  C28  1  0.621012  0.865287  0.723579  1
  C  C29  1  0.464003  0.729810  0.354160  1
  C  C30  1  0.407240  0.410785  0.106614  1
  C  C31  1  0.594382  0.589359  0.893218  1
  C  C32  1  0.536247  0.270139  0.645041  1
  C  C33  1  0.378730  0.135115  0.277060  1
  C  C34  1  0.663986  0.463901  0.442733  1
  C  C35  1  0.936172  0.869783  0.567231  1
  C  C36  1  0.912464  0.655460  0.762713  1
  C  C37  1  0.963783  0.220529  0.841897  1
  C  C38  1  0.820473  0.000078  0.049179  1
  N  N39  1  0.006016  0.603493  0.772763  1
  N  N40  1  0.028764  0.863543  0.099925  1
  N  N41  1  0.240203  0.563942  0.585253  1
  N  N42  1  0.136452  0.162557  0.369056  1
  N  N43  1  0.286683  0.006772  0.923392  1
  N  N44  1  0.535421  0.925616  0.720759  1
  N  N45  1  0.664188  0.659856  0.845659  1
  N  N46  1  0.482267  0.644416  0.407287  1
  N  N47  1  0.518040  0.355681  0.592298  1
  N  N48  1  0.337261  0.340405  0.154144  1
  N  N49  1  0.464052  0.074419  0.280410  1
  N  N50  1  0.713805  0.992587  0.076913  1
  N  N51  1  0.863099  0.838968  0.630228  1
  N  N52  1  0.760318  0.436441  0.414649  1
  N  N53  1  0.973341  0.138384  0.901175  1
  N  N54  1  0.995340  0.398951  0.222934  1
  O  O55  1  0.280737  0.897306  0.457139  1
  O  O56  1  0.280768  0.347225  0.793326  1
  O  O57  1  0.305691  0.658085  0.058533  1
  O  O58  1  0.678138  0.334348  0.938479  1
  O  O59  1  0.719776  0.652835  0.206320  1
  O  O60  1  0.721178  0.104234  0.544383  1
