# generated using pymatgen
data_LiVF4
_symmetry_space_group_name_H-M   'P 1'
_cell_length_a   7.99384694
_cell_length_b   7.32855640
_cell_length_c   5.19714383
_cell_angle_alpha   90.00000000
_cell_angle_beta   90.00000000
_cell_angle_gamma   75.39552426
_symmetry_Int_Tables_number   1
_chemical_formula_structural   LiVF4
_chemical_formula_sum   'Li4 V4 F16'
_cell_volume   294.62867805
_cell_formula_units_Z   4
loop_
 _symmetry_equiv_pos_site_id
 _symmetry_equiv_pos_as_xyz
  1  'x, y, z'
loop_
 _atom_site_type_symbol
 _atom_site_label
 _atom_site_symmetry_multiplicity
 _atom_site_fract_x
 _atom_site_fract_y
 _atom_site_fract_z
 _atom_site_occupancy
  Li  Li0  1  0.143740  0.997912  0.203543  1
  Li  Li1  1  0.143740  0.497912  0.296457  1
  Li  Li2  1  0.856260  0.502088  0.703543  1
  Li  Li3  1  0.856260  0.002088  0.796457  1
  V  V4  1  0.328504  0.765529  0.723968  1
  V  V5  1  0.328504  0.265529  0.776032  1
  V  V6  1  0.671496  0.734471  0.223968  1
  V  V7  1  0.671496  0.234471  0.276032  1
  F  F8  1  0.109937  0.874205  0.881379  1
  F  F9  1  0.109937  0.374205  0.618621  1
  F  F10  1  0.209499  0.731859  0.408374  1
  F  F11  1  0.209499  0.231859  0.091626  1
  F  F12  1  0.324548  0.522833  0.900318  1
  F  F13  1  0.442898  0.829628  0.049606  1
  F  F14  1  0.324548  0.022833  0.599682  1
  F  F15  1  0.442898  0.329628  0.450394  1
  F  F16  1  0.557102  0.670372  0.549606  1
  F  F17  1  0.675452  0.977167  0.400318  1
  F  F18  1  0.557102  0.170372  0.950394  1
  F  F19  1  0.675452  0.477167  0.099682  1
  F  F20  1  0.790501  0.768141  0.908374  1
  F  F21  1  0.790501  0.268141  0.591626  1
  F  F22  1  0.890063  0.625795  0.381379  1
  F  F23  1  0.890063  0.125795  0.118621  1
