# generated using pymatgen
data_Mn6OF11
_symmetry_space_group_name_H-M   'P 1'
_cell_length_a   4.96472463
_cell_length_b   5.89741289
_cell_length_c   16.21397798
_cell_angle_alpha   90.32838485
_cell_angle_beta   89.33028357
_cell_angle_gamma   89.39696249
_symmetry_Int_Tables_number   1
_chemical_formula_structural   Mn6OF11
_chemical_formula_sum   'Mn12 O2 F22'
_cell_volume   474.66270651
_cell_formula_units_Z   2
loop_
 _symmetry_equiv_pos_site_id
 _symmetry_equiv_pos_as_xyz
  1  'x, y, z'
loop_
 _atom_site_type_symbol
 _atom_site_label
 _atom_site_symmetry_multiplicity
 _atom_site_fract_x
 _atom_site_fract_y
 _atom_site_fract_z
 _atom_site_occupancy
  Mn  Mn0  1  0.991062  0.166598  0.420719  1
  Mn  Mn1  1  0.008938  0.833402  0.245948  1
  Mn  Mn2  1  0.977993  0.188666  0.076722  1
  Mn  Mn3  1  0.010455  0.171496  0.750725  1
  Mn  Mn4  1  0.022007  0.811334  0.589945  1
  Mn  Mn5  1  0.989545  0.828504  0.915942  1
  Mn  Mn6  1  0.491601  0.353745  0.586074  1
  Mn  Mn7  1  0.512918  0.336008  0.921097  1
  Mn  Mn8  1  0.497993  0.327795  0.250055  1
  Mn  Mn9  1  0.508399  0.646255  0.080593  1
  Mn  Mn10  1  0.502007  0.672205  0.416612  1
  Mn  Mn11  1  0.487082  0.663992  0.745570  1
  O  O12  1  0.293382  0.587435  0.636944  1
  O  O13  1  0.706618  0.412565  0.029722  1
  F  F14  1  0.228112  0.104482  0.307872  1
  F  F15  1  0.240280  0.108028  0.637962  1
  F  F16  1  0.214989  0.112622  0.971416  1
  F  F17  1  0.250596  0.876008  0.133793  1
  F  F18  1  0.216450  0.890517  0.474547  1
  F  F19  1  0.228218  0.891153  0.806796  1
  F  F20  1  0.263998  0.393309  0.141488  1
  F  F21  1  0.269834  0.607383  0.307521  1
  F  F22  1  0.279484  0.387641  0.475419  1
  F  F23  1  0.275620  0.388080  0.813230  1
  F  F24  1  0.267174  0.619554  0.977152  1
  F  F25  1  0.720516  0.612359  0.191248  1
  F  F26  1  0.730166  0.392617  0.359146  1
  F  F27  1  0.736002  0.606691  0.525178  1
  F  F28  1  0.724380  0.611920  0.853437  1
  F  F29  1  0.732826  0.380446  0.689514  1
  F  F30  1  0.783550  0.109483  0.192120  1
  F  F31  1  0.749404  0.123992  0.532874  1
  F  F32  1  0.771888  0.895518  0.358795  1
  F  F33  1  0.759720  0.891972  0.028705  1
  F  F34  1  0.771782  0.108847  0.859870  1
  F  F35  1  0.785011  0.887378  0.695250  1
