# generated using pymatgen
data_VOF
_symmetry_space_group_name_H-M   'P 1'
_cell_length_a   6.02330939
_cell_length_b   6.02318545
_cell_length_c   6.02512388
_cell_angle_alpha   100.30123825
_cell_angle_beta   100.25736059
_cell_angle_gamma   100.27868806
_symmetry_Int_Tables_number   1
_chemical_formula_structural   VOF
_chemical_formula_sum   'V6 O6 F6'
_cell_volume   206.57598143
_cell_formula_units_Z   6
loop_
 _symmetry_equiv_pos_site_id
 _symmetry_equiv_pos_as_xyz
  1  'x, y, z'
loop_
 _atom_site_type_symbol
 _atom_site_label
 _atom_site_symmetry_multiplicity
 _atom_site_fract_x
 _atom_site_fract_y
 _atom_site_fract_z
 _atom_site_occupancy
  V  V0  1  0.146067  0.601862  0.329312  1
  V  V1  1  0.670691  0.853945  0.398056  1
  V  V2  1  0.398148  0.670786  0.854056  1
  V  V3  1  0.601839  0.329203  0.145941  1
  V  V4  1  0.329309  0.146052  0.601952  1
  V  V5  1  0.853949  0.398126  0.670692  1
  O  O6  1  0.425339  0.822517  0.582696  1
  O  O7  1  0.417339  0.574486  0.177545  1
  O  O8  1  0.177390  0.417191  0.574382  1
  O  O9  1  0.822605  0.582802  0.425607  1
  O  O10  1  0.582672  0.425532  0.822474  1
  O  O11  1  0.574670  0.177503  0.417316  1
  F  F12  1  0.906533  0.073461  0.667881  1
  F  F13  1  0.332294  0.093431  0.926092  1
  F  F14  1  0.926307  0.332316  0.093251  1
  F  F15  1  0.073688  0.667652  0.906737  1
  F  F16  1  0.667682  0.906617  0.073902  1
  F  F17  1  0.093477  0.926519  0.332108  1
