# generated using pymatgen
data_Lu4Al2O9
_symmetry_space_group_name_H-M   'P 1'
_cell_length_a   7.21866600
_cell_length_b   10.33590129
_cell_length_c   11.05872418
_cell_angle_alpha   90.00000000
_cell_angle_beta   108.11106289
_cell_angle_gamma   90.00000000
_symmetry_Int_Tables_number   1
_chemical_formula_structural   Lu4Al2O9
_chemical_formula_sum   'Lu16 Al8 O36'
_cell_volume   784.22777445
_cell_formula_units_Z   4
loop_
 _symmetry_equiv_pos_site_id
 _symmetry_equiv_pos_as_xyz
  1  'x, y, z'
loop_
 _atom_site_type_symbol
 _atom_site_label
 _atom_site_symmetry_multiplicity
 _atom_site_fract_x
 _atom_site_fract_y
 _atom_site_fract_z
 _atom_site_occupancy
  Lu  Lu0  1  0.021510  0.098785  0.803747  1
  Lu  Lu1  1  0.021510  0.401215  0.303747  1
  Lu  Lu2  1  0.161705  0.878785  0.584250  1
  Lu  Lu3  1  0.340066  0.374023  0.938457  1
  Lu  Lu4  1  0.161705  0.621215  0.084250  1
  Lu  Lu5  1  0.340066  0.125977  0.438457  1
  Lu  Lu6  1  0.476842  0.612240  0.717537  1
  Lu  Lu7  1  0.523158  0.112240  0.782463  1
  Lu  Lu8  1  0.476842  0.887760  0.217537  1
  Lu  Lu9  1  0.523158  0.387760  0.282463  1
  Lu  Lu10  1  0.659934  0.874023  0.561543  1
  Lu  Lu11  1  0.838295  0.378785  0.915750  1
  Lu  Lu12  1  0.659934  0.625977  0.061543  1
  Lu  Lu13  1  0.838295  0.121215  0.415750  1
  Lu  Lu14  1  0.978490  0.598785  0.696253  1
  Lu  Lu15  1  0.978490  0.901215  0.196253  1
  Al  Al16  1  0.344236  0.825587  0.888932  1
  Al  Al17  1  0.213467  0.322342  0.626914  1
  Al  Al18  1  0.344236  0.674413  0.388932  1
  Al  Al19  1  0.213467  0.177658  0.126914  1
  Al  Al20  1  0.786533  0.822342  0.873086  1
  Al  Al21  1  0.655764  0.325587  0.611068  1
  Al  Al22  1  0.786533  0.677658  0.373086  1
  Al  Al23  1  0.655764  0.174413  0.111068  1
  O  O24  1  0.067987  0.233780  0.978365  1
  O  O25  1  0.077691  0.507080  0.893017  1
  O  O26  1  0.067987  0.266220  0.478365  1
  O  O27  1  0.232592  0.241180  0.771619  1
  O  O28  1  0.207983  0.740250  0.752250  1
  O  O29  1  0.077691  0.992920  0.393017  1
  O  O30  1  0.211609  0.488061  0.654315  1
  O  O31  1  0.304288  0.987879  0.840634  1
  O  O32  1  0.361119  0.730136  0.542361  1
  O  O33  1  0.232592  0.258820  0.271619  1
  O  O34  1  0.207983  0.759750  0.252250  1
  O  O35  1  0.563846  0.491870  0.891868  1
  O  O36  1  0.431940  0.256644  0.613077  1
  O  O37  1  0.211609  0.011939  0.154315  1
  O  O38  1  0.568060  0.756644  0.886923  1
  O  O39  1  0.436154  0.991870  0.608132  1
  O  O40  1  0.304288  0.512121  0.340634  1
  O  O41  1  0.638881  0.230136  0.957639  1
  O  O42  1  0.361119  0.769864  0.042361  1
  O  O43  1  0.695712  0.487879  0.659366  1
  O  O44  1  0.563846  0.008130  0.391868  1
  O  O45  1  0.431940  0.243356  0.113076  1
  O  O46  1  0.788391  0.988061  0.845685  1
  O  O47  1  0.568060  0.743356  0.386923  1
  O  O48  1  0.436154  0.508130  0.108132  1
  O  O49  1  0.792017  0.240250  0.747750  1
  O  O50  1  0.767408  0.741180  0.728381  1
  O  O51  1  0.638881  0.269863  0.457639  1
  O  O52  1  0.695712  0.012121  0.159366  1
  O  O53  1  0.788391  0.511939  0.345685  1
  O  O54  1  0.922309  0.007080  0.606983  1
  O  O55  1  0.792017  0.259750  0.247750  1
  O  O56  1  0.767408  0.758820  0.228381  1
  O  O57  1  0.932013  0.733780  0.521635  1
  O  O58  1  0.922309  0.492920  0.106983  1
  O  O59  1  0.932013  0.766220  0.021635  1
