# generated using pymatgen
data_Li2V3CuO8
_symmetry_space_group_name_H-M   'P 1'
_cell_length_a   8.60488162
_cell_length_b   8.61144332
_cell_length_c   8.07928560
_cell_angle_alpha   90.01349549
_cell_angle_beta   89.99660709
_cell_angle_gamma   90.02505041
_symmetry_Int_Tables_number   1
_chemical_formula_structural   Li2V3CuO8
_chemical_formula_sum   'Li8 V12 Cu4 O32'
_cell_volume   598.67862641
_cell_formula_units_Z   4
loop_
 _symmetry_equiv_pos_site_id
 _symmetry_equiv_pos_as_xyz
  1  'x, y, z'
loop_
 _atom_site_type_symbol
 _atom_site_label
 _atom_site_symmetry_multiplicity
 _atom_site_fract_x
 _atom_site_fract_y
 _atom_site_fract_z
 _atom_site_occupancy
  Li  Li0  1  0.004312  0.002079  0.002518  1
  Li  Li1  1  0.252562  0.249231  0.248465  1
  Li  Li2  1  0.247170  0.750738  0.748073  1
  Li  Li3  1  0.495904  0.997823  0.502659  1
  Li  Li4  1  0.500812  0.503332  0.998577  1
  Li  Li5  1  0.747752  0.253882  0.752479  1
  Li  Li6  1  0.751981  0.746248  0.252399  1
  Li  Li7  1  0.999147  0.496458  0.498391  1
  V  V8  1  0.125369  0.132163  0.620412  1
  V  V9  1  0.124370  0.377413  0.881074  1
  V  V10  1  0.125615  0.624649  0.132215  1
  V  V11  1  0.374202  0.375576  0.631938  1
  V  V12  1  0.375939  0.622632  0.380790  1
  V  V13  1  0.374601  0.867947  0.120272  1
  V  V14  1  0.618180  0.374267  0.369126  1
  V  V15  1  0.616537  0.118936  0.120111  1
  V  V16  1  0.630634  0.866445  0.870548  1
  V  V17  1  0.869300  0.133458  0.370589  1
  V  V18  1  0.883491  0.880777  0.619882  1
  V  V19  1  0.881901  0.625721  0.869242  1
  Cu  Cu20  1  0.133347  0.883418  0.375092  1
  Cu  Cu21  1  0.367195  0.116963  0.875064  1
  Cu  Cu22  1  0.635722  0.616458  0.623995  1
  Cu  Cu23  1  0.863823  0.383728  0.123831  1
  O  O24  1  0.099386  0.140815  0.392538  1
  O  O25  1  0.111533  0.902561  0.622547  1
  O  O26  1  0.115799  0.612564  0.889106  1
  O  O27  1  0.126862  0.148949  0.859624  1
  O  O28  1  0.135456  0.390067  0.102841  1
  O  O29  1  0.138348  0.366574  0.639077  1
  O  O30  1  0.139534  0.614980  0.353659  1
  O  O31  1  0.146163  0.856536  0.129639  1
  O  O32  1  0.353882  0.143702  0.629252  1
  O  O33  1  0.360574  0.385074  0.853490  1
  O  O34  1  0.361563  0.633509  0.138925  1
  O  O35  1  0.364283  0.609965  0.602501  1
  O  O36  1  0.373806  0.850997  0.359542  1
  O  O37  1  0.384331  0.387403  0.388814  1
  O  O38  1  0.388569  0.097514  0.123068  1
  O  O39  1  0.400401  0.859377  0.892484  1
  O  O40  1  0.601858  0.378568  0.610214  1
  O  O41  1  0.607434  0.602752  0.378024  1
  O  O42  1  0.615982  0.885896  0.112914  1
  O  O43  1  0.608969  0.349478  0.141388  1
  O  O44  1  0.620268  0.105792  0.893785  1
  O  O45  1  0.635087  0.134465  0.362579  1
  O  O46  1  0.643770  0.868967  0.644178  1
  O  O47  1  0.652782  0.639113  0.874422  1
  O  O48  1  0.847208  0.360885  0.374063  1
  O  O49  1  0.856118  0.130255  0.144307  1
  O  O50  1  0.864846  0.865597  0.862410  1
  O  O51  1  0.879236  0.894104  0.393827  1
  O  O52  1  0.891285  0.650260  0.641607  1
  O  O53  1  0.883965  0.113982  0.613032  1
  O  O54  1  0.892693  0.397191  0.878255  1
  O  O55  1  0.898144  0.621907  0.110282  1
