# generated using pymatgen
data_Li2Mn3(BO3)3
_symmetry_space_group_name_H-M   'P 1'
_cell_length_a   8.25796981
_cell_length_b   9.49823289
_cell_length_c   8.84039294
_cell_angle_alpha   68.52961190
_cell_angle_beta   117.68392253
_cell_angle_gamma   90.48021580
_symmetry_Int_Tables_number   1
_chemical_formula_structural   Li2Mn3(BO3)3
_chemical_formula_sum   'Li6 Mn9 B9 O27'
_cell_volume   560.31426835
_cell_formula_units_Z   3
loop_
 _symmetry_equiv_pos_site_id
 _symmetry_equiv_pos_as_xyz
  1  'x, y, z'
loop_
 _atom_site_type_symbol
 _atom_site_label
 _atom_site_symmetry_multiplicity
 _atom_site_fract_x
 _atom_site_fract_y
 _atom_site_fract_z
 _atom_site_occupancy
  Li  Li0  1  0.291634  0.413671  0.280713  1
  Li  Li1  1  0.303098  0.739769  0.273438  1
  Li  Li2  1  0.981729  0.922712  0.699876  1
  Li  Li3  1  0.978542  0.261237  0.696887  1
  Li  Li4  1  0.725759  0.502295  0.021365  1
  Li  Li5  1  0.710742  0.163954  0.017483  1
  Mn  Mn6  1  0.009757  0.543844  0.379624  1
  Mn  Mn7  1  0.011893  0.883328  0.353557  1
  Mn  Mn8  1  0.013138  0.213190  0.362819  1
  Mn  Mn9  1  0.339515  0.337615  0.994173  1
  Mn  Mn10  1  0.361326  0.004820  0.996682  1
  Mn  Mn11  1  0.382084  0.673617  0.983886  1
  Mn  Mn12  1  0.625860  0.111739  0.646774  1
  Mn  Mn13  1  0.622189  0.789930  0.631290  1
  Mn  Mn14  1  0.637522  0.449148  0.644503  1
  B  B15  1  0.994593  0.002943  0.987937  1
  B  B16  1  0.331851  0.933716  0.664219  1
  B  B17  1  0.328336  0.279907  0.669331  1
  B  B18  1  0.011266  0.662509  0.004158  1
  B  B19  1  0.346909  0.620792  0.669171  1
  B  B20  1  0.667676  0.723389  0.331524  1
  B  B21  1  0.662844  0.393624  0.334458  1
  B  B22  1  0.672851  0.048925  0.339737  1
  B  B23  1  0.988116  0.333059  0.998821  1
  O  O24  1  0.262834  0.888471  0.791219  1
  O  O25  1  0.248826  0.239306  0.784023  1
  O  O26  1  0.278797  0.585367  0.792714  1
  O  O27  1  0.213267  0.012440  0.478369  1
  O  O28  1  0.214383  0.354744  0.475708  1
  O  O29  1  0.230234  0.675690  0.478770  1
  O  O30  1  0.176658  0.315784  0.113199  1
  O  O31  1  0.184549  0.949015  0.097986  1
  O  O32  1  0.206395  0.634404  0.099098  1
  O  O33  1  0.523816  0.894873  0.738474  1
  O  O34  1  0.520091  0.246251  0.746961  1
  O  O35  1  0.542739  0.597805  0.744773  1
  O  O36  1  0.573743  0.354216  0.438573  1
  O  O37  1  0.599432  0.692141  0.456383  1
  O  O38  1  0.603990  0.998701  0.464128  1
  O  O39  1  0.532643  0.778448  0.143328  1
  O  O40  1  0.552442  0.122918  0.148508  1
  O  O41  1  0.555485  0.469135  0.137923  1
  O  O42  1  0.905013  0.736928  0.812873  1
  O  O43  1  0.914593  0.369885  0.810672  1
  O  O44  1  0.913560  0.062696  0.793181  1
  O  O45  1  0.854199  0.359559  0.416291  1
  O  O46  1  0.853386  0.702316  0.389109  1
  O  O47  1  0.862978  0.025158  0.412607  1
  O  O48  1  0.868090  0.313281  0.073888  1
  O  O49  1  0.887102  0.996988  0.070392  1
  O  O50  1  0.921460  0.613751  0.108427  1
