# generated using pymatgen
data_Mn3(OF2)2
_symmetry_space_group_name_H-M   'P 1'
_cell_length_a   7.42711785
_cell_length_b   5.69017881
_cell_length_c   5.79744850
_cell_angle_alpha   72.56348440
_cell_angle_beta   73.49017873
_cell_angle_gamma   73.43655775
_symmetry_Int_Tables_number   1
_chemical_formula_structural   Mn3(OF2)2
_chemical_formula_sum   'Mn6 O4 F8'
_cell_volume   218.69555729
_cell_formula_units_Z   2
loop_
 _symmetry_equiv_pos_site_id
 _symmetry_equiv_pos_as_xyz
  1  'x, y, z'
loop_
 _atom_site_type_symbol
 _atom_site_label
 _atom_site_symmetry_multiplicity
 _atom_site_fract_x
 _atom_site_fract_y
 _atom_site_fract_z
 _atom_site_occupancy
  Mn  Mn0  1  0.836758  0.697985  0.680023  1
  Mn  Mn1  1  0.681304  0.307263  0.367888  1
  Mn  Mn2  1  0.318696  0.692737  0.632112  1
  Mn  Mn3  1  0.163242  0.302015  0.319977  1
  Mn  Mn4  1  0.500000  0.000000  0.000000  1
  Mn  Mn5  1  0.000000  0.000000  0.000000  1
  O  O6  1  0.662308  0.019662  0.671006  1
  O  O7  1  0.970088  0.203564  0.231849  1
  O  O8  1  0.029912  0.796436  0.768151  1
  O  O9  1  0.337692  0.980338  0.328994  1
  F  F10  1  0.342255  0.378541  0.937624  1
  F  F11  1  0.293295  0.911728  0.895819  1
  F  F12  1  0.635294  0.584138  0.575574  1
  F  F13  1  0.706705  0.088272  0.104181  1
  F  F14  1  0.364706  0.415862  0.424426  1
  F  F15  1  0.657745  0.621459  0.062376  1
  F  F16  1  0.989168  0.331192  0.703967  1
  F  F17  1  0.010832  0.668808  0.296033  1
