# generated using pymatgen
data_BaSr7V8(Si2O7)8
_symmetry_space_group_name_H-M   'P 1'
_cell_length_a   7.91958074
_cell_length_b   10.76629967
_cell_length_c   14.25032208
_cell_angle_alpha   90.00000386
_cell_angle_beta   90.00000750
_cell_angle_gamma   70.13281436
_symmetry_Int_Tables_number   1
_chemical_formula_structural   BaSr7V8(Si2O7)8
_chemical_formula_sum   'Ba1 Sr7 V8 Si16 O56'
_cell_volume   1142.73162065
_cell_formula_units_Z   1
loop_
 _symmetry_equiv_pos_site_id
 _symmetry_equiv_pos_as_xyz
  1  'x, y, z'
loop_
 _atom_site_type_symbol
 _atom_site_label
 _atom_site_symmetry_multiplicity
 _atom_site_fract_x
 _atom_site_fract_y
 _atom_site_fract_z
 _atom_site_occupancy
  Ba  Ba0  1  0.409567  0.647591  0.125000  1
  Sr  Sr1  1  0.588321  0.853025  0.874859  1
  Sr  Sr2  1  0.588321  0.853025  0.375141  1
  Sr  Sr3  1  0.411643  0.647082  0.625000  1
  Sr  Sr4  1  0.588347  0.352825  0.874873  1
  Sr  Sr5  1  0.588347  0.352825  0.375128  1
  Sr  Sr6  1  0.411658  0.147077  0.625000  1
  Sr  Sr7  1  0.411683  0.147088  0.125000  1
  V  V8  1  0.782546  0.804357  0.624999  1
  V  V9  1  0.782388  0.804646  0.124999  1
  V  V10  1  0.216899  0.695788  0.874237  1
  V  V11  1  0.216906  0.695786  0.375764  1
  V  V12  1  0.782648  0.304319  0.625000  1
  V  V13  1  0.783324  0.303908  0.125001  1
  V  V14  1  0.217443  0.195649  0.874893  1
  V  V15  1  0.217434  0.195652  0.375107  1
  Si  Si16  1  0.215089  0.946248  0.737985  1
  Si  Si17  1  0.215088  0.946248  0.512015  1
  Si  Si18  1  0.214434  0.947371  0.238389  1
  Si  Si19  1  0.214435  0.947371  0.011611  1
  Si  Si20  1  0.785936  0.553472  0.987543  1
  Si  Si21  1  0.784921  0.553762  0.761853  1
  Si  Si22  1  0.784921  0.553762  0.488147  1
  Si  Si23  1  0.785936  0.553473  0.262457  1
  Si  Si24  1  0.214927  0.445298  0.011609  1
  Si  Si25  1  0.215097  0.446223  0.737984  1
  Si  Si26  1  0.215096  0.446223  0.512016  1
  Si  Si27  1  0.214925  0.445299  0.238390  1
  Si  Si28  1  0.784591  0.053885  0.988010  1
  Si  Si29  1  0.784935  0.053759  0.761954  1
  Si  Si30  1  0.784936  0.053759  0.488046  1
  Si  Si31  1  0.784591  0.053886  0.261990  1
  O  O32  1  0.693457  0.951085  0.719726  1
  O  O33  1  0.693456  0.951085  0.530274  1
  O  O34  1  0.693248  0.951190  0.030272  1
  O  O35  1  0.693247  0.951191  0.219728  1
  O  O36  1  0.002618  0.749345  0.625000  1
  O  O37  1  0.002178  0.749617  0.125000  1
  O  O38  1  0.272641  0.933231  0.125000  1
  O  O39  1  0.273866  0.931634  0.625000  1
  O  O40  1  0.693462  0.702186  0.719683  1
  O  O41  1  0.696273  0.702269  0.220627  1
  O  O42  1  0.696274  0.702269  0.029373  1
  O  O43  1  0.693463  0.702186  0.530317  1
  O  O44  1  0.305056  0.800274  0.282598  1
  O  O45  1  0.305056  0.800274  0.967402  1
  O  O46  1  0.306599  0.797724  0.779912  1
  O  O47  1  0.306600  0.797725  0.470087  1
  O  O48  1  0.725966  0.568530  0.874816  1
  O  O49  1  0.996914  0.750777  0.874913  1
  O  O50  1  0.725965  0.568529  0.375184  1
  O  O51  1  0.996920  0.750776  0.375086  1
  O  O52  1  0.305223  0.547221  0.967382  1
  O  O53  1  0.306583  0.549016  0.779888  1
  O  O54  1  0.306583  0.549016  0.470112  1
  O  O55  1  0.305224  0.547220  0.282618  1
  O  O56  1  0.696336  0.449500  0.029389  1
  O  O57  1  0.693477  0.451043  0.530303  1
  O  O58  1  0.693477  0.451043  0.719697  1
  O  O59  1  0.696336  0.449500  0.220611  1
  O  O60  1  0.272786  0.430379  0.125000  1
  O  O61  1  0.273859  0.431398  0.625000  1
  O  O62  1  0.002674  0.249335  0.625000  1
  O  O63  1  0.000003  0.499999  0.750020  1
  O  O64  1  0.003294  0.249024  0.125000  1
  O  O65  1  0.000004  0.499999  0.499980  1
  O  O66  1  0.000358  0.499807  0.250001  1
  O  O67  1  0.000358  0.499808  -0.000001  1
  O  O68  1  0.693455  0.202160  0.719703  1
  O  O69  1  0.693312  0.202195  0.030324  1
  O  O70  1  0.693455  0.202161  0.530297  1
  O  O71  1  0.693311  0.202195  0.219675  1
  O  O72  1  0.306889  0.297096  0.969700  1
  O  O73  1  0.306547  0.297859  0.780284  1
  O  O74  1  0.306548  0.297859  0.469716  1
  O  O75  1  0.306888  0.297095  0.280300  1
  O  O76  1  0.726069  0.068500  0.874974  1
  O  O77  1  0.997342  0.250655  0.874983  1
  O  O78  1  0.726069  0.068500  0.375026  1
  O  O79  1  0.997344  0.250655  0.375017  1
  O  O80  1  0.306722  0.049471  0.969733  1
  O  O81  1  0.306545  0.048900  0.780267  1
  O  O82  1  0.306544  0.048902  0.469733  1
  O  O83  1  0.306721  0.049473  0.280268  1
  O  O84  1  -0.000000  0.000001  0.750013  1
  O  O85  1  0.000000  0.000001  0.499987  1
  O  O86  1  0.999535  0.000219  0.249931  1
  O  O87  1  0.999534  0.000219  0.000068  1
