# generated using pymatgen
data_Li5Fe3Sb2(PO4)6
_symmetry_space_group_name_H-M   'P 1'
_cell_length_a   8.82099344
_cell_length_b   9.04188742
_cell_length_c   8.99465226
_cell_angle_alpha   59.26533071
_cell_angle_beta   60.27035962
_cell_angle_gamma   60.02008318
_symmetry_Int_Tables_number   1
_chemical_formula_structural   Li5Fe3Sb2(PO4)6
_chemical_formula_sum   'Li5 Fe3 Sb2 P6 O24'
_cell_volume   505.48899513
_cell_formula_units_Z   1
loop_
 _symmetry_equiv_pos_site_id
 _symmetry_equiv_pos_as_xyz
  1  'x, y, z'
loop_
 _atom_site_type_symbol
 _atom_site_label
 _atom_site_symmetry_multiplicity
 _atom_site_fract_x
 _atom_site_fract_y
 _atom_site_fract_z
 _atom_site_occupancy
  Li  Li0  1  0.768183  0.122097  0.337514  1
  Li  Li1  1  0.183780  0.837462  0.665014  1
  Li  Li2  1  0.675709  0.162642  0.841127  1
  Li  Li3  1  0.834314  0.681242  0.172200  1
  Li  Li4  1  0.833326  0.814237  0.819645  1
  Fe  Fe5  1  0.150140  0.163541  0.150404  1
  Fe  Fe6  1  0.352448  0.333522  0.346784  1
  Fe  Fe7  1  0.638527  0.652895  0.657969  1
  Sb  Sb8  1  0.017513  0.991277  0.979104  1
  Sb  Sb9  1  0.470849  0.489191  0.485992  1
  P  P10  1  0.046606  0.753227  0.454495  1
  P  P11  1  0.446579  0.051974  0.764076  1
  P  P12  1  0.755192  0.455221  0.054875  1
  P  P13  1  0.253837  0.549145  0.964842  1
  P  P14  1  0.561731  0.970218  0.252315  1
  P  P15  1  0.955426  0.246312  0.542990  1
  O  O16  1  0.095132  0.331287  0.482385  1
  O  O17  1  0.340179  0.501281  0.097739  1
  O  O18  1  0.047504  0.929145  0.274322  1
  O  O19  1  0.560065  0.090958  0.325965  1
  O  O20  1  0.041204  0.789032  0.605870  1
  O  O21  1  0.241162  0.598916  0.406844  1
  O  O22  1  0.266753  0.081241  0.930863  1
  O  O23  1  0.419742  0.244540  0.595453  1
  O  O24  1  0.189697  0.399238  0.002765  1
  O  O25  1  0.600004  0.410323  0.256823  1
  O  O26  1  0.073005  0.729597  0.978588  1
  O  O27  1  0.383649  0.036886  0.211319  1
  O  O28  1  0.616612  0.019479  0.795724  1
  O  O29  1  0.914220  0.264688  0.083600  1
  O  O30  1  0.376530  0.607594  0.761132  1
  O  O31  1  0.798516  0.607914  0.034971  1
  O  O32  1  0.604030  0.766073  0.378132  1
  O  O33  1  0.735409  0.976049  0.067242  1
  O  O34  1  0.750985  0.363810  0.614084  1
  O  O35  1  0.974723  0.195407  0.391941  1
  O  O36  1  0.455677  0.909016  0.715226  1
  O  O37  1  0.986661  0.062360  0.717883  1
  O  O38  1  0.695404  0.489394  0.905911  1
  O  O39  1  0.888974  0.698574  0.498874  1
