# generated using pymatgen
data_Bi2W3(CO)15
_symmetry_space_group_name_H-M   'P 1'
_cell_length_a   7.08458867
_cell_length_b   11.02920670
_cell_length_c   17.56259847
_cell_angle_alpha   87.50489921
_cell_angle_beta   83.00821762
_cell_angle_gamma   73.28452350
_symmetry_Int_Tables_number   1
_chemical_formula_structural   Bi2W3(CO)15
_chemical_formula_sum   'Bi4 W6 C30 O30'
_cell_volume   1304.48295013
_cell_formula_units_Z   2
loop_
 _symmetry_equiv_pos_site_id
 _symmetry_equiv_pos_as_xyz
  1  'x, y, z'
loop_
 _atom_site_type_symbol
 _atom_site_label
 _atom_site_symmetry_multiplicity
 _atom_site_fract_x
 _atom_site_fract_y
 _atom_site_fract_z
 _atom_site_occupancy
  Bi  Bi0  1  0.935728  0.244516  0.257210  1
  Bi  Bi1  1  0.349836  0.239654  0.226011  1
  Bi  Bi2  1  0.064272  0.755484  0.742790  1
  Bi  Bi3  1  0.650164  0.760346  0.773989  1
  W  W4  1  0.947744  0.514623  0.693235  1
  W  W5  1  0.747370  0.976983  0.668437  1
  W  W6  1  0.132884  0.222479  0.083046  1
  W  W7  1  0.052256  0.485377  0.306765  1
  W  W8  1  0.252630  0.023017  0.331563  1
  W  W9  1  0.867116  0.777521  0.916954  1
  C  C10  1  0.976023  0.038361  0.392383  1
  C  C11  1  0.229086  0.441102  0.728931  1
  C  C12  1  0.928288  0.424189  0.409653  1
  C  C13  1  0.121569  0.213739  0.968327  1
  C  C14  1  0.329424  0.041722  0.083167  1
  C  C15  1  0.878431  0.786261  0.031673  1
  C  C16  1  0.370920  0.296963  0.046719  1
  C  C17  1  0.933643  0.402442  0.084772  1
  C  C18  1  0.066357  0.597558  0.915228  1
  C  C19  1  0.678825  0.553682  0.647720  1
  C  C20  1  0.307126  0.129135  0.417309  1
  C  C21  1  0.659107  0.140861  0.607403  1
  C  C22  1  0.023977  0.961639  0.607617  1
  C  C23  1  0.995144  0.658123  0.354223  1
  C  C24  1  0.450728  0.030203  0.713891  1
  C  C25  1  0.340893  0.859139  0.392597  1
  C  C26  1  0.770914  0.558898  0.271069  1
  C  C27  1  0.178709  0.546557  0.203943  1
  C  C28  1  0.321175  0.446318  0.352280  1
  C  C29  1  0.071712  0.575811  0.590347  1
  C  C30  1  0.670576  0.958278  0.916833  1
  C  C31  1  0.190095  0.917927  0.247479  1
  C  C32  1  0.821291  0.453443  0.796057  1
  C  C33  1  0.692874  0.870865  0.582691  1
  C  C34  1  0.809905  0.082073  0.752521  1
  C  C35  1  0.629080  0.703037  0.953281  1
  C  C36  1  0.549272  0.969797  0.286109  1
  C  C37  1  0.901799  0.140570  0.091647  1
  C  C38  1  0.004856  0.341877  0.645777  1
  C  C39  1  0.098201  0.859430  0.908353  1
  O  O40  1  0.334803  0.187213  0.466224  1
  O  O41  1  0.393956  0.763142  0.424572  1
  O  O42  1  0.253291  0.577108  0.146634  1
  O  O43  1  0.614296  0.608854  0.253110  1
  O  O44  1  0.716952  0.930721  0.263822  1
  O  O45  1  0.171812  0.959397  0.569782  1
  O  O46  1  0.500150  0.662675  0.978692  1
  O  O47  1  0.842233  0.145853  0.797133  1
  O  O48  1  0.534051  0.567208  0.618999  1
  O  O49  1  0.178551  0.497129  0.915383  1
  O  O50  1  0.563218  0.060313  0.918334  1
  O  O51  1  0.821449  0.502871  0.084617  1
  O  O52  1  0.223360  0.908297  0.910303  1
  O  O53  1  0.746709  0.422892  0.853366  1
  O  O54  1  0.499850  0.337325  0.021308  1
  O  O55  1  0.776640  0.091703  0.089697  1
  O  O56  1  0.283048  0.069279  0.736178  1
  O  O57  1  0.385704  0.391146  0.746890  1
  O  O58  1  0.117656  0.211481  0.902550  1
  O  O59  1  0.040832  0.242831  0.617954  1
  O  O60  1  0.828188  0.040603  0.430218  1
  O  O61  1  0.665197  0.812787  0.533776  1
  O  O62  1  0.606044  0.236858  0.575428  1
  O  O63  1  0.465949  0.432792  0.381001  1
  O  O64  1  0.882344  0.788519  0.097450  1
  O  O65  1  0.436782  0.939687  0.081666  1
  O  O66  1  0.141159  0.605005  0.531550  1
  O  O67  1  0.858841  0.394995  0.468450  1
  O  O68  1  0.157767  0.854147  0.202867  1
  O  O69  1  0.959168  0.757169  0.382046  1
