# generated using pymatgen
data_Li3V3P8O29
_symmetry_space_group_name_H-M   'P 1'
_cell_length_a   9.75095548
_cell_length_b   9.78423514
_cell_length_c   14.38388380
_cell_angle_alpha   89.63216997
_cell_angle_beta   89.82114693
_cell_angle_gamma   59.90348144
_symmetry_Int_Tables_number   1
_chemical_formula_structural   Li3V3P8O29
_chemical_formula_sum   'Li6 V6 P16 O58'
_cell_volume   1187.26780065
_cell_formula_units_Z   2
loop_
 _symmetry_equiv_pos_site_id
 _symmetry_equiv_pos_as_xyz
  1  'x, y, z'
loop_
 _atom_site_type_symbol
 _atom_site_label
 _atom_site_symmetry_multiplicity
 _atom_site_fract_x
 _atom_site_fract_y
 _atom_site_fract_z
 _atom_site_occupancy
  Li  Li0  1  0.776493  0.920235  0.556685  1
  Li  Li1  1  0.768452  0.322867  0.053122  1
  Li  Li2  1  0.320230  0.906805  0.052199  1
  Li  Li3  1  0.311125  0.774152  0.563368  1
  Li  Li4  1  0.214917  0.086910  0.452087  1
  Li  Li5  1  0.980199  0.961877  0.000409  1
  V  V6  1  0.567710  0.435286  0.255206  1
  V  V7  1  0.434639  0.559862  0.750413  1
  V  V8  1  0.567496  0.003170  0.755623  1
  V  V9  1  0.438790  0.999218  0.243659  1
  V  V10  1  0.996559  0.566952  0.244648  1
  V  V11  1  0.000544  0.436101  0.749966  1
  P  P12  1  0.921643  0.774168  0.841539  1
  P  P13  1  0.772761  0.907773  0.339892  1
  P  P14  1  0.917188  0.313494  0.341533  1
  P  P15  1  0.664155  0.664435  0.131579  1
  P  P16  1  0.663389  0.673626  0.633458  1
  P  P17  1  0.776290  0.311253  0.839483  1
  P  P18  1  0.690640  0.224578  0.658857  1
  P  P19  1  0.313559  0.908957  0.840320  1
  P  P20  1  0.697159  0.087938  0.161569  1
  P  P21  1  0.319682  0.773608  0.344749  1
  P  P22  1  0.223760  0.693568  0.166051  1
  P  P23  1  0.329748  0.331669  0.363130  1
  P  P24  1  0.331733  0.333488  0.867143  1
  P  P25  1  0.085689  0.687784  0.658928  1
  P  P26  1  0.228353  0.092337  0.663712  1
  P  P27  1  0.081431  0.223995  0.158628  1
  O  O28  1  0.993732  0.775619  0.575756  1
  O  O29  1  0.917177  0.740624  0.326527  1
  O  O30  1  0.797407  0.006936  0.080460  1
  O  O31  1  0.745141  0.909944  0.829283  1
  O  O32  1  0.926758  0.614239  0.831545  1
  O  O33  1  0.808480  0.671160  0.174641  1
  O  O34  1  0.907640  0.474026  0.320698  1
  O  O35  1  0.991427  0.212151  0.078912  1
  O  O36  1  0.914741  0.344845  0.828281  1
  O  O37  1  0.657244  0.824884  0.675717  1
  O  O38  1  0.620227  0.899872  0.313688  1
  O  O39  1  0.813997  0.533048  0.681875  1
  O  O40  1  0.656790  0.665369  0.028440  1
  O  O41  1  0.667084  0.676700  0.530366  1
  O  O42  1  0.673611  0.511128  0.173860  1
  O  O43  1  0.470327  0.912480  0.828132  1
  O  O44  1  0.508199  0.813999  0.171235  1
  O  O45  1  0.745273  0.341723  0.332692  1
  O  O46  1  0.792231  0.200229  0.754219  1
  O  O47  1  0.772899  0.227402  0.574032  1
  O  O48  1  0.783147  0.235153  0.930504  1
  O  O49  1  0.617486  0.470008  0.823537  1
  O  O50  1  0.515550  0.666084  0.671419  1
  O  O51  1  0.656433  0.263557  0.165761  1
  O  O52  1  0.481276  0.621387  0.322463  1
  O  O53  1  0.337608  0.922644  0.332967  1
  O  O54  1  0.788197  0.013083  0.258669  1
  O  O55  1  0.758057  0.979987  0.431505  1
  O  O56  1  0.238959  0.003737  0.576606  1
  O  O57  1  0.661105  0.081235  0.664444  1
  O  O58  1  0.528188  0.378778  0.678737  1
  O  O59  1  0.345457  0.738352  0.826714  1
  O  O60  1  0.476352  0.340593  0.321793  1
  O  O61  1  0.385134  0.538590  0.175466  1
  O  O62  1  0.208271  0.798974  0.086743  1
  O  O63  1  0.257730  0.767482  0.437801  1
  O  O64  1  0.201098  0.786725  0.263483  1
  O  O65  1  0.258367  0.658423  0.659358  1
  O  O66  1  0.484617  0.186197  0.824112  1
  O  O67  1  0.539091  0.082242  0.170136  1
  O  O68  1  0.330697  0.482471  0.821337  1
  O  O69  1  0.335390  0.333484  0.969763  1
  O  O70  1  0.328541  0.322213  0.465646  1
  O  O71  1  0.182987  0.473756  0.316678  1
  O  O72  1  0.380898  0.098458  0.681542  1
  O  O73  1  0.339589  0.179577  0.317196  1
  O  O74  1  0.088465  0.653790  0.166531  1
  O  O75  1  0.008003  0.792652  0.750683  1
  O  O76  1  0.993786  0.797781  0.925442  1
  O  O77  1  0.093152  0.527623  0.676897  1
  O  O78  1  0.187982  0.329900  0.821888  1
  O  O79  1  0.078029  0.383719  0.168517  1
  O  O80  1  0.257535  0.084987  0.158899  1
  O  O81  1  0.231668  0.976300  0.929918  1
  O  O82  1  0.204106  0.003144  0.751957  1
  O  O83  1  0.083912  0.261110  0.666343  1
  O  O84  1  0.002392  0.232922  0.427697  1
  O  O85  1  0.008752  0.200408  0.254218  1
