# generated using pymatgen
data_NaSn2(PO4)3
_symmetry_space_group_name_H-M   'P 1'
_cell_length_a   8.64924058
_cell_length_b   8.65074213
_cell_length_c   9.18048964
_cell_angle_alpha   118.07234104
_cell_angle_beta   90.09466060
_cell_angle_gamma   120.26403817
_symmetry_Int_Tables_number   1
_chemical_formula_structural   NaSn2(PO4)3
_chemical_formula_sum   'Na2 Sn4 P6 O24'
_cell_volume   497.12286427
_cell_formula_units_Z   2
loop_
 _symmetry_equiv_pos_site_id
 _symmetry_equiv_pos_as_xyz
  1  'x, y, z'
loop_
 _atom_site_type_symbol
 _atom_site_label
 _atom_site_symmetry_multiplicity
 _atom_site_fract_x
 _atom_site_fract_y
 _atom_site_fract_z
 _atom_site_occupancy
  Na  Na0  1  0.207834  0.726662  0.561865  1
  Na  Na1  1  0.792166  0.273338  0.438135  1
  Sn  Sn2  1  0.136517  0.788596  0.935626  1
  Sn  Sn3  1  0.646303  0.792990  0.442006  1
  Sn  Sn4  1  0.353697  0.207010  0.557994  1
  Sn  Sn5  1  0.863483  0.211404  0.064374  1
  P  P6  1  0.253081  0.712687  0.252295  1
  P  P7  1  0.037812  0.008058  0.755610  1
  P  P8  1  0.465848  0.716903  0.752694  1
  P  P9  1  0.534152  0.283097  0.247306  1
  P  P10  1  0.962188  0.991942  0.244390  1
  P  P11  1  0.746919  0.287313  0.747705  1
  O  O12  1  0.105691  0.875389  0.764776  1
  O  O13  1  0.254708  0.886740  0.420012  1
  O  O14  1  0.188751  0.699577  0.089767  1
  O  O15  1  0.108718  0.504109  0.245740  1
  O  O16  1  0.269196  0.666090  0.772746  1
  O  O17  1  0.036628  0.145749  0.939191  1
  O  O18  1  0.448673  0.751249  0.271939  1
  O  O19  1  0.160547  0.155331  0.379406  1
  O  O20  1  0.480377  0.763286  0.606006  1
  O  O21  1  0.174845  0.158349  0.702670  1
  O  O22  1  0.621535  0.911679  0.925427  1
  O  O23  1  0.477524  0.528131  0.700918  1
  O  O24  1  0.522476  0.471869  0.299082  1
  O  O25  1  0.378465  0.088321  0.074573  1
  O  O26  1  0.825155  0.841651  0.297330  1
  O  O27  1  0.519623  0.236713  0.393994  1
  O  O28  1  0.839453  0.844669  0.620594  1
  O  O29  1  0.551327  0.248751  0.728061  1
  O  O30  1  0.963372  0.854251  0.060809  1
  O  O31  1  0.730804  0.333910  0.227254  1
  O  O32  1  0.891282  0.495891  0.754260  1
  O  O33  1  0.811249  0.300423  0.910233  1
  O  O34  1  0.745292  0.113260  0.579988  1
  O  O35  1  0.894309  0.124611  0.235224  1
