# generated using pymatgen
data_Li4Cr3Fe5O16
_symmetry_space_group_name_H-M   'P 1'
_cell_length_a   5.89519124
_cell_length_b   5.90529548
_cell_length_c   9.56337533
_cell_angle_alpha   90.53709672
_cell_angle_beta   90.11010268
_cell_angle_gamma   119.81005526
_symmetry_Int_Tables_number   1
_chemical_formula_structural   Li4Cr3Fe5O16
_chemical_formula_sum   'Li4 Cr3 Fe5 O16'
_cell_volume   288.85364464
_cell_formula_units_Z   1
loop_
 _symmetry_equiv_pos_site_id
 _symmetry_equiv_pos_as_xyz
  1  'x, y, z'
loop_
 _atom_site_type_symbol
 _atom_site_label
 _atom_site_symmetry_multiplicity
 _atom_site_fract_x
 _atom_site_fract_y
 _atom_site_fract_z
 _atom_site_occupancy
  Li  Li0  1  0.330393  0.667220  0.892051  1
  Li  Li1  1  0.001821  0.998437  0.995267  1
  Li  Li2  1  0.002840  0.000660  0.497323  1
  Li  Li3  1  0.665468  0.333346  0.395009  1
  Cr  Cr4  1  0.175065  0.832487  0.218542  1
  Cr  Cr5  1  0.163874  0.332823  0.211687  1
  Cr  Cr6  1  0.342629  0.171499  0.711670  1
  Fe  Fe7  1  0.333702  0.664013  0.492717  1
  Fe  Fe8  1  0.661795  0.825094  0.214544  1
  Fe  Fe9  1  0.665082  0.337339  0.986576  1
  Fe  Fe10  1  0.830486  0.661590  0.714147  1
  Fe  Fe11  1  0.830500  0.168636  0.714421  1
  O  O12  1  0.170996  0.840433  0.598969  1
  O  O13  1  0.039339  0.513648  0.335075  1
  O  O14  1  0.319654  0.665470  0.106197  1
  O  O15  1  0.008319  -0.001034  0.310142  1
  O  O16  1  0.014619  0.008452  0.808779  1
  O  O17  1  0.172404  0.328581  0.599268  1
  O  O18  1  0.469229  0.961760  0.338787  1
  O  O19  1  0.474256  0.514479  0.336134  1
  O  O20  1  0.326986  0.173106  0.107730  1
  O  O21  1  0.676875  0.839395  0.598074  1
  O  O22  1  0.510228  0.476377  0.837389  1
  O  O23  1  0.509644  0.037020  0.838443  1
  O  O24  1  0.654871  0.325515  0.603011  1
  O  O25  1  0.845532  0.676196  0.100424  1
  O  O26  1  0.959670  0.478638  0.839967  1
  O  O27  1  0.843723  0.169120  0.105498  1
