# generated using pymatgen
data_Li2P5WO15
_symmetry_space_group_name_H-M   'P 1'
_cell_length_a   6.87444033
_cell_length_b   6.87444033
_cell_length_c   13.92492342
_cell_angle_alpha   83.15575725
_cell_angle_beta   96.84424275
_cell_angle_gamma   67.28816062
_symmetry_Int_Tables_number   1
_chemical_formula_structural   Li2P5WO15
_chemical_formula_sum   'Li4 P10 W2 O30'
_cell_volume   592.82666436
_cell_formula_units_Z   2
loop_
 _symmetry_equiv_pos_site_id
 _symmetry_equiv_pos_as_xyz
  1  'x, y, z'
loop_
 _atom_site_type_symbol
 _atom_site_label
 _atom_site_symmetry_multiplicity
 _atom_site_fract_x
 _atom_site_fract_y
 _atom_site_fract_z
 _atom_site_occupancy
  Li  Li0  1  0.233706  0.247707  0.704994  1
  Li  Li1  1  0.752293  0.766294  0.204994  1
  Li  Li2  1  0.799300  0.460869  0.565738  1
  Li  Li3  1  0.539131  0.200700  0.065738  1
  P  P4  1  0.650968  0.954004  0.527861  1
  P  P5  1  0.289021  0.577752  0.557364  1
  P  P6  1  0.387084  0.820902  0.836013  1
  P  P7  1  0.045996  0.349032  0.027861  1
  P  P8  1  0.422248  0.710979  0.057364  1
  P  P9  1  0.179098  0.612916  0.336013  1
  P  P10  1  0.175550  0.074644  0.529891  1
  P  P11  1  0.925356  0.824450  0.029891  1
  P  P12  1  0.772708  0.437225  0.828048  1
  P  P13  1  0.562774  0.227292  0.328048  1
  W  W14  1  0.818177  0.927287  0.775625  1
  W  W15  1  0.072713  0.181823  0.275625  1
  O  O16  1  0.157045  0.870420  0.799908  1
  O  O17  1  0.129580  0.842955  0.299908  1
  O  O18  1  0.177139  0.517843  0.633432  1
  O  O19  1  0.482157  0.822861  0.133432  1
  O  O20  1  0.216979  0.832203  0.544136  1
  O  O21  1  0.167797  0.783021  0.044136  1
  O  O22  1  0.435375  0.833171  0.948974  1
  O  O23  1  0.166829  0.564625  0.448974  1
  O  O24  1  0.473447  0.965717  0.778484  1
  O  O25  1  0.034283  0.526553  0.278484  1
  O  O26  1  0.247497  0.310879  0.990095  1
  O  O27  1  0.689121  0.752503  0.490095  1
  O  O28  1  0.819681  0.930179  0.925742  1
  O  O29  1  0.523565  0.465040  0.565790  1
  O  O30  1  0.069821  0.180319  0.425742  1
  O  O31  1  0.521104  0.574295  0.827743  1
  O  O32  1  0.534960  0.476435  0.065790  1
  O  O33  1  0.425705  0.478896  0.327743  1
  O  O34  1  0.058428  0.185070  0.604715  1
  O  O35  1  0.814930  0.941572  0.104715  1
  O  O36  1  0.410960  0.073926  0.550005  1
  O  O37  1  0.926074  0.589040  0.050005  1
  O  O38  1  0.869059  0.586866  0.787779  1
  O  O39  1  0.413134  0.130941  0.287779  1
  O  O40  1  0.868788  0.337945  0.941948  1
  O  O41  1  0.662055  0.131212  0.441948  1
  O  O42  1  0.784170  0.260747  0.772397  1
  O  O43  1  0.739253  0.215830  0.272397  1
  O  O44  1  0.792505  0.952350  0.619118  1
  O  O45  1  0.047650  0.207495  0.119118  1
