# generated using pymatgen
data_Hf2N2O
_symmetry_space_group_name_H-M   'P 1'
_cell_length_a   8.73213377
_cell_length_b   8.72729360
_cell_length_c   8.74173057
_cell_angle_alpha   109.57079967
_cell_angle_beta   109.52522584
_cell_angle_gamma   109.34299771
_symmetry_Int_Tables_number   1
_chemical_formula_structural   Hf2N2O
_chemical_formula_sum   'Hf16 N16 O8'
_cell_volume   512.67016774
_cell_formula_units_Z   8
loop_
 _symmetry_equiv_pos_site_id
 _symmetry_equiv_pos_as_xyz
  1  'x, y, z'
loop_
 _atom_site_type_symbol
 _atom_site_label
 _atom_site_symmetry_multiplicity
 _atom_site_fract_x
 _atom_site_fract_y
 _atom_site_fract_z
 _atom_site_occupancy
  Hf  Hf0  1  0.960618  0.242898  0.219082  1
  Hf  Hf1  1  0.506687  0.003238  0.995130  1
  Hf  Hf2  1  0.705725  0.455079  0.243552  1
  Hf  Hf3  1  0.781838  0.031090  0.751709  1
  Hf  Hf4  1  0.755340  0.787332  0.033140  1
  Hf  Hf5  1  0.756213  0.285672  0.539392  1
  Hf  Hf6  1  0.998085  0.504550  0.988463  1
  Hf  Hf7  1  0.017082  0.009197  0.510804  1
  Hf  Hf8  1  0.490555  0.505589  0.502991  1
  Hf  Hf9  1  0.468574  0.252600  0.720189  1
  Hf  Hf10  1  0.524586  0.740582  0.286736  1
  Hf  Hf11  1  0.251447  0.217816  0.960905  1
  Hf  Hf12  1  0.253658  0.718271  0.467407  1
  Hf  Hf13  1  0.210036  0.959800  0.251557  1
  Hf  Hf14  1  0.284651  0.535113  0.743978  1
  Hf  Hf15  1  0.038899  0.753813  0.785996  1
  N  N16  1  0.738936  0.229362  0.274949  1
  N  N17  1  0.455911  0.465397  0.228743  1
  N  N18  1  0.727425  0.257168  0.769227  1
  N  N19  1  0.009890  0.044645  0.275194  1
  N  N20  1  0.271250  0.733794  0.222956  1
  N  N21  1  0.225844  0.455945  0.463410  1
  N  N22  1  0.986642  0.953577  0.727737  1
  N  N23  1  0.509844  0.236897  0.966736  1
  N  N24  1  0.545515  0.533719  0.771420  1
  N  N25  1  0.957526  0.729301  0.989660  1
  N  N26  1  0.224138  0.274184  0.741325  1
  N  N27  1  0.535305  0.773778  0.545142  1
  N  N28  1  0.030949  0.485567  0.757127  1
  N  N29  1  0.726584  0.987028  0.953662  1
  N  N30  1  0.264152  0.777204  0.732433  1
  N  N31  1  0.240520  0.968989  0.510983  1
  O  O32  1  0.757795  0.029953  0.480852  1
  O  O33  1  0.275217  0.012773  0.050053  1
  O  O34  1  0.960810  0.513504  0.236011  1
  O  O35  1  0.771082  0.724360  0.259783  1
  O  O36  1  0.466791  0.227057  0.447808  1
  O  O37  1  0.047768  0.276086  0.018935  1
  O  O38  1  0.771606  0.542363  0.535330  1
  O  O39  1  0.494507  0.764710  0.039495  1
