# generated using pymatgen
data_Ti3Bi2(PO4)6
_symmetry_space_group_name_H-M   'P 1'
_cell_length_a   8.87179436
_cell_length_b   8.75885313
_cell_length_c   8.75885266
_cell_angle_alpha   60.00000362
_cell_angle_beta   60.42023379
_cell_angle_gamma   60.42023485
_symmetry_Int_Tables_number   1
_chemical_formula_structural   Ti3Bi2(PO4)6
_chemical_formula_sum   'Ti3 Bi2 P6 O24'
_cell_volume   484.30673330
_cell_formula_units_Z   1
loop_
 _symmetry_equiv_pos_site_id
 _symmetry_equiv_pos_as_xyz
  1  'x, y, z'
loop_
 _atom_site_type_symbol
 _atom_site_label
 _atom_site_symmetry_multiplicity
 _atom_site_fract_x
 _atom_site_fract_y
 _atom_site_fract_z
 _atom_site_occupancy
  Ti  Ti0  1  0.051240  0.649586  0.649586  1
  Ti  Ti1  1  0.421719  0.859427  0.859427  1
  Ti  Ti2  1  0.977885  0.340705  0.340705  1
  Bi  Bi3  1  0.931015  0.022995  0.022995  1
  Bi  Bi4  1  0.508024  0.497325  0.497325  1
  P  P5  1  0.267451  0.248798  0.545829  1
  P  P6  1  0.267451  0.937924  0.248798  1
  P  P7  1  0.267451  0.545829  0.937924  1
  P  P8  1  0.743576  0.479595  0.043566  1
  P  P9  1  0.743576  0.043566  0.733261  1
  P  P10  1  0.743576  0.733261  0.479595  1
  O  O11  1  0.101532  0.116757  0.296802  1
  O  O12  1  0.101532  0.484908  0.116757  1
  O  O13  1  0.101532  0.296802  0.484908  1
  O  O14  1  0.248267  0.071778  0.726469  1
  O  O15  1  0.218174  0.406037  0.617885  1
  O  O16  1  0.450532  0.232850  0.399106  1
  O  O17  1  0.248267  0.953485  0.071778  1
  O  O18  1  0.218174  0.757904  0.406037  1
  O  O19  1  0.218174  0.617885  0.757904  1
  O  O20  1  0.565349  0.637870  0.012877  1
  O  O21  1  0.758717  0.296724  0.047152  1
  O  O22  1  0.565349  0.012877  0.783905  1
  O  O23  1  0.450532  0.917511  0.232850  1
  O  O24  1  0.248267  0.726469  0.953485  1
  O  O25  1  0.450532  0.399106  0.917511  1
  O  O26  1  0.749759  0.452240  0.232329  1
  O  O27  1  0.749759  0.232329  0.565673  1
  O  O28  1  0.758717  0.047152  0.897405  1
  O  O29  1  0.565349  0.783905  0.637870  1
  O  O30  1  0.749759  0.565673  0.452240  1
  O  O31  1  0.758717  0.897405  0.296724  1
  O  O32  1  0.911791  0.658548  0.536624  1
  O  O33  1  0.911791  0.536624  0.893037  1
  O  O34  1  0.911791  0.893037  0.658548  1
