# generated using pymatgen
data_Li4V3P8O29
_symmetry_space_group_name_H-M   'P 1'
_cell_length_a   9.79703631
_cell_length_b   9.78357253
_cell_length_c   14.09911559
_cell_angle_alpha   89.97791772
_cell_angle_beta   89.90893020
_cell_angle_gamma   60.06010477
_symmetry_Int_Tables_number   1
_chemical_formula_structural   Li4V3P8O29
_chemical_formula_sum   'Li8 V6 P16 O58'
_cell_volume   1171.05369052
_cell_formula_units_Z   2
loop_
 _symmetry_equiv_pos_site_id
 _symmetry_equiv_pos_as_xyz
  1  'x, y, z'
loop_
 _atom_site_type_symbol
 _atom_site_label
 _atom_site_symmetry_multiplicity
 _atom_site_fract_x
 _atom_site_fract_y
 _atom_site_fract_z
 _atom_site_occupancy
  Li  Li0  1  0.093928  0.223621  0.942389  1
  Li  Li1  1  0.228403  0.085572  0.439344  1
  Li  Li2  1  0.093643  0.682261  0.442455  1
  Li  Li3  1  0.227038  0.687055  0.939393  1
  Li  Li4  1  0.772128  0.314232  0.060879  1
  Li  Li5  1  0.906721  0.316884  0.557414  1
  Li  Li6  1  0.771284  0.914367  0.560911  1
  Li  Li7  1  0.905981  0.776727  0.057268  1
  V  V8  1  0.000073  0.569796  0.250139  1
  V  V9  1  0.436758  0.994053  0.244272  1
  V  V10  1  0.436656  0.569091  0.744504  1
  V  V11  1  0.563210  0.430883  0.255691  1
  V  V12  1  0.563223  0.006183  0.756042  1
  V  V13  1  0.999735  0.430245  0.749219  1
  P  P14  1  0.089986  0.231799  0.159870  1
  P  P15  1  0.234210  0.085461  0.655391  1
  P  P16  1  0.089769  0.678762  0.660206  1
  P  P17  1  0.329916  0.331111  0.371281  1
  P  P18  1  0.329752  0.338815  0.871474  1
  P  P19  1  0.233789  0.680522  0.155719  1
  P  P20  1  0.315094  0.771246  0.339352  1
  P  P21  1  0.684958  0.086551  0.160864  1
  P  P22  1  0.315145  0.913445  0.839108  1
  P  P23  1  0.685024  0.228516  0.660777  1
  P  P24  1  0.766437  0.319483  0.844145  1
  P  P25  1  0.670021  0.661510  0.128723  1
  P  P26  1  0.669438  0.669283  0.628676  1
  P  P27  1  0.910314  0.321338  0.339930  1
  P  P28  1  0.766119  0.914290  0.344510  1
  P  P29  1  0.909940  0.768024  0.840184  1
  O  O30  1  0.996698  0.242215  0.429228  1
  O  O31  1  0.085072  0.251923  0.660728  1
  O  O32  1  0.214815  0.991477  0.743660  1
  O  O33  1  0.230818  0.006421  0.924338  1
  O  O34  1  0.099623  0.381569  0.176732  1
  O  O35  1  0.256621  0.084617  0.166239  1
  O  O36  1  0.185284  0.328614  0.832784  1
  O  O37  1  0.098855  0.518932  0.677089  1
  O  O38  1  0.996032  0.761840  0.929363  1
  O  O39  1  0.084831  0.662628  0.161707  1
  O  O40  1  0.330433  0.182002  0.329252  1
  O  O41  1  0.185004  0.485943  0.332383  1
  O  O42  1  0.383510  0.095964  0.680227  1
  O  O43  1  0.334773  0.330544  0.476627  1
  O  O44  1  0.336555  0.334865  0.976767  1
  O  O45  1  0.522404  0.095347  0.176642  1
  O  O46  1  0.329964  0.487462  0.828776  1
  O  O47  1  0.480697  0.187122  0.825783  1
  O  O48  1  0.256631  0.658291  0.666208  1
  O  O49  1  0.214819  0.793691  0.243818  1
  O  O50  1  0.245142  0.747940  0.063854  1
  O  O51  1  0.231192  0.761570  0.424578  1
  O  O52  1  0.383453  0.520708  0.179812  1
  O  O53  1  0.480393  0.332214  0.325385  1
  O  O54  1  0.660677  0.083756  0.661683  1
  O  O55  1  0.338914  0.744327  0.838186  1
  O  O56  1  0.522724  0.382484  0.676685  1
  O  O57  1  0.246956  0.005890  0.563751  1
  O  O58  1  0.754097  0.993154  0.436343  1
  O  O59  1  0.477627  0.617524  0.323376  1
  O  O60  1  0.661081  0.255593  0.161735  1
  O  O61  1  0.785169  0.008668  0.256403  1
  O  O62  1  0.339043  0.916306  0.338505  1
  O  O63  1  0.519113  0.668388  0.674967  1
  O  O64  1  0.616527  0.479102  0.820314  1
  O  O65  1  0.756299  0.252323  0.936330  1
  O  O66  1  0.769216  0.237641  0.575598  1
  O  O67  1  0.785279  0.205853  0.756421  1
  O  O68  1  0.743471  0.341421  0.333831  1
  O  O69  1  0.519369  0.812870  0.174623  1
  O  O70  1  0.477899  0.904206  0.823416  1
  O  O71  1  0.669475  0.512763  0.170674  1
  O  O72  1  0.664169  0.669168  0.523338  1
  O  O73  1  0.664509  0.666539  0.023394  1
  O  O74  1  0.616602  0.903994  0.320046  1
  O  O75  1  0.814927  0.513970  0.667239  1
  O  O76  1  0.669798  0.818039  0.670354  1
  O  O77  1  0.915185  0.337830  0.837397  1
  O  O78  1  0.999909  0.210144  0.249866  1
  O  O79  1  0.003845  0.238700  0.070561  1
  O  O80  1  0.901015  0.480870  0.323096  1
  O  O81  1  0.814751  0.671265  0.167807  1
  O  O82  1  0.743384  0.915529  0.833723  1
  O  O83  1  0.899893  0.618894  0.823191  1
  O  O84  1  0.769067  0.993414  0.075583  1
  O  O85  1  0.915193  0.747660  0.338700  1
  O  O86  1  0.003707  0.757238  0.570731  1
  O  O87  1  0.000038  0.789858  0.750053  1
