# generated using pymatgen
data_Na2NiPCO7
_symmetry_space_group_name_H-M   'P 1'
_cell_length_a   11.10304867
_cell_length_b   5.17586724
_cell_length_c   10.98620197
_cell_angle_alpha   88.82380099
_cell_angle_beta   73.43428358
_cell_angle_gamma   88.97569629
_symmetry_Int_Tables_number   1
_chemical_formula_structural   Na2NiPCO7
_chemical_formula_sum   'Na8 Ni4 P4 C4 O28'
_cell_volume   604.97349515
_cell_formula_units_Z   4
loop_
 _symmetry_equiv_pos_site_id
 _symmetry_equiv_pos_as_xyz
  1  'x, y, z'
loop_
 _atom_site_type_symbol
 _atom_site_label
 _atom_site_symmetry_multiplicity
 _atom_site_fract_x
 _atom_site_fract_y
 _atom_site_fract_z
 _atom_site_occupancy
  Na  Na0  1  0.122300  0.249951  0.149464  1
  Na  Na1  1  0.377700  0.750049  0.350536  1
  Na  Na2  1  0.114440  0.754157  0.629541  1
  Na  Na3  1  0.598699  0.219969  0.313519  1
  Na  Na4  1  0.901301  0.780031  0.186481  1
  Na  Na5  1  0.626600  0.247761  0.634425  1
  Na  Na6  1  0.385560  0.245843  0.870459  1
  Na  Na7  1  0.873400  0.752239  0.865575  1
  Ni  Ni8  1  0.297169  0.778010  0.046684  1
  Ni  Ni9  1  0.202831  0.221990  0.453316  1
  Ni  Ni10  1  0.800139  0.782162  0.544995  1
  Ni  Ni11  1  0.699861  0.217838  0.955005  1
  P  P12  1  0.086386  0.716684  0.338090  1
  P  P13  1  0.413614  0.283316  0.161910  1
  P  P14  1  0.585325  0.724421  0.835688  1
  P  P15  1  0.914675  0.275579  0.664312  1
  C  C16  1  0.846111  0.285485  0.085046  1
  C  C17  1  0.338641  0.286587  0.588759  1
  C  C18  1  0.161359  0.713413  0.911241  1
  C  C19  1  0.653889  0.714515  0.414954  1
  O  O20  1  0.124771  0.783972  0.193384  1
  O  O21  1  0.336325  0.133710  0.089763  1
  O  O22  1  0.116045  0.423509  0.353885  1
  O  O23  1  0.383955  0.576491  0.146115  1
  O  O24  1  0.163675  0.866290  0.410237  1
  O  O25  1  0.055337  0.201683  0.619964  1
  O  O26  1  0.555462  0.226207  0.116536  1
  O  O27  1  0.375229  0.216028  0.306616  1
  O  O28  1  0.287953  0.478403  0.539758  1
  O  O29  1  0.792964  0.473511  0.037202  1
  O  O30  1  0.813537  0.054266  0.064037  1
  O  O31  1  0.306496  0.061045  0.557392  1
  O  O32  1  0.580571  0.671538  0.348269  1
  O  O33  1  0.088974  0.684978  0.844327  1
  O  O34  1  0.919429  0.328462  0.151731  1
  O  O35  1  0.411026  0.315022  0.655673  1
  O  O36  1  0.193504  0.938955  0.942608  1
  O  O37  1  0.686463  0.945734  0.435963  1
  O  O38  1  0.707036  0.526489  0.462798  1
  O  O39  1  0.212047  0.521597  0.960242  1
  O  O40  1  0.944538  0.773793  0.383464  1
  O  O41  1  0.444663  0.798317  0.880036  1
  O  O42  1  0.631980  0.795369  0.692047  1
  O  O43  1  0.837436  0.135467  0.589347  1
  O  O44  1  0.603289  0.427096  0.853169  1
  O  O45  1  0.896711  0.572904  0.646831  1
  O  O46  1  0.662564  0.864533  0.910653  1
  O  O47  1  0.868020  0.204631  0.807953  1
