# generated using pymatgen
data_LiZn4Fe13O24
_symmetry_space_group_name_H-M   'P 1'
_cell_length_a   6.05944481
_cell_length_b   6.05944481
_cell_length_c   16.00506034
_cell_angle_alpha   78.85119677
_cell_angle_beta   79.33644020
_cell_angle_gamma   120.01713936
_symmetry_Int_Tables_number   1
_chemical_formula_structural   LiZn4Fe13O24
_chemical_formula_sum   'Li1 Zn4 Fe13 O24'
_cell_volume   470.97427548
_cell_formula_units_Z   1
loop_
 _symmetry_equiv_pos_site_id
 _symmetry_equiv_pos_as_xyz
  1  'x, y, z'
loop_
 _atom_site_type_symbol
 _atom_site_label
 _atom_site_symmetry_multiplicity
 _atom_site_fract_x
 _atom_site_fract_y
 _atom_site_fract_z
 _atom_site_occupancy
  Li  Li0  1  0.250708  0.249241  0.750026  1
  Zn  Zn1  1  0.626961  0.290615  0.041211  1
  Zn  Zn2  1  0.626074  0.958209  0.207859  1
  Zn  Zn3  1  0.620151  0.292653  0.543599  1
  Zn  Zn4  1  0.623848  0.624598  0.375776  1
  Fe  Fe5  1  0.005619  0.002974  0.995704  1
  Fe  Fe6  1  0.626192  0.458613  0.208169  1
  Fe  Fe7  1  0.243146  0.581831  0.087512  1
  Fe  Fe8  1  0.004842  0.328410  0.333374  1
  Fe  Fe9  1  0.129225  0.295823  0.542274  1
  Fe  Fe10  1  0.125050  0.957471  0.208169  1
  Fe  Fe11  1  0.625198  0.122044  0.873041  1
  Fe  Fe12  1  0.619630  0.786227  0.542274  1
  Fe  Fe13  1  0.243801  0.922103  0.417048  1
  Fe  Fe14  1  0.624439  0.628590  0.873486  1
  Fe  Fe15  1  0.621385  0.953908  0.712354  1
  Fe  Fe16  1  0.003351  0.664478  0.666085  1
  Fe  Fe17  1  0.131874  0.628720  0.873041  1
  O  O18  1  0.881948  0.031303  0.287052  1
  O  O19  1  0.856998  0.373242  0.127891  1
  O  O20  1  0.377555  0.054050  0.284197  1
  O  O21  1  0.376977  0.363237  0.129893  1
  O  O22  1  0.870540  0.198491  0.465484  1
  O  O23  1  0.876959  0.552450  0.285295  1
  O  O24  1  0.877548  0.866095  0.128179  1
  O  O25  1  0.871281  0.354350  0.626431  1
  O  O26  1  0.394595  0.543950  0.287052  1
  O  O27  1  0.837625  0.019500  0.797853  1
  O  O28  1  0.858976  0.710475  0.461584  1
  O  O29  1  0.370976  0.887220  0.127891  1
  O  O30  1  0.366357  0.217855  0.461584  1
  O  O31  1  0.386931  0.019834  0.796617  1
  O  O32  1  0.371408  0.701667  0.463463  1
  O  O33  1  0.381783  0.395380  0.611418  1
  O  O34  1  0.868227  0.533717  0.799029  1
  O  O35  1  0.866766  0.885262  0.623986  1
  O  O36  1  0.874876  0.220998  0.952063  1
  O  O37  1  0.876688  0.699856  0.951548  1
  O  O38  1  0.392790  0.875858  0.626431  1
  O  O39  1  0.397048  0.220217  0.951548  1
  O  O40  1  0.384795  0.566669  0.797853  1
  O  O41  1  0.378860  0.711817  0.954661  1
