# generated using pymatgen
data_Li4Ti4Mn(Fe2O9)2
_symmetry_space_group_name_H-M   'P 1'
_cell_length_a   9.19941521
_cell_length_b   25.44672031
_cell_length_c   2.94089755
_cell_angle_alpha   89.99982886
_cell_angle_beta   90.00030415
_cell_angle_gamma   90.00320150
_symmetry_Int_Tables_number   1
_chemical_formula_structural   Li4Ti4Mn(Fe2O9)2
_chemical_formula_sum   'Li8 Ti8 Mn2 Fe8 O36'
_cell_volume   688.44925195
_cell_formula_units_Z   2
loop_
 _symmetry_equiv_pos_site_id
 _symmetry_equiv_pos_as_xyz
  1  'x, y, z'
loop_
 _atom_site_type_symbol
 _atom_site_label
 _atom_site_symmetry_multiplicity
 _atom_site_fract_x
 _atom_site_fract_y
 _atom_site_fract_z
 _atom_site_occupancy
  Li  Li0  1  0.193747  0.989337  0.000002  1
  Li  Li1  1  0.195929  0.190856  0.999999  1
  Li  Li2  1  0.304016  0.690844  0.999998  1
  Li  Li3  1  0.306204  0.489354  0.000002  1
  Li  Li4  1  0.693778  0.510717  0.999998  1
  Li  Li5  1  0.695719  0.309094  0.000003  1
  Li  Li6  1  0.804270  0.809073  0.999999  1
  Li  Li7  1  0.806197  0.010734  0.000002  1
  Ti  Ti8  1  0.005539  0.099789  0.999991  1
  Ti  Ti9  1  0.152474  0.809610  0.500009  1
  Ti  Ti10  1  0.347531  0.309611  0.500001  1
  Ti  Ti11  1  0.494514  0.599794  0.000005  1
  Ti  Ti12  1  0.505521  0.400237  0.999982  1
  Ti  Ti13  1  0.652422  0.690435  0.500004  1
  Ti  Ti14  1  0.847547  0.190424  0.499999  1
  Ti  Ti15  1  0.994476  0.900230  0.999997  1
  Mn  Mn16  1  -0.000070  0.499962  -0.000013  1
  Mn  Mn17  1  0.500055  -0.000081  0.000038  1
  Fe  Fe18  1  0.006134  0.305374  0.999990  1
  Fe  Fe19  1  0.143895  0.587693  0.499994  1
  Fe  Fe20  1  0.356090  0.087669  0.500001  1
  Fe  Fe21  1  0.493859  0.805377  0.000001  1
  Fe  Fe22  1  0.506152  0.194634  0.000004  1
  Fe  Fe23  1  0.643941  0.912268  0.500004  1
  Fe  Fe24  1  0.856050  0.412287  0.499996  1
  Fe  Fe25  1  0.993825  0.694633  -0.000002  1
  O  O26  1  0.997250  0.424324  -0.000006  1
  O  O27  1  0.002705  0.575628  -0.000011  1
  O  O28  1  0.058887  0.942895  0.500008  1
  O  O29  1  0.049249  0.156035  0.499997  1
  O  O30  1  0.120869  0.665884  0.500003  1
  O  O31  1  0.096375  0.761215  0.000010  1
  O  O32  1  0.141055  0.503979  0.499993  1
  O  O33  1  0.145562  0.288771  0.499993  1
  O  O34  1  0.183501  0.857602  0.000011  1
  O  O35  1  0.202439  0.080944  -0.000000  1
  O  O36  1  0.297567  0.580957  -0.000002  1
  O  O37  1  0.316504  0.357598  0.000003  1
  O  O38  1  0.354443  0.788776  0.500007  1
  O  O39  1  0.358928  0.003972  0.499999  1
  O  O40  1  0.403661  0.261218  0.000005  1
  O  O41  1  0.379149  0.165862  0.500005  1
  O  O42  1  0.450781  0.656044  0.499998  1
  O  O43  1  0.441112  0.442893  0.499996  1
  O  O44  1  0.497302  0.075620  -0.000001  1
  O  O45  1  0.502749  0.924308  0.000005  1
  O  O46  1  0.558952  0.557139  0.500004  1
  O  O47  1  0.549202  0.343974  0.500014  1
  O  O48  1  0.620988  0.834092  0.499999  1
  O  O49  1  0.596336  0.738818  0.000001  1
  O  O50  1  0.641111  0.995993  0.500000  1
  O  O51  1  0.645568  0.211258  0.499999  1
  O  O52  1  0.683464  0.642446  0.000002  1
  O  O53  1  0.702429  0.419055  -0.000006  1
  O  O54  1  0.797568  0.919048  0.000005  1
  O  O55  1  0.816528  0.142432  0.999993  1
  O  O56  1  0.854441  0.711257  0.499996  1
  O  O57  1  0.858871  0.495993  0.499991  1
  O  O58  1  0.903698  0.238800  0.999984  1
  O  O59  1  0.879073  0.334112  0.499983  1
  O  O60  1  0.950797  0.843965  0.500020  1
  O  O61  1  0.941072  0.057136  0.499998  1
