# generated using pymatgen
data_Li5Fe8(BO3)8
_symmetry_space_group_name_H-M   'P 1'
_cell_length_a   5.23516865
_cell_length_b   9.11687602
_cell_length_c   11.34388283
_cell_angle_alpha   67.52127106
_cell_angle_beta   77.06147657
_cell_angle_gamma   89.37135288
_symmetry_Int_Tables_number   1
_chemical_formula_structural   Li5Fe8(BO3)8
_chemical_formula_sum   'Li5 Fe8 B8 O24'
_cell_volume   485.90921970
_cell_formula_units_Z   1
loop_
 _symmetry_equiv_pos_site_id
 _symmetry_equiv_pos_as_xyz
  1  'x, y, z'
loop_
 _atom_site_type_symbol
 _atom_site_label
 _atom_site_symmetry_multiplicity
 _atom_site_fract_x
 _atom_site_fract_y
 _atom_site_fract_z
 _atom_site_occupancy
  Li  Li0  1  0.972171  0.973125  0.394439  1
  Li  Li1  1  0.709331  0.717832  0.914205  1
  Li  Li2  1  0.737308  0.750398  0.163059  1
  Li  Li3  1  0.470526  0.460214  0.418710  1
  Li  Li4  1  0.022832  0.002091  0.651624  1
  Fe  Fe5  1  0.974461  0.651860  0.381043  1
  Fe  Fe6  1  0.741121  0.069899  0.880037  1
  Fe  Fe7  1  0.530357  0.838838  0.626552  1
  Fe  Fe8  1  0.754550  0.423380  0.134809  1
  Fe  Fe9  1  0.226679  0.555656  0.880015  1
  Fe  Fe10  1  0.466209  0.146739  0.379277  1
  Fe  Fe11  1  0.012874  0.354380  0.634872  1
  Fe  Fe12  1  0.271099  0.939984  0.123892  1
  B  B13  1  0.968363  0.309410  0.386722  1
  B  B14  1  0.727577  0.404259  0.872827  1
  B  B15  1  0.515314  0.183567  0.627619  1
  B  B16  1  0.765517  0.093545  0.136178  1
  B  B17  1  0.480932  0.815881  0.371292  1
  B  B18  1  0.235168  0.886006  0.879782  1
  B  B19  1  0.033969  0.687380  0.628409  1
  B  B20  1  0.269133  0.616983  0.118262  1
  O  O21  1  0.980963  0.898257  0.862792  1
  O  O22  1  0.882552  0.301307  0.827937  1
  O  O23  1  0.845665  0.508203  0.913658  1
  O  O24  1  0.919813  0.828940  0.607475  1
  O  O25  1  0.943558  0.577491  0.585724  1
  O  O26  1  0.761199  0.172123  0.661438  1
  O  O27  1  0.730908  0.340345  0.347998  1
  O  O28  1  0.467743  0.404503  0.877724  1
  O  O29  1  0.390738  0.773757  0.847082  1
  O  O30  1  0.589971  0.916251  0.415934  1
  O  O31  1  0.605629  0.685769  0.359720  1
  O  O32  1  0.346016  0.980317  0.930145  1
  O  O33  1  0.651347  0.987762  0.093344  1
  O  O34  1  0.378216  0.316005  0.617115  1
  O  O35  1  0.414195  0.063141  0.599957  1
  O  O36  1  0.618655  0.203001  0.169977  1
  O  O37  1  0.535115  0.618278  0.113094  1
  O  O38  1  0.245967  0.655403  0.685307  1
  O  O39  1  0.243183  0.848169  0.332626  1
  O  O40  1  0.081629  0.418565  0.425419  1
  O  O41  1  0.086435  0.173004  0.391584  1
  O  O42  1  0.142928  0.521414  0.075795  1
  O  O43  1  0.117247  0.722051  0.164757  1
  O  O44  1  0.019933  0.078362  0.145341  1
