# generated using pymatgen
data_Na2FePCO7
_symmetry_space_group_name_H-M   'P 1'
_cell_length_a   17.82061654
_cell_length_b   5.20928934
_cell_length_c   6.56109681
_cell_angle_alpha   90.00000000
_cell_angle_beta   90.00000000
_cell_angle_gamma   89.70027717
_symmetry_Int_Tables_number   1
_chemical_formula_structural   Na2FePCO7
_chemical_formula_sum   'Na8 Fe4 P4 C4 O28'
_cell_volume   609.07631117
_cell_formula_units_Z   4
loop_
 _symmetry_equiv_pos_site_id
 _symmetry_equiv_pos_as_xyz
  1  'x, y, z'
loop_
 _atom_site_type_symbol
 _atom_site_label
 _atom_site_symmetry_multiplicity
 _atom_site_fract_x
 _atom_site_fract_y
 _atom_site_fract_z
 _atom_site_occupancy
  Na  Na0  1  0.040387  0.765020  0.244108  1
  Na  Na1  1  0.130980  0.251482  0.489702  1
  Na  Na2  1  0.369020  0.748518  0.510298  1
  Na  Na3  1  0.459613  0.234980  0.755892  1
  Na  Na4  1  0.540387  0.765020  0.255892  1
  Na  Na5  1  0.630980  0.251482  0.010298  1
  Na  Na6  1  0.869020  0.748518  0.989702  1
  Na  Na7  1  0.959613  0.234980  0.744108  1
  Fe  Fe8  1  0.173069  0.785207  0.762052  1
  Fe  Fe9  1  0.326931  0.214793  0.237948  1
  Fe  Fe10  1  0.673069  0.785207  0.737948  1
  Fe  Fe11  1  0.826931  0.214793  0.262052  1
  P  P12  1  0.211424  0.707224  0.252240  1
  P  P13  1  0.288576  0.292776  0.747760  1
  P  P14  1  0.711424  0.707224  0.247760  1
  P  P15  1  0.788576  0.292776  0.752240  1
  C  C16  1  0.031912  0.730006  0.746541  1
  C  C17  1  0.468088  0.269994  0.253459  1
  C  C18  1  0.531912  0.730006  0.753459  1
  C  C19  1  0.968088  0.269994  0.246541  1
  O  O20  1  0.038536  0.293404  0.260382  1
  O  O21  1  0.064671  0.956260  0.740517  1
  O  O22  1  0.078049  0.533023  0.741388  1
  O  O23  1  0.162802  0.765507  0.062108  1
  O  O24  1  0.160082  0.771308  0.437832  1
  O  O25  1  0.215457  0.134559  0.743173  1
  O  O26  1  0.233087  0.416725  0.261348  1
  O  O27  1  0.266913  0.583275  0.738652  1
  O  O28  1  0.284543  0.865441  0.256827  1
  O  O29  1  0.339918  0.228692  0.562168  1
  O  O30  1  0.337198  0.234493  0.937892  1
  O  O31  1  0.421951  0.466977  0.258612  1
  O  O32  1  0.435329  0.043740  0.259483  1
  O  O33  1  0.461464  0.706596  0.739618  1
  O  O34  1  0.538536  0.293404  0.239618  1
  O  O35  1  0.564671  0.956260  0.759483  1
  O  O36  1  0.578049  0.533023  0.758612  1
  O  O37  1  0.660082  0.771308  0.062168  1
  O  O38  1  0.662802  0.765507  0.437892  1
  O  O39  1  0.715457  0.134559  0.756827  1
  O  O40  1  0.733087  0.416725  0.238652  1
  O  O41  1  0.766913  0.583275  0.761348  1
  O  O42  1  0.784543  0.865441  0.243173  1
  O  O43  1  0.837198  0.234493  0.562108  1
  O  O44  1  0.839918  0.228692  0.937832  1
  O  O45  1  0.921951  0.466977  0.241388  1
  O  O46  1  0.935329  0.043740  0.240517  1
  O  O47  1  0.961464  0.706596  0.760382  1
