# generated using pymatgen
data_K2CaCu(NO2)6
_symmetry_space_group_name_H-M   'P 1'
_cell_length_a   7.36898156
_cell_length_b   7.36898156
_cell_length_c   7.56374019
_cell_angle_alpha   119.08067375
_cell_angle_beta   119.08067372
_cell_angle_gamma   90.12760427
_symmetry_Int_Tables_number   1
_chemical_formula_structural   K2CaCu(NO2)6
_chemical_formula_sum   'K2 Ca1 Cu1 N6 O12'
_cell_volume   298.01567429
_cell_formula_units_Z   1
loop_
 _symmetry_equiv_pos_site_id
 _symmetry_equiv_pos_as_xyz
  1  'x, y, z'
loop_
 _atom_site_type_symbol
 _atom_site_label
 _atom_site_symmetry_multiplicity
 _atom_site_fract_x
 _atom_site_fract_y
 _atom_site_fract_z
 _atom_site_occupancy
  N  N0  1  0.198682  0.801319  0.000000  1
  N  N1  1  0.801319  0.198682  0.000000  1
  N  N2  1  0.779493  0.779493  0.558985  1
  N  N3  1  0.220507  0.220507  0.441015  1
  N  N4  1  0.198724  0.198724  0.000000  1
  N  N5  1  0.801276  0.801276  0.000000  1
  O  O6  1  0.640607  0.640607  0.804149  1
  O  O7  1  0.359393  0.359393  0.195851  1
  O  O8  1  0.163542  0.163542  0.804149  1
  O  O9  1  0.820144  0.614873  0.435017  1
  O  O10  1  0.614873  0.820144  0.435017  1
  O  O11  1  0.385127  0.179856  0.564983  1
  O  O12  1  0.635495  0.157868  0.000000  1
  O  O13  1  0.157868  0.635495  0.000000  1
  O  O14  1  0.842132  0.364505  0.000000  1
  O  O15  1  0.364505  0.842132  0.000000  1
  O  O16  1  0.179856  0.385127  0.564983  1
  O  O17  1  0.836458  0.836458  0.195851  1
  K  K18  1  0.250000  0.750000  0.500000  1
  K  K19  1  0.750000  0.250000  0.500000  1
  Ca  Ca20  1  0.500000  0.500000  0.000000  1
  Cu  Cu21  1  0.000000  0.000000  0.000000  1
