# generated using pymatgen
data_LiFeF4
_symmetry_space_group_name_H-M   'P 1'
_cell_length_a   7.91316722
_cell_length_b   8.53306640
_cell_length_c   5.28713253
_cell_angle_alpha   90.00000000
_cell_angle_beta   106.01684652
_cell_angle_gamma   90.00000000
_symmetry_Int_Tables_number   1
_chemical_formula_structural   LiFeF4
_chemical_formula_sum   'Li4 Fe4 F16'
_cell_volume   343.14736324
_cell_formula_units_Z   4
loop_
 _symmetry_equiv_pos_site_id
 _symmetry_equiv_pos_as_xyz
  1  'x, y, z'
loop_
 _atom_site_type_symbol
 _atom_site_label
 _atom_site_symmetry_multiplicity
 _atom_site_fract_x
 _atom_site_fract_y
 _atom_site_fract_z
 _atom_site_occupancy
  Li  Li0  1  0.074688  0.188847  0.205800  1
  Li  Li1  1  0.425312  0.688847  0.294200  1
  Li  Li2  1  0.574688  0.311153  0.705800  1
  Li  Li3  1  0.925312  0.811153  0.794200  1
  Fe  Fe4  1  0.167456  0.462655  0.753205  1
  Fe  Fe5  1  0.332544  0.962655  0.746795  1
  Fe  Fe6  1  0.667456  0.037345  0.253205  1
  Fe  Fe7  1  0.832544  0.537345  0.246795  1
  F  F8  1  0.021163  0.378769  0.391965  1
  F  F9  1  0.133839  0.277083  0.914562  1
  F  F10  1  0.126484  0.938718  0.842036  1
  F  F11  1  0.263949  0.089062  0.447677  1
  F  F12  1  0.236051  0.589062  0.052323  1
  F  F13  1  0.373516  0.438718  0.657964  1
  F  F14  1  0.366161  0.777083  0.585438  1
  F  F15  1  0.521163  0.121231  0.891965  1
  F  F16  1  0.478837  0.878769  0.108035  1
  F  F17  1  0.633839  0.222917  0.414562  1
  F  F18  1  0.626484  0.561282  0.342036  1
  F  F19  1  0.763949  0.410938  0.947677  1
  F  F20  1  0.736051  0.910938  0.552323  1
  F  F21  1  0.873516  0.061282  0.157964  1
  F  F22  1  0.866161  0.722917  0.085438  1
  F  F23  1  0.978837  0.621231  0.608035  1
