# generated using pymatgen
data_Li2VFeP2(O4F)2
_symmetry_space_group_name_H-M   'P 1'
_cell_length_a   5.22496246
_cell_length_b   5.38027589
_cell_length_c   7.45880282
_cell_angle_alpha   109.79422723
_cell_angle_beta   106.59726043
_cell_angle_gamma   97.85824922
_symmetry_Int_Tables_number   1
_chemical_formula_structural   Li2VFeP2(O4F)2
_chemical_formula_sum   'Li2 V1 Fe1 P2 O8 F2'
_cell_volume   182.62452500
_cell_formula_units_Z   1
loop_
 _symmetry_equiv_pos_site_id
 _symmetry_equiv_pos_as_xyz
  1  'x, y, z'
loop_
 _atom_site_type_symbol
 _atom_site_label
 _atom_site_symmetry_multiplicity
 _atom_site_fract_x
 _atom_site_fract_y
 _atom_site_fract_z
 _atom_site_occupancy
  Li  Li0  1  0.081946  0.428844  0.812497  1
  Li  Li1  1  0.918054  0.571156  0.187503  1
  V  V2  1  0.000000  0.000000  0.000000  1
  Fe  Fe3  1  0.500000  0.500000  0.500000  1
  P  P4  1  0.438977  0.119817  0.761430  1
  P  P5  1  0.561023  0.880183  0.238570  1
  O  O6  1  0.282809  0.158943  0.914194  1
  O  O7  1  0.360544  0.821331  0.610008  1
  O  O8  1  0.349479  0.315587  0.658106  1
  O  O9  1  0.241378  0.778471  0.112064  1
  O  O10  1  0.758622  0.221529  0.887936  1
  O  O11  1  0.650521  0.684413  0.341894  1
  O  O12  1  0.639456  0.178669  0.389992  1
  O  O13  1  0.717191  0.841057  0.085806  1
  F  F14  1  0.136552  0.337299  0.265313  1
  F  F15  1  0.863448  0.662701  0.734687  1
