# generated using pymatgen
data_Mn2O3F
_symmetry_space_group_name_H-M   'P 1'
_cell_length_a   6.03122068
_cell_length_b   6.34420038
_cell_length_c   7.28875109
_cell_angle_alpha   90.00000000
_cell_angle_beta   114.43966920
_cell_angle_gamma   90.00000000
_symmetry_Int_Tables_number   1
_chemical_formula_structural   Mn2O3F
_chemical_formula_sum   'Mn8 O12 F4'
_cell_volume   253.90207600
_cell_formula_units_Z   4
loop_
 _symmetry_equiv_pos_site_id
 _symmetry_equiv_pos_as_xyz
  1  'x, y, z'
loop_
 _atom_site_type_symbol
 _atom_site_label
 _atom_site_symmetry_multiplicity
 _atom_site_fract_x
 _atom_site_fract_y
 _atom_site_fract_z
 _atom_site_occupancy
  Mn  Mn0  1  0.001336  0.000000  0.000097  1
  Mn  Mn1  1  0.498762  0.000000  0.000097  1
  Mn  Mn2  1  0.501297  0.000000  0.502594  1
  Mn  Mn3  1  0.753092  0.500000  0.006184  1
  Mn  Mn4  1  0.996908  0.000000  0.493816  1
  Mn  Mn5  1  0.248703  0.500000  0.997406  1
  Mn  Mn6  1  0.748664  0.500000  0.499903  1
  Mn  Mn7  1  0.251238  0.500000  0.499903  1
  O  O8  1  0.843691  0.000000  0.187381  1
  O  O9  1  0.001755  0.308866  0.000588  1
  O  O10  1  0.498832  0.308866  0.000588  1
  O  O11  1  0.251168  0.191134  0.499412  1
  O  O12  1  0.001755  0.691134  0.000588  1
  O  O13  1  0.498832  0.691134  0.000588  1
  O  O14  1  0.748245  0.191134  0.499412  1
  O  O15  1  0.156138  0.000000  0.812277  1
  O  O16  1  0.906309  0.500000  0.312619  1
  O  O17  1  0.593862  0.500000  0.687723  1
  O  O18  1  0.251168  0.808866  0.499412  1
  O  O19  1  0.748245  0.808866  0.499412  1
  F  F20  1  0.358889  0.000000  0.217779  1
  F  F21  1  0.391111  0.500000  0.282221  1
  F  F22  1  0.642855  0.000000  0.785711  1
  F  F23  1  0.107145  0.500000  0.714289  1
