# generated using pymatgen
data_FeH2C4N4Cl6O
_symmetry_space_group_name_H-M   'P 1'
_cell_length_a   9.61827659
_cell_length_b   12.21731547
_cell_length_c   7.11246072
_cell_angle_alpha   89.94499384
_cell_angle_beta   90.04162258
_cell_angle_gamma   90.01067348
_symmetry_Int_Tables_number   1
_chemical_formula_structural   FeH2C4N4Cl6O
_chemical_formula_sum   'Fe2 H4 C8 N8 Cl12 O2'
_cell_volume   835.78122000
_cell_formula_units_Z   2
loop_
 _symmetry_equiv_pos_site_id
 _symmetry_equiv_pos_as_xyz
  1  'x, y, z'
loop_
 _atom_site_type_symbol
 _atom_site_label
 _atom_site_symmetry_multiplicity
 _atom_site_fract_x
 _atom_site_fract_y
 _atom_site_fract_z
 _atom_site_occupancy
  Fe  Fe0  1  0.000273  0.000126  0.001095  1
  Fe  Fe1  1  0.500212  0.499841  0.001445  1
  H  H2  1  0.533856  0.058317  0.532391  1
  H  H3  1  0.466025  0.941865  0.532429  1
  H  H4  1  0.966090  0.558221  0.532259  1
  H  H5  1  0.033938  0.441866  0.532396  1
  C  C6  1  0.769600  0.825334  0.491513  1
  C  C7  1  0.230270  0.174537  0.491503  1
  C  C8  1  0.730305  0.325164  0.491488  1
  C  C9  1  0.269596  0.674927  0.491517  1
  C  C10  1  0.633573  0.169386  0.052938  1
  C  C11  1  0.366758  0.830229  0.053024  1
  C  C12  1  0.867355  0.670374  0.052669  1
  C  C13  1  0.132687  0.329503  0.052835  1
  N  N14  1  0.577100  0.145819  0.910783  1
  N  N15  1  0.422649  0.854315  0.910743  1
  N  N16  1  0.922939  0.645721  0.910538  1
  N  N17  1  0.077144  0.354330  0.910578  1
  N  N18  1  0.784360  0.921100  0.500964  1
  N  N19  1  0.215234  0.078811  0.501606  1
  N  N20  1  0.715936  0.420955  0.500484  1
  N  N21  1  0.284201  0.579181  0.501394  1
  Cl  Cl22  1  0.215275  0.089187  0.996104  1
  Cl  Cl23  1  0.784781  0.910957  0.996183  1
  Cl  Cl24  1  0.284665  0.588732  0.995643  1
  Cl  Cl25  1  0.715223  0.411284  0.996075  1
  Cl  Cl26  1  0.914912  0.122103  0.234357  1
  Cl  Cl27  1  0.084927  0.878193  0.234175  1
  Cl  Cl28  1  0.584997  0.622134  0.234820  1
  Cl  Cl29  1  0.415442  0.378043  0.234219  1
  Cl  Cl30  1  0.921360  0.119719  0.766036  1
  Cl  Cl31  1  0.078771  0.880270  0.765621  1
  Cl  Cl32  1  0.578648  0.619791  0.766411  1
  Cl  Cl33  1  0.421216  0.379980  0.765660  1
  O  O34  1  0.500324  -0.000078  0.614236  1
  O  O35  1  0.999353  0.499766  0.614070  1
