# generated using pymatgen
data_CsInO2
_symmetry_space_group_name_H-M   'P 1'
_cell_length_a   3.47270057
_cell_length_b   3.47282150
_cell_length_c   13.47895054
_cell_angle_alpha   89.99936431
_cell_angle_beta   90.00062747
_cell_angle_gamma   120.00119043
_symmetry_Int_Tables_number   1
_chemical_formula_structural   CsInO2
_chemical_formula_sum   'Cs2 In2 O4'
_cell_volume   140.77686887
_cell_formula_units_Z   2
loop_
 _symmetry_equiv_pos_site_id
 _symmetry_equiv_pos_as_xyz
  1  'x, y, z'
loop_
 _atom_site_type_symbol
 _atom_site_label
 _atom_site_symmetry_multiplicity
 _atom_site_fract_x
 _atom_site_fract_y
 _atom_site_fract_z
 _atom_site_occupancy
  Cs  Cs0  1  0.000063  0.000035  0.999993  1
  Cs  Cs1  1  0.666735  0.333327  0.500005  1
  In  In2  1  0.333355  0.666599  0.250015  1
  In  In3  1  0.333354  0.666751  0.749985  1
  O  O4  1  0.999956  0.000075  0.332541  1
  O  O5  1  0.999950  0.999865  0.667469  1
  O  O6  1  0.666645  0.333242  0.832532  1
  O  O7  1  0.666642  0.333406  0.167459  1
