# generated using pymatgen
data_Mn8O13F3
_symmetry_space_group_name_H-M   'P 1'
_cell_length_a   4.51754180
_cell_length_b   5.55272225
_cell_length_c   9.96303591
_cell_angle_alpha   90.34155276
_cell_angle_beta   90.41912787
_cell_angle_gamma   87.49677549
_symmetry_Int_Tables_number   1
_chemical_formula_structural   Mn8O13F3
_chemical_formula_sum   'Mn8 O13 F3'
_cell_volume   249.67017354
_cell_formula_units_Z   1
loop_
 _symmetry_equiv_pos_site_id
 _symmetry_equiv_pos_as_xyz
  1  'x, y, z'
loop_
 _atom_site_type_symbol
 _atom_site_label
 _atom_site_symmetry_multiplicity
 _atom_site_fract_x
 _atom_site_fract_y
 _atom_site_fract_z
 _atom_site_occupancy
  Mn  Mn0  1  0.015334  0.161141  0.628257  1
  Mn  Mn1  1  0.003920  0.853801  0.368945  1
  Mn  Mn2  1  0.980321  0.137881  0.123477  1
  Mn  Mn3  1  0.021111  0.863315  0.875406  1
  Mn  Mn4  1  0.497731  0.339032  0.881280  1
  Mn  Mn5  1  0.506064  0.350916  0.379382  1
  Mn  Mn6  1  0.513088  0.661289  0.121938  1
  Mn  Mn7  1  0.477138  0.639940  0.623387  1
  O  O8  1  0.227476  0.110679  0.460387  1
  O  O9  1  0.226709  0.104909  0.966567  1
  O  O10  1  0.225377  0.886686  0.210264  1
  O  O11  1  0.239012  0.887714  0.709636  1
  O  O12  1  0.256080  0.606904  0.460034  1
  O  O13  1  0.274928  0.391710  0.713724  1
  O  O14  1  0.274865  0.617480  0.960333  1
  O  O15  1  0.734852  0.383876  0.041062  1
  O  O16  1  0.726551  0.612012  0.290031  1
  O  O17  1  0.728840  0.389316  0.540678  1
  O  O18  1  0.756452  0.108498  0.288777  1
  O  O19  1  0.774454  0.895733  0.033334  1
  O  O20  1  0.778871  0.116163  0.788300  1
  F  F21  1  0.254245  0.374210  0.211465  1
  F  F22  1  0.747212  0.627349  0.785190  1
  F  F23  1  0.759372  0.879445  0.538148  1
