# generated using pymatgen
data_Li3V2P4(HO8)2
_symmetry_space_group_name_H-M   'P 1'
_cell_length_a   9.74204082
_cell_length_b   8.08329728
_cell_length_c   7.88482369
_cell_angle_alpha   89.87279732
_cell_angle_beta   68.10213583
_cell_angle_gamma   90.68507536
_symmetry_Int_Tables_number   1
_chemical_formula_structural   Li3V2P4(HO8)2
_chemical_formula_sum   'Li6 V4 P8 H4 O32'
_cell_volume   576.05775646
_cell_formula_units_Z   2
loop_
 _symmetry_equiv_pos_site_id
 _symmetry_equiv_pos_as_xyz
  1  'x, y, z'
loop_
 _atom_site_type_symbol
 _atom_site_label
 _atom_site_symmetry_multiplicity
 _atom_site_fract_x
 _atom_site_fract_y
 _atom_site_fract_z
 _atom_site_occupancy
  Li  Li0  1  0.278307  0.633754  0.342966  1
  Li  Li1  1  0.230007  0.366242  0.655572  1
  Li  Li2  1  0.271611  0.868295  0.850844  1
  Li  Li3  1  0.721853  0.133924  0.148918  1
  Li  Li4  1  0.776227  0.634494  0.342229  1
  Li  Li5  1  0.727927  0.368283  0.656188  1
  V  V6  1  0.247032  0.494301  0.004899  1
  V  V7  1  0.251094  0.002298  0.489235  1
  V  V8  1  0.750054  0.505338  0.000279  1
  V  V9  1  0.751912  0.998516  0.502167  1
  P  P10  1  0.068812  0.849374  0.231440  1
  P  P11  1  0.066441  0.654897  0.737170  1
  P  P12  1  0.433266  0.347956  0.269521  1
  P  P13  1  0.568781  0.852205  0.231578  1
  P  P14  1  0.433162  0.151357  0.762373  1
  P  P15  1  0.565597  0.657146  0.736460  1
  P  P16  1  0.931860  0.348302  0.268388  1
  P  P17  1  0.933126  0.153298  0.761500  1
  H  H18  1  0.009819  0.510063  0.510523  1
  H  H19  1  0.509258  0.509508  0.510857  1
  H  H20  1  0.490481  0.009707  0.988556  1
  H  H21  1  0.990107  0.008323  0.987061  1
  O  O22  1  0.091240  0.938485  0.053036  1
  O  O23  1  0.096071  0.328649  0.147905  1
  O  O24  1  0.148070  0.682362  0.194282  1
  O  O25  1  0.139549  0.950097  0.352700  1
  O  O26  1  0.095639  0.560282  0.551520  1
  O  O27  1  0.100727  0.173421  0.646205  1
  O  O28  1  0.148250  0.823443  0.685280  1
  O  O29  1  0.143001  0.545502  0.835726  1
  O  O30  1  0.359858  0.452163  0.162902  1
  O  O31  1  0.360993  0.173920  0.320600  1
  O  O32  1  0.400593  0.829290  0.356819  1
  O  O33  1  0.405821  0.444354  0.448002  1
  O  O34  1  0.357767  0.046780  0.652327  1
  O  O35  1  0.356060  0.318078  0.807708  1
  O  O36  1  0.591841  0.955682  0.062615  1
  O  O37  1  0.599474  0.328035  0.149744  1
  O  O38  1  0.399148  0.674357  0.850269  1
  O  O39  1  0.406849  0.047703  0.937745  1
  O  O40  1  0.643908  0.683330  0.194121  1
  O  O41  1  0.642889  0.953539  0.349434  1
  O  O42  1  0.594994  0.557953  0.553490  1
  O  O43  1  0.600903  0.173068  0.644824  1
  O  O44  1  0.640858  0.826763  0.679053  1
  O  O45  1  0.639559  0.548878  0.837604  1
  O  O46  1  0.856696  0.455314  0.163753  1
  O  O47  1  0.851673  0.176200  0.312740  1
  O  O48  1  0.901198  0.828375  0.355422  1
  O  O49  1  0.904841  0.440769  0.449055  1
  O  O50  1  0.862607  0.051543  0.645081  1
  O  O51  1  0.851721  0.317709  0.809184  1
  O  O52  1  0.902030  0.671900  0.851223  1
  O  O53  1  0.906857  0.062128  0.945369  1
