# generated using pymatgen
data_NaCuP2O7
_symmetry_space_group_name_H-M   'P 1'
_cell_length_a   5.57743850
_cell_length_b   8.08635797
_cell_length_c   8.12355095
_cell_angle_alpha   66.19218000
_cell_angle_beta   90.00000000
_cell_angle_gamma   69.82631351
_symmetry_Int_Tables_number   1
_chemical_formula_structural   NaCuP2O7
_chemical_formula_sum   'Na2 Cu2 P4 O14'
_cell_volume   310.47831898
_cell_formula_units_Z   2
loop_
 _symmetry_equiv_pos_site_id
 _symmetry_equiv_pos_as_xyz
  1  'x, y, z'
loop_
 _atom_site_type_symbol
 _atom_site_label
 _atom_site_symmetry_multiplicity
 _atom_site_fract_x
 _atom_site_fract_y
 _atom_site_fract_z
 _atom_site_occupancy
  Na  Na0  1  0.617695  0.467534  0.699552  1
  Na  Na1  1  0.914770  0.467534  0.199552  1
  Cu  Cu2  1  0.000439  0.998577  0.000958  1
  Cu  Cu3  1  0.000984  0.998577  0.500958  1
  P  P4  1  0.242222  0.202484  0.660642  1
  P  P5  1  0.555294  0.202484  0.160642  1
  P  P6  1  0.439235  0.797212  0.840479  1
  P  P7  1  0.763554  0.797212  0.340479  1
  O  O8  1  0.060374  0.198817  0.808224  1
  O  O9  1  0.110579  0.194484  0.495092  1
  O  O10  1  0.306602  0.374372  0.098878  1
  O  O11  1  0.495625  0.998904  0.751259  1
  O  O12  1  0.505471  0.998904  0.251259  1
  O  O13  1  0.319025  0.374372  0.598878  1
  O  O14  1  0.268932  0.798721  0.687091  1
  O  O15  1  0.302511  0.805314  0.005535  1
  O  O16  1  0.694936  0.194484  0.995092  1
  O  O17  1  0.740809  0.198817  0.308224  1
  O  O18  1  0.692099  0.621473  0.403353  1
  O  O19  1  0.686428  0.621473  0.903353  1
  O  O20  1  0.892174  0.805314  0.505535  1
  O  O21  1  0.932346  0.798721  0.187091  1
