# generated using pymatgen
data_Ta2PbO6
_symmetry_space_group_name_H-M   'P 1'
_cell_length_a   15.90032188
_cell_length_b   6.13279900
_cell_length_c   5.27359911
_cell_angle_alpha   90.00027635
_cell_angle_beta   90.00256795
_cell_angle_gamma   90.01261634
_symmetry_Int_Tables_number   1
_chemical_formula_structural   Ta2PbO6
_chemical_formula_sum   'Ta8 Pb4 O24'
_cell_volume   514.24697837
_cell_formula_units_Z   4
loop_
 _symmetry_equiv_pos_site_id
 _symmetry_equiv_pos_as_xyz
  1  'x, y, z'
loop_
 _atom_site_type_symbol
 _atom_site_label
 _atom_site_symmetry_multiplicity
 _atom_site_fract_x
 _atom_site_fract_y
 _atom_site_fract_z
 _atom_site_occupancy
  Ta  Ta0  1  0.171244  0.324992  0.770813  1
  Ta  Ta1  1  0.171265  0.674945  0.270833  1
  Ta  Ta2  1  0.328769  0.175088  0.270886  1
  Ta  Ta3  1  0.328695  0.825085  0.770797  1
  Ta  Ta4  1  0.671200  0.175056  0.229130  1
  Ta  Ta5  1  0.671182  0.824949  0.729107  1
  Ta  Ta6  1  0.828827  0.324964  0.729089  1
  Ta  Ta7  1  0.828811  0.674997  0.229120  1
  Pb  Pb8  1  0.000031  0.205011  0.249955  1
  Pb  Pb9  1  0.999909  0.794748  0.750304  1
  Pb  Pb10  1  0.499937  0.294921  0.750313  1
  Pb  Pb11  1  0.499947  0.705167  0.250258  1
  O  O12  1  0.092905  0.124712  0.867300  1
  O  O13  1  0.092850  0.875332  0.367373  1
  O  O14  1  0.114236  0.425452  0.465143  1
  O  O15  1  0.114237  0.574518  0.965160  1
  O  O16  1  0.245206  0.642903  0.592094  1
  O  O17  1  0.245207  0.357082  0.092071  1
  O  O18  1  0.254827  0.142913  0.592109  1
  O  O19  1  0.254820  0.857100  0.092122  1
  O  O20  1  0.385782  0.074513  0.965196  1
  O  O21  1  0.385786  0.925491  0.465205  1
  O  O22  1  0.407112  0.375240  0.367274  1
  O  O23  1  0.407160  0.624622  0.867379  1
  O  O24  1  0.592901  0.375223  0.132643  1
  O  O25  1  0.592914  0.624835  0.632637  1
  O  O26  1  0.614234  0.074560  0.534808  1
  O  O27  1  0.614236  0.925486  0.034806  1
  O  O28  1  0.745188  0.142900  0.907849  1
  O  O29  1  0.745187  0.857141  0.407873  1
  O  O30  1  0.754828  0.357124  0.407764  1
  O  O31  1  0.754810  0.642932  0.907828  1
  O  O32  1  0.885785  0.425503  0.034703  1
  O  O33  1  0.885773  0.574549  0.534768  1
  O  O34  1  0.907115  0.124764  0.632646  1
  O  O35  1  0.907083  0.875187  0.132643  1
