# generated using pymatgen
data_Na4Bi2C4SO16
_symmetry_space_group_name_H-M   'P 1'
_cell_length_a   10.45099696
_cell_length_b   10.20944061
_cell_length_c   10.28996452
_cell_angle_alpha   118.77426727
_cell_angle_beta   59.42437195
_cell_angle_gamma   119.38656109
_symmetry_Int_Tables_number   1
_chemical_formula_structural   Na4Bi2C4SO16
_chemical_formula_sum   'Na8 Bi4 C8 S2 O32'
_cell_volume   783.35196177
_cell_formula_units_Z   2
loop_
 _symmetry_equiv_pos_site_id
 _symmetry_equiv_pos_as_xyz
  1  'x, y, z'
loop_
 _atom_site_type_symbol
 _atom_site_label
 _atom_site_symmetry_multiplicity
 _atom_site_fract_x
 _atom_site_fract_y
 _atom_site_fract_z
 _atom_site_occupancy
  Na  Na0  1  0.919951  0.165608  0.319134  1
  Na  Na1  1  0.918815  0.163979  0.926914  1
  Na  Na2  1  0.923379  0.573767  0.325663  1
  Na  Na3  1  0.671676  0.433263  0.076119  1
  Na  Na4  1  0.328045  0.173518  0.921172  1
  Na  Na5  1  0.337729  0.580410  0.927309  1
  Na  Na6  1  0.075705  0.430385  0.670567  1
  Na  Na7  1  0.077106  0.814414  0.670643  1
  Bi  Bi8  1  0.497110  0.995988  0.003805  1
  Bi  Bi9  1  0.504195  0.993394  0.489807  1
  Bi  Bi10  1  0.500107  0.504693  0.501529  1
  Bi  Bi11  1  0.000048  0.995881  0.493765  1
  C  C12  1  0.723838  0.163482  0.719173  1
  C  C13  1  0.673929  0.229054  0.269520  1
  C  C14  1  0.283643  0.228761  0.277679  1
  C  C15  1  0.266243  0.217306  0.671890  1
  C  C16  1  0.721484  0.781170  0.719458  1
  C  C17  1  0.727504  0.781135  0.337664  1
  C  C18  1  0.334275  0.779444  0.728962  1
  C  C19  1  0.269638  0.830130  0.286251  1
  S  S20  1  0.876621  0.622819  0.871695  1
  S  S21  1  0.121530  0.370058  0.120868  1
  O  O22  1  0.855065  0.174318  0.716446  1
  O  O23  1  0.677980  0.110978  0.282545  1
  O  O24  1  0.715597  0.147422  0.591195  1
  O  O25  1  0.675940  0.217126  0.136354  1
  O  O26  1  0.601518  0.167619  0.851804  1
  O  O27  1  0.942120  0.565276  0.691872  1
  O  O28  1  0.931554  0.554259  0.928751  1
  O  O29  1  0.672271  0.359967  0.386380  1
  O  O30  1  0.289279  0.113081  0.145858  1
  O  O31  1  0.382801  0.202040  0.669601  1
  O  O32  1  0.940272  0.798415  0.924539  1
  O  O33  1  0.702011  0.563650  0.931185  1
  O  O34  1  0.729316  0.648945  0.327475  1
  O  O35  1  0.853649  0.778419  0.597228  1
  O  O36  1  0.133458  0.100653  0.677152  1
  O  O37  1  0.411054  0.347915  0.287891  1
  O  O38  1  0.595185  0.660915  0.717441  1
  O  O39  1  0.849379  0.907809  0.343758  1
  O  O40  1  0.278158  0.351465  0.672159  1
  O  O41  1  0.151302  0.224238  0.398696  1
  O  O42  1  0.296387  0.424316  0.057554  1
  O  O43  1  0.062285  0.191811  0.062141  1
  O  O44  1  0.719936  0.909223  0.840372  1
  O  O45  1  0.601297  0.782886  0.344897  1
  O  O46  1  0.321328  0.647075  0.614506  1
  O  O47  1  0.055833  0.424528  0.297260  1
  O  O48  1  0.065041  0.431377  0.059179  1
  O  O49  1  0.387822  0.821894  0.153198  1
  O  O50  1  0.348689  0.788312  0.851431  1
  O  O51  1  0.280978  0.851953  0.415656  1
  O  O52  1  0.333644  0.902538  0.720189  1
  O  O53  1  0.136278  0.817366  0.292155  1
