# generated using pymatgen
data_H4Ru3C9N2O9
_symmetry_space_group_name_H-M   'P 1'
_cell_length_a   9.50274081
_cell_length_b   13.22715819
_cell_length_c   14.51825573
_cell_angle_alpha   67.83518232
_cell_angle_beta   86.58393451
_cell_angle_gamma   82.45762731
_symmetry_Int_Tables_number   1
_chemical_formula_structural   H4Ru3C9N2O9
_chemical_formula_sum   'H16 Ru12 C36 N8 O36'
_cell_volume   1675.28596785
_cell_formula_units_Z   4
loop_
 _symmetry_equiv_pos_site_id
 _symmetry_equiv_pos_as_xyz
  1  'x, y, z'
loop_
 _atom_site_type_symbol
 _atom_site_label
 _atom_site_symmetry_multiplicity
 _atom_site_fract_x
 _atom_site_fract_y
 _atom_site_fract_z
 _atom_site_occupancy
  H  H0  1  0.894338  0.865055  0.737894  1
  H  H1  1  0.105662  0.134945  0.262106  1
  H  H2  1  0.917320  0.114171  0.601800  1
  H  H3  1  0.082680  0.885829  0.398200  1
  H  H4  1  0.701709  0.207841  0.630991  1
  H  H5  1  0.298291  0.792159  0.369009  1
  H  H6  1  0.824249  0.207615  0.709002  1
  H  H7  1  0.175751  0.792385  0.290998  1
  H  H8  1  0.099990  0.625725  0.734925  1
  H  H9  1  0.900010  0.374275  0.265075  1
  H  H10  1  0.182563  0.400842  0.932006  1
  H  H11  1  0.817437  0.599158  0.067994  1
  H  H12  1  0.351640  0.304627  0.858788  1
  H  H13  1  0.648360  0.695373  0.141212  1
  H  H14  1  0.193119  0.265458  0.862473  1
  H  H15  1  0.806881  0.734542  0.137527  1
  Ru  Ru16  1  0.955874  0.954965  0.791768  1
  Ru  Ru17  1  0.044126  0.045035  0.208232  1
  Ru  Ru18  1  0.737557  0.949836  0.668738  1
  Ru  Ru19  1  0.262443  0.050164  0.331262  1
  Ru  Ru20  1  0.672770  0.028846  0.820953  1
  Ru  Ru21  1  0.327230  0.971154  0.179047  1
  Ru  Ru22  1  0.008966  0.504182  0.768624  1
  Ru  Ru23  1  0.991034  0.495818  0.231376  1
  Ru  Ru24  1  0.283650  0.563443  0.758994  1
  Ru  Ru25  1  0.716350  0.436557  0.241006  1
  Ru  Ru26  1  0.227110  0.418396  0.670259  1
  Ru  Ru27  1  0.772890  0.581604  0.329741  1
  C  C28  1  0.138621  0.928008  0.733594  1
  C  C29  1  0.861379  0.071992  0.266406  1
  C  C30  1  0.979253  0.828585  0.910296  1
  C  C31  1  0.020747  0.171415  0.089704  1
  C  C32  1  0.016168  0.043581  0.855988  1
  C  C33  1  0.983832  0.956419  0.144012  1
  C  C34  1  0.833850  0.920193  0.560133  1
  C  C35  1  0.166150  0.079807  0.439867  1
  C  C36  1  0.644341  0.820116  0.718470  1
  C  C37  1  0.355659  0.179884  0.281530  1
  C  C38  1  0.566892  0.035600  0.604018  1
  C  C39  1  0.433108  0.964400  0.395982  1
  C  C40  1  0.475642  0.076521  0.799898  1
  C  C41  1  0.524358  0.923479  0.200102  1
  C  C42  1  0.644828  0.887387  0.908653  1
  C  C43  1  0.355172  0.112613  0.091347  1
  C  C44  1  0.700342  0.084263  0.922520  1
  C  C45  1  0.299658  0.915737  0.077480  1
  C  C46  1  0.899865  0.546710  0.866788  1
  C  C47  1  0.100135  0.453290  0.133212  1
  C  C48  1  0.889184  0.590343  0.659525  1
  C  C49  1  0.110816  0.409657  0.340475  1
  C  C50  1  0.918697  0.380035  0.784093  1
  C  C51  1  0.081303  0.619965  0.215907  1
  C  C52  1  0.296807  0.636250  0.851290  1
  C  C53  1  0.703193  0.363750  0.148710  1
  C  C54  1  0.312396  0.683092  0.639175  1
  C  C55  1  0.687604  0.316908  0.360825  1
  C  C56  1  0.476970  0.502986  0.765550  1
  C  C57  1  0.523030  0.497014  0.234450  1
  C  C58  1  0.412545  0.380546  0.627542  1
  C  C59  1  0.587455  0.619454  0.372458  1
  C  C60  1  0.180146  0.530610  0.547270  1
  C  C61  1  0.819854  0.469390  0.452730  1
  C  C62  1  0.139055  0.307668  0.648364  1
  C  C63  1  0.860945  0.692332  0.351636  1
  N  N64  1  0.856084  0.077707  0.662931  1
  N  N65  1  0.143916  0.922293  0.337069  1
  N  N66  1  0.764853  0.158822  0.690106  1
  N  N67  1  0.235147  0.841178  0.309894  1
  N  N68  1  0.190772  0.423007  0.856472  1
  N  N69  1  0.809228  0.576993  0.143528  1
  N  N70  1  0.250920  0.330737  0.831136  1
  N  N71  1  0.749080  0.669263  0.168864  1
  O  O72  1  0.251107  0.909575  0.703667  1
  O  O73  1  0.748893  0.090425  0.296333  1
  O  O74  1  0.989968  0.749485  0.982414  1
  O  O75  1  0.010032  0.250515  0.017586  1
  O  O76  1  0.056346  0.096984  0.894789  1
  O  O77  1  0.943654  0.903016  0.105211  1
  O  O78  1  0.898562  0.899436  0.497584  1
  O  O79  1  0.101438  0.100564  0.502416  1
  O  O80  1  0.591577  0.739220  0.750048  1
  O  O81  1  0.408423  0.260780  0.249952  1
  O  O82  1  0.464104  0.087301  0.564221  1
  O  O83  1  0.535896  0.912699  0.435779  1
  O  O84  1  0.353268  0.102562  0.791978  1
  O  O85  1  0.646732  0.897438  0.208022  1
  O  O86  1  0.625987  0.799377  0.964813  1
  O  O87  1  0.374013  0.200623  0.035187  1
  O  O88  1  0.713571  0.114001  0.987244  1
  O  O89  1  0.286429  0.885999  0.012756  1
  O  O90  1  0.827160  0.567476  0.926388  1
  O  O91  1  0.172840  0.432524  0.073612  1
  O  O92  1  0.815415  0.642331  0.592939  1
  O  O93  1  0.184585  0.357669  0.407061  1
  O  O94  1  0.858482  0.305349  0.793250  1
  O  O95  1  0.141518  0.694651  0.206750  1
  O  O96  1  0.312313  0.677693  0.907120  1
  O  O97  1  0.687687  0.322307  0.092880  1
  O  O98  1  0.321103  0.755902  0.563316  1
  O  O99  1  0.678897  0.244098  0.436684  1
  O  O100  1  0.596360  0.467736  0.769224  1
  O  O101  1  0.403640  0.532264  0.230776  1
  O  O102  1  0.523639  0.357521  0.597011  1
  O  O103  1  0.476361  0.642479  0.402989  1
  O  O104  1  0.153694  0.600548  0.470142  1
  O  O105  1  0.846306  0.399452  0.529858  1
  O  O106  1  0.088420  0.238238  0.635895  1
  O  O107  1  0.911580  0.761762  0.364105  1
