# generated using pymatgen
data_Fe2O3F
_symmetry_space_group_name_H-M   'P 1'
_cell_length_a   4.65033218
_cell_length_b   10.23625612
_cell_length_c   5.55117898
_cell_angle_alpha   84.54983841
_cell_angle_beta   90.00000000
_cell_angle_gamma   90.00000000
_symmetry_Int_Tables_number   1
_chemical_formula_structural   Fe2O3F
_chemical_formula_sum   'Fe8 O12 F4'
_cell_volume   263.05256249
_cell_formula_units_Z   4
loop_
 _symmetry_equiv_pos_site_id
 _symmetry_equiv_pos_as_xyz
  1  'x, y, z'
loop_
 _atom_site_type_symbol
 _atom_site_label
 _atom_site_symmetry_multiplicity
 _atom_site_fract_x
 _atom_site_fract_y
 _atom_site_fract_z
 _atom_site_occupancy
  Fe  Fe0  1  0.500000  0.250000  0.750000  1
  Fe  Fe1  1  0.500000  0.750000  0.250000  1
  Fe  Fe2  1  0.520808  0.989700  0.506967  1
  Fe  Fe3  1  0.479192  0.510300  0.993033  1
  Fe  Fe4  1  0.000000  0.750000  0.750000  1
  Fe  Fe5  1  0.979192  0.489700  0.506967  1
  Fe  Fe6  1  0.000000  0.250000  0.250000  1
  Fe  Fe7  1  0.020808  0.010300  0.993033  1
  O  O8  1  0.807276  0.577660  0.770320  1
  O  O9  1  0.797772  0.317087  0.517590  1
  O  O10  1  0.813749  0.081972  0.266137  1
  O  O11  1  0.702228  0.817087  0.517590  1
  O  O12  1  0.686251  0.581972  0.266137  1
  O  O13  1  0.692724  0.077660  0.770320  1
  O  O14  1  0.313749  0.918028  0.233863  1
  O  O15  1  0.307276  0.422340  0.729680  1
  O  O16  1  0.297773  0.682913  0.982410  1
  O  O17  1  0.202228  0.182913  0.982410  1
  O  O18  1  0.192724  0.922340  0.729680  1
  O  O19  1  0.186251  0.418028  0.233863  1
  F  F20  1  0.804428  0.831971  0.021946  1
  F  F21  1  0.695572  0.331971  0.021946  1
  F  F22  1  0.304429  0.168029  0.478054  1
  F  F23  1  0.195571  0.668029  0.478054  1
