# generated using pymatgen
data_Rb3Sn4Au
_symmetry_space_group_name_H-M   'P 1'
_cell_length_a   7.32048512
_cell_length_b   14.81804558
_cell_length_c   6.68692874
_cell_angle_alpha   90.00000000
_cell_angle_beta   90.00000000
_cell_angle_gamma   90.00000000
_symmetry_Int_Tables_number   1
_chemical_formula_structural   Rb3Sn4Au
_chemical_formula_sum   'Rb6 Sn8 Au2'
_cell_volume   725.36648196
_cell_formula_units_Z   2
loop_
 _symmetry_equiv_pos_site_id
 _symmetry_equiv_pos_as_xyz
  1  'x, y, z'
loop_
 _atom_site_type_symbol
 _atom_site_label
 _atom_site_symmetry_multiplicity
 _atom_site_fract_x
 _atom_site_fract_y
 _atom_site_fract_z
 _atom_site_occupancy
  Rb  Rb0  1  0.250000  0.250000  0.512816  1
  Rb  Rb1  1  0.250000  0.446097  0.932574  1
  Rb  Rb2  1  0.250000  0.053903  0.932574  1
  Rb  Rb3  1  0.750000  0.946097  0.067426  1
  Rb  Rb4  1  0.750000  0.553903  0.067426  1
  Rb  Rb5  1  0.750000  0.750000  0.487184  1
  Sn  Sn6  1  0.038701  0.750000  0.935899  1
  Sn  Sn7  1  0.250000  0.644354  0.629690  1
  Sn  Sn8  1  0.250000  0.855646  0.629690  1
  Sn  Sn9  1  0.461299  0.750000  0.935899  1
  Sn  Sn10  1  0.538701  0.250000  0.064101  1
  Sn  Sn11  1  0.750000  0.144354  0.370310  1
  Sn  Sn12  1  0.750000  0.355646  0.370310  1
  Sn  Sn13  1  0.961299  0.250000  0.064101  1
  Au  Au14  1  0.250000  0.750000  0.284156  1
  Au  Au15  1  0.750000  0.250000  0.715844  1
