# generated using pymatgen
data_LiMnF4
_symmetry_space_group_name_H-M   'P 1'
_cell_length_a   4.74999599
_cell_length_b   5.74591277
_cell_length_c   10.09515852
_cell_angle_alpha   90.00356189
_cell_angle_beta   90.00244079
_cell_angle_gamma   90.00002579
_symmetry_Int_Tables_number   1
_chemical_formula_structural   LiMnF4
_chemical_formula_sum   'Li4 Mn4 F16'
_cell_volume   275.52779294
_cell_formula_units_Z   4
loop_
 _symmetry_equiv_pos_site_id
 _symmetry_equiv_pos_as_xyz
  1  'x, y, z'
loop_
 _atom_site_type_symbol
 _atom_site_label
 _atom_site_symmetry_multiplicity
 _atom_site_fract_x
 _atom_site_fract_y
 _atom_site_fract_z
 _atom_site_occupancy
  Li  Li0  1  0.000018  0.499951  0.999985  1
  Li  Li1  1  0.999990  0.499935  0.500024  1
  Li  Li2  1  0.499972  0.999954  0.000004  1
  Li  Li3  1  0.500024  0.999969  0.500003  1
  Mn  Mn4  1  0.000106  0.817003  0.249897  1
  Mn  Mn5  1  -0.000030  0.182921  0.750038  1
  Mn  Mn6  1  0.499924  0.317025  0.249944  1
  Mn  Mn7  1  0.500056  0.682914  0.750067  1
  F  F8  1  0.196699  0.197395  0.592602  1
  F  F9  1  0.196616  0.802616  0.092647  1
  F  F10  1  0.235017  0.553596  0.329461  1
  F  F11  1  0.234881  0.446397  0.829453  1
  F  F12  1  0.265078  0.053666  0.329462  1
  F  F13  1  0.265083  0.946436  0.829454  1
  F  F14  1  0.303354  0.302609  0.092612  1
  F  F15  1  0.303272  0.697395  0.592602  1
  F  F16  1  0.696634  0.302608  0.407392  1
  F  F17  1  0.696704  0.697387  0.907367  1
  F  F18  1  0.734909  0.053685  0.170553  1
  F  F19  1  0.734962  0.946487  0.670541  1
  F  F20  1  0.765085  0.446446  0.670545  1
  F  F21  1  0.764986  0.553600  0.170556  1
  F  F22  1  0.803312  0.802613  0.407428  1
  F  F23  1  0.803346  0.197391  0.907363  1
