# generated using pymatgen
data_Li6V3P8O29
_symmetry_space_group_name_H-M   'P 1'
_cell_length_a   9.83501143
_cell_length_b   9.83383553
_cell_length_c   14.02305751
_cell_angle_alpha   89.16735170
_cell_angle_beta   89.13411199
_cell_angle_gamma   59.50361204
_symmetry_Int_Tables_number   1
_chemical_formula_structural   Li6V3P8O29
_chemical_formula_sum   'Li12 V6 P16 O58'
_cell_volume   1168.45950108
_cell_formula_units_Z   2
loop_
 _symmetry_equiv_pos_site_id
 _symmetry_equiv_pos_as_xyz
  1  'x, y, z'
loop_
 _atom_site_type_symbol
 _atom_site_label
 _atom_site_symmetry_multiplicity
 _atom_site_fract_x
 _atom_site_fract_y
 _atom_site_fract_z
 _atom_site_occupancy
  Li  Li0  1  0.898607  0.759368  0.063414  1
  Li  Li1  1  0.759139  0.898075  0.563127  1
  Li  Li2  1  0.897386  0.333955  0.556941  1
  Li  Li3  1  0.765757  0.333345  0.060704  1
  Li  Li4  1  0.335675  0.897815  0.056445  1
  Li  Li5  1  0.334454  0.765732  0.560182  1
  Li  Li6  1  0.340557  0.347279  0.607649  1
  Li  Li7  1  0.345534  0.342484  0.107051  1
  Li  Li8  1  0.230354  0.089775  0.436393  1
  Li  Li9  1  0.088202  0.231693  0.936163  1
  Li  Li10  1  0.981703  0.966733  0.996228  1
  Li  Li11  1  0.964777  0.981955  0.497207  1
  V  V12  1  0.563305  0.435634  0.254086  1
  V  V13  1  0.436090  0.563784  0.754508  1
  V  V14  1  0.568405  0.999107  0.752040  1
  V  V15  1  0.438377  0.997596  0.248517  1
  V  V16  1  0.999141  0.568684  0.252245  1
  V  V17  1  0.997911  0.438273  0.748128  1
  P  P18  1  0.915405  0.770189  0.844933  1
  P  P19  1  0.771046  0.915163  0.344750  1
  P  P20  1  0.912790  0.312105  0.340453  1
  P  P21  1  0.669021  0.662492  0.129688  1
  P  P22  1  0.663041  0.667992  0.629418  1
  P  P23  1  0.774472  0.309072  0.846534  1
  P  P24  1  0.696074  0.218194  0.661884  1
  P  P25  1  0.310797  0.914652  0.840859  1
  P  P26  1  0.695760  0.087943  0.160083  1
  P  P27  1  0.309733  0.774275  0.346040  1
  P  P28  1  0.218786  0.696188  0.161406  1
  P  P29  1  0.329818  0.333002  0.368363  1
  P  P30  1  0.333265  0.330128  0.867788  1
  P  P31  1  0.088241  0.696186  0.660193  1
  P  P32  1  0.229588  0.093652  0.656883  1
  P  P33  1  0.093700  0.229363  0.157050  1
  O  O34  1  0.985998  0.803514  0.582287  1
  O  O35  1  0.910020  0.745510  0.332120  1
  O  O36  1  0.803175  0.986203  0.081933  1
  O  O37  1  0.746266  0.908142  0.831637  1
  O  O38  1  0.918415  0.612788  0.829321  1
  O  O39  1  0.815055  0.667349  0.167743  1
  O  O40  1  0.909999  0.468158  0.325146  1
  O  O41  1  0.002704  0.236914  0.069357  1
  O  O42  1  0.919715  0.331150  0.832707  1
  O  O43  1  0.668875  0.813799  0.667335  1
  O  O44  1  0.614241  0.917474  0.329060  1
  O  O45  1  0.813604  0.514640  0.667411  1
  O  O46  1  0.669611  0.657230  0.023208  1
  O  O47  1  0.653460  0.669114  0.523154  1
  O  O48  1  0.669990  0.513615  0.174305  1
  O  O49  1  0.465417  0.915395  0.827647  1
  O  O50  1  0.516098  0.811941  0.169097  1
  O  O51  1  0.748523  0.334271  0.337054  1
  O  O52  1  0.785882  0.194945  0.761602  1
  O  O53  1  0.805760  0.204214  0.581964  1
  O  O54  1  0.790979  0.225272  0.939764  1
  O  O55  1  0.619905  0.467415  0.834062  1
  O  O56  1  0.515410  0.669221  0.676098  1
  O  O57  1  0.664913  0.257766  0.155601  1
  O  O58  1  0.468487  0.620361  0.332557  1
  O  O59  1  0.331298  0.920022  0.333048  1
  O  O60  1  0.786475  0.017830  0.260379  1
  O  O61  1  0.780061  0.981195  0.438320  1
  O  O62  1  0.237301  0.002493  0.569262  1
  O  O63  1  0.663591  0.079318  0.658411  1
  O  O64  1  0.533891  0.373888  0.666416  1
  O  O65  1  0.335976  0.749183  0.837258  1
  O  O66  1  0.478710  0.330579  0.322523  1
  O  O67  1  0.373672  0.533449  0.166441  1
  O  O68  1  0.206778  0.804709  0.081259  1
  O  O69  1  0.226927  0.788980  0.439315  1
  O  O70  1  0.195493  0.786813  0.260906  1
  O  O71  1  0.257904  0.666109  0.655709  1
  O  O72  1  0.483756  0.187991  0.825394  1
  O  O73  1  0.532514  0.098699  0.167743  1
  O  O74  1  0.329783  0.479414  0.821987  1
  O  O75  1  0.330446  0.331917  0.974705  1
  O  O76  1  0.331380  0.329871  0.475237  1
  O  O77  1  0.187379  0.482917  0.326262  1
  O  O78  1  0.377813  0.107752  0.670156  1
  O  O79  1  0.325718  0.185150  0.329980  1
  O  O80  1  0.079063  0.664929  0.158406  1
  O  O81  1  0.018188  0.785858  0.760667  1
  O  O82  1  0.981383  0.779734  0.938506  1
  O  O83  1  0.099570  0.532446  0.667568  1
  O  O84  1  0.185732  0.325115  0.829746  1
  O  O85  1  0.107625  0.377756  0.170117  1
  O  O86  1  0.263571  0.083661  0.154104  1
  O  O87  1  0.222006  0.000887  0.930304  1
  O  O88  1  0.202447  0.011429  0.749185  1
  O  O89  1  0.084059  0.263436  0.653680  1
  O  O90  1  -0.000428  0.225798  0.430209  1
  O  O91  1  0.010786  0.202817  0.249184  1
