# generated using pymatgen
data_Na2SnO3
_symmetry_space_group_name_H-M   'P 1'
_cell_length_a   6.66755814
_cell_length_b   5.61230492
_cell_length_c   11.21315388
_cell_angle_alpha   85.74834256
_cell_angle_beta   155.40307606
_cell_angle_gamma   105.86082957
_symmetry_Int_Tables_number   1
_chemical_formula_structural   Na2SnO3
_chemical_formula_sum   'Na4 Sn2 O6'
_cell_volume   151.23403337
_cell_formula_units_Z   2
loop_
 _symmetry_equiv_pos_site_id
 _symmetry_equiv_pos_as_xyz
  1  'x, y, z'
loop_
 _atom_site_type_symbol
 _atom_site_label
 _atom_site_symmetry_multiplicity
 _atom_site_fract_x
 _atom_site_fract_y
 _atom_site_fract_z
 _atom_site_occupancy
  Na  Na0  1  0.491776  0.496091  0.997909  1
  Na  Na1  1  0.180671  0.185798  0.341030  1
  Na  Na2  1  0.832925  0.819862  0.668267  1
  Na  Na3  1  0.995272  0.497575  0.997414  1
  Sn  Sn4  1  0.336249  0.834239  0.667754  1
  Sn  Sn5  1  0.667674  0.164699  0.334846  1
  O  O6  1  0.332765  0.132265  0.772697  1
  O  O7  1  0.668433  0.865868  0.228326  1
  O  O8  1  0.192426  0.497027  0.489408  1
  O  O9  1  0.071743  0.871839  0.142011  1
  O  O10  1  0.933893  0.132005  0.861263  1
  O  O11  1  0.813604  0.501942  0.513652  1
