# generated using pymatgen
data_LiFe(PO3)4
_symmetry_space_group_name_H-M   'P 1'
_cell_length_a   7.51649639
_cell_length_b   12.95656743
_cell_length_c   9.52167383
_cell_angle_alpha   90.00000000
_cell_angle_beta   85.51522088
_cell_angle_gamma   90.00000000
_symmetry_Int_Tables_number   1
_chemical_formula_structural   LiFe(PO3)4
_chemical_formula_sum   'Li4 Fe4 P16 O48'
_cell_volume   924.45744654
_cell_formula_units_Z   4
loop_
 _symmetry_equiv_pos_site_id
 _symmetry_equiv_pos_as_xyz
  1  'x, y, z'
loop_
 _atom_site_type_symbol
 _atom_site_label
 _atom_site_symmetry_multiplicity
 _atom_site_fract_x
 _atom_site_fract_y
 _atom_site_fract_z
 _atom_site_occupancy
  Li  Li0  1  0.965729  0.278592  0.465484  1
  Li  Li1  1  0.534271  0.778592  0.034516  1
  Li  Li2  1  0.465729  0.221408  0.965484  1
  Li  Li3  1  0.034271  0.721408  0.534516  1
  Fe  Fe4  1  0.966128  0.232534  0.022402  1
  Fe  Fe5  1  0.533872  0.732534  0.477598  1
  Fe  Fe6  1  0.466128  0.267466  0.522402  1
  Fe  Fe7  1  0.033871  0.767466  0.977598  1
  P  P8  1  0.088207  0.606486  0.252264  1
  P  P9  1  0.098914  0.133753  0.717326  1
  P  P10  1  0.194259  0.907498  0.727820  1
  P  P11  1  0.300085  0.884759  0.262973  1
  P  P12  1  0.199915  0.384759  0.237027  1
  P  P13  1  0.305741  0.407498  0.772180  1
  P  P14  1  0.401086  0.633753  0.782674  1
  P  P15  1  0.411793  0.106486  0.247736  1
  P  P16  1  0.588207  0.893514  0.752264  1
  P  P17  1  0.598914  0.366247  0.217326  1
  P  P18  1  0.694259  0.592502  0.227820  1
  P  P19  1  0.800085  0.615241  0.762973  1
  P  P20  1  0.699915  0.115241  0.737027  1
  P  P21  1  0.805741  0.092503  0.272180  1
  P  P22  1  0.901086  0.866247  0.282674  1
  P  P23  1  0.911793  0.393514  0.747736  1
  O  O24  1  0.102041  0.860878  0.328608  1
  O  O25  1  0.068656  0.888400  0.858595  1
  O  O26  1  0.113857  0.431180  0.716914  1
  O  O27  1  0.074967  0.325599  0.148521  1
  O  O28  1  0.099897  0.677341  0.125694  1
  O  O29  1  0.099920  0.141615  0.876455  1
  O  O30  1  0.158402  0.643168  0.384746  1
  O  O31  1  0.325359  0.866531  0.108029  1
  O  O32  1  0.187977  0.503901  0.193371  1
  O  O33  1  0.154352  0.020079  0.665127  1
  O  O34  1  0.199615  0.210934  0.624300  1
  O  O35  1  0.306906  0.331273  0.888242  1
  O  O36  1  0.193094  0.831273  0.611758  1
  O  O37  1  0.312023  0.003901  0.306629  1
  O  O38  1  0.300385  0.710934  0.875700  1
  O  O39  1  0.174641  0.366531  0.391971  1
  O  O40  1  0.345648  0.520079  0.834873  1
  O  O41  1  0.341598  0.143168  0.115254  1
  O  O42  1  0.400080  0.641615  0.623545  1
  O  O43  1  0.400103  0.177341  0.374306  1
  O  O44  1  0.425033  0.825599  0.351479  1
  O  O45  1  0.386143  0.931180  0.783086  1
  O  O46  1  0.397959  0.360878  0.171392  1
  O  O47  1  0.431344  0.388400  0.641405  1
  O  O48  1  0.568656  0.611600  0.358595  1
  O  O49  1  0.602041  0.639122  0.828608  1
  O  O50  1  0.613857  0.068820  0.216914  1
  O  O51  1  0.574967  0.174401  0.648521  1
  O  O52  1  0.599897  0.822659  0.625694  1
  O  O53  1  0.599920  0.358385  0.376455  1
  O  O54  1  0.658402  0.856832  0.884746  1
  O  O55  1  0.654352  0.479921  0.165127  1
  O  O56  1  0.825359  0.633469  0.608029  1
  O  O57  1  0.699615  0.289066  0.124300  1
  O  O58  1  0.687977  0.996099  0.693371  1
  O  O59  1  0.806906  0.168727  0.388242  1
  O  O60  1  0.693094  0.668727  0.111758  1
  O  O61  1  0.800385  0.789066  0.375700  1
  O  O62  1  0.845648  0.979921  0.334873  1
  O  O63  1  0.812023  0.496099  0.806629  1
  O  O64  1  0.674641  0.133469  0.891971  1
  O  O65  1  0.841598  0.356832  0.615254  1
  O  O66  1  0.900080  0.858385  0.123545  1
  O  O67  1  0.900103  0.322659  0.874306  1
  O  O68  1  0.925033  0.674401  0.851479  1
  O  O69  1  0.886143  0.568820  0.283086  1
  O  O70  1  0.931344  0.111600  0.141405  1
  O  O71  1  0.897959  0.139122  0.671392  1
