# generated using pymatgen
data_MnNb3(PO4)6
_symmetry_space_group_name_H-M   'P 1'
_cell_length_a   8.98471090
_cell_length_b   8.98471090
_cell_length_c   8.98471121
_cell_angle_alpha   58.54981837
_cell_angle_beta   58.54981875
_cell_angle_gamma   58.54982096
_symmetry_Int_Tables_number   1
_chemical_formula_structural   MnNb3(PO4)6
_chemical_formula_sum   'Mn1 Nb3 P6 O24'
_cell_volume   495.84938360
_cell_formula_units_Z   1
loop_
 _symmetry_equiv_pos_site_id
 _symmetry_equiv_pos_as_xyz
  1  'x, y, z'
loop_
 _atom_site_type_symbol
 _atom_site_label
 _atom_site_symmetry_multiplicity
 _atom_site_fract_x
 _atom_site_fract_y
 _atom_site_fract_z
 _atom_site_occupancy
  Mn  Mn0  1  0.856853  0.856853  0.856853  1
  Nb  Nb1  1  0.140561  0.140561  0.140561  1
  Nb  Nb2  1  0.358343  0.358343  0.358343  1
  Nb  Nb3  1  0.639568  0.639568  0.639568  1
  P  P4  1  0.032399  0.750533  0.470802  1
  P  P5  1  0.470802  0.032399  0.750533  1
  P  P6  1  0.750533  0.470802  0.032399  1
  P  P7  1  0.242510  0.540044  0.965317  1
  P  P8  1  0.540044  0.965317  0.242510  1
  P  P9  1  0.965317  0.242510  0.540044  1
  O  O10  1  0.132694  0.284226  0.499766  1
  O  O11  1  0.284226  0.499766  0.132694  1
  O  O12  1  0.062288  0.920091  0.288700  1
  O  O13  1  0.499766  0.132694  0.284226  1
  O  O14  1  0.210294  0.580552  0.433187  1
  O  O15  1  0.012286  0.775887  0.633796  1
  O  O16  1  0.288700  0.062288  0.920091  1
  O  O17  1  0.433187  0.210294  0.580552  1
  O  O18  1  0.580552  0.433187  0.210294  1
  O  O19  1  0.219896  0.364759  0.996600  1
  O  O20  1  0.078080  0.715140  0.941382  1
  O  O21  1  0.364759  0.996600  0.219896  1
  O  O22  1  0.633796  0.012286  0.775887  1
  O  O23  1  0.920091  0.288700  0.062288  1
  O  O24  1  0.775887  0.633796  0.012286  1
  O  O25  1  0.421182  0.560466  0.790319  1
  O  O26  1  0.560466  0.790319  0.421182  1
  O  O27  1  0.715140  0.941382  0.078080  1
  O  O28  1  0.996600  0.219896  0.364759  1
  O  O29  1  0.790319  0.421182  0.560466  1
  O  O30  1  0.497007  0.865004  0.719469  1
  O  O31  1  0.941382  0.078080  0.715140  1
  O  O32  1  0.719469  0.497007  0.865004  1
  O  O33  1  0.865004  0.719469  0.497007  1
