# generated using pymatgen
data_Li3V3P8O29
_symmetry_space_group_name_H-M   'P 1'
_cell_length_a   9.74045559
_cell_length_b   9.79344662
_cell_length_c   14.26219912
_cell_angle_alpha   90.36089321
_cell_angle_beta   90.25264143
_cell_angle_gamma   60.00947040
_symmetry_Int_Tables_number   1
_chemical_formula_structural   Li3V3P8O29
_chemical_formula_sum   'Li6 V6 P16 O58'
_cell_volume   1178.32290452
_cell_formula_units_Z   2
loop_
 _symmetry_equiv_pos_site_id
 _symmetry_equiv_pos_as_xyz
  1  'x, y, z'
loop_
 _atom_site_type_symbol
 _atom_site_label
 _atom_site_symmetry_multiplicity
 _atom_site_fract_x
 _atom_site_fract_y
 _atom_site_fract_z
 _atom_site_occupancy
  Li  Li0  1  0.774514  0.909793  0.553849  1
  Li  Li1  1  0.766460  0.330434  0.056358  1
  Li  Li2  1  0.698731  0.221291  0.441627  1
  Li  Li3  1  0.300336  0.783685  0.551269  1
  Li  Li4  1  0.231126  0.672210  0.947507  1
  Li  Li5  1  0.998518  0.999261  0.007309  1
  V  V6  1  0.565867  0.436372  0.250278  1
  V  V7  1  0.435397  0.564541  0.749059  1
  V  V8  1  0.560513  0.001518  0.760631  1
  V  V9  1  0.434263  0.000077  0.242430  1
  V  V10  1  0.995799  0.564374  0.252251  1
  V  V11  1  0.003734  0.432968  0.746952  1
  P  P12  1  0.920222  0.772842  0.840637  1
  P  P13  1  0.769180  0.913547  0.338651  1
  P  P14  1  0.916861  0.311057  0.347038  1
  P  P15  1  0.667745  0.663057  0.131662  1
  P  P16  1  0.664802  0.670971  0.633941  1
  P  P17  1  0.776971  0.314715  0.838675  1
  P  P18  1  0.679962  0.224721  0.660574  1
  P  P19  1  0.301148  0.915498  0.844503  1
  P  P20  1  0.697011  0.085270  0.156723  1
  P  P21  1  0.318089  0.776030  0.337872  1
  P  P22  1  0.221848  0.684630  0.161385  1
  P  P23  1  0.337045  0.329980  0.365912  1
  P  P24  1  0.330601  0.339522  0.867869  1
  P  P25  1  0.084719  0.686755  0.655901  1
  P  P26  1  0.229468  0.084196  0.660649  1
  P  P27  1  0.079608  0.224408  0.161133  1
  O  O28  1  0.993600  0.770201  0.571185  1
  O  O29  1  0.912017  0.744199  0.333803  1
  O  O30  1  0.801919  0.009293  0.075170  1
  O  O31  1  0.744121  0.908274  0.833870  1
  O  O32  1  0.924702  0.613690  0.829046  1
  O  O33  1  0.811731  0.666698  0.178569  1
  O  O34  1  0.909154  0.471427  0.325123  1
  O  O35  1  0.992492  0.208338  0.079351  1
  O  O36  1  0.916301  0.345837  0.827808  1
  O  O37  1  0.660747  0.819907  0.677821  1
  O  O38  1  0.617023  0.906562  0.318345  1
  O  O39  1  0.814432  0.526586  0.678511  1
  O  O40  1  0.671812  0.650205  0.027851  1
  O  O41  1  0.660187  0.672187  0.530002  1
  O  O42  1  0.674317  0.508512  0.173179  1
  O  O43  1  0.460642  0.918825  0.833269  1
  O  O44  1  0.516809  0.811164  0.172245  1
  O  O45  1  0.742799  0.340053  0.337867  1
  O  O46  1  0.791752  0.206229  0.749400  1
  O  O47  1  0.746102  0.238223  0.570086  1
  O  O48  1  0.780558  0.238787  0.929242  1
  O  O49  1  0.618159  0.473064  0.822679  1
  O  O50  1  0.515056  0.666569  0.675737  1
  O  O51  1  0.655900  0.261944  0.163553  1
  O  O52  1  0.479718  0.622110  0.317093  1
  O  O53  1  0.343780  0.918351  0.328254  1
  O  O54  1  0.790577  0.009816  0.254723  1
  O  O55  1  0.757641  0.998187  0.429012  1
  O  O56  1  0.240653  0.994532  0.574707  1
  O  O57  1  0.658975  0.078424  0.666417  1
  O  O58  1  0.518863  0.378298  0.682646  1
  O  O59  1  0.341500  0.739524  0.835005  1
  O  O60  1  0.486763  0.335140  0.324300  1
  O  O61  1  0.381372  0.527966  0.175789  1
  O  O62  1  0.214109  0.764807  0.071436  1
  O  O63  1  0.250737  0.761899  0.427578  1
  O  O64  1  0.204835  0.794016  0.250245  1
  O  O65  1  0.256557  0.660579  0.658374  1
  O  O66  1  0.483683  0.189688  0.826959  1
  O  O67  1  0.542129  0.076902  0.164997  1
  O  O68  1  0.325474  0.492717  0.826068  1
  O  O69  1  0.329557  0.349665  0.971620  1
  O  O70  1  0.348136  0.324893  0.469539  1
  O  O71  1  0.186231  0.473021  0.322398  1
  O  O72  1  0.383528  0.089876  0.682966  1
  O  O73  1  0.346496  0.181682  0.316584  1
  O  O74  1  0.084149  0.650942  0.171556  1
  O  O75  1  0.002038  0.793436  0.747634  1
  O  O76  1  0.004654  0.789325  0.923341  1
  O  O77  1  0.092748  0.526499  0.673997  1
  O  O78  1  0.188685  0.333014  0.821435  1
  O  O79  1  0.075090  0.384252  0.170507  1
  O  O80  1  0.255733  0.089774  0.164619  1
  O  O81  1  0.206464  0.988342  0.929739  1
  O  O82  1  0.203910  0.998597  0.750547  1
  O  O83  1  0.089255  0.256026  0.666257  1
  O  O84  1  0.995020  0.235112  0.435342  1
  O  O85  1  0.003171  0.202964  0.255858  1
