# generated using pymatgen
data_Li3Cr2(PO4)3
_symmetry_space_group_name_H-M   'P 1'
_cell_length_a   9.07739427
_cell_length_b   9.08252382
_cell_length_c   15.02407458
_cell_angle_alpha   81.51660626
_cell_angle_beta   82.01800068
_cell_angle_gamma   121.85816185
_symmetry_Int_Tables_number   1
_chemical_formula_structural   Li3Cr2(PO4)3
_chemical_formula_sum   'Li12 Cr8 P12 O48'
_cell_volume   1005.33680414
_cell_formula_units_Z   4
loop_
 _symmetry_equiv_pos_site_id
 _symmetry_equiv_pos_as_xyz
  1  'x, y, z'
loop_
 _atom_site_type_symbol
 _atom_site_label
 _atom_site_symmetry_multiplicity
 _atom_site_fract_x
 _atom_site_fract_y
 _atom_site_fract_z
 _atom_site_occupancy
  Li  Li0  1  0.179328  0.749922  0.347586  1
  Li  Li1  1  0.972507  0.252761  0.941854  1
  Li  Li2  1  0.102063  0.354260  0.250707  1
  Li  Li3  1  0.692275  0.914564  0.556951  1
  Li  Li4  1  0.597098  0.523792  0.150679  1
  Li  Li5  1  0.500111  0.495203  0.499466  1
  Li  Li6  1  0.397444  0.471967  0.848730  1
  Li  Li7  1  0.307735  0.087753  0.442268  1
  Li  Li8  1  0.898014  0.653272  0.751559  1
  Li  Li9  1  0.027994  0.747986  0.058390  1
  Li  Li10  1  0.826926  0.255629  0.650919  1
  Li  Li11  1  0.496103  0.002958  0.998879  1
  Cr  Cr12  1  0.259648  0.715834  0.529404  1
  Cr  Cr13  1  0.328287  0.808545  0.834610  1
  Cr  Cr14  1  0.145445  0.164579  0.664795  1
  Cr  Cr15  1  0.746278  0.791564  0.969753  1
  Cr  Cr16  1  0.252048  0.209005  0.031099  1
  Cr  Cr17  1  0.854773  0.834040  0.335624  1
  Cr  Cr18  1  0.668905  0.189934  0.164886  1
  Cr  Cr19  1  0.740476  0.283142  0.469311  1
  P  P20  1  0.604438  0.961875  0.372118  1
  P  P21  1  0.280795  0.563548  0.688485  1
  P  P22  1  0.311173  0.594098  0.029451  1
  P  P23  1  0.124999  0.341853  0.470152  1
  P  P24  1  0.755101  0.972922  0.809877  1
  P  P25  1  0.833223  0.975349  0.127529  1
  P  P26  1  0.164157  0.021940  0.873451  1
  P  P27  1  0.245880  0.028460  0.190352  1
  P  P28  1  0.875049  0.656970  0.529788  1
  P  P29  1  0.687581  0.406007  0.970757  1
  P  P30  1  0.717974  0.434609  0.310610  1
  P  P31  1  0.396207  0.037222  0.626234  1
  O  O32  1  0.111387  0.909122  0.287737  1
  O  O33  1  0.175542  0.953357  0.106777  1
  O  O34  1  0.322520  0.001953  0.873720  1
  O  O35  1  0.304025  0.946000  0.552460  1
  O  O36  1  0.059904  0.694964  0.479667  1
  O  O37  1  0.297398  0.887386  0.717154  1
  O  O38  1  0.399991  0.880554  0.397724  1
  O  O39  1  0.113162  0.543646  0.660956  1
  O  O40  1  0.230777  0.678387  0.969703  1
  O  O41  1  0.587551  0.972613  0.801654  1
  O  O42  1  0.200363  0.510251  0.129394  1
  O  O43  1  0.300536  0.599076  0.786380  1
  O  O44  1  0.273871  0.526164  0.482045  1
  O  O45  1  0.439673  0.718799  0.605537  1
  O  O46  1  0.507612  0.755213  0.016908  1
  O  O47  1  0.623859  0.803330  0.373098  1
  O  O48  1  0.142646  0.329414  0.370526  1
  O  O49  1  0.998308  0.140380  0.053024  1
  O  O50  1  0.281374  0.392831  0.694731  1
  O  O51  1  0.322780  0.458295  0.980264  1
  O  O52  1  0.895865  0.981273  0.217180  1
  O  O53  1  0.148463  0.201680  0.530618  1
  O  O54  1  0.775014  0.795761  0.102388  1
  O  O55  1  0.713615  0.779979  0.836870  1
  O  O56  1  0.293458  0.223662  0.162681  1
  O  O57  1  0.218977  0.200267  0.899210  1
  O  O58  1  0.848977  0.796491  0.470737  1
  O  O59  1  0.104556  0.016487  0.782903  1
  O  O60  1  0.675258  0.541867  0.019279  1
  O  O61  1  0.718391  0.605501  0.305654  1
  O  O62  1  0.999051  0.855352  0.947138  1
  O  O63  1  0.858934  0.666686  0.629907  1
  O  O64  1  0.376888  0.196092  0.624993  1
  O  O65  1  0.490520  0.244969  0.983673  1
  O  O66  1  0.559951  0.279398  0.394086  1
  O  O67  1  0.726555  0.472816  0.517090  1
  O  O68  1  0.695197  0.398664  0.213198  1
  O  O69  1  0.799526  0.488479  0.871040  1
  O  O70  1  0.410207  0.022099  0.197967  1
  O  O71  1  0.766627  0.320613  0.030687  1
  O  O72  1  0.886046  0.453327  0.336966  1
  O  O73  1  0.600487  0.117284  0.601158  1
  O  O74  1  0.701052  0.111949  0.281513  1
  O  O75  1  0.940668  0.306207  0.518798  1
  O  O76  1  0.698558  0.054586  0.445071  1
  O  O77  1  0.676436  0.997332  0.127091  1
  O  O78  1  0.822331  0.048109  0.893928  1
  O  O79  1  0.890656  0.094853  0.713019  1
