# generated using pymatgen
data_K6YO4
_symmetry_space_group_name_H-M   'P 1'
_cell_length_a   9.39544270
_cell_length_b   9.39509039
_cell_length_c   6.71466104
_cell_angle_alpha   90.00169315
_cell_angle_beta   89.99862829
_cell_angle_gamma   120.00085145
_symmetry_Int_Tables_number   1
_chemical_formula_structural   K6YO4
_chemical_formula_sum   'K12 Y2 O8'
_cell_volume   513.29757273
_cell_formula_units_Z   2
loop_
 _symmetry_equiv_pos_site_id
 _symmetry_equiv_pos_as_xyz
  1  'x, y, z'
loop_
 _atom_site_type_symbol
 _atom_site_label
 _atom_site_symmetry_multiplicity
 _atom_site_fract_x
 _atom_site_fract_y
 _atom_site_fract_z
 _atom_site_occupancy
  K  K0  1  0.132235  0.867791  0.995103  1
  K  K1  1  0.083866  0.541913  0.313746  1
  K  K2  1  0.458051  0.916122  0.313723  1
  K  K3  1  0.132221  0.264453  0.995112  1
  K  K4  1  0.458074  0.541939  0.313728  1
  K  K5  1  0.264445  0.132214  0.495141  1
  K  K6  1  0.735553  0.867774  0.995103  1
  K  K7  1  0.541934  0.458044  0.813727  1
  K  K8  1  0.541940  0.083852  0.813716  1
  K  K9  1  0.867771  0.735554  0.495124  1
  K  K10  1  0.916139  0.458070  0.813742  1
  K  K11  1  0.867758  0.132225  0.495148  1
  Y  Y12  1  0.333344  0.666666  0.730822  1
  Y  Y13  1  0.666667  0.333314  0.230825  1
  O  O14  1  0.209486  0.790560  0.611697  1
  O  O15  1  0.333335  0.666634  0.053652  1
  O  O16  1  0.209486  0.418920  0.611689  1
  O  O17  1  0.581108  0.790584  0.611703  1
  O  O18  1  0.418899  0.209358  0.111706  1
  O  O19  1  0.790463  0.581069  0.111701  1
  O  O20  1  0.666695  0.333311  0.553646  1
  O  O21  1  0.790588  0.209495  0.111665  1
