# generated using pymatgen
data_YNb2NO5
_symmetry_space_group_name_H-M   'P 1'
_cell_length_a   14.99668636
_cell_length_b   5.92416288
_cell_length_c   5.28343091
_cell_angle_alpha   90.19558980
_cell_angle_beta   89.77930972
_cell_angle_gamma   90.17855123
_symmetry_Int_Tables_number   1
_chemical_formula_structural   YNb2NO5
_chemical_formula_sum   'Y4 Nb8 N4 O20'
_cell_volume   469.38638585
_cell_formula_units_Z   4
loop_
 _symmetry_equiv_pos_site_id
 _symmetry_equiv_pos_as_xyz
  1  'x, y, z'
loop_
 _atom_site_type_symbol
 _atom_site_label
 _atom_site_symmetry_multiplicity
 _atom_site_fract_x
 _atom_site_fract_y
 _atom_site_fract_z
 _atom_site_occupancy
  Y  Y0  1  0.002008  0.300411  0.252613  1
  Y  Y1  1  0.000274  0.704674  0.754171  1
  Y  Y2  1  0.498375  0.204360  0.754969  1
  Y  Y3  1  0.501431  0.790061  0.249970  1
  Nb  Nb4  1  0.168570  0.171902  0.725710  1
  Nb  Nb5  1  0.172290  0.819349  0.219519  1
  Nb  Nb6  1  0.338813  0.327907  0.217775  1
  Nb  Nb7  1  0.331533  0.686769  0.742384  1
  Nb  Nb8  1  0.665710  0.321930  0.269156  1
  Nb  Nb9  1  0.672960  0.693018  0.770138  1
  Nb  Nb10  1  0.831593  0.175093  0.764062  1
  Nb  Nb11  1  0.835712  0.810199  0.285014  1
  N  N12  1  0.244691  0.878704  0.905673  1
  N  N13  1  0.400417  0.573650  0.031956  1
  N  N14  1  0.756422  0.879101  0.604152  1
  N  N15  1  0.918169  0.610346  0.398662  1
  O  O16  1  0.085886  0.610270  0.101749  1
  O  O17  1  0.083176  0.384135  0.609760  1
  O  O18  1  0.095929  0.081059  0.028667  1
  O  O19  1  0.097443  0.916249  0.529893  1
  O  O20  1  0.239997  0.131607  0.398082  1
  O  O21  1  0.254492  0.627921  0.405603  1
  O  O22  1  0.253248  0.368140  0.899891  1
  O  O23  1  0.399438  0.403986  0.531006  1
  O  O24  1  0.418376  0.102246  0.104369  1
  O  O25  1  0.418497  0.885870  0.599616  1
  O  O26  1  0.581973  0.114227  0.399103  1
  O  O27  1  0.582726  0.890711  0.898973  1
  O  O28  1  0.596003  0.413023  0.977235  1
  O  O29  1  0.599699  0.583807  0.470457  1
  O  O30  1  0.742578  0.374467  0.598652  1
  O  O31  1  0.741796  0.627124  0.095366  1
  O  O32  1  0.752620  0.145983  0.088292  1
  O  O33  1  0.901149  0.092975  0.460172  1
  O  O34  1  0.898592  0.919117  0.962206  1
  O  O35  1  0.917412  0.379609  0.894982  1
