# generated using pymatgen
data_Fe3OF5
_symmetry_space_group_name_H-M   'P 1'
_cell_length_a   10.75673241
_cell_length_b   6.86493890
_cell_length_c   3.18054245
_cell_angle_alpha   90.00000000
_cell_angle_beta   90.00000000
_cell_angle_gamma   71.46169725
_symmetry_Int_Tables_number   1
_chemical_formula_structural   Fe3OF5
_chemical_formula_sum   'Fe6 O2 F10'
_cell_volume   222.67813277
_cell_formula_units_Z   2
loop_
 _symmetry_equiv_pos_site_id
 _symmetry_equiv_pos_as_xyz
  1  'x, y, z'
loop_
 _atom_site_type_symbol
 _atom_site_label
 _atom_site_symmetry_multiplicity
 _atom_site_fract_x
 _atom_site_fract_y
 _atom_site_fract_z
 _atom_site_occupancy
  Fe  Fe0  1  0.000000  0.000000  0.000000  1
  Fe  Fe1  1  0.000000  0.500000  0.500000  1
  Fe  Fe2  1  0.308522  0.345935  0.000000  1
  Fe  Fe3  1  0.660193  0.169734  0.500000  1
  Fe  Fe4  1  0.339807  0.830266  0.500000  1
  Fe  Fe5  1  0.691478  0.654065  0.000000  1
  O  O6  1  0.204363  0.397607  0.500000  1
  O  O7  1  0.795637  0.602393  0.500000  1
  F  F8  1  0.000250  0.294671  0.000000  1
  F  F9  1  0.340525  0.037077  0.000000  1
  F  F10  1  0.999750  0.705329  0.000000  1
  F  F11  1  0.458260  0.271077  0.500000  1
  F  F12  1  0.139149  0.930587  0.500000  1
  F  F13  1  0.340748  0.622538  0.000000  1
  F  F14  1  0.659252  0.377462  0.000000  1
  F  F15  1  0.860851  0.069414  0.500000  1
  F  F16  1  0.541740  0.728923  0.500000  1
  F  F17  1  0.659475  0.962923  0.000000  1
