# generated using pymatgen
data_LiVFeP2(HO5)2
_symmetry_space_group_name_H-M   'P 1'
_cell_length_a   5.30089279
_cell_length_b   7.44129749
_cell_length_c   5.21653502
_cell_angle_alpha   109.97125380
_cell_angle_beta   97.90830040
_cell_angle_gamma   105.80436047
_symmetry_Int_Tables_number   1
_chemical_formula_structural   LiVFeP2(HO5)2
_chemical_formula_sum   'Li1 V1 Fe1 P2 H2 O10'
_cell_volume   179.93199104
_cell_formula_units_Z   1
loop_
 _symmetry_equiv_pos_site_id
 _symmetry_equiv_pos_as_xyz
  1  'x, y, z'
loop_
 _atom_site_type_symbol
 _atom_site_label
 _atom_site_symmetry_multiplicity
 _atom_site_fract_x
 _atom_site_fract_y
 _atom_site_fract_z
 _atom_site_occupancy
  Li  Li0  1  0.590637  0.154859  0.225817  1
  V  V1  1  0.002741  0.504243  0.001263  1
  Fe  Fe2  1  0.994343  0.995766  0.995656  1
  P  P3  1  0.356077  0.229434  0.682305  1
  P  P4  1  0.644324  0.774099  0.323501  1
  H  H5  1  0.060416  0.348631  0.354261  1
  H  H6  1  0.964450  0.657197  0.648343  1
  O  O7  1  0.028379  0.714589  0.856385  1
  O  O8  1  0.191717  0.378560  0.727975  1
  O  O9  1  0.341761  0.650243  0.278908  1
  O  O10  1  0.250408  0.074748  0.372283  1
  O  O11  1  0.335500  0.130208  0.897148  1
  O  O12  1  0.668858  0.891369  0.129642  1
  O  O13  1  0.760003  0.926220  0.630920  1
  O  O14  1  0.658649  0.343425  0.708024  1
  O  O15  1  0.802148  0.619927  0.264164  1
  O  O16  1  0.951457  0.283943  0.155176  1
