# generated using pymatgen
data_CaScSi3HO9
_symmetry_space_group_name_H-M   'P 1'
_cell_length_a   7.57107472
_cell_length_b   6.85178565
_cell_length_c   7.13623947
_cell_angle_alpha   87.86864345
_cell_angle_beta   104.38620687
_cell_angle_gamma   86.58455434
_symmetry_Int_Tables_number   1
_chemical_formula_structural   CaScSi3HO9
_chemical_formula_sum   'Ca2 Sc2 Si6 H2 O18'
_cell_volume   357.43216150
_cell_formula_units_Z   2
loop_
 _symmetry_equiv_pos_site_id
 _symmetry_equiv_pos_as_xyz
  1  'x, y, z'
loop_
 _atom_site_type_symbol
 _atom_site_label
 _atom_site_symmetry_multiplicity
 _atom_site_fract_x
 _atom_site_fract_y
 _atom_site_fract_z
 _atom_site_occupancy
  Ca  Ca0  1  0.332988  0.345154  0.087929  1
  Ca  Ca1  1  0.667012  0.654846  0.912071  1
  Sc  Sc2  1  0.357515  0.352595  0.594224  1
  Sc  Sc3  1  0.642485  0.647405  0.405776  1
  Si  Si4  1  0.743436  0.175026  0.910167  1
  Si  Si5  1  0.256564  0.824974  0.089833  1
  Si  Si6  1  0.723353  0.142605  0.476088  1
  Si  Si7  1  0.276647  0.857395  0.523912  1
  Si  Si8  1  0.955724  0.368280  0.259885  1
  Si  Si9  1  0.044276  0.631720  0.740115  1
  H  H10  1  0.693706  0.966927  0.156789  1
  H  H11  1  0.306294  0.033073  0.843211  1
  O  O12  1  0.435170  0.667496  0.125944  1
  O  O13  1  0.564830  0.332504  0.874056  1
  O  O14  1  0.436374  0.671831  0.580057  1
  O  O15  1  0.563626  0.328169  0.419943  1
  O  O16  1  0.182512  0.436253  0.759371  1
  O  O17  1  0.817488  0.563747  0.240629  1
  O  O18  1  0.711121  0.969165  0.020679  1
  O  O19  1  0.288879  0.030835  0.979321  1
  O  O20  1  0.651777  0.945397  0.369688  1
  O  O21  1  0.348223  0.054603  0.630312  1
  O  O22  1  0.173431  0.396933  0.326185  1
  O  O23  1  0.826569  0.603067  0.673815  1
  O  O24  1  0.787407  0.103344  0.711604  1
  O  O25  1  0.212593  0.896656  0.288396  1
  O  O26  1  0.902742  0.204165  0.405049  1
  O  O27  1  0.097258  0.795835  0.594951  1
  O  O28  1  0.919541  0.282217  0.038749  1
  O  O29  1  0.080459  0.717783  0.961251  1
