# generated using pymatgen
data_Li6Mn5Fe(BO3)6
_symmetry_space_group_name_H-M   'P 1'
_cell_length_a   8.27969220
_cell_length_b   14.31593546
_cell_length_c   3.18330650
_cell_angle_alpha   90.00000000
_cell_angle_beta   90.00000000
_cell_angle_gamma   89.96302940
_symmetry_Int_Tables_number   1
_chemical_formula_structural   Li6Mn5Fe(BO3)6
_chemical_formula_sum   'Li6 Mn5 Fe1 B6 O18'
_cell_volume   377.32214058
_cell_formula_units_Z   1
loop_
 _symmetry_equiv_pos_site_id
 _symmetry_equiv_pos_as_xyz
  1  'x, y, z'
loop_
 _atom_site_type_symbol
 _atom_site_label
 _atom_site_symmetry_multiplicity
 _atom_site_fract_x
 _atom_site_fract_y
 _atom_site_fract_z
 _atom_site_occupancy
  Li  Li0  1  0.292517  0.991196  0.500000  1
  Li  Li1  1  0.339279  0.358495  0.500000  1
  Li  Li2  1  0.365304  0.650236  0.500000  1
  Li  Li3  1  0.792835  0.491269  0.500000  1
  Li  Li4  1  0.841044  0.857723  0.500000  1
  Li  Li5  1  0.867053  0.150931  0.500000  1
  Mn  Mn6  1  0.173671  0.813972  0.000000  1
  Mn  Mn7  1  0.191375  0.179864  0.000000  1
  Mn  Mn8  1  0.634718  0.005821  0.000000  1
  Mn  Mn9  1  0.674262  0.314093  0.000000  1
  Mn  Mn10  1  0.692087  0.679882  0.000000  1
  Fe  Fe11  1  0.137853  0.504037  0.000000  1
  B  B12  1  0.000683  0.665174  0.500000  1
  B  B13  1  0.000007  -0.000029  0.000000  1
  B  B14  1  0.001100  0.334523  0.500000  1
  B  B15  1  0.499808  0.166861  0.500000  1
  B  B16  1  0.498979  0.500692  0.000000  1
  B  B17  1  0.499891  0.833312  0.500000  1
  O  O18  1  0.013054  0.431402  0.500000  1
  O  O19  1  0.015242  0.762345  0.500000  1
  O  O20  1  0.137255  0.608697  0.500000  1
  O  O21  1  0.139869  0.279984  0.500000  1
  O  O22  1  0.154325  0.960872  0.000000  1
  O  O23  1  0.347761  0.125427  0.500000  1
  O  O24  1  0.349742  0.790145  0.500000  1
  O  O25  1  0.361040  0.444012  0.000000  1
  O  O26  1  0.481524  0.597271  0.000000  1
  O  O27  1  0.510302  0.930202  0.500000  1
  O  O28  1  0.513910  0.263884  0.500000  1
  O  O29  1  0.638171  0.111499  0.500000  1
  O  O30  1  0.639837  0.779833  0.500000  1
  O  O31  1  0.652245  0.460520  0.000000  1
  O  O32  1  0.847234  0.625001  0.500000  1
  O  O33  1  0.850367  0.291702  0.500000  1
  O  O34  1  0.864277  0.942268  0.000000  1
  O  O35  1  0.981375  0.096885  0.000000  1
