# generated using pymatgen
data_Ti3Fe2Sb(PO4)6
_symmetry_space_group_name_H-M   'P 1'
_cell_length_a   8.65679934
_cell_length_b   8.65679953
_cell_length_c   8.65679889
_cell_angle_alpha   61.21341822
_cell_angle_beta   61.21341488
_cell_angle_gamma   61.21341916
_symmetry_Int_Tables_number   1
_chemical_formula_structural   Ti3Fe2Sb(PO4)6
_chemical_formula_sum   'Ti3 Fe2 Sb1 P6 O24'
_cell_volume   471.24969950
_cell_formula_units_Z   1
loop_
 _symmetry_equiv_pos_site_id
 _symmetry_equiv_pos_as_xyz
  1  'x, y, z'
loop_
 _atom_site_type_symbol
 _atom_site_label
 _atom_site_symmetry_multiplicity
 _atom_site_fract_x
 _atom_site_fract_y
 _atom_site_fract_z
 _atom_site_occupancy
  Ti  Ti0  1  0.144631  0.144631  0.144631  1
  Ti  Ti1  1  0.353795  0.353795  0.353795  1
  Ti  Ti2  1  0.646010  0.646010  0.646010  1
  Fe  Fe3  1  -0.000005  -0.000005  -0.000005  1
  Fe  Fe4  1  0.498888  0.498888  0.498888  1
  Sb  Sb5  1  0.853699  0.853699  0.853699  1
  P  P6  1  0.052850  0.749275  0.443249  1
  P  P7  1  0.443249  0.052850  0.749275  1
  P  P8  1  0.260938  0.535447  0.956162  1
  P  P9  1  0.535447  0.956162  0.260938  1
  P  P10  1  0.956162  0.260938  0.535447  1
  P  P11  1  0.749275  0.443249  0.052850  1
  O  O12  1  0.110344  0.338951  0.475989  1
  O  O13  1  0.338951  0.475989  0.110344  1
  O  O14  1  0.062373  0.907625  0.251387  1
  O  O15  1  0.475989  0.110344  0.338951  1
  O  O16  1  0.035321  0.813391  0.588406  1
  O  O17  1  0.243690  0.587436  0.423204  1
  O  O18  1  0.251387  0.062373  0.907625  1
  O  O19  1  0.423204  0.243690  0.587436  1
  O  O20  1  0.186751  0.383185  0.998833  1
  O  O21  1  0.587436  0.423204  0.243690  1
  O  O22  1  0.110357  0.729113  0.954535  1
  O  O23  1  0.383185  0.998833  0.186751  1
  O  O24  1  0.588406  0.035321  0.813391  1
  O  O25  1  0.907625  0.251387  0.062373  1
  O  O26  1  0.417155  0.549623  0.761715  1
  O  O27  1  0.813391  0.588406  0.035321  1
  O  O28  1  0.549623  0.761715  0.417155  1
  O  O29  1  0.729113  0.954535  0.110357  1
  O  O30  1  0.761715  0.417155  0.549623  1
  O  O31  1  0.998833  0.186751  0.383185  1
  O  O32  1  0.502038  0.883579  0.690061  1
  O  O33  1  0.954535  0.110357  0.729113  1
  O  O34  1  0.690061  0.502038  0.883579  1
  O  O35  1  0.883579  0.690061  0.502038  1
