# generated using pymatgen
data_Na5Fe2P2(CO7)2
_symmetry_space_group_name_H-M   'P 1'
_cell_length_a   10.39229914
_cell_length_b   8.45050766
_cell_length_c   8.52317997
_cell_angle_alpha   76.19270015
_cell_angle_beta   71.06942744
_cell_angle_gamma   107.28263579
_symmetry_Int_Tables_number   1
_chemical_formula_structural   Na5Fe2P2(CO7)2
_chemical_formula_sum   'Na10 Fe4 P4 C4 O28'
_cell_volume   627.82286322
_cell_formula_units_Z   2
loop_
 _symmetry_equiv_pos_site_id
 _symmetry_equiv_pos_as_xyz
  1  'x, y, z'
loop_
 _atom_site_type_symbol
 _atom_site_label
 _atom_site_symmetry_multiplicity
 _atom_site_fract_x
 _atom_site_fract_y
 _atom_site_fract_z
 _atom_site_occupancy
  Na  Na0  1  0.913464  0.692752  0.564442  1
  Na  Na1  1  0.924001  0.229973  0.045809  1
  Na  Na2  1  0.736822  0.994632  0.500331  1
  Na  Na3  1  0.740660  0.740085  0.258333  1
  Na  Na4  1  0.732394  0.252888  0.762490  1
  Na  Na5  1  0.267606  0.747112  0.237510  1
  Na  Na6  1  0.259339  0.259915  0.741667  1
  Na  Na7  1  0.263178  0.005368  0.499669  1
  Na  Na8  1  0.086536  0.307248  0.435558  1
  Na  Na9  1  0.075999  0.770027  0.954191  1
  Fe  Fe10  1  0.652074  0.311078  0.431554  1
  Fe  Fe11  1  0.646367  0.797362  0.945553  1
  Fe  Fe12  1  0.353633  0.202638  0.054447  1
  Fe  Fe13  1  0.347926  0.688922  0.568446  1
  P  P14  1  0.584337  0.564454  0.688888  1
  P  P15  1  0.577355  0.055490  0.186102  1
  P  P16  1  0.415663  0.435546  0.311112  1
  P  P17  1  0.422645  0.944510  0.813898  1
  C  C18  1  0.939689  0.481149  0.276874  1
  C  C19  1  0.933513  0.979984  0.772611  1
  C  C20  1  0.066487  0.020016  0.227389  1
  C  C21  1  0.060311  0.518851  0.723126  1
  O  O22  1  0.924353  0.937094  0.311288  1
  O  O23  1  0.918840  0.433722  0.794896  1
  O  O24  1  0.875227  0.326148  0.410520  1
  O  O25  1  0.869808  0.838984  0.919068  1
  O  O26  1  0.855282  0.541270  0.218549  1
  O  O27  1  0.843406  0.029249  0.715651  1
  O  O28  1  0.673473  0.975959  0.072638  1
  O  O29  1  0.674604  0.679667  0.767345  1
  O  O30  1  0.686603  0.487819  0.586037  1
  O  O31  1  0.677175  0.158887  0.259960  1
  O  O32  1  0.565937  0.586664  0.164232  1
  O  O33  1  0.570795  0.091916  0.663979  1
  O  O34  1  0.538657  0.181588  0.058074  1
  O  O35  1  0.552183  0.690076  0.556040  1
  O  O36  1  0.461343  0.818412  0.941926  1
  O  O37  1  0.447817  0.309924  0.443960  1
  O  O38  1  0.429205  0.908084  0.336021  1
  O  O39  1  0.434063  0.413336  0.835768  1
  O  O40  1  0.322825  0.841113  0.740040  1
  O  O41  1  0.313397  0.512181  0.413963  1
  O  O42  1  0.325396  0.320333  0.232655  1
  O  O43  1  0.326527  0.024041  0.927362  1
  O  O44  1  0.156594  0.970751  0.284349  1
  O  O45  1  0.144718  0.458730  0.781451  1
  O  O46  1  0.130192  0.161016  0.080932  1
  O  O47  1  0.124773  0.673852  0.589480  1
  O  O48  1  0.081159  0.566278  0.205104  1
  O  O49  1  0.075647  0.062906  0.688712  1
