# generated using pymatgen
data_Li9V5(SiO8)2
_symmetry_space_group_name_H-M   'P 1'
_cell_length_a   5.11518558
_cell_length_b   11.31757526
_cell_length_c   5.10471759
_cell_angle_alpha   94.68319198
_cell_angle_beta   80.34114683
_cell_angle_gamma   99.09918787
_symmetry_Int_Tables_number   1
_chemical_formula_structural   Li9V5(SiO8)2
_chemical_formula_sum   'Li9 V5 Si2 O16'
_cell_volume   287.20300419
_cell_formula_units_Z   1
loop_
 _symmetry_equiv_pos_site_id
 _symmetry_equiv_pos_as_xyz
  1  'x, y, z'
loop_
 _atom_site_type_symbol
 _atom_site_label
 _atom_site_symmetry_multiplicity
 _atom_site_fract_x
 _atom_site_fract_y
 _atom_site_fract_z
 _atom_site_occupancy
  Li  Li0  1  0.010254  0.997011  0.002854  1
  Li  Li1  1  0.121309  0.113951  0.508798  1
  Li  Li2  1  0.253180  0.245120  0.002631  1
  Li  Li3  1  0.373153  0.378267  0.497093  1
  Li  Li4  1  0.501847  0.496733  0.002907  1
  Li  Li5  1  0.621820  0.629880  0.497369  1
  Li  Li6  1  0.753691  0.761049  0.991202  1
  Li  Li7  1  0.864746  0.877989  0.497146  1
  Li  Li8  1  0.437500  0.937500  0.250000  1
  V  V9  1  0.675790  0.174887  0.252623  1
  V  V10  1  0.806936  0.305229  0.748512  1
  V  V11  1  0.937500  0.437500  0.250000  1
  V  V12  1  0.068064  0.569771  0.751488  1
  V  V13  1  0.199210  0.700113  0.247377  1
  Si  Si14  1  0.557262  0.053488  0.753655  1
  Si  Si15  1  0.317738  0.821512  0.746345  1
  O  O16  1  0.375081  0.089123  0.085145  1
  O  O17  1  0.753979  0.036145  0.420005  1
  O  O18  1  0.011468  0.281454  0.376609  1
  O  O19  1  0.857470  0.137798  0.866745  1
  O  O20  1  0.478158  0.196135  0.641501  1
  O  O21  1  0.136288  0.404699  0.877303  1
  O  O22  1  0.605958  0.334319  0.120110  1
  O  O23  1  0.738712  0.470301  0.622697  1
  O  O24  1  0.269042  0.540681  0.379890  1
  O  O25  1  0.396842  0.678865  0.858499  1
  O  O26  1  0.863532  0.593546  0.123391  1
  O  O27  1  0.499919  0.785877  0.414855  1
  O  O28  1  0.121021  0.838855  0.079995  1
  O  O29  1  0.017530  0.737202  0.633255  1
  O  O30  1  0.258812  0.964786  0.651045  1
  O  O31  1  0.616188  0.910214  0.848955  1
