# generated using pymatgen
data_Li3V2(O2F)2
_symmetry_space_group_name_H-M   'P 1'
_cell_length_a   5.93486320
_cell_length_b   7.89195892
_cell_length_c   7.37887315
_cell_angle_alpha   89.10242065
_cell_angle_beta   90.37673552
_cell_angle_gamma   79.62204072
_symmetry_Int_Tables_number   1
_chemical_formula_structural   Li3V2(O2F)2
_chemical_formula_sum   'Li9 V6 O12 F6'
_cell_volume   339.89831211
_cell_formula_units_Z   3
loop_
 _symmetry_equiv_pos_site_id
 _symmetry_equiv_pos_as_xyz
  1  'x, y, z'
loop_
 _atom_site_type_symbol
 _atom_site_label
 _atom_site_symmetry_multiplicity
 _atom_site_fract_x
 _atom_site_fract_y
 _atom_site_fract_z
 _atom_site_occupancy
  Li  Li0  1  0.085521  0.573179  0.641654  1
  Li  Li1  1  0.048582  0.801272  0.358178  1
  Li  Li2  1  0.448365  0.209344  0.631381  1
  Li  Li3  1  0.276850  0.897061  0.629109  1
  Li  Li4  1  0.389134  0.447493  0.374113  1
  Li  Li5  1  0.573262  0.775716  0.400379  1
  Li  Li6  1  0.722574  0.092153  0.366149  1
  Li  Li7  1  0.950400  0.212150  0.629969  1
  Li  Li8  1  0.889737  0.436503  0.356231  1
  V  V9  1  0.991336  0.002669  0.000049  1
  V  V10  1  0.166441  0.327861  0.005337  1
  V  V11  1  0.493453  0.002451  0.005471  1
  V  V12  1  0.342106  0.662846  0.002610  1
  V  V13  1  0.665128  0.338596  0.990589  1
  V  V14  1  0.834747  0.671680  0.989850  1
  O  O15  1  0.119020  0.537740  0.139346  1
  O  O16  1  0.210255  0.127375  0.852545  1
  O  O17  1  0.048598  0.765630  0.855976  1
  O  O18  1  0.268641  0.882897  0.137412  1
  O  O19  1  0.448679  0.227569  0.141869  1
  O  O20  1  0.393242  0.436785  0.860436  1
  O  O21  1  0.637336  0.552123  0.142423  1
  O  O22  1  0.713913  0.123587  0.857068  1
  O  O23  1  0.554919  0.781629  0.864066  1
  O  O24  1  0.928091  0.232954  0.141555  1
  O  O25  1  0.781778  0.883052  0.146620  1
  O  O26  1  0.892773  0.446414  0.856859  1
  F  F27  1  0.001356  0.002096  0.501645  1
  F  F28  1  0.166198  0.350629  0.518854  1
  F  F29  1  0.318098  0.677344  0.489852  1
  F  F30  1  0.499946  0.996711  0.503523  1
  F  F31  1  0.670117  0.314052  0.484201  1
  F  F32  1  0.858292  0.654882  0.465393  1
