# generated using pymatgen
data_FeH20S2(NO7)2
_symmetry_space_group_name_H-M   'P 1'
_cell_length_a   6.38034544
_cell_length_b   9.34703078
_cell_length_c   12.57118238
_cell_angle_alpha   90.00000000
_cell_angle_beta   90.00000000
_cell_angle_gamma   106.62227622
_symmetry_Int_Tables_number   1
_chemical_formula_structural   FeH20S2(NO7)2
_chemical_formula_sum   'Fe2 H40 S4 N4 O28'
_cell_volume   718.38182926
_cell_formula_units_Z   2
loop_
 _symmetry_equiv_pos_site_id
 _symmetry_equiv_pos_as_xyz
  1  'x, y, z'
loop_
 _atom_site_type_symbol
 _atom_site_label
 _atom_site_symmetry_multiplicity
 _atom_site_fract_x
 _atom_site_fract_y
 _atom_site_fract_z
 _atom_site_occupancy
  Fe  Fe0  1  0.000000  0.000000  0.000000  1
  Fe  Fe1  1  0.000000  0.500000  0.500000  1
  S  S2  1  0.740954  0.408434  0.135138  1
  S  S3  1  0.259046  0.091566  0.635138  1
  S  S4  1  0.259046  0.591566  0.864862  1
  S  S5  1  0.740954  0.908434  0.364862  1
  O  O6  1  0.591621  0.408359  0.227727  1
  O  O7  1  0.408379  0.091641  0.727727  1
  O  O8  1  0.408379  0.591641  0.772273  1
  O  O9  1  0.591621  0.908359  0.272273  1
  O  O10  1  0.783154  0.550587  0.076445  1
  O  O11  1  0.216846  0.949413  0.576445  1
  O  O12  1  0.216846  0.449413  0.923555  1
  O  O13  1  0.783154  0.050587  0.423555  1
  O  O14  1  0.625820  0.282076  0.062560  1
  O  O15  1  0.374180  0.217924  0.562560  1
  O  O16  1  0.374180  0.717924  0.937440  1
  O  O17  1  0.625820  0.782076  0.437440  1
  O  O18  1  0.950357  0.384481  0.174472  1
  O  O19  1  0.049643  0.115519  0.674472  1
  O  O20  1  0.049643  0.615519  0.825528  1
  O  O21  1  0.950357  0.884481  0.325528  1
  O  O22  1  0.178730  0.175470  0.109243  1
  O  O23  1  0.821270  0.324530  0.609243  1
  O  O24  1  0.821270  0.824530  0.890757  1
  O  O25  1  0.178730  0.675470  0.390757  1
  O  O26  1  0.025659  0.833596  0.115455  1
  O  O27  1  0.974341  0.666404  0.615455  1
  O  O28  1  0.974341  0.166404  0.884545  1
  O  O29  1  0.025659  0.333596  0.384545  1
  O  O30  1  0.295179  0.990874  0.928411  1
  O  O31  1  0.704821  0.509126  0.428411  1
  O  O32  1  0.704821  0.009126  0.071589  1
  O  O33  1  0.295179  0.490874  0.571589  1
  N  N34  1  0.357486  0.130460  0.344061  1
  N  N35  1  0.642514  0.369540  0.844061  1
  N  N36  1  0.642514  0.869540  0.655939  1
  N  N37  1  0.357486  0.630460  0.155939  1
  H  H38  1  0.200648  0.064616  0.326984  1
  H  H39  1  0.799352  0.435384  0.826984  1
  H  H40  1  0.799352  0.935384  0.673016  1
  H  H41  1  0.200648  0.564616  0.173016  1
  H  H42  1  0.403812  0.222788  0.294606  1
  H  H43  1  0.596188  0.277212  0.794606  1
  H  H44  1  0.596188  0.777212  0.705394  1
  H  H45  1  0.403812  0.722788  0.205394  1
  H  H46  1  0.462903  0.065810  0.332258  1
  H  H47  1  0.537097  0.434190  0.832258  1
  H  H48  1  0.537097  0.934190  0.667742  1
  H  H49  1  0.462903  0.565810  0.167742  1
  H  H50  1  0.363913  0.164512  0.423533  1
  H  H51  1  0.636087  0.335488  0.923533  1
  H  H52  1  0.636087  0.835488  0.576467  1
  H  H53  1  0.363913  0.664512  0.076467  1
  H  H54  1  0.332601  0.224425  0.088846  1
  H  H55  1  0.667399  0.275575  0.588846  1
  H  H56  1  0.667399  0.775575  0.911154  1
  H  H57  1  0.332601  0.724425  0.411154  1
  H  H58  1  0.106046  0.254018  0.121769  1
  H  H59  1  0.893954  0.245982  0.621769  1
  H  H60  1  0.893954  0.745982  0.878231  1
  H  H61  1  0.106046  0.754018  0.378231  1
  H  H62  1  0.939009  0.728802  0.100819  1
  H  H63  1  0.060991  0.771198  0.600819  1
  H  H64  1  0.060991  0.271198  0.899181  1
  H  H65  1  0.939009  0.228802  0.399181  1
  H  H66  1  0.993092  0.853589  0.190161  1
  H  H67  1  0.006908  0.646411  0.690161  1
  H  H68  1  0.006908  0.146411  0.809839  1
  H  H69  1  0.993092  0.353589  0.309839  1
  H  H70  1  0.330435  0.894608  0.935669  1
  H  H71  1  0.669565  0.605392  0.435669  1
  H  H72  1  0.669565  0.105392  0.064331  1
  H  H73  1  0.330435  0.394608  0.564331  1
  H  H74  1  0.325897  0.023447  0.853417  1
  H  H75  1  0.674103  0.476553  0.353417  1
  H  H76  1  0.674103  0.976553  0.146583  1
  H  H77  1  0.325897  0.523447  0.646583  1
