# generated using pymatgen
data_La2Ga4O9
_symmetry_space_group_name_H-M   'P 1'
_cell_length_a   7.80302857
_cell_length_b   8.77391487
_cell_length_c   5.97288576
_cell_angle_alpha   90.00000000
_cell_angle_beta   90.00000000
_cell_angle_gamma   90.00000000
_symmetry_Int_Tables_number   1
_chemical_formula_structural   La2Ga4O9
_chemical_formula_sum   'La4 Ga8 O18'
_cell_volume   408.92232526
_cell_formula_units_Z   2
loop_
 _symmetry_equiv_pos_site_id
 _symmetry_equiv_pos_as_xyz
  1  'x, y, z'
loop_
 _atom_site_type_symbol
 _atom_site_label
 _atom_site_symmetry_multiplicity
 _atom_site_fract_x
 _atom_site_fract_y
 _atom_site_fract_z
 _atom_site_occupancy
  La  La0  1  0.154460  0.184880  0.000000  1
  La  La1  1  0.345540  0.684880  0.000000  1
  La  La2  1  0.654460  0.315120  0.000000  1
  La  La3  1  0.845540  0.815120  0.000000  1
  Ga  Ga4  1  0.000000  0.500000  0.256372  1
  Ga  Ga5  1  0.000000  0.500000  0.743628  1
  Ga  Ga6  1  0.138615  0.833694  0.500000  1
  Ga  Ga7  1  0.361385  0.333694  0.500000  1
  Ga  Ga8  1  0.500000  0.000000  0.256372  1
  Ga  Ga9  1  0.500000  0.000000  0.743628  1
  Ga  Ga10  1  0.638615  0.666306  0.500000  1
  Ga  Ga11  1  0.861385  0.166306  0.500000  1
  O  O12  1  0.000000  0.000000  0.500000  1
  O  O13  1  0.102156  0.721586  0.237815  1
  O  O14  1  0.102156  0.721586  0.762185  1
  O  O15  1  0.143347  0.422230  0.500000  1
  O  O16  1  0.163281  0.451461  0.000000  1
  O  O17  1  0.336719  0.951461  0.000000  1
  O  O18  1  0.356653  0.922230  0.500000  1
  O  O19  1  0.397844  0.221586  0.237815  1
  O  O20  1  0.397844  0.221586  0.762185  1
  O  O21  1  0.500000  0.500000  0.500000  1
  O  O22  1  0.602156  0.778414  0.237815  1
  O  O23  1  0.602156  0.778414  0.762185  1
  O  O24  1  0.643347  0.077770  0.500000  1
  O  O25  1  0.663281  0.048539  0.000000  1
  O  O26  1  0.836719  0.548539  0.000000  1
  O  O27  1  0.856653  0.577770  0.500000  1
  O  O28  1  0.897844  0.278414  0.237815  1
  O  O29  1  0.897844  0.278414  0.762185  1
