# generated using pymatgen
data_Fe7O8
_symmetry_space_group_name_H-M   'P 1'
_cell_length_a   6.16343050
_cell_length_b   6.18627939
_cell_length_c   10.74315027
_cell_angle_alpha   106.37178584
_cell_angle_beta   90.07098093
_cell_angle_gamma   59.06086349
_symmetry_Int_Tables_number   1
_chemical_formula_structural   Fe7O8
_chemical_formula_sum   'Fe14 O16'
_cell_volume   331.91562087
_cell_formula_units_Z   2
loop_
 _symmetry_equiv_pos_site_id
 _symmetry_equiv_pos_as_xyz
  1  'x, y, z'
loop_
 _atom_site_type_symbol
 _atom_site_label
 _atom_site_symmetry_multiplicity
 _atom_site_fract_x
 _atom_site_fract_y
 _atom_site_fract_z
 _atom_site_occupancy
  Fe  Fe0  1  0.749439  0.500061  0.249974  1
  Fe  Fe1  1  0.250355  0.500031  0.750211  1
  Fe  Fe2  1  0.996830  0.508732  -0.001598  1
  Fe  Fe3  1  0.503630  0.490816  0.501647  1
  Fe  Fe4  1  0.249970  0.000270  0.249734  1
  Fe  Fe5  1  0.749794  0.000102  0.750442  1
  Fe  Fe6  1  0.749993  -0.000102  0.249937  1
  Fe  Fe7  1  0.250288  -0.000327  0.749197  1
  Fe  Fe8  1  0.490742  0.001098  -0.000021  1
  Fe  Fe9  1  0.010241  0.998188  0.499820  1
  Fe  Fe10  1  0.504593  0.493559  0.001771  1
  Fe  Fe11  1  0.995184  0.506399  0.498109  1
  Fe  Fe12  1  0.249873  0.499304  0.249517  1
  Fe  Fe13  1  0.749733  0.500666  0.750626  1
  O  O14  1  0.133683  0.761150  0.632352  1
  O  O15  1  0.630969  0.764292  0.131191  1
  O  O16  1  0.366115  0.238587  0.868070  1
  O  O17  1  0.869061  0.236017  0.368692  1
  O  O18  1  0.873329  0.261939  0.866173  1
  O  O19  1  0.368120  0.261724  0.365998  1
  O  O20  1  0.652402  0.256040  0.629731  1
  O  O21  1  0.138838  0.266442  0.130899  1
  O  O22  1  0.113064  0.263315  0.642151  1
  O  O23  1  0.613400  0.256608  0.141443  1
  O  O24  1  0.386588  0.738202  0.858711  1
  O  O25  1  0.886289  0.742505  0.357933  1
  O  O26  1  0.850856  0.743345  0.870221  1
  O  O27  1  0.358203  0.734209  0.369171  1
  O  O28  1  0.626343  0.738475  0.633751  1
  O  O29  1  0.132075  0.738356  0.134150  1
