# generated using pymatgen
data_Li2CuSiO4
_symmetry_space_group_name_H-M   'P 1'
_cell_length_a   5.04182841
_cell_length_b   5.04151195
_cell_length_c   11.42128475
_cell_angle_alpha   89.99960226
_cell_angle_beta   89.99752420
_cell_angle_gamma   120.00155249
_symmetry_Int_Tables_number   1
_chemical_formula_structural   Li2CuSiO4
_chemical_formula_sum   'Li6 Cu3 Si3 O12'
_cell_volume   251.41295837
_cell_formula_units_Z   3
loop_
 _symmetry_equiv_pos_site_id
 _symmetry_equiv_pos_as_xyz
  1  'x, y, z'
loop_
 _atom_site_type_symbol
 _atom_site_label
 _atom_site_symmetry_multiplicity
 _atom_site_fract_x
 _atom_site_fract_y
 _atom_site_fract_z
 _atom_site_occupancy
  Li  Li0  1  0.341165  0.896401  0.586082  1
  Li  Li1  1  0.103536  0.444679  0.919453  1
  Li  Li2  1  0.555263  0.659018  0.252757  1
  Li  Li3  1  0.444721  0.103726  0.080508  1
  Li  Li4  1  0.658890  0.555248  0.747233  1
  Li  Li5  1  0.896394  0.341000  0.413958  1
  Cu  Cu6  1  0.999944  0.449857  0.166701  1
  Cu  Cu7  1  0.550226  0.550182  0.499961  1
  Cu  Cu8  1  0.449766  0.999912  0.833329  1
  Si  Si9  1  0.000040  0.190464  0.666672  1
  Si  Si10  1  0.190510  0.000030  0.333308  1
  Si  Si11  1  0.809461  0.809524  0.000019  1
  O  O12  1  0.141127  0.853946  0.956611  1
  O  O13  1  0.134040  0.443200  0.559107  1
  O  O14  1  0.309282  0.866203  0.225703  1
  O  O15  1  0.146010  0.287304  0.289994  1
  O  O16  1  0.287241  0.145943  0.710047  1
  O  O17  1  0.712834  0.858771  0.623263  1
  O  O18  1  0.556748  0.690720  0.892451  1
  O  O19  1  0.690708  0.556839  0.107602  1
  O  O20  1  0.443188  0.133878  0.440890  1
  O  O21  1  0.858832  0.712706  0.376670  1
  O  O22  1  0.854006  0.141271  0.043401  1
  O  O23  1  0.866066  0.309179  0.774245  1
