# generated using pymatgen
data_PH6(NO)2
_symmetry_space_group_name_H-M   'P 1'
_cell_length_a   7.79657933
_cell_length_b   8.34161103
_cell_length_c   7.04153479
_cell_angle_alpha   90.00000000
_cell_angle_beta   116.60596624
_cell_angle_gamma   90.00000000
_symmetry_Int_Tables_number   1
_chemical_formula_structural   PH6(NO)2
_chemical_formula_sum   'P4 H24 N8 O8'
_cell_volume   409.45969271
_cell_formula_units_Z   4
loop_
 _symmetry_equiv_pos_site_id
 _symmetry_equiv_pos_as_xyz
  1  'x, y, z'
loop_
 _atom_site_type_symbol
 _atom_site_label
 _atom_site_symmetry_multiplicity
 _atom_site_fract_x
 _atom_site_fract_y
 _atom_site_fract_z
 _atom_site_occupancy
  P  P0  1  0.867688  0.473585  0.852108  1
  P  P1  1  0.132312  0.973585  0.647892  1
  P  P2  1  0.132312  0.526415  0.147892  1
  P  P3  1  0.867688  0.026415  0.352108  1
  H  H4  1  0.929334  0.204958  0.819730  1
  H  H5  1  0.070666  0.704958  0.680270  1
  H  H6  1  0.070666  0.795042  0.180270  1
  H  H7  1  0.929334  0.295042  0.319730  1
  H  H8  1  0.789116  0.226781  0.939883  1
  H  H9  1  0.210884  0.726781  0.560117  1
  H  H10  1  0.210884  0.773219  0.060117  1
  H  H11  1  0.789116  0.273219  0.439883  1
  H  H12  1  0.307929  0.405905  0.867850  1
  H  H13  1  0.692071  0.905905  0.632150  1
  H  H14  1  0.692071  0.594095  0.132150  1
  H  H15  1  0.307929  0.094095  0.367850  1
  H  H16  1  0.244534  0.430200  0.599617  1
  H  H17  1  0.755466  0.930200  0.900383  1
  H  H18  1  0.755466  0.569800  0.400383  1
  H  H19  1  0.244534  0.069800  0.099617  1
  H  H20  1  0.478884  0.429726  0.783673  1
  H  H21  1  0.521116  0.929726  0.716327  1
  H  H22  1  0.521116  0.570274  0.216327  1
  H  H23  1  0.478884  0.070274  0.283673  1
  H  H24  1  0.342245  0.257124  0.720699  1
  H  H25  1  0.657755  0.757124  0.779301  1
  H  H26  1  0.657755  0.742876  0.279301  1
  H  H27  1  0.342245  0.242876  0.220699  1
  N  N28  1  0.825189  0.276048  0.829432  1
  N  N29  1  0.174811  0.776048  0.670568  1
  N  N30  1  0.174811  0.723952  0.170568  1
  N  N31  1  0.825189  0.223952  0.329432  1
  N  N32  1  0.343675  0.380942  0.744833  1
  N  N33  1  0.656325  0.880942  0.755167  1
  N  N34  1  0.656325  0.619058  0.255167  1
  N  N35  1  0.343675  0.119058  0.244833  1
  O  O36  1  0.904701  0.527300  0.667449  1
  O  O37  1  0.095299  0.027300  0.832551  1
  O  O38  1  0.095299  0.472700  0.332551  1
  O  O39  1  0.904701  0.972700  0.167449  1
  O  O40  1  0.699245  0.552497  0.875347  1
  O  O41  1  0.300755  0.052497  0.624653  1
  O  O42  1  0.300755  0.447503  0.124653  1
  O  O43  1  0.699245  0.947503  0.375347  1
