# generated using pymatgen
data_NaVCSO7
_symmetry_space_group_name_H-M   'P 1'
_cell_length_a   9.19829139
_cell_length_b   6.49918688
_cell_length_c   5.34239395
_cell_angle_alpha   90.00000000
_cell_angle_beta   88.18225054
_cell_angle_gamma   90.00000000
_symmetry_Int_Tables_number   1
_chemical_formula_structural   NaVCSO7
_chemical_formula_sum   'Na2 V2 C2 S2 O14'
_cell_volume   319.21515280
_cell_formula_units_Z   2
loop_
 _symmetry_equiv_pos_site_id
 _symmetry_equiv_pos_as_xyz
  1  'x, y, z'
loop_
 _atom_site_type_symbol
 _atom_site_label
 _atom_site_symmetry_multiplicity
 _atom_site_fract_x
 _atom_site_fract_y
 _atom_site_fract_z
 _atom_site_occupancy
  Na  Na0  1  0.210026  0.489711  0.232242  1
  Na  Na1  1  0.789974  0.989711  0.767758  1
  V  V2  1  0.338829  0.761881  0.777511  1
  V  V3  1  0.661171  0.261881  0.222489  1
  C  C4  1  0.078187  0.739561  0.727285  1
  C  C5  1  0.921813  0.239561  0.272715  1
  S  S6  1  0.427731  0.256268  0.725887  1
  S  S7  1  0.572269  0.756268  0.274113  1
  O  O8  1  0.051838  0.242791  0.317332  1
  O  O9  1  0.138221  0.744995  0.947877  1
  O  O10  1  0.185741  0.732988  0.543118  1
  O  O11  1  0.334350  0.075006  0.784421  1
  O  O12  1  0.341661  0.439726  0.809097  1
  O  O13  1  0.435143  0.744284  0.134355  1
  O  O14  1  0.462208  0.270639  0.452758  1
  O  O15  1  0.537792  0.770639  0.547242  1
  O  O16  1  0.564857  0.244284  0.865645  1
  O  O17  1  0.658339  0.939726  0.190903  1
  O  O18  1  0.665650  0.575006  0.215579  1
  O  O19  1  0.814259  0.232988  0.456882  1
  O  O20  1  0.861779  0.244995  0.052123  1
  O  O21  1  0.948162  0.742791  0.682668  1
