# generated using pymatgen
data_Li2VBO4
_symmetry_space_group_name_H-M   'P 1'
_cell_length_a   5.87253471
_cell_length_b   5.45339985
_cell_length_c   4.71976780
_cell_angle_alpha   90.00002646
_cell_angle_beta   90.00003193
_cell_angle_gamma   90.00018630
_symmetry_Int_Tables_number   1
_chemical_formula_structural   Li2VBO4
_chemical_formula_sum   'Li4 V2 B2 O8'
_cell_volume   151.15188489
_cell_formula_units_Z   2
loop_
 _symmetry_equiv_pos_site_id
 _symmetry_equiv_pos_as_xyz
  1  'x, y, z'
loop_
 _atom_site_type_symbol
 _atom_site_label
 _atom_site_symmetry_multiplicity
 _atom_site_fract_x
 _atom_site_fract_y
 _atom_site_fract_z
 _atom_site_occupancy
  Li  Li0  1  0.254935  0.341350  0.989850  1
  Li  Li1  1  0.245064  0.658651  0.489851  1
  Li  Li2  1  0.745063  0.341349  0.989851  1
  Li  Li3  1  0.754936  0.658651  0.489851  1
  V  V4  1  0.000006  0.862694  0.981394  1
  V  V5  1  0.499995  0.137305  0.481391  1
  B  B6  1  -0.000001  0.176203  0.504405  1
  B  B7  1  0.500001  0.823797  0.004404  1
  O  O8  1  0.000000  0.179222  0.819977  1
  O  O9  1  0.999999  0.910839  0.406123  1
  O  O10  1  0.289438  0.693072  0.904200  1
  O  O11  1  0.210564  0.306928  0.404201  1
  O  O12  1  0.500000  0.089160  0.906122  1
  O  O13  1  0.499999  0.820780  0.319976  1
  O  O14  1  0.789437  0.306927  0.404202  1
  O  O15  1  0.710565  0.693074  0.904203  1
