# generated using pymatgen
data_Li4AlCr3O8
_symmetry_space_group_name_H-M   'P 1'
_cell_length_a   5.86848094
_cell_length_b   5.89432934
_cell_length_c   5.86843607
_cell_angle_alpha   119.85626663
_cell_angle_beta   59.99966177
_cell_angle_gamma   90.00005706
_symmetry_Int_Tables_number   1
_chemical_formula_structural   Li4AlCr3O8
_chemical_formula_sum   'Li4 Al1 Cr3 O8'
_cell_volume   143.84858318
_cell_formula_units_Z   1
loop_
 _symmetry_equiv_pos_site_id
 _symmetry_equiv_pos_as_xyz
  1  'x, y, z'
loop_
 _atom_site_type_symbol
 _atom_site_label
 _atom_site_symmetry_multiplicity
 _atom_site_fract_x
 _atom_site_fract_y
 _atom_site_fract_z
 _atom_site_occupancy
  Li  Li0  1  0.000001  0.000000  0.999999  1
  Li  Li1  1  0.000000  0.000001  0.500002  1
  Li  Li2  1  0.500000  0.000001  0.000001  1
  Li  Li3  1  0.500000  0.000000  0.500001  1
  Al  Al4  1  0.999999  0.500002  0.000002  1
  Cr  Cr5  1  -0.000002  0.500003  0.500002  1
  Cr  Cr6  1  0.499996  0.499998  0.000003  1
  Cr  Cr7  1  0.500005  0.499993  0.499994  1
  O  O8  1  0.234737  0.278668  0.013392  1
  O  O9  1  0.234744  0.278662  0.530513  1
  O  O10  1  0.257934  0.726185  0.484131  1
  O  O11  1  0.751871  0.278667  0.013392  1
  O  O12  1  0.248131  0.721335  0.986606  1
  O  O13  1  0.765256  0.721338  0.469489  1
  O  O14  1  0.742067  0.273812  0.515867  1
  O  O15  1  0.765262  0.721332  0.986608  1
