# generated using pymatgen
data_Li6Mn3P8O29
_symmetry_space_group_name_H-M   'P 1'
_cell_length_a   9.69120502
_cell_length_b   9.72978662
_cell_length_c   13.94581563
_cell_angle_alpha   89.98114139
_cell_angle_beta   89.60726506
_cell_angle_gamma   120.23195630
_symmetry_Int_Tables_number   1
_chemical_formula_structural   Li6Mn3P8O29
_chemical_formula_sum   'Li12 Mn6 P16 O58'
_cell_volume   1136.11276537
_cell_formula_units_Z   2
loop_
 _symmetry_equiv_pos_site_id
 _symmetry_equiv_pos_as_xyz
  1  'x, y, z'
loop_
 _atom_site_type_symbol
 _atom_site_label
 _atom_site_symmetry_multiplicity
 _atom_site_fract_x
 _atom_site_fract_y
 _atom_site_fract_z
 _atom_site_occupancy
  Li  Li0  1  0.765035  0.101111  0.561944  1
  Li  Li1  1  0.235462  0.338829  0.938614  1
  Li  Li2  1  0.656471  0.325828  0.888256  1
  Li  Li3  1  0.101805  0.337907  0.439249  1
  Li  Li4  1  0.004435  0.001000  0.003206  1
  Li  Li5  1  0.104116  0.763005  0.941880  1
  Li  Li6  1  0.901470  0.664108  0.560375  1
  Li  Li7  1  0.239493  0.902009  0.436449  1
  Li  Li8  1  0.667569  0.765549  0.440625  1
  Li  Li9  1  0.764958  0.672404  0.062625  1
  Li  Li10  1  0.058449  0.043122  0.509174  1
  Li  Li11  1  0.905580  0.234855  0.062224  1
  Mn  Mn12  1  0.434666  0.432986  0.749277  1
  Mn  Mn13  1  0.999303  0.434896  0.250576  1
  Mn  Mn14  1  0.437100  0.001814  0.246613  1
  Mn  Mn15  1  -0.000054  0.565144  0.749523  1
  Mn  Mn16  1  0.562833  0.998306  0.750875  1
  Mn  Mn17  1  0.561553  0.562888  0.249398  1
  P  P18  1  0.692305  0.914560  0.160573  1
  P  P19  1  0.228565  0.912680  0.654316  1
  P  P20  1  0.775269  0.683932  0.844177  1
  P  P21  1  0.225672  0.314729  0.154346  1
  P  P22  1  0.307464  0.221075  0.336686  1
  P  P23  1  0.908564  0.681466  0.340976  1
  P  P24  1  0.667425  0.334303  0.130903  1
  P  P25  1  0.684284  0.771919  0.661079  1
  P  P26  1  0.092352  0.318166  0.659561  1
  P  P27  1  0.904277  0.224477  0.840847  1
  P  P28  1  0.769623  0.087915  0.344164  1
  P  P29  1  0.332306  0.664521  0.868761  1
  P  P30  1  0.667501  0.335113  0.630344  1
  P  P31  1  0.306501  0.085590  0.838683  1
  P  P32  1  0.332772  0.667698  0.368473  1
  P  P33  1  0.092528  0.774032  0.159673  1
  O  O34  1  0.078113  0.337068  0.161894  1
  O  O35  1  0.079358  0.743366  0.660676  1
  O  O36  1  0.679001  0.187498  0.666504  1
  O  O37  1  0.334282  0.256912  0.842350  1
  O  O38  1  0.666524  0.921258  0.660497  1
  O  O39  1  0.185948  0.509144  0.331945  1
  O  O40  1  0.623607  0.517604  0.831655  1
  O  O41  1  0.474106  0.100610  0.830802  1
  O  O42  1  0.532525  0.911526  0.167942  1
  O  O43  1  0.513117  0.191959  0.171522  1
  O  O44  1  0.791196  0.991070  0.258286  1
  O  O45  1  0.490645  0.678747  0.330358  1
  O  O46  1  0.202731  0.208975  0.420188  1
  O  O47  1  0.007813  0.227170  0.569488  1
  O  O48  1  0.675421  0.339649  0.022646  1
  O  O49  1  0.736761  0.077560  0.841103  1
  O  O50  1  0.332147  0.667066  0.476077  1
  O  O51  1  0.466317  0.379526  0.329844  1
  O  O52  1  0.321848  0.657150  0.976047  1
  O  O53  1  0.380558  0.474943  0.168161  1
  O  O54  1  0.815686  0.324949  0.167109  1
  O  O55  1  0.773142  0.774125  0.570823  1
  O  O56  1  0.998175  0.793451  0.250034  1
  O  O57  1  0.513795  0.320908  0.674719  1
  O  O58  1  0.814348  0.493362  0.669539  1
  O  O59  1  0.664263  0.742934  0.160059  1
  O  O60  1  0.484690  0.809079  0.827480  1
  O  O61  1  0.259053  0.337264  0.661323  1
  O  O62  1  0.095035  0.476083  0.670174  1
  O  O63  1  0.211006  0.011476  0.740938  1
  O  O64  1  0.677534  0.343281  0.523230  1
  O  O65  1  0.887754  0.374531  0.828267  1
  O  O66  1  0.782851  0.768142  0.935400  1
  O  O67  1  0.995280  0.768524  0.430869  1
  O  O68  1  0.800126  0.005520  0.077966  1
  O  O69  1  0.098130  0.619863  0.172628  1
  O  O70  1  0.617866  0.096296  0.328661  1
  O  O71  1  0.900189  0.521003  0.328475  1
  O  O72  1  0.919840  0.256123  0.342158  1
  O  O73  1  0.768515  0.005249  0.436540  1
  O  O74  1  0.923848  0.662986  0.840770  1
  O  O75  1  0.183182  0.671761  0.831345  1
  O  O76  1  0.522781  0.619380  0.673319  1
  O  O77  1  0.334623  0.077501  0.338696  1
  O  O78  1  0.994051  0.230099  0.930262  1
  O  O79  1  0.323015  0.813792  0.330028  1
  O  O80  1  0.323815  0.507317  0.832353  1
  O  O81  1  0.202702  0.990594  0.921185  1
  O  O82  1  0.678006  0.492204  0.167004  1
  O  O83  1  0.382986  0.908711  0.667829  1
  O  O84  1  0.997299  0.206749  0.750489  1
  O  O85  1  0.260029  0.920561  0.159830  1
  O  O86  1  0.739649  0.661293  0.341587  1
  O  O87  1  0.004959  0.773879  0.069820  1
  O  O88  1  0.215788  0.983927  0.561447  1
  O  O89  1  0.793559  0.792698  0.752863  1
  O  O90  1  0.207076  0.197624  0.240363  1
  O  O91  1  0.212432  0.232630  0.060893  1
