# generated using pymatgen
data_Fe6O5F7
_symmetry_space_group_name_H-M   'P 1'
_cell_length_a   4.77745941
_cell_length_b   4.78726863
_cell_length_c   9.25522001
_cell_angle_alpha   90.00000000
_cell_angle_beta   90.00000000
_cell_angle_gamma   93.16912312
_symmetry_Int_Tables_number   1
_chemical_formula_structural   Fe6O5F7
_chemical_formula_sum   'Fe6 O5 F7'
_cell_volume   211.35225074
_cell_formula_units_Z   1
loop_
 _symmetry_equiv_pos_site_id
 _symmetry_equiv_pos_as_xyz
  1  'x, y, z'
loop_
 _atom_site_type_symbol
 _atom_site_label
 _atom_site_symmetry_multiplicity
 _atom_site_fract_x
 _atom_site_fract_y
 _atom_site_fract_z
 _atom_site_occupancy
  Fe  Fe0  1  0.991688  0.991141  0.000000  1
  Fe  Fe1  1  0.028280  0.009880  0.349109  1
  Fe  Fe2  1  0.028280  0.009880  0.650891  1
  Fe  Fe3  1  0.491612  0.485768  0.158297  1
  Fe  Fe4  1  0.491612  0.485768  0.841703  1
  Fe  Fe5  1  0.454501  0.501179  0.500000  1
  O  O6  1  0.202890  0.798116  0.500000  1
  O  O7  1  0.295084  0.290309  0.000000  1
  O  O8  1  0.312212  0.315367  0.327117  1
  O  O9  1  0.312212  0.315367  0.672883  1
  O  O10  1  0.697141  0.691694  0.000000  1
  F  F11  1  0.195056  0.801226  0.163965  1
  F  F12  1  0.195056  0.801226  0.836035  1
  F  F13  1  0.703033  0.705709  0.330014  1
  F  F14  1  0.703033  0.705709  0.669986  1
  F  F15  1  0.806251  0.188149  0.166384  1
  F  F16  1  0.806251  0.188149  0.833616  1
  F  F17  1  0.785806  0.215363  0.500000  1
