# generated using pymatgen
data_Na2CuH4(C2O5)2
_symmetry_space_group_name_H-M   'P 1'
_cell_length_a   7.59403358
_cell_length_b   9.56351306
_cell_length_c   3.60778656
_cell_angle_alpha   81.75813391
_cell_angle_beta   103.74444370
_cell_angle_gamma   108.08147006
_symmetry_Int_Tables_number   1
_chemical_formula_structural   Na2CuH4(C2O5)2
_chemical_formula_sum   'Na2 Cu1 H4 C4 O10'
_cell_volume   241.25755504
_cell_formula_units_Z   1
loop_
 _symmetry_equiv_pos_site_id
 _symmetry_equiv_pos_as_xyz
  1  'x, y, z'
loop_
 _atom_site_type_symbol
 _atom_site_label
 _atom_site_symmetry_multiplicity
 _atom_site_fract_x
 _atom_site_fract_y
 _atom_site_fract_z
 _atom_site_occupancy
  Na  Na0  1  0.701265  0.426577  0.391401  1
  Na  Na1  1  0.298735  0.573423  0.608599  1
  Cu  Cu2  1  0.000000  0.000000  0.000000  1
  H  H3  1  0.470959  0.192352  0.911159  1
  H  H4  1  0.529041  0.807648  0.088841  1
  H  H5  1  0.676275  0.172298  0.002000  1
  H  H6  1  0.323725  0.827702  0.998000  1
  C  C7  1  0.780291  0.724280  0.820634  1
  C  C8  1  0.219709  0.275720  0.179366  1
  C  C9  1  0.971702  0.745490  0.706036  1
  C  C10  1  0.028298  0.254510  0.293964  1
  O  O11  1  0.765440  0.837212  0.957207  1
  O  O12  1  0.234560  0.162788  0.042793  1
  O  O13  1  0.093322  0.874827  0.756676  1
  O  O14  1  0.906678  0.125173  0.243324  1
  O  O15  1  0.655133  0.603590  0.780288  1
  O  O16  1  0.344867  0.396410  0.219712  1
  O  O17  1  0.998648  0.642630  0.572851  1
  O  O18  1  0.001352  0.357370  0.427149  1
  O  O19  1  0.603405  0.242576  0.893993  1
  O  O20  1  0.396595  0.757424  0.106007  1
