# generated using pymatgen
data_Ca2V3Co2AgO12
_symmetry_space_group_name_H-M   'P 1'
_cell_length_a   10.94507564
_cell_length_b   10.94507628
_cell_length_c   10.94507620
_cell_angle_alpha   109.39469352
_cell_angle_beta   109.39469473
_cell_angle_gamma   109.62438095
_symmetry_Int_Tables_number   1
_chemical_formula_structural   Ca2V3Co2AgO12
_chemical_formula_sum   'Ca8 V12 Co8 Ag4 O48'
_cell_volume   1009.32757327
_cell_formula_units_Z   4
loop_
 _symmetry_equiv_pos_site_id
 _symmetry_equiv_pos_as_xyz
  1  'x, y, z'
loop_
 _atom_site_type_symbol
 _atom_site_label
 _atom_site_symmetry_multiplicity
 _atom_site_fract_x
 _atom_site_fract_y
 _atom_site_fract_z
 _atom_site_occupancy
  Ca  Ca0  1  0.250000  0.873316  0.623316  1
  Ca  Ca1  1  0.126684  0.250000  0.376684  1
  Ca  Ca2  1  0.373316  0.750000  0.123316  1
  Ca  Ca3  1  0.250000  0.373316  0.123316  1
  Ca  Ca4  1  0.750000  0.626684  0.876684  1
  Ca  Ca5  1  0.626684  0.250000  0.876684  1
  Ca  Ca6  1  0.873316  0.750000  0.623316  1
  Ca  Ca7  1  0.750000  0.126684  0.376684  1
  V  V8  1  0.123701  0.750000  0.873701  1
  V  V9  1  0.125000  0.875000  0.250000  1
  V  V10  1  0.375000  0.625000  0.750000  1
  V  V11  1  0.250000  0.623701  0.373701  1
  V  V12  1  0.250000  0.123701  0.873701  1
  V  V13  1  0.376299  0.250000  0.626299  1
  V  V14  1  0.623701  0.750000  0.373701  1
  V  V15  1  0.750000  0.376299  0.626299  1
  V  V16  1  0.750000  0.876299  0.126299  1
  V  V17  1  0.625000  0.375000  0.250000  1
  V  V18  1  0.875000  0.125000  0.750000  1
  V  V19  1  0.876299  0.250000  0.126299  1
  Co  Co20  1  0.500000  0.000000  0.500000  1
  Co  Co21  1  0.000000  0.000000  0.000000  1
  Co  Co22  1  0.500000  0.500000  0.500000  1
  Co  Co23  1  0.500000  0.500000  0.000000  1
  Co  Co24  1  0.000000  0.000000  0.500000  1
  Co  Co25  1  0.500000  0.000000  0.000000  1
  Co  Co26  1  0.000000  0.500000  0.500000  1
  Co  Co27  1  0.000000  0.500000  0.000000  1
  Ag  Ag28  1  0.125000  0.375000  0.750000  1
  Ag  Ag29  1  0.625000  0.875000  0.750000  1
  Ag  Ag30  1  0.375000  0.125000  0.250000  1
  Ag  Ag31  1  0.875000  0.625000  0.250000  1
  O  O32  1  0.104521  0.983767  0.689848  1
  O  O33  1  0.010989  0.305591  0.903488  1
  O  O34  1  0.116424  0.607073  0.914708  1
  O  O35  1  0.085327  0.706081  0.689848  1
  O  O36  1  0.097897  0.892499  0.403488  1
  O  O37  1  0.107073  0.616424  0.414708  1
  O  O38  1  0.194409  0.489011  0.596512  1
  O  O39  1  0.402103  0.805591  0.794602  1
  O  O40  1  0.298284  0.307635  0.914708  1
  O  O41  1  0.392499  0.597897  0.903488  1
  O  O42  1  0.305591  0.902103  0.294602  1
  O  O43  1  0.016233  0.206081  0.120754  1
  O  O44  1  0.192365  0.201716  0.585292  1
  O  O45  1  0.206081  0.585327  0.189848  1
  O  O46  1  0.392927  0.807635  0.509351  1
  O  O47  1  0.307635  0.892927  0.009351  1
  O  O48  1  0.293919  0.483767  0.379246  1
  O  O49  1  0.107501  0.010989  0.205398  1
  O  O50  1  0.510989  0.607501  0.705398  1
  O  O51  1  0.395479  0.085327  0.879246  1
  O  O52  1  0.516233  0.395479  0.810152  1
  O  O53  1  0.383576  0.298284  0.490649  1
  O  O54  1  0.585327  0.895479  0.379246  1
  O  O55  1  0.201716  0.116424  0.009351  1
  O  O56  1  0.798284  0.883576  0.990649  1
  O  O57  1  0.414673  0.104521  0.620754  1
  O  O58  1  0.616424  0.701716  0.509351  1
  O  O59  1  0.483767  0.604521  0.189848  1
  O  O60  1  0.604521  0.914673  0.120754  1
  O  O61  1  0.489011  0.392499  0.294602  1
  O  O62  1  0.892499  0.989011  0.794602  1
  O  O63  1  0.706081  0.516233  0.620754  1
  O  O64  1  0.692365  0.107073  0.990649  1
  O  O65  1  0.607073  0.192365  0.490649  1
  O  O66  1  0.793919  0.414673  0.810152  1
  O  O67  1  0.807635  0.798284  0.414708  1
  O  O68  1  0.983767  0.793919  0.879246  1
  O  O69  1  0.694409  0.097897  0.705398  1
  O  O70  1  0.607501  0.402103  0.096512  1
  O  O71  1  0.701716  0.692365  0.085292  1
  O  O72  1  0.597897  0.194409  0.205398  1
  O  O73  1  0.805591  0.510989  0.403488  1
  O  O74  1  0.892927  0.383576  0.585292  1
  O  O75  1  0.902103  0.107501  0.596512  1
  O  O76  1  0.914673  0.293919  0.310152  1
  O  O77  1  0.883576  0.392927  0.085292  1
  O  O78  1  0.989011  0.694409  0.096512  1
  O  O79  1  0.895479  0.016233  0.310152  1
