# generated using pymatgen
data_Li2CrPO4F
_symmetry_space_group_name_H-M   'P 1'
_cell_length_a   5.20017314
_cell_length_b   13.26772917
_cell_length_c   11.44402662
_cell_angle_alpha   90.00000000
_cell_angle_beta   90.00000000
_cell_angle_gamma   90.00000000
_symmetry_Int_Tables_number   1
_chemical_formula_structural   Li2CrPO4F
_chemical_formula_sum   'Li16 Cr8 P8 O32 F8'
_cell_volume   789.57476713
_cell_formula_units_Z   8
loop_
 _symmetry_equiv_pos_site_id
 _symmetry_equiv_pos_as_xyz
  1  'x, y, z'
loop_
 _atom_site_type_symbol
 _atom_site_label
 _atom_site_symmetry_multiplicity
 _atom_site_fract_x
 _atom_site_fract_y
 _atom_site_fract_z
 _atom_site_occupancy
  Li  Li0  1  0.219649  0.240396  0.180992  1
  Li  Li1  1  0.219649  0.759604  0.680992  1
  Li  Li2  1  0.231811  0.635868  0.401859  1
  Li  Li3  1  0.231811  0.364132  0.901859  1
  Li  Li4  1  0.268189  0.135868  0.401859  1
  Li  Li5  1  0.268189  0.864132  0.901859  1
  Li  Li6  1  0.280351  0.259604  0.680992  1
  Li  Li7  1  0.280351  0.740396  0.180992  1
  Li  Li8  1  0.719649  0.259604  0.819008  1
  Li  Li9  1  0.719649  0.740396  0.319008  1
  Li  Li10  1  0.731811  0.135868  0.098142  1
  Li  Li11  1  0.731811  0.864132  0.598141  1
  Li  Li12  1  0.768189  0.364132  0.598141  1
  Li  Li13  1  0.768189  0.635868  0.098142  1
  Li  Li14  1  0.780351  0.759604  0.819008  1
  Li  Li15  1  0.780351  0.240396  0.319008  1
  Cr  Cr16  1  0.233623  0.488231  0.670872  1
  Cr  Cr17  1  0.233623  0.511769  0.170872  1
  Cr  Cr18  1  0.266377  0.011769  0.170872  1
  Cr  Cr19  1  0.266377  0.988231  0.670872  1
  Cr  Cr20  1  0.733623  0.988231  0.829128  1
  Cr  Cr21  1  0.733623  0.011769  0.329128  1
  Cr  Cr22  1  0.766377  0.511769  0.329128  1
  Cr  Cr23  1  0.766377  0.488231  0.829128  1
  P  P24  1  0.199049  0.126314  0.912744  1
  P  P25  1  0.199049  0.873686  0.412744  1
  P  P26  1  0.300951  0.373686  0.412744  1
  P  P27  1  0.300951  0.626314  0.912744  1
  P  P28  1  0.699049  0.373686  0.087256  1
  P  P29  1  0.699049  0.626314  0.587256  1
  P  P30  1  0.800951  0.126314  0.587256  1
  P  P31  1  0.800951  0.873686  0.087256  1
  O  O32  1  0.102601  0.125094  0.592057  1
  O  O33  1  0.102601  0.874906  0.092057  1
  O  O34  1  0.201064  0.469653  0.345565  1
  O  O35  1  0.201064  0.530347  0.845565  1
  O  O36  1  0.186255  0.278510  0.358736  1
  O  O37  1  0.186255  0.721490  0.858736  1
  O  O38  1  0.209443  0.616889  0.041702  1
  O  O39  1  0.209443  0.383111  0.541702  1
  O  O40  1  0.290557  0.116889  0.041702  1
  O  O41  1  0.290557  0.883111  0.541702  1
  O  O42  1  0.313745  0.221490  0.858736  1
  O  O43  1  0.313745  0.778510  0.358736  1
  O  O44  1  0.298936  0.969653  0.345565  1
  O  O45  1  0.298936  0.030347  0.845565  1
  O  O46  1  0.397399  0.374906  0.092057  1
  O  O47  1  0.397399  0.625094  0.592057  1
  O  O48  1  0.602601  0.625094  0.907943  1
  O  O49  1  0.602601  0.374906  0.407943  1
  O  O50  1  0.701064  0.030347  0.654435  1
  O  O51  1  0.701064  0.969653  0.154435  1
  O  O52  1  0.686255  0.221490  0.641264  1
  O  O53  1  0.686255  0.778510  0.141264  1
  O  O54  1  0.709443  0.116889  0.458298  1
  O  O55  1  0.709443  0.883111  0.958298  1
  O  O56  1  0.790557  0.383111  0.958298  1
  O  O57  1  0.790557  0.616889  0.458298  1
  O  O58  1  0.813745  0.278510  0.141264  1
  O  O59  1  0.813745  0.721490  0.641264  1
  O  O60  1  0.798936  0.469653  0.154435  1
  O  O61  1  0.798936  0.530347  0.654435  1
  O  O62  1  0.897399  0.125094  0.907943  1
  O  O63  1  0.897399  0.874906  0.407943  1
  F  F64  1  0.000000  0.119714  0.250000  1
  F  F65  1  0.000000  0.640497  0.250000  1
  F  F66  1  0.000000  0.359503  0.750000  1
  F  F67  1  0.000000  0.880286  0.750000  1
  F  F68  1  0.500000  0.140497  0.250000  1
  F  F69  1  0.500000  0.619714  0.250000  1
  F  F70  1  0.500000  0.380286  0.750000  1
  F  F71  1  0.500000  0.859503  0.750000  1
