# generated using pymatgen
data_LiVPO5
_symmetry_space_group_name_H-M   'P 1'
_cell_length_a   7.63373293
_cell_length_b   9.69256192
_cell_length_c   5.34874420
_cell_angle_alpha   90.00000000
_cell_angle_beta   111.91293666
_cell_angle_gamma   90.00000000
_symmetry_Int_Tables_number   1
_chemical_formula_structural   LiVPO5
_chemical_formula_sum   'Li4 V4 P4 O20'
_cell_volume   367.16331368
_cell_formula_units_Z   4
loop_
 _symmetry_equiv_pos_site_id
 _symmetry_equiv_pos_as_xyz
  1  'x, y, z'
loop_
 _atom_site_type_symbol
 _atom_site_label
 _atom_site_symmetry_multiplicity
 _atom_site_fract_x
 _atom_site_fract_y
 _atom_site_fract_z
 _atom_site_occupancy
  Li  Li0  1  0.213864  0.894458  0.659737  1
  Li  Li1  1  0.286136  0.394458  0.840263  1
  Li  Li2  1  0.713864  0.605542  0.159737  1
  Li  Li3  1  0.786136  0.105542  0.340263  1
  V  V4  1  0.154417  0.079019  0.168927  1
  V  V5  1  0.345583  0.579019  0.331073  1
  V  V6  1  0.654417  0.420981  0.668927  1
  V  V7  1  0.845583  0.920981  0.831073  1
  P  P8  1  0.043079  0.345355  0.206903  1
  P  P9  1  0.543079  0.154645  0.706903  1
  P  P10  1  0.456921  0.845355  0.293097  1
  P  P11  1  0.956921  0.654645  0.793097  1
  O  O12  1  0.998804  0.786835  0.664564  1
  O  O13  1  0.159920  0.281913  0.046370  1
  O  O14  1  0.014670  0.950889  0.222493  1
  O  O15  1  0.144134  0.584552  0.968328  1
  O  O16  1  0.165672  0.450935  0.422244  1
  O  O17  1  0.355866  0.084552  0.531672  1
  O  O18  1  0.340080  0.781913  0.453630  1
  O  O19  1  0.501196  0.286835  0.835436  1
  O  O20  1  0.334328  0.950935  0.077756  1
  O  O21  1  0.514670  0.549111  0.722493  1
  O  O22  1  0.485330  0.450889  0.277507  1
  O  O23  1  0.665672  0.049065  0.922244  1
  O  O24  1  0.498804  0.713165  0.164564  1
  O  O25  1  0.659920  0.218087  0.546370  1
  O  O26  1  0.644134  0.915448  0.468328  1
  O  O27  1  0.834328  0.549065  0.577756  1
  O  O28  1  0.855866  0.415448  0.031672  1
  O  O29  1  0.985330  0.049111  0.777507  1
  O  O30  1  0.840080  0.718087  0.953630  1
  O  O31  1  0.001196  0.213165  0.335436  1
