# generated using pymatgen
data_LaMgI5
_symmetry_space_group_name_H-M   'P 1'
_cell_length_a   8.81197094
_cell_length_b   15.40372404
_cell_length_c   11.94243389
_cell_angle_alpha   90.00000000
_cell_angle_beta   87.89580875
_cell_angle_gamma   90.00000000
_symmetry_Int_Tables_number   1
_chemical_formula_structural   LaMgI5
_chemical_formula_sum   'La4 Mg4 I20'
_cell_volume   1619.93911671
_cell_formula_units_Z   4
loop_
 _symmetry_equiv_pos_site_id
 _symmetry_equiv_pos_as_xyz
  1  'x, y, z'
loop_
 _atom_site_type_symbol
 _atom_site_label
 _atom_site_symmetry_multiplicity
 _atom_site_fract_x
 _atom_site_fract_y
 _atom_site_fract_z
 _atom_site_occupancy
  La  La0  1  0.012873  0.605269  0.589638  1
  La  La1  1  0.494920  0.210848  0.109761  1
  La  La2  1  0.505080  0.710848  0.890239  1
  La  La3  1  0.987127  0.105269  0.410362  1
  Mg  Mg4  1  0.030894  0.158297  0.055082  1
  Mg  Mg5  1  0.477891  0.545531  0.597795  1
  Mg  Mg6  1  0.522109  0.045531  0.402205  1
  Mg  Mg7  1  0.969106  0.658297  0.944918  1
  I  I8  1  0.006733  0.737866  0.409642  1
  I  I9  1  0.018837  0.505749  0.832193  1
  I  I10  1  0.147389  0.252407  0.239149  1
  I  I11  1  0.248894  0.470244  0.482701  1
  I  I12  1  0.270431  0.192143  0.907434  1
  I  I13  1  0.259575  0.006278  0.522526  1
  I  I14  1  0.223777  0.695368  0.062693  1
  I  I15  1  0.346657  0.710597  0.640173  1
  I  I16  1  0.478147  0.006886  0.182871  1
  I  I17  1  0.461873  0.901016  0.864960  1
  I  I18  1  0.538127  0.401016  0.135040  1
  I  I19  1  0.521853  0.506886  0.817129  1
  I  I20  1  0.653343  0.210597  0.359827  1
  I  I21  1  0.776223  0.195368  0.937307  1
  I  I22  1  0.740425  0.506278  0.477474  1
  I  I23  1  0.729569  0.692143  0.092566  1
  I  I24  1  0.751106  0.970244  0.517299  1
  I  I25  1  0.852611  0.752407  0.760851  1
  I  I26  1  0.981163  0.005749  0.167807  1
  I  I27  1  0.993267  0.237866  0.590358  1
