# generated using pymatgen
data_Li3MnPCO7
_symmetry_space_group_name_H-M   'P 1'
_cell_length_a   8.57228227
_cell_length_b   9.98789037
_cell_length_c   6.58524977
_cell_angle_alpha   90.07618676
_cell_angle_beta   90.52758443
_cell_angle_gamma   85.41027639
_symmetry_Int_Tables_number   1
_chemical_formula_structural   Li3MnPCO7
_chemical_formula_sum   'Li12 Mn4 P4 C4 O28'
_cell_volume   561.99063665
_cell_formula_units_Z   4
loop_
 _symmetry_equiv_pos_site_id
 _symmetry_equiv_pos_as_xyz
  1  'x, y, z'
loop_
 _atom_site_type_symbol
 _atom_site_label
 _atom_site_symmetry_multiplicity
 _atom_site_fract_x
 _atom_site_fract_y
 _atom_site_fract_z
 _atom_site_occupancy
  Li  Li0  1  0.094316  0.385441  0.254053  1
  Li  Li1  1  0.094415  0.877178  0.255889  1
  Li  Li2  1  0.275538  0.110391  0.486236  1
  Li  Li3  1  0.273443  0.633914  0.020139  1
  Li  Li4  1  0.274012  0.633659  0.478483  1
  Li  Li5  1  0.343754  0.878894  0.740213  1
  Li  Li6  1  0.724878  0.381066  0.530249  1
  Li  Li7  1  0.724844  0.380806  0.969856  1
  Li  Li8  1  0.722457  0.873268  0.536503  1
  Li  Li9  1  0.723305  0.873277  0.963872  1
  Li  Li10  1  0.902030  0.113973  0.747393  1
  Li  Li11  1  0.908401  0.623686  0.749020  1
  Mn  Mn12  1  0.261545  0.117141  0.996708  1
  Mn  Mn13  1  0.344214  0.395603  0.747512  1
  Mn  Mn14  1  0.659590  0.106605  0.250782  1
  Mn  Mn15  1  0.658641  0.614593  0.249973  1
  P  P16  1  0.409150  0.360833  0.249291  1
  P  P17  1  0.409253  0.861333  0.252590  1
  P  P18  1  0.590852  0.140252  0.749999  1
  P  P19  1  0.588784  0.641521  0.749819  1
  C  C20  1  0.033665  0.350530  0.754510  1
  C  C21  1  0.038591  0.853555  0.753606  1
  C  C22  1  0.964865  0.148805  0.250452  1
  C  C23  1  0.967173  0.648375  0.249759  1
  O  O24  1  0.068698  0.472525  0.748294  1
  O  O25  1  0.111443  0.181149  0.247890  1
  O  O26  1  0.071770  0.978444  0.760104  1
  O  O27  1  0.148482  0.253764  0.761574  1
  O  O28  1  0.112666  0.677196  0.249444  1
  O  O29  1  0.147354  0.756654  0.750263  1
  O  O30  1  0.309070  0.412773  0.063689  1
  O  O31  1  0.309825  0.413818  0.432661  1
  O  O32  1  0.313018  0.911782  0.060826  1
  O  O33  1  0.312060  0.914307  0.436252  1
  O  O34  1  0.422286  0.094530  0.747510  1
  O  O35  1  0.421537  0.202175  0.246256  1
  O  O36  1  0.421215  0.593043  0.749266  1
  O  O37  1  0.422667  0.703962  0.250821  1
  O  O38  1  0.578313  0.297453  0.750006  1
  O  O39  1  0.577687  0.405147  0.251100  1
  O  O40  1  0.574819  0.796594  0.749613  1
  O  O41  1  0.579246  0.905550  0.251087  1
  O  O42  1  0.689618  0.085865  0.935071  1
  O  O43  1  0.688723  0.085473  0.566630  1
  O  O44  1  0.687845  0.584921  0.566199  1
  O  O45  1  0.688567  0.584524  0.934587  1
  O  O46  1  0.854040  0.244901  0.253199  1
  O  O47  1  0.890402  0.317237  0.751077  1
  O  O48  1  0.856373  0.745677  0.249853  1
  O  O49  1  0.933430  0.025519  0.250229  1
  O  O50  1  0.891071  0.824983  0.749428  1
  O  O51  1  0.930060  0.525330  0.250164  1
