# generated using pymatgen
data_Li3(FeS2)2
_symmetry_space_group_name_H-M   'P 1'
_cell_length_a   6.45941157
_cell_length_b   11.06198984
_cell_length_c   9.21741316
_cell_angle_alpha   89.97756320
_cell_angle_beta   90.01134510
_cell_angle_gamma   90.01281695
_symmetry_Int_Tables_number   1
_chemical_formula_structural   Li3(FeS2)2
_chemical_formula_sum   'Li12 Fe8 S16'
_cell_volume   658.62045455
_cell_formula_units_Z   4
loop_
 _symmetry_equiv_pos_site_id
 _symmetry_equiv_pos_as_xyz
  1  'x, y, z'
loop_
 _atom_site_type_symbol
 _atom_site_label
 _atom_site_symmetry_multiplicity
 _atom_site_fract_x
 _atom_site_fract_y
 _atom_site_fract_z
 _atom_site_occupancy
  Li  Li0  1  0.936538  0.249899  0.937956  1
  Li  Li1  1  0.108076  0.049467  0.160851  1
  Li  Li2  1  0.107912  0.450453  0.160996  1
  Li  Li3  1  0.392145  0.950736  0.661074  1
  Li  Li4  1  0.392134  0.549197  0.661032  1
  Li  Li5  1  0.563429  0.749988  0.438165  1
  Li  Li6  1  0.436452  0.249994  0.561978  1
  Li  Li7  1  0.608071  0.049610  0.339112  1
  Li  Li8  1  0.608037  0.450545  0.339163  1
  Li  Li9  1  0.892178  0.549304  0.838916  1
  Li  Li10  1  0.892082  0.950797  0.838932  1
  Li  Li11  1  0.063461  0.750009  0.061831  1
  Fe  Fe12  1  0.037063  0.626749  0.474113  1
  Fe  Fe13  1  0.036875  0.873188  0.474053  1
  Fe  Fe14  1  0.462828  0.126856  0.974149  1
  Fe  Fe15  1  0.462999  0.373115  0.974054  1
  Fe  Fe16  1  0.537130  0.626714  0.025959  1
  Fe  Fe17  1  0.537134  0.873243  0.025813  1
  Fe  Fe18  1  0.963026  0.126930  0.525952  1
  Fe  Fe19  1  0.962723  0.373189  0.525891  1
  S  S20  1  0.105121  0.249953  0.691784  1
  S  S21  1  0.246360  0.749940  0.604706  1
  S  S22  1  0.239783  0.035233  0.415034  1
  S  S23  1  0.239807  0.464879  0.415018  1
  S  S24  1  0.260354  0.535234  0.915121  1
  S  S25  1  0.260134  0.964773  0.915032  1
  S  S26  1  0.253801  0.249947  0.104797  1
  S  S27  1  0.394683  0.749876  0.191704  1
  S  S28  1  0.605147  0.250066  0.808270  1
  S  S29  1  0.746219  0.750088  0.895349  1
  S  S30  1  0.739762  0.035146  0.084985  1
  S  S31  1  0.739743  0.464742  0.084939  1
  S  S32  1  0.760158  0.535236  0.584903  1
  S  S33  1  0.760220  0.964742  0.584871  1
  S  S34  1  0.753757  0.250040  0.395136  1
  S  S35  1  0.894655  0.750124  0.308362  1
