# generated using pymatgen
data_K5CeCo2(NO2)12
_symmetry_space_group_name_H-M   'P 1'
_cell_length_a   10.38494917
_cell_length_b   10.38494917
_cell_length_c   10.38494917
_cell_angle_alpha   90.00000000
_cell_angle_beta   90.00000000
_cell_angle_gamma   90.00000000
_symmetry_Int_Tables_number   1
_chemical_formula_structural   K5CeCo2(NO2)12
_chemical_formula_sum   'K10 Ce2 Co4 N24 O48'
_cell_volume   1119.98737093
_cell_formula_units_Z   2
loop_
 _symmetry_equiv_pos_site_id
 _symmetry_equiv_pos_as_xyz
  1  'x, y, z'
loop_
 _atom_site_type_symbol
 _atom_site_label
 _atom_site_symmetry_multiplicity
 _atom_site_fract_x
 _atom_site_fract_y
 _atom_site_fract_z
 _atom_site_occupancy
  K  K0  1  0.500000  0.500000  0.000000  1
  K  K1  1  0.500000  0.000000  0.500000  1
  K  K2  1  0.250000  0.750000  0.750000  1
  K  K3  1  0.750000  0.250000  0.250000  1
  K  K4  1  0.750000  0.250000  0.750000  1
  K  K5  1  0.000000  0.000000  0.000000  1
  K  K6  1  0.750000  0.750000  0.250000  1
  K  K7  1  0.250000  0.750000  0.250000  1
  K  K8  1  0.000000  0.500000  0.500000  1
  K  K9  1  0.250000  0.250000  0.750000  1
  Ce  Ce10  1  0.250000  0.250000  0.250000  1
  Ce  Ce11  1  0.750000  0.750000  0.750000  1
  Co  Co12  1  0.000000  0.000000  0.500000  1
  Co  Co13  1  0.500000  0.000000  0.000000  1
  Co  Co14  1  0.000000  0.500000  0.000000  1
  Co  Co15  1  0.500000  0.500000  0.500000  1
  N  N16  1  0.501999  0.503185  0.687389  1
  N  N17  1  0.812611  0.998001  0.503185  1
  N  N18  1  0.687389  0.998001  0.996815  1
  N  N19  1  0.503185  0.812611  0.998001  1
  N  N20  1  0.998001  0.996815  0.687389  1
  N  N21  1  0.003185  0.312611  0.001999  1
  N  N22  1  0.312611  0.001999  0.003185  1
  N  N23  1  0.812611  0.501999  0.996815  1
  N  N24  1  0.503185  0.687389  0.501999  1
  N  N25  1  0.001999  0.496815  0.187389  1
  N  N26  1  0.996815  0.812611  0.501999  1
  N  N27  1  0.498001  0.496815  0.312611  1
  N  N28  1  0.501999  0.996815  0.812611  1
  N  N29  1  0.003185  0.187389  0.498001  1
  N  N30  1  0.687389  0.501999  0.503185  1
  N  N31  1  0.496815  0.187389  0.001999  1
  N  N32  1  0.496815  0.312611  0.498001  1
  N  N33  1  0.187389  0.001999  0.496815  1
  N  N34  1  0.996815  0.687389  0.998001  1
  N  N35  1  0.998001  0.503185  0.812611  1
  N  N36  1  0.498001  0.003185  0.187389  1
  N  N37  1  0.001999  0.003185  0.312611  1
  N  N38  1  0.187389  0.498001  0.003185  1
  N  N39  1  0.312611  0.498001  0.496815  1
  O  O40  1  0.503276  0.249757  0.898937  1
  O  O41  1  0.003276  0.749757  0.101062  1
  O  O42  1  0.398938  0.003276  0.750243  1
  O  O43  1  0.250243  0.601063  0.503276  1
  O  O44  1  0.898937  0.503276  0.249757  1
  O  O45  1  0.248624  0.107716  0.483392  1
  O  O46  1  0.392284  0.483392  0.251376  1
  O  O47  1  0.983392  0.751376  0.607716  1
  O  O48  1  0.601063  0.996724  0.249757  1
  O  O49  1  0.016608  0.248624  0.392284  1
  O  O50  1  0.101062  0.003276  0.749757  1
  O  O51  1  0.392284  0.016608  0.248624  1
  O  O52  1  0.750243  0.398938  0.003276  1
  O  O53  1  0.892284  0.983392  0.748624  1
  O  O54  1  0.016608  0.251376  0.107716  1
  O  O55  1  0.898937  0.996724  0.250243  1
  O  O56  1  0.892284  0.516608  0.751376  1
  O  O57  1  0.249757  0.898937  0.503276  1
  O  O58  1  0.101062  0.496724  0.750243  1
  O  O59  1  0.107716  0.016608  0.251376  1
  O  O60  1  0.516608  0.751376  0.892284  1
  O  O61  1  0.249757  0.601063  0.996724  1
  O  O62  1  0.248624  0.392284  0.016608  1
  O  O63  1  0.750243  0.101062  0.496724  1
  O  O64  1  0.003276  0.750243  0.398938  1
  O  O65  1  0.251376  0.392284  0.483392  1
  O  O66  1  0.398938  0.496724  0.749757  1
  O  O67  1  0.996724  0.249757  0.601063  1
  O  O68  1  0.601063  0.503276  0.250243  1
  O  O69  1  0.516608  0.748624  0.607716  1
  O  O70  1  0.751376  0.607716  0.983392  1
  O  O71  1  0.607716  0.983392  0.751376  1
  O  O72  1  0.250243  0.898937  0.996724  1
  O  O73  1  0.748624  0.892284  0.983392  1
  O  O74  1  0.749757  0.101062  0.003276  1
  O  O75  1  0.503276  0.250243  0.601063  1
  O  O76  1  0.751376  0.892284  0.516608  1
  O  O77  1  0.749757  0.398938  0.496724  1
  O  O78  1  0.996724  0.250243  0.898937  1
  O  O79  1  0.496724  0.750243  0.101062  1
  O  O80  1  0.107716  0.483392  0.248624  1
  O  O81  1  0.251376  0.107716  0.016608  1
  O  O82  1  0.483392  0.251376  0.392284  1
  O  O83  1  0.607716  0.516608  0.748624  1
  O  O84  1  0.496724  0.749757  0.398938  1
  O  O85  1  0.983392  0.748624  0.892284  1
  O  O86  1  0.748624  0.607716  0.516608  1
  O  O87  1  0.483392  0.248624  0.107716  1
