# generated using pymatgen
data_BiOF
_symmetry_space_group_name_H-M   'P 1'
_cell_length_a   4.00126673
_cell_length_b   7.20520860
_cell_length_c   4.00126706
_cell_angle_alpha   106.12088593
_cell_angle_beta   120.00000606
_cell_angle_gamma   90.00000846
_symmetry_Int_Tables_number   1
_chemical_formula_structural   BiOF
_chemical_formula_sum   'Bi2 O2 F2'
_cell_volume   94.62753755
_cell_formula_units_Z   2
loop_
 _symmetry_equiv_pos_site_id
 _symmetry_equiv_pos_as_xyz
  1  'x, y, z'
loop_
 _atom_site_type_symbol
 _atom_site_label
 _atom_site_symmetry_multiplicity
 _atom_site_fract_x
 _atom_site_fract_y
 _atom_site_fract_z
 _atom_site_occupancy
  Bi  Bi0  1  0.760936  0.282807  0.521871  1
  Bi  Bi1  1  0.239064  0.717193  0.478129  1
  O  O2  1  0.128056  0.384169  0.256112  1
  O  O3  1  0.871944  0.615831  0.743888  1
  F  F4  1  0.377575  0.132724  0.755149  1
  F  F5  1  0.622425  0.867276  0.244851  1
