# generated using pymatgen
data_AsH6NO4
_symmetry_space_group_name_H-M   'P 1'
_cell_length_a   7.75034722
_cell_length_b   8.51060156
_cell_length_c   8.05943571
_cell_angle_alpha   90.00000000
_cell_angle_beta   90.00000000
_cell_angle_gamma   90.00000000
_symmetry_Int_Tables_number   1
_chemical_formula_structural   AsH6NO4
_chemical_formula_sum   'As4 H24 N4 O16'
_cell_volume   531.60132352
_cell_formula_units_Z   4
loop_
 _symmetry_equiv_pos_site_id
 _symmetry_equiv_pos_as_xyz
  1  'x, y, z'
loop_
 _atom_site_type_symbol
 _atom_site_label
 _atom_site_symmetry_multiplicity
 _atom_site_fract_x
 _atom_site_fract_y
 _atom_site_fract_z
 _atom_site_occupancy
  As  As0  1  0.040892  0.509891  0.535800  1
  As  As1  1  0.459108  0.490109  0.035800  1
  As  As2  1  0.540892  0.990109  0.464200  1
  As  As3  1  0.959108  0.009891  0.964200  1
  H  H4  1  0.995914  0.346913  0.027113  1
  H  H5  1  0.962359  0.996661  0.612878  1
  H  H6  1  0.086453  0.518183  0.089490  1
  H  H7  1  0.123479  0.016271  0.466285  1
  H  H8  1  0.168575  0.817601  0.910117  1
  H  H9  1  0.180167  0.381184  0.319745  1
  H  H10  1  0.319833  0.618816  0.819745  1
  H  H11  1  0.331425  0.182399  0.410117  1
  H  H12  1  0.376521  0.983729  0.966285  1
  H  H13  1  0.413547  0.481818  0.589490  1
  H  H14  1  0.537641  0.003339  0.112878  1
  H  H15  1  0.504086  0.653087  0.527113  1
  H  H16  1  0.495914  0.153087  0.972887  1
  H  H17  1  0.462359  0.503339  0.387122  1
  H  H18  1  0.586453  0.981817  0.910510  1
  H  H19  1  0.623479  0.483729  0.533715  1
  H  H20  1  0.668575  0.682399  0.089883  1
  H  H21  1  0.680167  0.118816  0.680255  1
  H  H22  1  0.819833  0.881184  0.180255  1
  H  H23  1  0.831425  0.317601  0.589883  1
  H  H24  1  0.876521  0.516271  0.033715  1
  H  H25  1  0.913547  0.018183  0.410510  1
  H  H26  1  0.037641  0.496661  0.887122  1
  H  H27  1  0.004086  0.846913  0.472887  1
  N  N28  1  0.002174  0.971163  0.491442  1
  N  N29  1  0.497826  0.028837  0.991442  1
  N  N30  1  0.502174  0.528837  0.508558  1
  N  N31  1  0.997826  0.471163  0.008558  1
  O  O32  1  0.003715  0.162770  0.086287  1
  O  O33  1  0.117870  0.343966  0.421800  1
  O  O34  1  0.167222  0.535991  0.704778  1
  O  O35  1  0.157082  0.929779  0.884001  1
  O  O36  1  0.342918  0.070221  0.384001  1
  O  O37  1  0.332778  0.464009  0.204778  1
  O  O38  1  0.382130  0.656034  0.921800  1
  O  O39  1  0.496285  0.837230  0.586287  1
  O  O40  1  0.503715  0.337230  0.913713  1
  O  O41  1  0.617870  0.156034  0.578200  1
  O  O42  1  0.667222  0.964009  0.295222  1
  O  O43  1  0.657082  0.570221  0.115999  1
  O  O44  1  0.842918  0.429779  0.615999  1
  O  O45  1  0.832778  0.035991  0.795222  1
  O  O46  1  0.882130  0.843966  0.078200  1
  O  O47  1  0.996285  0.662770  0.413713  1
