# generated using pymatgen
data_Li3MnV(PO4)3
_symmetry_space_group_name_H-M   'P 1'
_cell_length_a   9.23414331
_cell_length_b   8.38855521
_cell_length_c   8.41952513
_cell_angle_alpha   60.45380363
_cell_angle_beta   63.16289128
_cell_angle_gamma   90.35394508
_symmetry_Int_Tables_number   1
_chemical_formula_structural   Li3MnV(PO4)3
_chemical_formula_sum   'Li6 Mn2 V2 P6 O24'
_cell_volume   483.77369378
_cell_formula_units_Z   2
loop_
 _symmetry_equiv_pos_site_id
 _symmetry_equiv_pos_as_xyz
  1  'x, y, z'
loop_
 _atom_site_type_symbol
 _atom_site_label
 _atom_site_symmetry_multiplicity
 _atom_site_fract_x
 _atom_site_fract_y
 _atom_site_fract_z
 _atom_site_occupancy
  Li  Li0  1  0.125996  0.745171  0.195562  1
  Li  Li1  1  0.136382  0.320279  0.941452  1
  Li  Li2  1  0.374712  0.178444  0.376501  1
  Li  Li3  1  0.625288  0.821556  0.623499  1
  Li  Li4  1  0.863618  0.679721  0.058548  1
  Li  Li5  1  0.874004  0.254829  0.804438  1
  Mn  Mn6  1  0.565233  0.859721  0.284238  1
  Mn  Mn7  1  0.434767  0.140279  0.715762  1
  V  V8  1  0.033073  0.344056  0.314594  1
  V  V9  1  0.966927  0.655944  0.685406  1
  P  P10  1  0.244502  0.049146  0.220957  1
  P  P11  1  0.247352  0.459672  0.491402  1
  P  P12  1  0.240535  0.736738  0.810636  1
  P  P13  1  0.759465  0.263262  0.189364  1
  P  P14  1  0.752648  0.540328  0.508598  1
  P  P15  1  0.755498  0.950854  0.779043  1
  O  O16  1  0.121685  0.836732  0.374717  1
  O  O17  1  0.252893  0.131138  0.008464  1
  O  O18  1  0.170201  0.170820  0.316566  1
  O  O19  1  0.170198  0.483357  0.347748  1
  O  O20  1  0.099474  0.456469  0.690797  1
  O  O21  1  0.103052  0.766883  0.741950  1
  O  O22  1  0.412999  0.050183  0.212612  1
  O  O23  1  0.273593  0.260829  0.580567  1
  O  O24  1  0.402565  0.625144  0.361232  1
  O  O25  1  0.179208  0.518274  0.993652  1
  O  O26  1  0.235865  0.860877  0.896726  1
  O  O27  1  0.414586  0.787687  0.621613  1
  O  O28  1  0.585414  0.212313  0.378387  1
  O  O29  1  0.764135  0.139123  0.103274  1
  O  O30  1  0.820792  0.481726  0.006348  1
  O  O31  1  0.597435  0.374856  0.638768  1
  O  O32  1  0.726407  0.739171  0.419433  1
  O  O33  1  0.587001  0.949817  0.787388  1
  O  O34  1  0.896948  0.233117  0.258050  1
  O  O35  1  0.900526  0.543531  0.309203  1
  O  O36  1  0.829802  0.516643  0.652252  1
  O  O37  1  0.829799  0.829180  0.683434  1
  O  O38  1  0.747107  0.868862  0.991536  1
  O  O39  1  0.878315  0.163268  0.625283  1
