# generated using pymatgen
data_Li3Ti2(PO4)3
_symmetry_space_group_name_H-M   'P 1'
_cell_length_a   4.96862571
_cell_length_b   4.96862571
_cell_length_c   18.61473453
_cell_angle_alpha   89.63124503
_cell_angle_beta   89.63124503
_cell_angle_gamma   66.84019053
_symmetry_Int_Tables_number   1
_chemical_formula_structural   Li3Ti2(PO4)3
_chemical_formula_sum   'Li6 Ti4 P6 O24'
_cell_volume   422.49970195
_cell_formula_units_Z   2
loop_
 _symmetry_equiv_pos_site_id
 _symmetry_equiv_pos_as_xyz
  1  'x, y, z'
loop_
 _atom_site_type_symbol
 _atom_site_label
 _atom_site_symmetry_multiplicity
 _atom_site_fract_x
 _atom_site_fract_y
 _atom_site_fract_z
 _atom_site_occupancy
  Li  Li0  1  0.999907  0.999907  0.834188  1
  Li  Li1  1  0.329372  0.329372  0.579160  1
  Li  Li2  1  0.330092  0.330092  0.912222  1
  Li  Li3  1  0.000093  0.000093  0.499146  1
  Li  Li4  1  0.669908  0.669908  0.421111  1
  Li  Li5  1  0.670628  0.670628  0.754173  1
  Ti  Ti6  1  0.000000  0.000000  0.166667  1
  Ti  Ti7  1  0.998336  0.998336  0.003058  1
  Ti  Ti8  1  0.001664  0.001664  0.330275  1
  Ti  Ti9  1  0.000000  0.000000  0.666667  1
  P  P10  1  0.347718  0.347718  0.413817  1
  P  P11  1  0.346253  0.346253  0.083469  1
  P  P12  1  0.351049  0.351049  0.747242  1
  P  P13  1  0.653747  0.653747  0.249864  1
  P  P14  1  0.648951  0.648951  0.586092  1
  P  P15  1  0.652282  0.652282  0.919516  1
  O  O16  1  0.225881  0.690531  0.084389  1
  O  O17  1  0.235176  0.692274  0.408094  1
  O  O18  1  0.238828  0.695183  0.743634  1
  O  O19  1  0.309469  0.774119  0.248945  1
  O  O20  1  0.304817  0.761172  0.589699  1
  O  O21  1  0.307726  0.764824  0.925240  1
  O  O22  1  0.764054  0.764054  0.183844  1
  O  O23  1  0.749911  0.749911  0.517952  1
  O  O24  1  0.244939  0.244939  0.013947  1
  O  O25  1  0.232073  0.232073  0.349064  1
  O  O26  1  0.235946  0.235946  0.149490  1
  O  O27  1  0.746988  0.746988  0.849677  1
  O  O28  1  0.757223  0.757223  0.654134  1
  O  O29  1  0.755061  0.755061  0.319387  1
  O  O30  1  0.253012  0.253012  0.483657  1
  O  O31  1  0.242778  0.242778  0.679200  1
  O  O32  1  0.767927  0.767927  0.984269  1
  O  O33  1  0.250089  0.250089  0.815382  1
  O  O34  1  0.774119  0.309469  0.248945  1
  O  O35  1  0.764824  0.307726  0.925240  1
  O  O36  1  0.690531  0.225881  0.084389  1
  O  O37  1  0.761172  0.304817  0.589699  1
  O  O38  1  0.695183  0.238828  0.743634  1
  O  O39  1  0.692274  0.235176  0.408094  1
