# generated using pymatgen
data_LiFe2(BO3)2
_symmetry_space_group_name_H-M   'P 1'
_cell_length_a   5.30137070
_cell_length_b   9.03847143
_cell_length_c   10.10322232
_cell_angle_alpha   89.79208676
_cell_angle_beta   91.81486280
_cell_angle_gamma   90.12399131
_symmetry_Int_Tables_number   1
_chemical_formula_structural   LiFe2(BO3)2
_chemical_formula_sum   'Li4 Fe8 B8 O24'
_cell_volume   483.86186523
_cell_formula_units_Z   4
loop_
 _symmetry_equiv_pos_site_id
 _symmetry_equiv_pos_as_xyz
  1  'x, y, z'
loop_
 _atom_site_type_symbol
 _atom_site_label
 _atom_site_symmetry_multiplicity
 _atom_site_fract_x
 _atom_site_fract_y
 _atom_site_fract_z
 _atom_site_occupancy
  Li  Li0  1  0.339386  0.012486  0.841828  1
  Li  Li1  1  0.660966  0.999620  0.095410  1
  Li  Li2  1  0.157424  0.501306  0.095271  1
  Li  Li3  1  0.645086  0.994787  0.582613  1
  Fe  Fe4  1  0.164910  0.157821  0.121006  1
  Fe  Fe5  1  0.843100  0.171603  0.367678  1
  Fe  Fe6  1  0.331598  0.350660  0.865838  1
  Fe  Fe7  1  0.666663  0.339148  0.626998  1
  Fe  Fe8  1  0.334640  0.666871  0.369693  1
  Fe  Fe9  1  0.149077  0.833196  0.615208  1
  Fe  Fe10  1  0.666330  0.654147  0.125005  1
  Fe  Fe11  1  0.841116  0.826203  0.871507  1
  B  B12  1  0.174395  0.171958  0.622364  1
  B  B13  1  0.337788  0.330339  0.373881  1
  B  B14  1  0.838129  0.160156  0.866339  1
  B  B15  1  0.663003  0.329611  0.122306  1
  B  B16  1  0.326468  0.678337  0.880134  1
  B  B17  1  0.655463  0.668553  0.623792  1
  B  B18  1  0.170020  0.830636  0.120060  1
  B  B19  1  0.828191  0.833945  0.371505  1
  O  O20  1  0.294682  0.037499  0.636779  1
  O  O21  1  0.092816  0.165718  0.901029  1
  O  O22  1  0.704569  0.026588  0.881706  1
  O  O23  1  0.193256  0.206539  0.338120  1
  O  O24  1  0.300803  0.302811  0.650375  1
  O  O25  1  0.774303  0.192107  0.166194  1
  O  O26  1  0.914887  0.176191  0.582602  1
  O  O27  1  0.409261  0.328818  0.082620  1
  O  O28  1  0.244731  0.467259  0.354642  1
  O  O29  1  0.586268  0.308091  0.424740  1
  O  O30  1  0.702377  0.281394  0.820348  1
  O  O31  1  0.199222  0.550924  0.895734  1
  O  O32  1  0.807540  0.452857  0.120901  1
  O  O33  1  0.272883  0.696332  0.163755  1
  O  O34  1  0.418691  0.685423  0.565208  1
  O  O35  1  0.773674  0.536318  0.634867  1
  O  O36  1  0.581209  0.690355  0.916783  1
  O  O37  1  0.078353  0.812721  0.408546  1
  O  O38  1  0.203061  0.808770  0.834647  1
  O  O39  1  0.682126  0.717492  0.326394  1
  O  O40  1  0.776883  0.800779  0.669994  1
  O  O41  1  0.312502  0.956457  0.113182  1
  O  O42  1  0.913282  0.832286  0.077884  1
  O  O43  1  0.725265  0.973672  0.386418  1
