# generated using pymatgen
data_Li4Nb3V3(SnO8)2
_symmetry_space_group_name_H-M   'P 1'
_cell_length_a   6.09485697
_cell_length_b   6.05321994
_cell_length_c   10.14552999
_cell_angle_alpha   90.00024563
_cell_angle_beta   89.74073616
_cell_angle_gamma   119.76995779
_symmetry_Int_Tables_number   1
_chemical_formula_structural   Li4Nb3V3(SnO8)2
_chemical_formula_sum   'Li4 Nb3 V3 Sn2 O16'
_cell_volume   324.90134362
_cell_formula_units_Z   1
loop_
 _symmetry_equiv_pos_site_id
 _symmetry_equiv_pos_as_xyz
  1  'x, y, z'
loop_
 _atom_site_type_symbol
 _atom_site_label
 _atom_site_symmetry_multiplicity
 _atom_site_fract_x
 _atom_site_fract_y
 _atom_site_fract_z
 _atom_site_occupancy
  Li  Li0  1  0.334591  0.667339  0.903477  1
  Li  Li1  1  0.007518  0.003760  0.990758  1
  Li  Li2  1  0.011018  0.005497  0.490970  1
  Li  Li3  1  0.672317  0.336147  0.390884  1
  Nb  Nb4  1  0.662733  0.831439  0.217195  1
  Nb  Nb5  1  0.821303  0.640452  0.713471  1
  Nb  Nb6  1  0.821297  0.180873  0.713477  1
  V  V7  1  0.171601  0.820489  0.212759  1
  V  V8  1  0.171598  0.351105  0.212786  1
  V  V9  1  0.348779  0.174402  0.713232  1
  Sn  Sn10  1  0.323841  0.661909  0.490100  1
  Sn  Sn11  1  0.648880  0.324506  0.996379  1
  O  O12  1  0.154359  0.831818  0.598932  1
  O  O13  1  0.039882  0.519826  0.344402  1
  O  O14  1  0.355064  0.677413  0.100059  1
  O  O15  1  0.998046  0.999073  0.307469  1
  O  O16  1  0.996053  0.998034  0.806742  1
  O  O17  1  0.154346  0.322520  0.598922  1
  O  O18  1  0.492891  0.966423  0.340996  1
  O  O19  1  0.492935  0.526522  0.340956  1
  O  O20  1  0.312808  0.156470  0.098146  1
  O  O21  1  0.669213  0.834608  0.596911  1
  O  O22  1  0.525994  0.495841  0.843989  1
  O  O23  1  0.526004  0.030226  0.844017  1
  O  O24  1  0.664727  0.332384  0.585432  1
  O  O25  1  0.827041  0.670639  0.102119  1
  O  O26  1  0.968121  0.484077  0.851116  1
  O  O27  1  0.827040  0.156508  0.102146  1
