# generated using pymatgen
data_Fe6P4H17O27
_symmetry_space_group_name_H-M   'P 1'
_cell_length_a   10.82936472
_cell_length_b   10.82936472
_cell_length_c   19.55807335
_cell_angle_alpha   87.65223667
_cell_angle_beta   92.34776333
_cell_angle_gamma   152.14742103
_symmetry_Int_Tables_number   1
_chemical_formula_structural   Fe6P4H17O27
_chemical_formula_sum   'Fe12 P8 H34 O54'
_cell_volume   1070.64636768
_cell_formula_units_Z   2
loop_
 _symmetry_equiv_pos_site_id
 _symmetry_equiv_pos_as_xyz
  1  'x, y, z'
loop_
 _atom_site_type_symbol
 _atom_site_label
 _atom_site_symmetry_multiplicity
 _atom_site_fract_x
 _atom_site_fract_y
 _atom_site_fract_z
 _atom_site_occupancy
  Fe  Fe0  1  0.000000  0.500000  0.500000  1
  Fe  Fe1  1  0.500000  0.000000  0.000000  1
  Fe  Fe2  1  0.000000  0.000000  0.500000  1
  Fe  Fe3  1  0.000000  0.000000  0.000000  1
  Fe  Fe4  1  0.768660  0.677633  0.673610  1
  Fe  Fe5  1  0.677633  0.768660  0.826390  1
  Fe  Fe6  1  0.231340  0.322367  0.326390  1
  Fe  Fe7  1  0.322367  0.231340  0.173610  1
  Fe  Fe8  1  0.070191  0.856535  0.916724  1
  Fe  Fe9  1  0.856535  0.070191  0.583276  1
  Fe  Fe10  1  0.929809  0.143465  0.083276  1
  Fe  Fe11  1  0.143465  0.929809  0.416724  1
  P  P12  1  0.630602  0.421018  0.524959  1
  P  P13  1  0.421018  0.630602  0.975041  1
  P  P14  1  0.369398  0.578982  0.475041  1
  P  P15  1  0.578982  0.369398  0.024959  1
  P  P16  1  0.359436  0.545069  0.680478  1
  P  P17  1  0.545069  0.359436  0.819522  1
  P  P18  1  0.640564  0.454931  0.319522  1
  P  P19  1  0.454931  0.640564  0.180478  1
  H  H20  1  0.004331  0.613524  0.988211  1
  H  H21  1  0.613524  0.004331  0.511789  1
  H  H22  1  0.995669  0.386476  0.011789  1
  H  H23  1  0.386476  0.995669  0.488211  1
  H  H24  1  0.141992  0.137188  0.873889  1
  H  H25  1  0.137188  0.141992  0.626111  1
  H  H26  1  0.858008  0.862812  0.126111  1
  H  H27  1  0.862812  0.858008  0.373889  1
  H  H28  1  0.057957  0.576288  0.749715  1
  H  H29  1  0.576288  0.057957  0.750285  1
  H  H30  1  0.942043  0.423712  0.250285  1
  H  H31  1  0.423712  0.942043  0.249715  1
  H  H32  1  0.808127  0.438249  0.733376  1
  H  H33  1  0.438249  0.808127  0.766624  1
  H  H34  1  0.191873  0.561751  0.266624  1
  H  H35  1  0.561751  0.191873  0.233376  1
  H  H36  1  0.293314  0.721869  0.613104  1
  H  H37  1  0.721869  0.293314  0.886896  1
  H  H38  1  0.706686  0.278131  0.386896  1
  H  H39  1  0.278131  0.706686  0.113104  1
  H  H40  1  0.027823  0.543255  0.640833  1
  H  H41  1  0.543255  0.027823  0.859167  1
  H  H42  1  0.972177  0.456745  0.359167  1
  H  H43  1  0.456745  0.972177  0.140833  1
  H  H44  1  0.306350  0.083371  0.701260  1
  H  H45  1  0.083371  0.306350  0.798740  1
  H  H46  1  0.693650  0.916629  0.298740  1
  H  H47  1  0.916629  0.693650  0.201260  1
  H  H48  1  0.175831  0.878825  0.647151  1
  H  H49  1  0.878825  0.175831  0.852849  1
  H  H50  1  0.824169  0.121175  0.352849  1
  H  H51  1  0.121175  0.824169  0.147151  1
  H  H52  1  0.077016  0.077016  0.750000  1
  H  H53  1  0.922984  0.922984  0.250000  1
  O  O54  1  0.689694  0.334997  0.513391  1
  O  O55  1  0.334997  0.689694  0.986609  1
  O  O56  1  0.310306  0.665003  0.486609  1
  O  O57  1  0.665003  0.310306  0.013391  1
  O  O58  1  0.178738  0.327782  0.518921  1
  O  O59  1  0.327782  0.178738  0.981079  1
  O  O60  1  0.821262  0.672218  0.481079  1
  O  O61  1  0.672218  0.821262  0.018921  1
  O  O62  1  0.190339  0.341774  0.999738  1
  O  O63  1  0.341774  0.190339  0.500262  1
  O  O64  1  0.809661  0.658226  0.000262  1
  O  O65  1  0.658226  0.809661  0.499738  1
  O  O66  1  0.661573  0.474190  0.601002  1
  O  O67  1  0.474190  0.661573  0.898998  1
  O  O68  1  0.338427  0.525810  0.398998  1
  O  O69  1  0.525810  0.338427  0.101002  1
  O  O70  1  0.426842  0.467336  0.667564  1
  O  O71  1  0.467336  0.426842  0.832436  1
  O  O72  1  0.573158  0.532664  0.332436  1
  O  O73  1  0.532664  0.573158  0.167564  1
  O  O74  1  0.603100  0.397792  0.741623  1
  O  O75  1  0.397792  0.603100  0.758377  1
  O  O76  1  0.396900  0.602208  0.258377  1
  O  O77  1  0.602208  0.396900  0.241623  1
  O  O78  1  0.066453  0.310108  0.661504  1
  O  O79  1  0.310108  0.066453  0.838496  1
  O  O80  1  0.933547  0.689892  0.338496  1
  O  O81  1  0.689892  0.933547  0.161504  1
  O  O82  1  0.786936  0.528625  0.863195  1
  O  O83  1  0.528625  0.786936  0.636805  1
  O  O84  1  0.213064  0.471376  0.136805  1
  O  O85  1  0.471376  0.213064  0.363195  1
  O  O86  1  0.969249  0.954070  0.891801  1
  O  O87  1  0.954070  0.969249  0.608199  1
  O  O88  1  0.030751  0.045930  0.108199  1
  O  O89  1  0.045930  0.030751  0.391801  1
  O  O90  1  0.168016  0.783680  0.963744  1
  O  O91  1  0.783680  0.168016  0.536256  1
  O  O92  1  0.831984  0.216320  0.036256  1
  O  O93  1  0.216320  0.831984  0.463744  1
  O  O94  1  0.889086  0.889086  0.750000  1
  O  O95  1  0.110914  0.110914  0.250000  1
  O  O96  1  0.905188  0.135874  0.819785  1
  O  O97  1  0.135874  0.905188  0.680215  1
  O  O98  1  0.094812  0.864126  0.180215  1
  O  O99  1  0.864126  0.094812  0.319785  1
  O  O100  1  0.156045  0.663718  0.602022  1
  O  O101  1  0.663718  0.156045  0.897978  1
  O  O102  1  0.843955  0.336282  0.397978  1
  O  O103  1  0.336282  0.843955  0.102022  1
  O  O104  1  0.883704  0.422574  0.725834  1
  O  O105  1  0.422574  0.883704  0.774166  1
  O  O106  1  0.116296  0.577426  0.274166  1
  O  O107  1  0.577426  0.116296  0.225834  1
