# generated using pymatgen
data_Li2VFe(P2O7)2
_symmetry_space_group_name_H-M   'P 1'
_cell_length_a   9.78750025
_cell_length_b   8.23739179
_cell_length_c   7.17516857
_cell_angle_alpha   90.00000000
_cell_angle_beta   68.42341170
_cell_angle_gamma   90.00000000
_symmetry_Int_Tables_number   1
_chemical_formula_structural   Li2VFe(P2O7)2
_chemical_formula_sum   'Li4 V2 Fe2 P8 O28'
_cell_volume   537.95059764
_cell_formula_units_Z   2
loop_
 _symmetry_equiv_pos_site_id
 _symmetry_equiv_pos_as_xyz
  1  'x, y, z'
loop_
 _atom_site_type_symbol
 _atom_site_label
 _atom_site_symmetry_multiplicity
 _atom_site_fract_x
 _atom_site_fract_y
 _atom_site_fract_z
 _atom_site_occupancy
  Li  Li0  1  0.249209  0.362727  0.326531  1
  Li  Li1  1  0.251019  0.861150  0.675491  1
  Li  Li2  1  0.748981  0.361150  0.324509  1
  Li  Li3  1  0.750791  0.862727  0.673469  1
  V  V4  1  0.257168  -0.000335  0.270661  1
  V  V5  1  0.742832  0.499665  0.729339  1
  Fe  Fe6  1  0.241609  0.499812  0.732117  1
  Fe  Fe7  1  0.758391  -0.000188  0.267883  1
  P  P8  1  0.062976  0.782474  0.086454  1
  P  P9  1  0.061417  0.679872  0.478212  1
  P  P10  1  0.439109  0.180801  0.522637  1
  P  P11  1  0.564671  0.784658  0.087125  1
  P  P12  1  0.435329  0.284658  0.912875  1
  P  P13  1  0.560891  0.680801  0.477363  1
  P  P14  1  0.938583  0.179872  0.521788  1
  P  P15  1  0.937024  0.282474  0.913546  1
  O  O16  1  0.078753  0.651657  0.247303  1
  O  O17  1  0.157481  0.932605  0.081880  1
  O  O18  1  0.103487  0.178178  0.394090  1
  O  O19  1  0.129524  0.843968  0.493605  1
  O  O20  1  0.147626  0.537782  0.518416  1
  O  O21  1  0.099037  0.323193  0.853925  1
  O  O22  1  0.123814  0.693075  0.884927  1
  O  O23  1  0.375323  0.198195  0.115158  1
  O  O24  1  0.402137  0.825304  0.148795  1
  O  O25  1  0.351644  0.038736  0.482885  1
  O  O26  1  0.370425  0.346128  0.508621  1
  O  O27  1  0.396501  0.679047  0.606417  1
  O  O28  1  0.341490  0.434192  0.914334  1
  O  O29  1  0.420983  0.152361  0.753414  1
  O  O30  1  0.579017  0.652361  0.246586  1
  O  O31  1  0.658510  0.934192  0.085666  1
  O  O32  1  0.603499  0.179047  0.393583  1
  O  O33  1  0.629575  0.846128  0.491379  1
  O  O34  1  0.648356  0.538736  0.517115  1
  O  O35  1  0.597863  0.325304  0.851205  1
  O  O36  1  0.624677  0.698195  0.884842  1
  O  O37  1  0.876186  0.193075  0.115073  1
  O  O38  1  0.900963  0.823193  0.146075  1
  O  O39  1  0.852374  0.037782  0.481584  1
  O  O40  1  0.870476  0.343968  0.506395  1
  O  O41  1  0.896513  0.678178  0.605910  1
  O  O42  1  0.842519  0.432605  0.918120  1
  O  O43  1  0.921247  0.151657  0.752697  1
