# generated using pymatgen
data_Li4Cr3Cu2Sb3O16
_symmetry_space_group_name_H-M   'P 1'
_cell_length_a   6.06943960
_cell_length_b   6.11288490
_cell_length_c   9.92030381
_cell_angle_alpha   90.01802995
_cell_angle_beta   89.59105394
_cell_angle_gamma   120.23705670
_symmetry_Int_Tables_number   1
_chemical_formula_structural   Li4Cr3Cu2Sb3O16
_chemical_formula_sum   'Li4 Cr3 Cu2 Sb3 O16'
_cell_volume   317.97563607
_cell_formula_units_Z   1
loop_
 _symmetry_equiv_pos_site_id
 _symmetry_equiv_pos_as_xyz
  1  'x, y, z'
loop_
 _atom_site_type_symbol
 _atom_site_label
 _atom_site_symmetry_multiplicity
 _atom_site_fract_x
 _atom_site_fract_y
 _atom_site_fract_z
 _atom_site_occupancy
  Li  Li0  1  0.338215  0.669197  0.898629  1
  Li  Li1  1  0.022437  0.011102  0.002972  1
  Li  Li2  1  0.019552  0.009748  0.492416  1
  Li  Li3  1  0.673855  0.337002  0.376672  1
  Cr  Cr4  1  0.173645  0.833779  0.215186  1
  Cr  Cr5  1  0.173465  0.339922  0.215270  1
  Cr  Cr6  1  0.331265  0.165684  0.715399  1
  Cu  Cu7  1  0.309219  0.654609  0.477557  1
  Cu  Cu8  1  0.654589  0.327385  0.027670  1
  Sb  Sb9  1  0.665309  0.832554  0.215582  1
  Sb  Sb10  1  0.824373  0.659521  0.715801  1
  Sb  Sb11  1  0.824398  0.164988  0.715802  1
  O  O12  1  0.142624  0.836360  0.606236  1
  O  O13  1  0.040128  0.519989  0.328372  1
  O  O14  1  0.340632  0.670302  0.105942  1
  O  O15  1  0.001766  0.000910  0.313142  1
  O  O16  1  0.993731  0.996993  0.819762  1
  O  O17  1  0.142683  0.306415  0.606206  1
  O  O18  1  0.490189  0.970194  0.331646  1
  O  O19  1  0.490418  0.519906  0.331433  1
  O  O20  1  0.318989  0.159422  0.107600  1
  O  O21  1  0.685483  0.842756  0.602048  1
  O  O22  1  0.510551  0.486668  0.824107  1
  O  O23  1  0.510597  0.024189  0.824186  1
  O  O24  1  0.662861  0.331416  0.602966  1
  O  O25  1  0.844772  0.691661  0.103123  1
  O  O26  1  0.969499  0.484855  0.829001  1
  O  O27  1  0.844755  0.152772  0.103113  1
