# generated using pymatgen
data_Zr4N2O5
_symmetry_space_group_name_H-M   'P 1'
_cell_length_a   8.90775837
_cell_length_b   8.90776754
_cell_length_c   8.90779002
_cell_angle_alpha   109.15439348
_cell_angle_beta   109.15433298
_cell_angle_gamma   110.10707347
_symmetry_Int_Tables_number   1
_chemical_formula_structural   Zr4N2O5
_chemical_formula_sum   'Zr16 N8 O20'
_cell_volume   544.05627567
_cell_formula_units_Z   4
loop_
 _symmetry_equiv_pos_site_id
 _symmetry_equiv_pos_as_xyz
  1  'x, y, z'
loop_
 _atom_site_type_symbol
 _atom_site_label
 _atom_site_symmetry_multiplicity
 _atom_site_fract_x
 _atom_site_fract_y
 _atom_site_fract_z
 _atom_site_occupancy
  Zr  Zr0  1  0.491480  0.216774  0.213875  1
  Zr  Zr1  1  0.998574  0.998572  0.000037  1
  Zr  Zr2  1  0.963472  0.463472  0.500034  1
  Zr  Zr3  1  0.498554  0.498557  0.000039  1
  Zr  Zr4  1  0.991469  0.777638  0.274736  1
  Zr  Zr5  1  0.703110  0.203105  0.956825  1
  Zr  Zr6  1  0.746311  0.703106  0.500019  1
  Zr  Zr7  1  0.277622  0.491444  0.274710  1
  Zr  Zr8  1  0.716782  0.991458  0.213856  1
  Zr  Zr9  1  0.216767  0.002951  0.725359  1
  Zr  Zr10  1  0.777632  0.502963  0.786226  1
  Zr  Zr11  1  0.246325  0.746330  0.043246  1
  Zr  Zr12  1  0.203117  0.246321  0.500041  1
  Zr  Zr13  1  0.502944  0.716767  0.725332  1
  Zr  Zr14  1  0.463472  0.963473  0.500041  1
  Zr  Zr15  1  0.002933  0.277635  0.786207  1
  N  N16  1  0.749129  0.249115  0.227031  1
  N  N17  1  0.717520  0.217517  0.720431  1
  N  N18  1  0.997134  0.717518  0.500038  1
  N  N19  1  0.249118  0.022126  0.500061  1
  N  N20  1  0.522104  0.749099  0.500011  1
  N  N21  1  0.497161  0.997171  0.279678  1
  N  N22  1  0.217513  0.497130  0.500023  1
  N  N23  1  0.022108  0.522123  0.773040  1
  O  O24  1  0.975039  0.007642  0.240466  1
  O  O25  1  0.999489  0.265780  0.032399  1
  O  O26  1  0.765773  0.499500  0.032411  1
  O  O27  1  0.941236  0.196395  0.500034  1
  O  O28  1  0.507632  0.475015  0.240443  1
  O  O29  1  0.696389  0.441235  0.500035  1
  O  O30  1  0.265760  0.233402  0.266301  1
  O  O31  1  0.267206  0.507645  0.032648  1
  O  O32  1  0.733413  0.765771  0.266315  1
  O  O33  1  0.499493  0.467123  0.733754  1
  O  O34  1  0.475034  0.234592  0.967416  1
  O  O35  1  0.767214  0.734604  0.759596  1
  O  O36  1  0.967127  0.999498  0.733774  1
  O  O37  1  0.196410  0.696422  0.255200  1
  O  O38  1  0.234596  0.267216  0.759620  1
  O  O39  1  0.007634  0.767222  0.032647  1
  O  O40  1  0.734611  0.975024  0.967418  1
  O  O41  1  0.441212  0.941198  0.744863  1
  O  O42  1  0.467142  0.733391  0.967677  1
  O  O43  1  0.233417  0.967139  0.967687  1
