# generated using pymatgen
data_Li2Co(CO3)2
_symmetry_space_group_name_H-M   'P 1'
_cell_length_a   5.39687801
_cell_length_b   6.26290720
_cell_length_c   8.65105403
_cell_angle_alpha   97.73569103
_cell_angle_beta   108.16511008
_cell_angle_gamma   64.47608418
_symmetry_Int_Tables_number   1
_chemical_formula_structural   Li2Co(CO3)2
_chemical_formula_sum   'Li4 Co2 C4 O12'
_cell_volume   250.71886133
_cell_formula_units_Z   2
loop_
 _symmetry_equiv_pos_site_id
 _symmetry_equiv_pos_as_xyz
  1  'x, y, z'
loop_
 _atom_site_type_symbol
 _atom_site_label
 _atom_site_symmetry_multiplicity
 _atom_site_fract_x
 _atom_site_fract_y
 _atom_site_fract_z
 _atom_site_occupancy
  Li  Li0  1  0.776702  0.456685  0.831387  1
  Li  Li1  1  0.195094  0.956146  0.668447  1
  Li  Li2  1  0.481328  0.043983  0.331343  1
  Li  Li3  1  0.400852  0.543099  0.168703  1
  Co  Co4  1  0.124054  0.499832  0.499889  1
  Co  Co5  1  0.873539  0.999802  0.000102  1
  C  C6  1  0.152425  0.603755  0.799287  1
  C  C7  1  0.603383  0.103543  0.700590  1
  C  C8  1  0.006840  0.896581  0.299523  1
  C  C9  1  0.956837  0.396360  0.200595  1
  O  O10  1  0.137402  0.659433  0.947114  1
  O  O11  1  0.853935  0.108275  0.752009  1
  O  O12  1  0.960953  0.543226  0.695410  1
  O  O13  1  0.516575  0.042269  0.804473  1
  O  O14  1  0.351558  0.607786  0.747519  1
  O  O15  1  0.439864  0.159342  0.552926  1
  O  O16  1  0.807800  0.457505  0.304011  1
  O  O17  1  0.048176  0.840028  0.447287  1
  O  O18  1  0.754388  0.958251  0.196145  1
  O  O19  1  0.209937  0.891888  0.247485  1
  O  O20  1  0.211889  0.392289  0.253004  1
  O  O21  1  0.851345  0.339844  0.052782  1
