# generated using pymatgen
data_LiCoSnO4
_symmetry_space_group_name_H-M   'P 1'
_cell_length_a   6.08039210
_cell_length_b   6.08040441
_cell_length_c   8.58302862
_cell_angle_alpha   90.00293624
_cell_angle_beta   90.00309717
_cell_angle_gamma   89.99352700
_symmetry_Int_Tables_number   1
_chemical_formula_structural   LiCoSnO4
_chemical_formula_sum   'Li4 Co4 Sn4 O16'
_cell_volume   317.32523340
_cell_formula_units_Z   4
loop_
 _symmetry_equiv_pos_site_id
 _symmetry_equiv_pos_as_xyz
  1  'x, y, z'
loop_
 _atom_site_type_symbol
 _atom_site_label
 _atom_site_symmetry_multiplicity
 _atom_site_fract_x
 _atom_site_fract_y
 _atom_site_fract_z
 _atom_site_occupancy
  Li  Li0  1  0.999996  0.215494  0.999974  1
  Li  Li1  1  0.000030  0.784487  0.500021  1
  Li  Li2  1  0.215510  0.999963  0.249975  1
  Li  Li3  1  0.784505  0.999996  0.750034  1
  Co  Co4  1  0.245978  0.246006  0.624993  1
  Co  Co5  1  0.245967  0.754036  0.875000  1
  Co  Co6  1  0.754036  0.245968  0.375000  1
  Co  Co7  1  0.754004  0.754036  0.125007  1
  Sn  Sn8  1  0.230714  0.499925  0.250011  1
  Sn  Sn9  1  0.500003  0.230739  -0.000003  1
  Sn  Sn10  1  0.500051  0.769302  0.499991  1
  Sn  Sn11  1  0.769280  0.499977  0.749993  1
  O  O12  1  0.996881  0.255790  0.251591  1
  O  O13  1  0.996864  0.744228  0.248425  1
  O  O14  1  0.255786  0.996890  0.998425  1
  O  O15  1  0.255766  0.003144  0.501577  1
  O  O16  1  0.257890  0.482519  0.006884  1
  O  O17  1  0.257908  0.517520  0.493113  1
  O  O18  1  0.482531  0.257903  0.243109  1
  O  O19  1  0.482478  0.742088  0.256888  1
  O  O20  1  0.517493  0.257920  0.756886  1
  O  O21  1  0.517483  0.742103  0.743117  1
  O  O22  1  0.742093  0.517474  0.506889  1
  O  O23  1  0.742077  0.482507  0.993114  1
  O  O24  1  0.744222  0.996872  0.001571  1
  O  O25  1  0.744208  0.003122  0.498408  1
  O  O26  1  0.003137  0.255775  0.748429  1
  O  O27  1  0.003109  0.744216  0.751578  1
