# generated using pymatgen
data_Li5Fe2P2(CO7)2
_symmetry_space_group_name_H-M   'P 1'
_cell_length_a   9.40986629
_cell_length_b   8.26234118
_cell_length_c   8.25097360
_cell_angle_alpha   75.46643453
_cell_angle_beta   72.98242476
_cell_angle_gamma   105.41033181
_symmetry_Int_Tables_number   1
_chemical_formula_structural   Li5Fe2P2(CO7)2
_chemical_formula_sum   'Li10 Fe4 P4 C4 O28'
_cell_volume   552.47690315
_cell_formula_units_Z   2
loop_
 _symmetry_equiv_pos_site_id
 _symmetry_equiv_pos_as_xyz
  1  'x, y, z'
loop_
 _atom_site_type_symbol
 _atom_site_label
 _atom_site_symmetry_multiplicity
 _atom_site_fract_x
 _atom_site_fract_y
 _atom_site_fract_z
 _atom_site_occupancy
  Li  Li0  1  0.904190  0.197732  0.060546  1
  Li  Li1  1  0.896200  0.687670  0.566416  1
  Li  Li2  1  0.719230  0.759595  0.285298  1
  Li  Li3  1  0.730736  0.483956  0.004776  1
  Li  Li4  1  0.733265  0.238392  0.776130  1
  Li  Li5  1  0.280770  0.740405  0.214702  1
  Li  Li6  1  0.266735  0.261608  0.723870  1
  Li  Li7  1  0.269264  0.016044  0.495224  1
  Li  Li8  1  0.103800  0.812330  0.933584  1
  Li  Li9  1  0.095810  0.302268  0.439454  1
  Fe  Fe10  1  0.667971  0.818104  0.930591  1
  Fe  Fe11  1  0.668603  0.303770  0.441811  1
  Fe  Fe12  1  0.331397  0.196230  0.058189  1
  Fe  Fe13  1  0.332029  0.681896  0.569409  1
  P  P14  1  0.586288  0.545807  0.691985  1
  P  P15  1  0.580978  0.055705  0.194291  1
  P  P16  1  0.419022  0.444295  0.305709  1
  P  P17  1  0.413712  0.954193  0.808015  1
  C  C18  1  0.955861  0.515977  0.248294  1
  C  C19  1  0.969007  0.013711  0.744144  1
  C  C20  1  0.044139  0.984023  0.251706  1
  C  C21  1  0.030993  0.486289  0.755856  1
  O  O22  1  0.932988  0.864416  0.872814  1
  O  O23  1  0.923882  0.368567  0.381867  1
  O  O24  1  0.906235  0.865957  0.343738  1
  O  O25  1  0.829315  0.532614  0.217297  1
  O  O26  1  0.883377  0.389171  0.866454  1
  O  O27  1  0.854411  0.065407  0.722506  1
  O  O28  1  0.691997  0.966114  0.108352  1
  O  O29  1  0.683361  0.178835  0.265721  1
  O  O30  1  0.686165  0.644279  0.781500  1
  O  O31  1  0.697807  0.454955  0.599916  1
  O  O32  1  0.580241  0.580525  0.159278  1
  O  O33  1  0.547372  0.182668  0.043843  1
  O  O34  1  0.556356  0.672086  0.545042  1
  O  O35  1  0.578625  0.096890  0.669338  1
  O  O36  1  0.419759  0.919475  0.340722  1
  O  O37  1  0.452628  0.317332  0.456157  1
  O  O38  1  0.443644  0.827914  0.954958  1
  O  O39  1  0.421375  0.403110  0.830662  1
  O  O40  1  0.308003  0.533886  0.391648  1
  O  O41  1  0.316639  0.321165  0.234279  1
  O  O42  1  0.313835  0.855721  0.718500  1
  O  O43  1  0.302193  0.045045  0.900084  1
  O  O44  1  0.170685  0.967386  0.282703  1
  O  O45  1  0.093765  0.634043  0.156262  1
  O  O46  1  0.145589  0.434593  0.777494  1
  O  O47  1  0.116623  0.110829  0.633546  1
  O  O48  1  0.067012  0.635584  0.627186  1
  O  O49  1  0.076118  0.131433  0.118133  1
