# generated using pymatgen
data_Li2V(SiO3)2
_symmetry_space_group_name_H-M   'P 1'
_cell_length_a   10.14694483
_cell_length_b   10.14003789
_cell_length_c   7.17623364
_cell_angle_alpha   90.00000000
_cell_angle_beta   90.00000000
_cell_angle_gamma   90.00000000
_symmetry_Int_Tables_number   1
_chemical_formula_structural   Li2V(SiO3)2
_chemical_formula_sum   'Li12 V6 Si12 O36'
_cell_volume   738.36558591
_cell_formula_units_Z   6
loop_
 _symmetry_equiv_pos_site_id
 _symmetry_equiv_pos_as_xyz
  1  'x, y, z'
loop_
 _atom_site_type_symbol
 _atom_site_label
 _atom_site_symmetry_multiplicity
 _atom_site_fract_x
 _atom_site_fract_y
 _atom_site_fract_z
 _atom_site_occupancy
  Li  Li0  1  0.000000  0.499622  0.497155  1
  Li  Li1  1  0.000000  0.753478  0.750431  1
  Li  Li2  1  0.217417  0.451027  0.301939  1
  Li  Li3  1  0.219884  0.506844  0.749831  1
  Li  Li4  1  0.280116  0.006844  0.250169  1
  Li  Li5  1  0.282583  0.951027  0.698061  1
  Li  Li6  1  0.500000  0.253478  0.249569  1
  Li  Li7  1  0.500000  0.999622  0.502845  1
  Li  Li8  1  0.717417  0.951027  0.698061  1
  Li  Li9  1  0.719884  0.006844  0.250169  1
  Li  Li10  1  0.780116  0.506844  0.749831  1
  Li  Li11  1  0.782583  0.451027  0.301939  1
  V  V12  1  0.000000  0.014834  0.979623  1
  V  V13  1  0.000000  0.244990  0.247381  1
  V  V14  1  0.000000  0.253866  0.727884  1
  V  V15  1  0.500000  0.514834  0.020377  1
  V  V16  1  0.500000  0.753866  0.272116  1
  V  V17  1  0.500000  0.744990  0.752619  1
  Si  Si18  1  0.000000  0.534477  0.987344  1
  Si  Si19  1  0.000000  0.957223  0.507341  1
  Si  Si20  1  0.225686  0.756790  0.021590  1
  Si  Si21  1  0.222144  0.740380  0.462596  1
  Si  Si22  1  0.277856  0.240380  0.537404  1
  Si  Si23  1  0.274314  0.256790  0.978410  1
  Si  Si24  1  0.500000  0.457223  0.492659  1
  Si  Si25  1  0.500000  0.034477  0.012656  1
  Si  Si26  1  0.725686  0.256790  0.978410  1
  Si  Si27  1  0.722144  0.240380  0.537404  1
  Si  Si28  1  0.777856  0.740380  0.462596  1
  Si  Si29  1  0.774314  0.756790  0.021590  1
  O  O30  1  0.000000  0.024315  0.301950  1
  O  O31  1  0.000000  0.463073  0.188059  1
  O  O32  1  0.000000  0.054705  0.685001  1
  O  O33  1  0.000000  0.451363  0.794963  1
  O  O34  1  0.122601  0.851940  0.558440  1
  O  O35  1  0.127186  0.636252  0.946320  1
  O  O36  1  0.125295  0.202005  0.007681  1
  O  O37  1  0.131103  0.288422  0.476653  1
  O  O38  1  0.178123  0.591511  0.510802  1
  O  O39  1  0.181882  0.894715  0.927221  1
  O  O40  1  0.203178  0.780140  0.243930  1
  O  O41  1  0.296822  0.280140  0.756070  1
  O  O42  1  0.318118  0.394715  0.072779  1
  O  O43  1  0.321877  0.091511  0.489198  1
  O  O44  1  0.368897  0.788422  0.523347  1
  O  O45  1  0.374705  0.702005  0.992319  1
  O  O46  1  0.372814  0.136252  0.053680  1
  O  O47  1  0.377399  0.351940  0.441560  1
  O  O48  1  0.500000  0.524315  0.698050  1
  O  O49  1  0.500000  0.554705  0.314999  1
  O  O50  1  0.500000  0.963073  0.811941  1
  O  O51  1  0.500000  0.951363  0.205037  1
  O  O52  1  0.622601  0.351940  0.441560  1
  O  O53  1  0.627186  0.136252  0.053680  1
  O  O54  1  0.625295  0.702005  0.992319  1
  O  O55  1  0.631103  0.788422  0.523347  1
  O  O56  1  0.678123  0.091511  0.489198  1
  O  O57  1  0.681882  0.394715  0.072779  1
  O  O58  1  0.703178  0.280140  0.756070  1
  O  O59  1  0.796822  0.780140  0.243930  1
  O  O60  1  0.818118  0.894715  0.927221  1
  O  O61  1  0.821877  0.591511  0.510802  1
  O  O62  1  0.868897  0.288422  0.476653  1
  O  O63  1  0.874705  0.202005  0.007681  1
  O  O64  1  0.872814  0.636252  0.946320  1
  O  O65  1  0.877399  0.851940  0.558440  1
