# generated using pymatgen
data_ZnPH4NO4
_symmetry_space_group_name_H-M   'P 1'
_cell_length_a   10.80876753
_cell_length_b   10.80868972
_cell_length_c   8.76916672
_cell_angle_alpha   90.00025257
_cell_angle_beta   89.99974526
_cell_angle_gamma   120.00029642
_symmetry_Int_Tables_number   1
_chemical_formula_structural   ZnPH4NO4
_chemical_formula_sum   'Zn8 P8 H32 N8 O32'
_cell_volume   887.23136779
_cell_formula_units_Z   8
loop_
 _symmetry_equiv_pos_site_id
 _symmetry_equiv_pos_as_xyz
  1  'x, y, z'
loop_
 _atom_site_type_symbol
 _atom_site_label
 _atom_site_symmetry_multiplicity
 _atom_site_fract_x
 _atom_site_fract_y
 _atom_site_fract_z
 _atom_site_occupancy
  Zn  Zn0  1  0.148321  0.822284  0.452249  1
  Zn  Zn1  1  0.333346  0.666674  0.074878  1
  Zn  Zn2  1  0.177718  0.326038  0.452249  1
  Zn  Zn3  1  0.673975  0.851684  0.452248  1
  Zn  Zn4  1  0.326036  0.148320  0.952250  1
  Zn  Zn5  1  0.822286  0.673960  0.952250  1
  Zn  Zn6  1  0.666673  0.333326  0.574878  1
  Zn  Zn7  1  0.851687  0.177714  0.952249  1
  P  P8  1  0.146374  0.819250  0.071785  1
  P  P9  1  0.333353  0.666677  0.467013  1
  P  P10  1  0.180751  0.327122  0.071785  1
  P  P11  1  0.672886  0.853631  0.071782  1
  P  P12  1  0.327121  0.146372  0.571782  1
  P  P13  1  0.819252  0.672877  0.571784  1
  P  P14  1  0.666677  0.333324  0.967013  1
  P  P15  1  0.853633  0.180747  0.571783  1
  H  H16  1  0.031928  0.930884  0.793461  1
  H  H17  1  0.006974  0.587386  0.693636  1
  H  H18  1  0.028468  0.573498  0.271000  1
  H  H19  1  0.093259  0.586816  0.855311  1
  H  H20  1  0.125471  0.530219  0.683839  1
  H  H21  1  0.404748  0.874531  0.683840  1
  H  H22  1  0.000000  0.000000  0.133693  1
  H  H23  1  0.000000  -0.000000  0.633693  1
  H  H24  1  0.069116  0.101044  0.793462  1
  H  H25  1  0.493559  0.906743  0.855311  1
  H  H26  1  0.545027  0.971531  0.271001  1
  H  H27  1  0.101044  0.031929  0.293462  1
  H  H28  1  0.580412  0.993027  0.693635  1
  H  H29  1  0.413184  0.506441  0.855311  1
  H  H30  1  0.469784  0.595253  0.683840  1
  H  H31  1  0.412614  0.419586  0.693635  1
  H  H32  1  0.426504  0.454971  0.271001  1
  H  H33  1  0.573496  0.545029  0.771001  1
  H  H34  1  0.587387  0.580413  0.193636  1
  H  H35  1  0.530219  0.404749  0.183840  1
  H  H36  1  0.586816  0.493556  0.355312  1
  H  H37  1  0.419587  0.006972  0.193635  1
  H  H38  1  0.898956  0.968070  0.793462  1
  H  H39  1  0.454972  0.028469  0.771000  1
  H  H40  1  0.506441  0.093257  0.355311  1
  H  H41  1  0.930885  0.898955  0.293462  1
  H  H42  1  0.595254  0.125470  0.183840  1
  H  H43  1  0.874531  0.469782  0.183839  1
  H  H44  1  0.906743  0.413183  0.355311  1
  H  H45  1  0.971532  0.426503  0.771000  1
  H  H46  1  0.993027  0.412615  0.193634  1
  H  H47  1  0.968072  0.069116  0.293462  1
  N  N48  1  0.048062  0.532215  0.753756  1
  N  N49  1  -0.000000  -0.000001  0.251093  1
  N  N50  1  0.000001  1.000000  0.751093  1
  N  N51  1  0.484154  0.951938  0.753756  1
  N  N52  1  0.467783  0.515845  0.753756  1
  N  N53  1  0.532216  0.484152  0.253757  1
  N  N54  1  0.515845  0.048060  0.253756  1
  N  N55  1  0.951939  0.467785  0.253756  1
  O  O56  1  0.025698  0.817594  0.973304  1
  O  O57  1  0.091972  0.772378  0.237348  1
  O  O58  1  0.276321  0.973754  0.072657  1
  O  O59  1  0.189351  0.713544  0.001608  1
  O  O60  1  0.026250  0.302569  0.072656  1
  O  O61  1  0.287864  0.772618  0.531489  1
  O  O62  1  0.227393  0.515247  0.531483  1
  O  O63  1  0.333383  0.666692  0.293673  1
  O  O64  1  0.286457  0.475805  0.001603  1
  O  O65  1  0.227620  0.319595  0.237348  1
  O  O66  1  0.182405  0.208101  0.973305  1
  O  O67  1  0.524211  0.810664  0.001595  1
  O  O68  1  0.484772  0.712152  0.531506  1
  O  O69  1  0.302569  0.276321  0.572657  1
  O  O70  1  0.208100  0.025694  0.473304  1
  O  O71  1  0.680411  0.908029  0.237347  1
  O  O72  1  0.319593  0.091975  0.737348  1
  O  O73  1  0.791912  0.974306  0.973305  1
  O  O74  1  0.697434  0.723679  0.072660  1
  O  O75  1  0.515248  0.287855  0.031481  1
  O  O76  1  0.475803  0.189348  0.501606  1
  O  O77  1  0.817600  0.791899  0.473303  1
  O  O78  1  0.772381  0.680406  0.737348  1
  O  O79  1  0.713548  0.524195  0.501609  1
  O  O80  1  0.666693  0.333309  0.793673  1
  O  O81  1  0.772619  0.484754  0.031491  1
  O  O82  1  0.712152  0.227380  0.031507  1
  O  O83  1  0.973755  0.697432  0.572659  1
  O  O84  1  0.810666  0.286453  0.501597  1
  O  O85  1  0.723682  0.026246  0.572658  1
  O  O86  1  0.908030  0.227619  0.737346  1
  O  O87  1  0.974309  0.182398  0.473306  1
