# generated using pymatgen
data_Li2Ti3FeO8
_symmetry_space_group_name_H-M   'P 1'
_cell_length_a   8.51715614
_cell_length_b   8.51464993
_cell_length_c   8.51397223
_cell_angle_alpha   89.94048031
_cell_angle_beta   90.19445014
_cell_angle_gamma   90.21205789
_symmetry_Int_Tables_number   1
_chemical_formula_structural   Li2Ti3FeO8
_chemical_formula_sum   'Li8 Ti12 Fe4 O32'
_cell_volume   617.43029033
_cell_formula_units_Z   4
loop_
 _symmetry_equiv_pos_site_id
 _symmetry_equiv_pos_as_xyz
  1  'x, y, z'
loop_
 _atom_site_type_symbol
 _atom_site_label
 _atom_site_symmetry_multiplicity
 _atom_site_fract_x
 _atom_site_fract_y
 _atom_site_fract_z
 _atom_site_occupancy
  Li  Li0  1  -0.000237  -0.000063  0.999222  1
  Li  Li1  1  0.249781  0.250788  0.249833  1
  Li  Li2  1  0.248705  0.748825  0.750941  1
  Li  Li3  1  0.499479  0.000494  0.499020  1
  Li  Li4  1  0.499033  0.501780  0.001802  1
  Li  Li5  1  0.751341  0.247837  0.747677  1
  Li  Li6  1  0.750353  0.751066  0.249873  1
  Li  Li7  1  0.001514  0.499439  0.501563  1
  Ti  Ti8  1  0.128742  0.118641  0.627232  1
  Ti  Ti9  1  0.123977  0.377093  0.872638  1
  Ti  Ti10  1  0.121827  0.623647  0.130511  1
  Ti  Ti11  1  0.375686  0.377052  0.629139  1
  Ti  Ti12  1  0.379033  0.629540  0.375440  1
  Ti  Ti13  1  0.371817  0.875893  0.118641  1
  Ti  Ti14  1  0.618713  0.370679  0.376348  1
  Ti  Ti15  1  0.625357  0.127870  0.122138  1
  Ti  Ti16  1  0.630965  0.874622  0.878499  1
  Ti  Ti17  1  0.879100  0.132756  0.374789  1
  Ti  Ti18  1  0.870730  0.873497  0.619113  1
  Ti  Ti19  1  0.873857  0.621938  0.874075  1
  Fe  Fe20  1  0.125093  0.875688  0.374241  1
  Fe  Fe21  1  0.374652  0.124288  0.874965  1
  Fe  Fe22  1  0.624996  0.625402  0.624439  1
  Fe  Fe23  1  0.875169  0.375096  0.125938  1
  O  O24  1  0.102025  0.128250  0.391808  1
  O  O25  1  0.107383  0.897232  0.629506  1
  O  O26  1  0.111359  0.610953  0.886780  1
  O  O27  1  0.124932  0.147943  0.858395  1
  O  O28  1  0.124027  0.391637  0.102033  1
  O  O29  1  0.138750  0.363353  0.639147  1
  O  O30  1  0.142671  0.620797  0.352529  1
  O  O31  1  0.148327  0.857880  0.121120  1
  O  O32  1  0.352326  0.143504  0.620774  1
  O  O33  1  0.358620  0.375582  0.854347  1
  O  O34  1  0.362133  0.638251  0.138270  1
  O  O35  1  0.371021  0.606516  0.602138  1
  O  O36  1  0.373480  0.852483  0.359262  1
  O  O37  1  0.389128  0.386512  0.387006  1
  O  O38  1  0.393883  0.101508  0.129274  1
  O  O39  1  0.397864  0.874777  0.891269  1
  O  O40  1  0.603323  0.373933  0.607943  1
  O  O41  1  0.608025  0.602666  0.375130  1
  O  O42  1  0.612936  0.887161  0.111194  1
  O  O43  1  0.624833  0.353722  0.141907  1
  O  O44  1  0.626216  0.107966  0.896298  1
  O  O45  1  0.637000  0.138993  0.362847  1
  O  O46  1  0.641971  0.875734  0.647319  1
  O  O47  1  0.646382  0.641846  0.875050  1
  O  O48  1  0.852240  0.358936  0.376213  1
  O  O49  1  0.856049  0.120726  0.148558  1
  O  O50  1  0.860716  0.862481  0.863706  1
  O  O51  1  0.876651  0.890519  0.397169  1
  O  O52  1  0.878893  0.647694  0.643588  1
  O  O53  1  0.888084  0.111579  0.611289  1
  O  O54  1  0.891430  0.395878  0.873475  1
  O  O55  1  0.897639  0.629266  0.106730  1
