# generated using pymatgen
data_Li6Mn5Fe(BO3)6
_symmetry_space_group_name_H-M   'P 1'
_cell_length_a   8.26784329
_cell_length_b   14.33766083
_cell_length_c   3.18491251
_cell_angle_alpha   90.00000000
_cell_angle_beta   90.00000000
_cell_angle_gamma   89.94693347
_symmetry_Int_Tables_number   1
_chemical_formula_structural   Li6Mn5Fe(BO3)6
_chemical_formula_sum   'Li6 Mn5 Fe1 B6 O18'
_cell_volume   377.54424896
_cell_formula_units_Z   1
loop_
 _symmetry_equiv_pos_site_id
 _symmetry_equiv_pos_as_xyz
  1  'x, y, z'
loop_
 _atom_site_type_symbol
 _atom_site_label
 _atom_site_symmetry_multiplicity
 _atom_site_fract_x
 _atom_site_fract_y
 _atom_site_fract_z
 _atom_site_occupancy
  Li  Li0  1  0.292895  0.990935  0.500000  1
  Li  Li1  1  0.340608  0.358309  0.500000  1
  Li  Li2  1  0.367406  0.651167  0.500000  1
  Li  Li3  1  0.792681  0.492219  0.500000  1
  Li  Li4  1  0.840317  0.857704  0.500000  1
  Li  Li5  1  0.866871  0.150615  0.500000  1
  Mn  Mn6  1  0.133705  0.506356  0.000000  1
  Mn  Mn7  1  0.173711  0.814218  0.000000  1
  Mn  Mn8  1  0.191364  0.179545  0.000000  1
  Mn  Mn9  1  0.634797  0.005676  0.000000  1
  Mn  Mn10  1  0.673925  0.314197  0.000000  1
  Fe  Fe11  1  0.687154  0.679227  0.000000  1
  B  B12  1  0.997863  0.667025  0.500000  1
  B  B13  1  0.000030  0.999899  0.000000  1
  B  B14  1  0.999928  0.333444  0.500000  1
  B  B15  1  0.500091  0.166638  0.500000  1
  B  B16  1  0.501507  0.500213  0.000000  1
  B  B17  1  0.501112  0.832302  0.500000  1
  O  O18  1  0.010286  0.430145  0.500000  1
  O  O19  1  0.014099  0.763785  0.500000  1
  O  O20  1  0.136730  0.611241  0.500000  1
  O  O21  1  0.140046  0.279838  0.500000  1
  O  O22  1  0.154774  0.960985  0.000000  1
  O  O23  1  0.347820  0.125169  0.500000  1
  O  O24  1  0.349979  0.790099  0.500000  1
  O  O25  1  0.364671  0.443531  0.000000  1
  O  O26  1  0.485362  0.597465  0.000000  1
  O  O27  1  0.512228  0.929097  0.500000  1
  O  O28  1  0.513871  0.263479  0.500000  1
  O  O29  1  0.638402  0.111165  0.500000  1
  O  O30  1  0.640460  0.777795  0.500000  1
  O  O31  1  0.655172  0.460675  0.000000  1
  O  O32  1  0.845025  0.626810  0.500000  1
  O  O33  1  0.849651  0.290245  0.500000  1
  O  O34  1  0.864400  0.942112  0.000000  1
  O  O35  1  0.981059  0.096673  0.000000  1
