# generated using pymatgen
data_Mn4O3F5
_symmetry_space_group_name_H-M   'P 1'
_cell_length_a   5.76209467
_cell_length_b   5.76209467
_cell_length_c   5.76209467
_cell_angle_alpha   67.91944857
_cell_angle_beta   102.29417425
_cell_angle_gamma   65.72232397
_symmetry_Int_Tables_number   1
_chemical_formula_structural   Mn4O3F5
_chemical_formula_sum   'Mn4 O3 F5'
_cell_volume   145.50744008
_cell_formula_units_Z   1
loop_
 _symmetry_equiv_pos_site_id
 _symmetry_equiv_pos_as_xyz
  1  'x, y, z'
loop_
 _atom_site_type_symbol
 _atom_site_label
 _atom_site_symmetry_multiplicity
 _atom_site_fract_x
 _atom_site_fract_y
 _atom_site_fract_z
 _atom_site_occupancy
  Mn  Mn0  1  0.758867  0.733326  0.507807  1
  Mn  Mn1  1  0.241133  0.251061  0.507807  1
  Mn  Mn2  1  0.500000  0.522430  0.977570  1
  Mn  Mn3  1  0.000000  0.991450  0.008550  1
  O  O4  1  0.500000  0.819141  0.680859  1
  O  O5  1  0.000000  0.292368  0.707632  1
  O  O6  1  0.000000  0.688244  0.311756  1
  F  F7  1  0.057500  0.750948  0.809384  1
  F  F8  1  0.560332  0.248116  0.809384  1
  F  F9  1  0.500000  0.203851  0.296149  1
  F  F10  1  0.439668  0.750948  0.191552  1
  F  F11  1  0.942500  0.248116  0.191552  1
