# generated using pymatgen
data_Na3SiH5O6
_symmetry_space_group_name_H-M   'P 1'
_cell_length_a   10.56104151
_cell_length_b   18.91468172
_cell_length_c   6.13876682
_cell_angle_alpha   90.00000000
_cell_angle_beta   90.00000000
_cell_angle_gamma   90.00000000
_symmetry_Int_Tables_number   1
_chemical_formula_structural   Na3SiH5O6
_chemical_formula_sum   'Na24 Si8 H40 O48'
_cell_volume   1226.27231771
_cell_formula_units_Z   8
loop_
 _symmetry_equiv_pos_site_id
 _symmetry_equiv_pos_as_xyz
  1  'x, y, z'
loop_
 _atom_site_type_symbol
 _atom_site_label
 _atom_site_symmetry_multiplicity
 _atom_site_fract_x
 _atom_site_fract_y
 _atom_site_fract_z
 _atom_site_occupancy
  Na  Na0  1  0.506581  0.182565  0.782385  1
  Na  Na1  1  0.006581  0.317435  0.217615  1
  Na  Na2  1  0.493419  0.682565  0.717615  1
  Na  Na3  1  0.993419  0.817435  0.282385  1
  Na  Na4  1  0.493419  0.817435  0.217615  1
  Na  Na5  1  0.993419  0.682565  0.782385  1
  Na  Na6  1  0.506581  0.317435  0.282385  1
  Na  Na7  1  0.006581  0.182565  0.717615  1
  Na  Na8  1  0.784395  0.108824  0.970945  1
  Na  Na9  1  0.284395  0.391176  0.029055  1
  Na  Na10  1  0.215605  0.608824  0.529055  1
  Na  Na11  1  0.715605  0.891176  0.470945  1
  Na  Na12  1  0.215605  0.891176  0.029055  1
  Na  Na13  1  0.715605  0.608824  0.970945  1
  Na  Na14  1  0.784395  0.391176  0.470945  1
  Na  Na15  1  0.284395  0.108824  0.529055  1
  Na  Na16  1  0.451236  0.985360  0.262653  1
  Na  Na17  1  0.951236  0.514640  0.737347  1
  Na  Na18  1  0.548764  0.485360  0.237347  1
  Na  Na19  1  0.048764  0.014640  0.762653  1
  Na  Na20  1  0.548764  0.014640  0.737347  1
  Na  Na21  1  0.048764  0.485360  0.262653  1
  Na  Na22  1  0.451236  0.514640  0.762653  1
  Na  Na23  1  0.951236  0.985360  0.237347  1
  Si  Si24  1  0.569811  0.129051  0.270795  1
  Si  Si25  1  0.069811  0.370949  0.729205  1
  Si  Si26  1  0.430189  0.629051  0.229205  1
  Si  Si27  1  0.930189  0.870949  0.770795  1
  Si  Si28  1  0.430189  0.870949  0.729205  1
  Si  Si29  1  0.930189  0.629051  0.270795  1
  Si  Si30  1  0.569811  0.370949  0.770795  1
  Si  Si31  1  0.069811  0.129051  0.229205  1
  H  H32  1  0.390186  0.188211  0.183940  1
  H  H33  1  0.890186  0.311789  0.816060  1
  H  H34  1  0.609814  0.688211  0.316060  1
  H  H35  1  0.109814  0.811789  0.683940  1
  H  H36  1  0.609814  0.811789  0.816060  1
  H  H37  1  0.109814  0.688211  0.183940  1
  H  H38  1  0.390186  0.311789  0.683940  1
  H  H39  1  0.890186  0.188211  0.316060  1
  H  H40  1  0.667079  0.008207  0.109077  1
  H  H41  1  0.167079  0.491793  0.890922  1
  H  H42  1  0.332921  0.508207  0.390923  1
  H  H43  1  0.832921  0.991793  0.609078  1
  H  H44  1  0.332921  0.991793  0.890922  1
  H  H45  1  0.832921  0.508207  0.109077  1
  H  H46  1  0.667079  0.491793  0.609078  1
  H  H47  1  0.167079  0.008207  0.390923  1
  H  H48  1  0.766117  0.067639  0.533548  1
  H  H49  1  0.266117  0.432361  0.466452  1
  H  H50  1  0.233883  0.567639  0.966452  1
  H  H51  1  0.733883  0.932361  0.033548  1
  H  H52  1  0.233883  0.932361  0.466452  1
  H  H53  1  0.733883  0.567639  0.533548  1
  H  H54  1  0.766117  0.432361  0.033548  1
  H  H55  1  0.266117  0.067639  0.966452  1
  H  H56  1  0.730642  0.189090  0.568883  1
  H  H57  1  0.230642  0.310910  0.431117  1
  H  H58  1  0.269358  0.689090  0.931117  1
  H  H59  1  0.769358  0.810910  0.068883  1
  H  H60  1  0.269358  0.810910  0.431117  1
  H  H61  1  0.769358  0.689090  0.568883  1
  H  H62  1  0.730642  0.310910  0.068883  1
  H  H63  1  0.230642  0.189090  0.931117  1
  H  H64  1  0.734364  0.245528  0.244509  1
  H  H65  1  0.234364  0.254472  0.755491  1
  H  H66  1  0.265636  0.745528  0.255491  1
  H  H67  1  0.765636  0.754472  0.744509  1
  H  H68  1  0.265636  0.754472  0.755491  1
  H  H69  1  0.765636  0.745528  0.244509  1
  H  H70  1  0.734364  0.254472  0.744509  1
  H  H71  1  0.234364  0.245528  0.255491  1
  O  O72  1  0.496721  0.098030  0.483064  1
  O  O73  1  0.996721  0.401970  0.516936  1
  O  O74  1  0.503279  0.598030  0.016936  1
  O  O75  1  0.003279  0.901970  0.983064  1
  O  O76  1  0.503279  0.901970  0.516936  1
  O  O77  1  0.003279  0.598030  0.483064  1
  O  O78  1  0.496721  0.401970  0.983064  1
  O  O79  1  0.996721  0.098030  0.016936  1
  O  O80  1  0.712960  0.160053  0.319080  1
  O  O81  1  0.212960  0.339947  0.680920  1
  O  O82  1  0.287040  0.660053  0.180920  1
  O  O83  1  0.787040  0.839947  0.819080  1
  O  O84  1  0.287040  0.839947  0.680920  1
  O  O85  1  0.787040  0.660053  0.319080  1
  O  O86  1  0.712960  0.339947  0.819080  1
  O  O87  1  0.212960  0.160053  0.180920  1
  O  O88  1  0.577022  0.072098  0.068368  1
  O  O89  1  0.077022  0.427902  0.931632  1
  O  O90  1  0.422978  0.572098  0.431632  1
  O  O91  1  0.922978  0.927902  0.568368  1
  O  O92  1  0.422978  0.927902  0.931632  1
  O  O93  1  0.922978  0.572098  0.068368  1
  O  O94  1  0.577022  0.427902  0.568368  1
  O  O95  1  0.077022  0.072098  0.431632  1
  O  O96  1  0.481822  0.198688  0.172364  1
  O  O97  1  0.981822  0.301312  0.827636  1
  O  O98  1  0.518178  0.698688  0.327636  1
  O  O99  1  0.018178  0.801312  0.672364  1
  O  O100  1  0.518178  0.801312  0.827636  1
  O  O101  1  0.018178  0.698688  0.172364  1
  O  O102  1  0.481822  0.301312  0.672364  1
  O  O103  1  0.981822  0.198688  0.327636  1
  O  O104  1  0.770388  0.031868  0.650413  1
  O  O105  1  0.270388  0.468132  0.349587  1
  O  O106  1  0.229612  0.531868  0.849587  1
  O  O107  1  0.729612  0.968132  0.150413  1
  O  O108  1  0.229612  0.968132  0.349587  1
  O  O109  1  0.729612  0.531868  0.650413  1
  O  O110  1  0.770388  0.468132  0.150413  1
  O  O111  1  0.270388  0.031868  0.849587  1
  O  O112  1  0.745225  0.201708  0.727921  1
  O  O113  1  0.245225  0.298292  0.272079  1
  O  O114  1  0.254775  0.701708  0.772079  1
  O  O115  1  0.754775  0.798292  0.227921  1
  O  O116  1  0.254775  0.798292  0.272079  1
  O  O117  1  0.754775  0.701708  0.727921  1
  O  O118  1  0.745225  0.298292  0.227921  1
  O  O119  1  0.245225  0.201708  0.772079  1
