# generated using pymatgen
data_Li5Fe3(BO3)4
_symmetry_space_group_name_H-M   'P 1'
_cell_length_a   5.24550566
_cell_length_b   8.98109553
_cell_length_c   10.08564266
_cell_angle_alpha   90.00000000
_cell_angle_beta   91.67967175
_cell_angle_gamma   90.00000000
_symmetry_Int_Tables_number   1
_chemical_formula_structural   Li5Fe3(BO3)4
_chemical_formula_sum   'Li10 Fe6 B8 O24'
_cell_volume   474.93437732
_cell_formula_units_Z   2
loop_
 _symmetry_equiv_pos_site_id
 _symmetry_equiv_pos_as_xyz
  1  'x, y, z'
loop_
 _atom_site_type_symbol
 _atom_site_label
 _atom_site_symmetry_multiplicity
 _atom_site_fract_x
 _atom_site_fract_y
 _atom_site_fract_z
 _atom_site_occupancy
  Li  Li0  1  0.160467  0.982927  0.661829  1
  Li  Li1  1  0.159066  0.664547  0.616055  1
  Li  Li2  1  0.180006  0.988885  0.095181  1
  Li  Li3  1  0.336817  0.156469  0.886569  1
  Li  Li4  1  0.321044  0.490088  0.387800  1
  Li  Li5  1  0.660467  0.517073  0.161829  1
  Li  Li6  1  0.680006  0.511115  0.595181  1
  Li  Li7  1  0.659066  0.835453  0.116055  1
  Li  Li8  1  0.821044  0.009912  0.887800  1
  Li  Li9  1  0.836817  0.343531  0.386569  1
  Fe  Fe10  1  0.152594  0.322667  0.129578  1
  Fe  Fe11  1  0.345017  0.473204  0.832564  1
  Fe  Fe12  1  0.344136  0.821356  0.376637  1
  Fe  Fe13  1  0.652594  0.177333  0.629578  1
  Fe  Fe14  1  0.844136  0.678644  0.876637  1
  Fe  Fe15  1  0.845017  0.026796  0.332564  1
  B  B16  1  0.163530  0.324909  0.620762  1
  B  B17  1  0.165476  0.665987  0.128867  1
  B  B18  1  0.329734  0.827874  0.880049  1
  B  B19  1  0.342033  0.167165  0.372289  1
  B  B20  1  0.665476  0.834013  0.628867  1
  B  B21  1  0.663530  0.175091  0.120762  1
  B  B22  1  0.842033  0.332835  0.872289  1
  B  B23  1  0.829734  0.672126  0.380049  1
  O  O24  1  0.099833  0.329994  0.907265  1
  O  O25  1  0.090951  0.666909  0.409316  1
  O  O26  1  0.181422  0.952573  0.882491  1
  O  O27  1  0.200190  0.291636  0.345649  1
  O  O28  1  0.217585  0.689379  0.847571  1
  O  O29  1  0.222590  0.025699  0.362390  1
  O  O30  1  0.271396  0.186948  0.648508  1
  O  O31  1  0.297810  0.535408  0.135624  1
  O  O32  1  0.283376  0.798374  0.175030  1
  O  O33  1  0.316932  0.455488  0.629210  1
  O  O34  1  0.411433  0.826836  0.577759  1
  O  O35  1  0.406562  0.159038  0.091006  1
  O  O36  1  0.590951  0.833091  0.909316  1
  O  O37  1  0.599833  0.170006  0.407265  1
  O  O38  1  0.681422  0.547427  0.382491  1
  O  O39  1  0.700190  0.208364  0.845649  1
  O  O40  1  0.722590  0.474301  0.862390  1
  O  O41  1  0.717585  0.810621  0.347571  1
  O  O42  1  0.797810  0.964592  0.635624  1
  O  O43  1  0.771396  0.313052  0.148508  1
  O  O44  1  0.783376  0.701626  0.675030  1
  O  O45  1  0.816932  0.044512  0.129210  1
  O  O46  1  0.906562  0.340962  0.591006  1
  O  O47  1  0.911433  0.673164  0.077759  1
