# generated using pymatgen
data_Li3Mn(BO3)2
_symmetry_space_group_name_H-M   'P 1'
_cell_length_a   5.17055232
_cell_length_b   6.38517775
_cell_length_c   7.76374667
_cell_angle_alpha   70.65049389
_cell_angle_beta   89.42657130
_cell_angle_gamma   88.42641873
_symmetry_Int_Tables_number   1
_chemical_formula_structural   Li3Mn(BO3)2
_chemical_formula_sum   'Li6 Mn2 B4 O12'
_cell_volume   241.74978119
_cell_formula_units_Z   2
loop_
 _symmetry_equiv_pos_site_id
 _symmetry_equiv_pos_as_xyz
  1  'x, y, z'
loop_
 _atom_site_type_symbol
 _atom_site_label
 _atom_site_symmetry_multiplicity
 _atom_site_fract_x
 _atom_site_fract_y
 _atom_site_fract_z
 _atom_site_occupancy
  Li  Li0  1  0.187864  0.930060  0.899243  1
  Li  Li1  1  0.299962  0.068812  0.244940  1
  Li  Li2  1  0.376193  0.772228  0.558575  1
  Li  Li3  1  0.623807  0.227772  0.441425  1
  Li  Li4  1  0.700038  0.931188  0.755060  1
  Li  Li5  1  0.812136  0.069940  0.100757  1
  Mn  Mn6  1  0.098359  0.582602  0.229965  1
  Mn  Mn7  1  0.901641  0.417398  0.770035  1
  B  B8  1  0.165727  0.171549  0.558475  1
  B  B9  1  0.345296  0.333836  0.875425  1
  B  B10  1  0.654704  0.666164  0.124575  1
  B  B11  1  0.834273  0.828451  0.441525  1
  O  O12  1  0.080581  0.812820  0.372579  1
  O  O13  1  0.253100  0.501299  0.724083  1
  O  O14  1  0.145812  0.208878  0.982214  1
  O  O15  1  0.237467  0.296854  0.378016  1
  O  O16  1  0.351111  0.027346  0.660324  1
  O  O17  1  0.399582  0.709860  0.084136  1
  O  O18  1  0.600418  0.290140  0.915864  1
  O  O19  1  0.648889  0.972654  0.339676  1
  O  O20  1  0.762533  0.703146  0.621984  1
  O  O21  1  0.854188  0.791122  0.017786  1
  O  O22  1  0.746900  0.498701  0.275917  1
  O  O23  1  0.919419  0.187180  0.627421  1
