# generated using pymatgen
data_Li9Nb3P8O29
_symmetry_space_group_name_H-M   'P 1'
_cell_length_a   10.07452666
_cell_length_b   10.07379665
_cell_length_c   13.98011517
_cell_angle_alpha   90.00507411
_cell_angle_beta   90.00836044
_cell_angle_gamma   60.00576158
_symmetry_Int_Tables_number   1
_chemical_formula_structural   Li9Nb3P8O29
_chemical_formula_sum   'Li18 Nb6 P16 O58'
_cell_volume   1228.80909735
_cell_formula_units_Z   2
loop_
 _symmetry_equiv_pos_site_id
 _symmetry_equiv_pos_as_xyz
  1  'x, y, z'
loop_
 _atom_site_type_symbol
 _atom_site_label
 _atom_site_symmetry_multiplicity
 _atom_site_fract_x
 _atom_site_fract_y
 _atom_site_fract_z
 _atom_site_occupancy
  Li  Li0  1  0.000003  0.000008  0.499999  1
  Li  Li1  1  0.999990  0.000004  0.999999  1
  Li  Li2  1  0.099763  0.230070  0.564100  1
  Li  Li3  1  0.230079  0.099772  0.064103  1
  Li  Li4  1  0.099759  0.670162  0.064101  1
  Li  Li5  1  0.333308  0.333310  0.382345  1
  Li  Li6  1  0.333374  0.333321  0.882347  1
  Li  Li7  1  0.230079  0.670160  0.564104  1
  Li  Li8  1  0.670151  0.099780  0.564099  1
  Li  Li9  1  0.329841  0.769927  0.935896  1
  Li  Li10  1  0.670165  0.230065  0.064098  1
  Li  Li11  1  0.329838  0.900237  0.435901  1
  Li  Li12  1  0.769934  0.329839  0.435900  1
  Li  Li13  1  0.666677  0.666700  0.617654  1
  Li  Li14  1  0.666684  0.666701  0.117652  1
  Li  Li15  1  0.900230  0.329844  0.935898  1
  Li  Li16  1  0.769924  0.900238  0.935898  1
  Li  Li17  1  0.900224  0.769930  0.435894  1
  Nb  Nb18  1  -0.000006  0.433998  0.749976  1
  Nb  Nb19  1  0.000016  0.565990  0.249949  1
  Nb  Nb20  1  0.433995  0.999989  0.250017  1
  Nb  Nb21  1  0.566011  -0.000003  0.750074  1
  Nb  Nb22  1  0.434005  0.565997  0.749983  1
  Nb  Nb23  1  0.566013  0.433991  0.249999  1
  P  P24  1  0.087048  0.225254  0.346111  1
  P  P25  1  0.225254  0.086999  0.846093  1
  P  P26  1  0.087025  0.687698  0.846109  1
  P  P27  1  0.333345  0.333302  0.118758  1
  P  P28  1  0.333370  0.333304  0.618763  1
  P  P29  1  0.225269  0.687724  0.346098  1
  P  P30  1  0.312271  0.774731  0.153899  1
  P  P31  1  0.687763  0.087002  0.346087  1
  P  P32  1  0.312295  0.912971  0.653892  1
  P  P33  1  0.687722  0.225266  0.846100  1
  P  P34  1  0.774759  0.312267  0.653909  1
  P  P35  1  0.666683  0.666641  0.881242  1
  P  P36  1  0.666700  0.666663  0.381243  1
  P  P37  1  0.913001  0.312233  0.153916  1
  P  P38  1  0.774741  0.912955  0.153892  1
  P  P39  1  0.912995  0.774772  0.653907  1
  O  O40  1  -0.000011  0.219364  0.249994  1
  O  O41  1  0.008498  0.221793  0.067779  1
  O  O42  1  0.075574  0.241772  0.847955  1
  O  O43  1  0.219362  0.000003  0.750001  1
  O  O44  1  0.221773  0.008504  0.567779  1
  O  O45  1  0.241737  0.075551  0.347986  1
  O  O46  1  0.114553  0.362281  0.338618  1
  O  O47  1  0.193968  0.320367  0.657555  1
  O  O48  1  0.114555  0.523157  0.838596  1
  O  O49  1  0.008494  0.769720  0.567773  1
  O  O50  1  0.999997  0.780644  0.749993  1
  O  O51  1  0.075571  0.682654  0.347943  1
  O  O52  1  0.320369  0.193984  0.157570  1
  O  O53  1  0.362362  0.114529  0.838569  1
  O  O54  1  0.193969  0.485680  0.157564  1
  O  O55  1  0.333313  0.333326  0.011117  1
  O  O56  1  0.333365  0.333324  0.511119  1
  O  O57  1  0.320358  0.485666  0.657563  1
  O  O58  1  0.523131  0.114524  0.338562  1
  O  O59  1  0.485629  0.194019  0.657571  1
  O  O60  1  0.241772  0.682662  0.847954  1
  O  O61  1  0.219363  0.780642  0.249998  1
  O  O62  1  0.221785  0.769729  0.067777  1
  O  O63  1  0.230272  0.778221  0.432224  1
  O  O64  1  0.362314  0.523147  0.338579  1
  O  O65  1  0.485664  0.320364  0.157557  1
  O  O66  1  0.317313  0.758254  0.652018  1
  O  O67  1  0.523161  0.362295  0.838607  1
  O  O68  1  0.682698  0.075560  0.847977  1
  O  O69  1  0.230278  0.991508  0.932226  1
  O  O70  1  0.769732  0.008515  0.067771  1
  O  O71  1  0.780636  0.000016  0.250009  1
  O  O72  1  0.317347  0.924432  0.152055  1
  O  O73  1  0.476860  0.637686  0.161420  1
  O  O74  1  0.682656  0.241762  0.347966  1
  O  O75  1  0.514348  0.679641  0.842446  1
  O  O76  1  0.637653  0.476868  0.661426  1
  O  O77  1  0.769707  0.221788  0.567775  1
  O  O78  1  0.778242  0.230271  0.932227  1
  O  O79  1  0.780633  0.219364  0.750003  1
  O  O80  1  0.758246  0.317338  0.152031  1
  O  O81  1  0.514334  0.806015  0.342438  1
  O  O82  1  0.476822  0.885456  0.661393  1
  O  O83  1  0.679637  0.514349  0.342445  1
  O  O84  1  0.666686  0.666698  0.988889  1
  O  O85  1  0.666675  0.666691  0.488887  1
  O  O86  1  0.806006  0.514353  0.842436  1
  O  O87  1  0.637712  0.885446  0.161392  1
  O  O88  1  0.679633  0.806059  0.842418  1
  O  O89  1  0.924418  0.317324  0.652017  1
  O  O90  1  0.991483  0.230274  0.432228  1
  O  O91  1  0.885484  0.476881  0.161441  1
  O  O92  1  0.805996  0.679646  0.342430  1
  O  O93  1  0.885481  0.637648  0.661430  1
  O  O94  1  0.758239  0.924426  0.652042  1
  O  O95  1  0.778201  0.991514  0.432218  1
  O  O96  1  0.924453  0.758260  0.152012  1
  O  O97  1  0.991505  0.778228  0.932222  1
