# generated using pymatgen
data_Sr2Hf7O16
_symmetry_space_group_name_H-M   'P 1'
_cell_length_a   6.40625154
_cell_length_b   9.67270386
_cell_length_c   6.40625189
_cell_angle_alpha   109.33865126
_cell_angle_beta   60.00000182
_cell_angle_gamma   109.33865271
_symmetry_Int_Tables_number   1
_chemical_formula_structural   Sr2Hf7O16
_chemical_formula_sum   'Sr2 Hf7 O16'
_cell_volume   317.65878983
_cell_formula_units_Z   1
loop_
 _symmetry_equiv_pos_site_id
 _symmetry_equiv_pos_as_xyz
  1  'x, y, z'
loop_
 _atom_site_type_symbol
 _atom_site_label
 _atom_site_symmetry_multiplicity
 _atom_site_fract_x
 _atom_site_fract_y
 _atom_site_fract_z
 _atom_site_occupancy
  Sr  Sr0  1  0.333366  0.000097  0.333366  1
  Sr  Sr1  1  0.666634  0.999903  0.666634  1
  Hf  Hf2  1  0.000000  0.000000  0.000000  1
  Hf  Hf3  1  0.253678  0.653884  0.513971  1
  Hf  Hf4  1  0.113766  0.346116  0.746322  1
  Hf  Hf5  1  0.486029  0.346116  0.113766  1
  Hf  Hf6  1  0.513971  0.653884  0.886234  1
  Hf  Hf7  1  0.886234  0.653884  0.253678  1
  Hf  Hf8  1  0.746322  0.346116  0.486029  1
  O  O9  1  0.235547  0.706640  0.235547  1
  O  O10  1  0.228024  0.871528  0.678820  1
  O  O11  1  0.150460  0.410533  0.412091  1
  O  O12  1  0.152020  0.589467  0.849540  1
  O  O13  1  0.035316  0.128472  0.771976  1
  O  O14  1  0.321180  0.128472  0.035316  1
  O  O15  1  0.587909  0.589467  0.152020  1
  O  O16  1  0.570895  0.712684  0.570895  1
  O  O17  1  0.429105  0.287316  0.429105  1
  O  O18  1  0.412091  0.410533  0.847980  1
  O  O19  1  0.678820  0.871528  0.964684  1
  O  O20  1  0.964684  0.871528  0.228024  1
  O  O21  1  0.847980  0.410533  0.150460  1
  O  O22  1  0.849540  0.589467  0.587909  1
  O  O23  1  0.771976  0.128472  0.321180  1
  O  O24  1  0.764453  0.293360  0.764453  1
