# generated using pymatgen
data_Na3BSbAsO7
_symmetry_space_group_name_H-M   'P 1'
_cell_length_a   9.55391508
_cell_length_b   7.10855537
_cell_length_c   5.50184186
_cell_angle_alpha   90.00000000
_cell_angle_beta   93.17999919
_cell_angle_gamma   90.00000000
_symmetry_Int_Tables_number   1
_chemical_formula_structural   Na3BSbAsO7
_chemical_formula_sum   'Na6 B2 Sb2 As2 O14'
_cell_volume   373.07966976
_cell_formula_units_Z   2
loop_
 _symmetry_equiv_pos_site_id
 _symmetry_equiv_pos_as_xyz
  1  'x, y, z'
loop_
 _atom_site_type_symbol
 _atom_site_label
 _atom_site_symmetry_multiplicity
 _atom_site_fract_x
 _atom_site_fract_y
 _atom_site_fract_z
 _atom_site_occupancy
  Na  Na0  1  0.067279  0.250000  0.765544  1
  Na  Na1  1  0.241085  0.007565  0.248319  1
  Na  Na2  1  0.241085  0.492435  0.248319  1
  Na  Na3  1  0.758915  0.507565  0.751681  1
  Na  Na4  1  0.758915  0.992435  0.751681  1
  Na  Na5  1  0.932721  0.750000  0.234456  1
  B  B6  1  0.062746  0.750000  0.731921  1
  B  B7  1  0.937254  0.250000  0.268079  1
  Sb  Sb8  1  0.335338  0.750000  0.775037  1
  Sb  Sb9  1  0.664662  0.250000  0.224963  1
  As  As10  1  0.401744  0.250000  0.716611  1
  As  As11  1  0.598256  0.750000  0.283389  1
  O  O12  1  0.076475  0.250000  0.271733  1
  O  O13  1  0.149696  0.750000  0.954649  1
  O  O14  1  0.144973  0.750000  0.525751  1
  O  O15  1  0.303695  0.063165  0.823023  1
  O  O16  1  0.303695  0.436835  0.823023  1
  O  O17  1  0.395108  0.250000  0.408722  1
  O  O18  1  0.423641  0.750000  0.175448  1
  O  O19  1  0.576359  0.250000  0.824552  1
  O  O20  1  0.604892  0.750000  0.591278  1
  O  O21  1  0.696305  0.563165  0.176977  1
  O  O22  1  0.696305  0.936835  0.176977  1
  O  O23  1  0.855027  0.250000  0.474249  1
  O  O24  1  0.850304  0.250000  0.045351  1
  O  O25  1  0.923525  0.750000  0.728267  1
