# generated using pymatgen
data_V3Sb(PO4)4
_symmetry_space_group_name_H-M   'P 1'
_cell_length_a   4.99574990
_cell_length_b   10.33016225
_cell_length_c   6.03292480
_cell_angle_alpha   90.00000000
_cell_angle_beta   90.00000000
_cell_angle_gamma   89.85655968
_symmetry_Int_Tables_number   1
_chemical_formula_structural   V3Sb(PO4)4
_chemical_formula_sum   'V3 Sb1 P4 O16'
_cell_volume   311.33961385
_cell_formula_units_Z   1
loop_
 _symmetry_equiv_pos_site_id
 _symmetry_equiv_pos_as_xyz
  1  'x, y, z'
loop_
 _atom_site_type_symbol
 _atom_site_label
 _atom_site_symmetry_multiplicity
 _atom_site_fract_x
 _atom_site_fract_y
 _atom_site_fract_z
 _atom_site_occupancy
  V  V0  1  0.476977  0.228601  0.750000  1
  V  V1  1  0.527703  0.779846  0.250000  1
  V  V2  1  0.979572  0.265832  0.250000  1
  Sb  Sb3  1  0.025354  0.723595  0.750000  1
  P  P4  1  0.107382  0.595565  0.250000  1
  P  P5  1  0.416155  0.099910  0.250000  1
  P  P6  1  0.566801  0.914507  0.750000  1
  P  P7  1  0.908494  0.388429  0.750000  1
  O  O8  1  0.129260  0.449001  0.250000  1
  O  O9  1  0.273285  0.661895  0.054491  1
  O  O10  1  0.273285  0.661895  0.445509  1
  O  O11  1  0.211101  0.368396  0.750000  1
  O  O12  1  0.262784  0.898455  0.750000  1
  O  O13  1  0.269581  0.172021  0.051353  1
  O  O14  1  0.269581  0.172021  0.448647  1
  O  O15  1  0.354619  0.954609  0.250000  1
  O  O16  1  0.643734  0.056671  0.750000  1
  O  O17  1  0.701643  0.841724  0.547267  1
  O  O18  1  0.701643  0.841724  0.952733  1
  O  O19  1  0.717147  0.123238  0.250000  1
  O  O20  1  0.817048  0.641849  0.250000  1
  O  O21  1  0.769235  0.315207  0.549419  1
  O  O22  1  0.769235  0.315207  0.950581  1
  O  O23  1  0.828383  0.529795  0.750000  1
