# generated using pymatgen
data_Li3Mn(CO3)3
_symmetry_space_group_name_H-M   'P 1'
_cell_length_a   10.14902390
_cell_length_b   5.97688913
_cell_length_c   5.97688913
_cell_angle_alpha   105.17468834
_cell_angle_beta   90.00000000
_cell_angle_gamma   90.00000000
_symmetry_Int_Tables_number   1
_chemical_formula_structural   Li3Mn(CO3)3
_chemical_formula_sum   'Li6 Mn2 C6 O18'
_cell_volume   349.91414017
_cell_formula_units_Z   2
loop_
 _symmetry_equiv_pos_site_id
 _symmetry_equiv_pos_as_xyz
  1  'x, y, z'
loop_
 _atom_site_type_symbol
 _atom_site_label
 _atom_site_symmetry_multiplicity
 _atom_site_fract_x
 _atom_site_fract_y
 _atom_site_fract_z
 _atom_site_occupancy
  Li  Li0  1  0.000000  0.090600  0.090600  1
  Li  Li1  1  0.250000  0.392105  0.354753  1
  Li  Li2  1  0.250000  0.753494  0.193914  1
  Li  Li3  1  0.500000  0.090600  0.090600  1
  Li  Li4  1  0.750000  0.193914  0.753494  1
  Li  Li5  1  0.750000  0.354753  0.392105  1
  Mn  Mn6  1  0.250000  0.149091  0.726777  1
  Mn  Mn7  1  0.750000  0.726777  0.149091  1
  C  C8  1  0.016175  0.157140  0.550131  1
  C  C9  1  0.250000  0.725374  0.742177  1
  C  C10  1  0.483825  0.157140  0.550131  1
  C  C11  1  0.516175  0.550131  0.157140  1
  C  C12  1  0.750000  0.742177  0.725374  1
  C  C13  1  0.983825  0.550131  0.157140  1
  O  O14  1  0.058502  0.141879  0.756359  1
  O  O15  1  0.107760  0.153727  0.398923  1
  O  O16  1  0.105846  0.515265  0.171095  1
  O  O17  1  0.250000  0.517215  0.758575  1
  O  O18  1  0.250000  0.904190  0.929885  1
  O  O19  1  0.250000  0.778058  0.546475  1
  O  O20  1  0.394154  0.515265  0.171095  1
  O  O21  1  0.392240  0.153727  0.398923  1
  O  O22  1  0.441498  0.141879  0.756359  1
  O  O23  1  0.558502  0.756359  0.141879  1
  O  O24  1  0.607760  0.398923  0.153727  1
  O  O25  1  0.605846  0.171095  0.515265  1
  O  O26  1  0.750000  0.546475  0.778058  1
  O  O27  1  0.750000  0.758575  0.517215  1
  O  O28  1  0.750000  0.929885  0.904190  1
  O  O29  1  0.894154  0.171095  0.515265  1
  O  O30  1  0.892240  0.398923  0.153727  1
  O  O31  1  0.941498  0.756359  0.141879  1
