# generated using pymatgen
data_Li3VF6
_symmetry_space_group_name_H-M   'P 1'
_cell_length_a   5.33457852
_cell_length_b   9.14198171
_cell_length_c   9.43202761
_cell_angle_alpha   88.18968428
_cell_angle_beta   90.04413501
_cell_angle_gamma   73.18126434
_symmetry_Int_Tables_number   1
_chemical_formula_structural   Li3VF6
_chemical_formula_sum   'Li12 V4 F24'
_cell_volume   440.06761319
_cell_formula_units_Z   4
loop_
 _symmetry_equiv_pos_site_id
 _symmetry_equiv_pos_as_xyz
  1  'x, y, z'
loop_
 _atom_site_type_symbol
 _atom_site_label
 _atom_site_symmetry_multiplicity
 _atom_site_fract_x
 _atom_site_fract_y
 _atom_site_fract_z
 _atom_site_occupancy
  Li  Li0  1  0.862248  0.839090  0.950868  1
  Li  Li1  1  0.299843  0.838993  0.448034  1
  Li  Li2  1  0.392972  0.646165  0.820620  1
  Li  Li3  1  0.822020  0.781753  0.601462  1
  Li  Li4  1  0.957515  0.646097  0.319960  1
  Li  Li5  1  0.393548  0.783827  0.100718  1
  Li  Li6  1  0.605567  0.217065  0.899781  1
  Li  Li7  1  0.032504  0.355616  0.679686  1
  Li  Li8  1  0.175212  0.218565  0.400335  1
  Li  Li9  1  0.605197  0.355726  0.181389  1
  Li  Li10  1  0.694527  0.161388  0.552067  1
  Li  Li11  1  0.137046  0.162304  0.051399  1
  V  V12  1  0.497453  0.500554  0.500388  1
  V  V13  1  0.998791  0.499692  0.001118  1
  V  V14  1  0.203905  0.000298  0.749970  1
  V  V15  1  0.795710  0.002070  0.251129  1
  F  F16  1  0.252239  0.963465  0.962624  1
  F  F17  1  0.002289  0.846993  0.761216  1
  F  F18  1  0.499534  0.823656  0.714983  1
  F  F19  1  0.785065  0.963066  0.463225  1
  F  F20  1  0.149847  0.849468  0.259674  1
  F  F21  1  0.675495  0.825643  0.214226  1
  F  F22  1  0.678276  0.670378  0.960901  1
  F  F23  1  0.649068  0.670989  0.459579  1
  F  F24  1  0.154948  0.669430  0.515886  1
  F  F25  1  0.174247  0.668547  0.017124  1
  F  F26  1  0.108441  0.501484  0.805396  1
  F  F27  1  0.609712  0.498705  0.696132  1
  F  F28  1  0.384941  0.503762  0.304465  1
  F  F29  1  0.887112  0.497554  0.196785  1
  F  F30  1  0.823172  0.331869  0.984215  1
  F  F31  1  0.840449  0.332250  0.485477  1
  F  F32  1  0.345524  0.331122  0.540904  1
  F  F33  1  0.318837  0.329604  0.041855  1
  F  F34  1  0.327794  0.174201  0.785522  1
  F  F35  1  0.851921  0.153343  0.739558  1
  F  F36  1  0.219075  0.036224  0.537637  1
  F  F37  1  0.500740  0.176272  0.288809  1
  F  F38  1  0.995909  0.154959  0.240196  1
  F  F39  1  0.746482  0.038134  0.038758  1
