# generated using pymatgen
data_Na9Fe3P8O29
_symmetry_space_group_name_H-M   'P 1'
_cell_length_a   10.18181246
_cell_length_b   10.18181729
_cell_length_c   14.71585097
_cell_angle_alpha   90.00037057
_cell_angle_beta   90.00048083
_cell_angle_gamma   120.00030559
_symmetry_Int_Tables_number   1
_chemical_formula_structural   Na9Fe3P8O29
_chemical_formula_sum   'Na18 Fe6 P16 O58'
_cell_volume   1321.18936196
_cell_formula_units_Z   2
loop_
 _symmetry_equiv_pos_site_id
 _symmetry_equiv_pos_as_xyz
  1  'x, y, z'
loop_
 _atom_site_type_symbol
 _atom_site_label
 _atom_site_symmetry_multiplicity
 _atom_site_fract_x
 _atom_site_fract_y
 _atom_site_fract_z
 _atom_site_occupancy
  Na  Na0  1  0.103901  0.752346  0.941960  1
  Na  Na1  1  0.247662  0.896101  0.441957  1
  Na  Na2  1  0.103897  0.351551  0.441958  1
  Na  Na3  1  0.000001  0.000000  0.999999  1
  Na  Na4  1  0.999998  0.999999  0.500000  1
  Na  Na5  1  0.333340  0.666667  0.124885  1
  Na  Na6  1  0.333343  0.666671  0.624885  1
  Na  Na7  1  0.247664  0.351559  0.941956  1
  Na  Na8  1  0.648441  0.896098  0.941961  1
  Na  Na9  1  0.351550  0.247653  0.558043  1
  Na  Na10  1  0.648443  0.752342  0.441960  1
  Na  Na11  1  0.351561  0.103903  0.058040  1
  Na  Na12  1  0.752339  0.648440  0.058043  1
  Na  Na13  1  0.666664  0.333331  0.375117  1
  Na  Na14  1  0.666670  0.333333  0.875115  1
  Na  Na15  1  0.896102  0.648442  0.558044  1
  Na  Na16  1  0.752338  0.103900  0.558040  1
  Na  Na17  1  0.896103  0.247657  0.058042  1
  Fe  Fe18  1  0.000013  0.562823  0.750003  1
  Fe  Fe19  1  0.000000  0.437182  0.250002  1
  Fe  Fe20  1  0.437191  0.437181  0.749993  1
  Fe  Fe21  1  0.562819  0.562819  0.249998  1
  Fe  Fe22  1  0.437181  -0.000000  0.249998  1
  Fe  Fe23  1  0.562826  -0.000000  0.750002  1
  P  P24  1  0.090436  0.773238  0.162725  1
  P  P25  1  0.226763  0.909565  0.662727  1
  P  P26  1  0.090435  0.317194  0.662726  1
  P  P27  1  0.333353  0.666672  0.863839  1
  P  P28  1  0.333350  0.666676  0.363839  1
  P  P29  1  0.226760  0.317193  0.162727  1
  P  P30  1  0.317197  0.226759  0.337274  1
  P  P31  1  0.682804  0.909560  0.162727  1
  P  P32  1  0.317199  0.090437  0.837273  1
  P  P33  1  0.682807  0.773242  0.662726  1
  P  P34  1  0.773243  0.682807  0.837274  1
  P  P35  1  0.666653  0.333329  0.136162  1
  P  P36  1  0.666678  0.333330  0.636161  1
  P  P37  1  0.909566  0.682803  0.337274  1
  P  P38  1  0.773241  0.090432  0.337273  1
  P  P39  1  0.909566  0.226762  0.837274  1
  O  O40  1  -0.000000  0.785013  0.249999  1
  O  O41  1  0.990455  0.772216  0.421921  1
  O  O42  1  0.089647  0.747146  0.665577  1
  O  O43  1  0.227786  0.009552  0.921920  1
  O  O44  1  0.252854  0.910355  0.165576  1
  O  O45  1  0.094505  0.624315  0.169849  1
  O  O46  1  0.188260  0.664624  0.827515  1
  O  O47  1  0.094509  0.470187  0.669853  1
  O  O48  1  0.990455  0.218237  0.921921  1
  O  O49  1  0.999997  0.214980  0.749999  1
  O  O50  1  0.089644  0.342499  0.165576  1
  O  O51  1  0.335381  0.811751  0.327502  1
  O  O52  1  0.375682  0.905497  0.669853  1
  O  O53  1  0.188257  0.523631  0.327510  1
  O  O54  1  0.333377  0.666690  0.468140  1
  O  O55  1  0.333382  0.666684  0.968139  1
  O  O56  1  0.335383  0.523628  0.827499  1
  O  O57  1  0.529818  0.905495  0.169850  1
  O  O58  1  0.476385  0.811751  0.827496  1
  O  O59  1  0.252854  0.342494  0.665575  1
  O  O60  1  0.214978  0.214978  0.250001  1
  O  O61  1  0.227783  0.218233  0.421922  1
  O  O62  1  0.218229  0.227780  0.078080  1
  O  O63  1  0.375680  0.470182  0.169853  1
  O  O64  1  0.476384  0.664631  0.327497  1
  O  O65  1  0.342504  0.252857  0.834423  1
  O  O66  1  0.529817  0.624317  0.669848  1
  O  O67  1  0.657503  0.910355  0.665574  1
  O  O68  1  0.214983  0.000003  0.749999  1
  O  O69  1  0.218233  0.990448  0.578079  1
  O  O70  1  0.781772  0.009553  0.421921  1
  O  O71  1  0.342497  0.089643  0.334426  1
  O  O72  1  0.470185  0.375681  0.330151  1
  O  O73  1  0.657503  0.747144  0.165573  1
  O  O74  1  0.523633  0.335377  0.672485  1
  O  O75  1  0.624323  0.529814  0.830145  1
  O  O76  1  0.781767  0.772213  0.921922  1
  O  O77  1  0.772222  0.781768  0.578080  1
  O  O78  1  0.785019  0.785023  0.750002  1
  O  O79  1  0.747150  0.657501  0.334426  1
  O  O80  1  0.523619  0.188250  0.172504  1
  O  O81  1  0.470187  0.094505  0.830148  1
  O  O82  1  0.664620  0.476372  0.172498  1
  O  O83  1  0.666624  0.333317  0.031861  1
  O  O84  1  0.666694  0.333319  0.531861  1
  O  O85  1  0.811754  0.476374  0.672501  1
  O  O86  1  0.624324  0.094503  0.330146  1
  O  O87  1  0.664634  0.188251  0.672503  1
  O  O88  1  0.910359  0.657504  0.834426  1
  O  O89  1  0.009551  0.781763  0.078079  1
  O  O90  1  0.905497  0.529811  0.330148  1
  O  O91  1  0.811745  0.335377  0.172489  1
  O  O92  1  0.905500  0.375684  0.830150  1
  O  O93  1  0.747149  0.089647  0.834427  1
  O  O94  1  0.772221  0.990451  0.078080  1
  O  O95  1  0.785021  0.999992  0.250002  1
  O  O96  1  0.910360  0.252855  0.334421  1
  O  O97  1  0.009549  0.227783  0.578080  1
