# generated using pymatgen
data_Na7Li3V10O30
_symmetry_space_group_name_H-M   'P 1'
_cell_length_a   7.07003712
_cell_length_b   12.21719001
_cell_length_c   16.63120558
_cell_angle_alpha   89.52389504
_cell_angle_beta   101.01394745
_cell_angle_gamma   99.82739159
_symmetry_Int_Tables_number   1
_chemical_formula_structural   Na7Li3V10O30
_chemical_formula_sum   'Na14 Li6 V20 O60'
_cell_volume   1388.94737258
_cell_formula_units_Z   2
loop_
 _symmetry_equiv_pos_site_id
 _symmetry_equiv_pos_as_xyz
  1  'x, y, z'
loop_
 _atom_site_type_symbol
 _atom_site_label
 _atom_site_symmetry_multiplicity
 _atom_site_fract_x
 _atom_site_fract_y
 _atom_site_fract_z
 _atom_site_occupancy
  Na  Na0  1  0.916469  0.116716  0.016533  1
  Na  Na1  1  0.711388  0.358272  0.035590  1
  Na  Na2  1  0.712329  0.756719  0.234097  1
  Na  Na3  1  0.916371  0.916761  0.416596  1
  Na  Na4  1  0.289096  0.042130  0.165758  1
  Na  Na5  1  0.710722  0.158064  0.434160  1
  Na  Na6  1  0.286082  0.442649  0.364582  1
  Na  Na7  1  0.916372  0.316955  0.615895  1
  Na  Na8  1  0.710803  0.557856  0.634410  1
  Na  Na9  1  0.916459  0.716460  0.817260  1
  Na  Na10  1  0.288764  0.842226  0.565448  1
  Na  Na11  1  0.710849  0.957815  0.834315  1
  Na  Na12  1  0.288909  0.242344  0.765492  1
  Na  Na13  1  0.289328  0.642217  0.965546  1
  Li  Li14  1  0.912005  0.517630  0.214834  1
  Li  Li15  1  0.089358  0.283611  0.186358  1
  Li  Li16  1  0.089087  0.680928  0.384921  1
  Li  Li17  1  0.090074  0.081990  0.585983  1
  Li  Li18  1  0.090113  0.481991  0.786099  1
  Li  Li19  1  0.090124  0.881975  0.986216  1
  V  V20  1  0.802316  0.622982  0.004594  1
  V  V21  1  0.616116  0.858104  0.028523  1
  V  V22  1  0.802038  0.024764  0.201627  1
  V  V23  1  0.618480  0.260449  0.228437  1
  V  V24  1  0.380941  0.539465  0.170998  1
  V  V25  1  0.801821  0.425333  0.399433  1
  V  V26  1  0.197723  0.776072  0.197622  1
  V  V27  1  0.616430  0.658223  0.428410  1
  V  V28  1  0.378318  0.939024  0.370490  1
  V  V29  1  0.801784  0.824412  0.601732  1
  V  V30  1  0.198934  0.178831  0.397419  1
  V  V31  1  0.616198  0.058203  0.628464  1
  V  V32  1  0.378860  0.339365  0.570482  1
  V  V33  1  0.801737  0.224573  0.801636  1
  V  V34  1  0.198594  0.578789  0.597346  1
  V  V35  1  0.616805  0.458352  0.829272  1
  V  V36  1  0.378690  0.739368  0.770481  1
  V  V37  1  0.198828  0.978853  0.797565  1
  V  V38  1  0.378993  0.139492  0.970657  1
  V  V39  1  0.198529  0.378825  0.997658  1
  O  O40  1  0.898011  0.553808  0.085056  1
  O  O41  1  0.646474  0.712798  0.036293  1
  O  O42  1  0.980905  0.099666  0.160029  1
  O  O43  1  0.605343  0.145403  0.023791  1
  O  O44  1  0.644940  0.917738  0.131425  1
  O  O45  1  0.901807  0.953301  0.279229  1
  O  O46  1  0.784243  0.334948  0.179391  1
  O  O47  1  0.358114  0.485883  0.066520  1
  O  O48  1  0.974568  0.499107  0.353486  1
  O  O49  1  0.609907  0.541480  0.221570  1
  O  O50  1  0.220668  0.060083  0.020365  1
  O  O51  1  0.350656  0.685011  0.165029  1
  O  O52  1  0.648880  0.114647  0.235733  1
  O  O53  1  0.780517  0.728241  0.376786  1
  O  O54  1  0.098916  0.844387  0.117179  1
  O  O55  1  0.389286  0.258167  0.177918  1
  O  O56  1  0.025386  0.310556  0.045618  1
  O  O57  1  0.356842  0.884073  0.266516  1
  O  O58  1  0.642433  0.316383  0.331935  1
  O  O59  1  0.980551  0.899630  0.560146  1
  O  O60  1  0.604914  0.944964  0.423362  1
  O  O61  1  0.905635  0.356104  0.477595  1
  O  O62  1  0.215679  0.464610  0.220218  1
  O  O63  1  0.647891  0.513133  0.435622  1
  O  O64  1  0.387193  0.656460  0.378135  1
  O  O65  1  0.024048  0.703473  0.243642  1
  O  O66  1  0.645051  0.717384  0.531537  1
  O  O67  1  0.345126  0.084182  0.364493  1
  O  O68  1  0.902087  0.753356  0.679414  1
  O  O69  1  0.220221  0.860021  0.420429  1
  O  O70  1  0.780399  0.128211  0.576850  1
  O  O71  1  0.099813  0.246133  0.316465  1
  O  O72  1  0.647020  0.912913  0.636425  1
  O  O73  1  0.359943  0.285727  0.466321  1
  O  O74  1  0.980551  0.299730  0.760011  1
  O  O75  1  0.605224  0.345076  0.623506  1
  O  O76  1  0.345564  0.484470  0.564659  1
  O  O77  1  0.780399  0.528053  0.777286  1
  O  O78  1  0.099219  0.645666  0.516212  1
  O  O79  1  0.387123  0.056549  0.578048  1
  O  O80  1  0.025815  0.110773  0.445524  1
  O  O81  1  0.359623  0.685733  0.666218  1
  O  O82  1  0.644800  0.117560  0.731471  1
  O  O83  1  0.981293  0.697290  0.962413  1
  O  O84  1  0.605124  0.745138  0.823409  1
  O  O85  1  0.902099  0.153389  0.879264  1
  O  O86  1  0.220479  0.260162  0.620293  1
  O  O87  1  0.345381  0.884458  0.764628  1
  O  O88  1  0.647118  0.313027  0.836422  1
  O  O89  1  0.780617  0.927933  0.977006  1
  O  O90  1  0.387785  0.456843  0.778740  1
  O  O91  1  0.025849  0.510687  0.645583  1
  O  O92  1  0.647446  0.516777  0.933001  1
  O  O93  1  0.220500  0.660176  0.820396  1
  O  O94  1  0.099591  0.046192  0.716701  1
  O  O95  1  0.360005  0.085783  0.866424  1
  O  O96  1  0.387082  0.856431  0.978095  1
  O  O97  1  0.025910  0.910537  0.845660  1
  O  O98  1  0.345418  0.284506  0.964769  1
  O  O99  1  0.099676  0.446295  0.916801  1
