# generated using pymatgen
data_EuH4S2NO8
_symmetry_space_group_name_H-M   'P 1'
_cell_length_a   8.99647830
_cell_length_b   7.22084897
_cell_length_c   10.87925716
_cell_angle_alpha   90.00000000
_cell_angle_beta   91.35499375
_cell_angle_gamma   90.00000000
_symmetry_Int_Tables_number   1
_chemical_formula_structural   EuH4S2NO8
_chemical_formula_sum   'Eu4 H16 S8 N4 O32'
_cell_volume   706.54297626
_cell_formula_units_Z   4
loop_
 _symmetry_equiv_pos_site_id
 _symmetry_equiv_pos_as_xyz
  1  'x, y, z'
loop_
 _atom_site_type_symbol
 _atom_site_label
 _atom_site_symmetry_multiplicity
 _atom_site_fract_x
 _atom_site_fract_y
 _atom_site_fract_z
 _atom_site_occupancy
  Eu  Eu0  1  0.052333  0.670881  0.848088  1
  Eu  Eu1  1  0.052333  0.829119  0.348088  1
  Eu  Eu2  1  0.947667  0.170881  0.651912  1
  Eu  Eu3  1  0.947667  0.329119  0.151912  1
  H  H4  1  0.350910  0.451792  0.653095  1
  H  H5  1  0.350910  0.048208  0.153095  1
  H  H6  1  0.398407  0.230736  0.617967  1
  H  H7  1  0.398407  0.269264  0.117967  1
  H  H8  1  0.463730  0.331321  0.747995  1
  H  H9  1  0.463730  0.168679  0.247995  1
  H  H10  1  0.473485  0.899592  0.887824  1
  H  H11  1  0.473485  0.600408  0.387824  1
  H  H12  1  0.526515  0.399592  0.612176  1
  H  H13  1  0.526515  0.100408  0.112176  1
  H  H14  1  0.536270  0.831321  0.752005  1
  H  H15  1  0.536270  0.668679  0.252005  1
  H  H16  1  0.601593  0.730736  0.882033  1
  H  H17  1  0.601593  0.769264  0.382033  1
  H  H18  1  0.649090  0.951792  0.846905  1
  H  H19  1  0.649090  0.548208  0.346905  1
  S  S20  1  0.174861  0.167762  0.886807  1
  S  S21  1  0.174861  0.332238  0.386807  1
  S  S22  1  0.263400  0.835385  0.584829  1
  S  S23  1  0.263400  0.664615  0.084829  1
  S  S24  1  0.736600  0.335385  0.915171  1
  S  S25  1  0.736600  0.164615  0.415171  1
  S  S26  1  0.825139  0.667762  0.613193  1
  S  S27  1  0.825139  0.832238  0.113193  1
  N  N28  1  0.434023  0.353382  0.657107  1
  N  N29  1  0.434023  0.146618  0.157107  1
  N  N30  1  0.565977  0.853382  0.842893  1
  N  N31  1  0.565977  0.646618  0.342893  1
  O  O32  1  0.100556  0.011396  0.816491  1
  O  O33  1  0.100556  0.488604  0.316491  1
  O  O34  1  0.114238  0.327118  0.511559  1
  O  O35  1  0.128979  0.335186  0.811470  1
  O  O36  1  0.126445  0.950217  0.558071  1
  O  O37  1  0.114238  0.172882  0.011559  1
  O  O38  1  0.128979  0.164814  0.311470  1
  O  O39  1  0.126445  0.549783  0.058071  1
  O  O40  1  0.231519  0.692916  0.679828  1
  O  O41  1  0.231519  0.807084  0.179828  1
  O  O42  1  0.287678  0.758101  0.964524  1
  O  O43  1  0.287678  0.741899  0.464524  1
  O  O44  1  0.336336  0.150977  0.890862  1
  O  O45  1  0.336336  0.349023  0.390862  1
  O  O46  1  0.388661  0.951627  0.623456  1
  O  O47  1  0.388661  0.548373  0.123456  1
  O  O48  1  0.611339  0.451627  0.876544  1
  O  O49  1  0.611339  0.048373  0.376544  1
  O  O50  1  0.663664  0.650977  0.609138  1
  O  O51  1  0.663664  0.849023  0.109138  1
  O  O52  1  0.712322  0.258101  0.535476  1
  O  O53  1  0.712322  0.241899  0.035476  1
  O  O54  1  0.768481  0.192916  0.820172  1
  O  O55  1  0.768481  0.307084  0.320172  1
  O  O56  1  0.873555  0.450217  0.941929  1
  O  O57  1  0.871021  0.835186  0.688530  1
  O  O58  1  0.885762  0.827117  0.988441  1
  O  O59  1  0.873555  0.049783  0.441929  1
  O  O60  1  0.871021  0.664814  0.188530  1
  O  O61  1  0.885762  0.672883  0.488441  1
  O  O62  1  0.899444  0.511396  0.683509  1
  O  O63  1  0.899444  0.988604  0.183509  1
