# generated using pymatgen
data_LiMnSi3O8
_symmetry_space_group_name_H-M   'P 1'
_cell_length_a   7.71294534
_cell_length_b   7.16870336
_cell_length_c   7.04118252
_cell_angle_alpha   81.79755996
_cell_angle_beta   108.80768404
_cell_angle_gamma   62.68283889
_symmetry_Int_Tables_number   1
_chemical_formula_structural   LiMnSi3O8
_chemical_formula_sum   'Li2 Mn2 Si6 O16'
_cell_volume   307.26375139
_cell_formula_units_Z   2
loop_
 _symmetry_equiv_pos_site_id
 _symmetry_equiv_pos_as_xyz
  1  'x, y, z'
loop_
 _atom_site_type_symbol
 _atom_site_label
 _atom_site_symmetry_multiplicity
 _atom_site_fract_x
 _atom_site_fract_y
 _atom_site_fract_z
 _atom_site_occupancy
  Li  Li0  1  0.827082  0.822553  0.802072  1
  Li  Li1  1  0.172918  0.177447  0.197928  1
  Mn  Mn2  1  0.222992  0.743000  0.138483  1
  Mn  Mn3  1  0.777008  0.257000  0.861517  1
  Si  Si4  1  0.225421  0.551223  0.733069  1
  Si  Si5  1  0.465289  0.748224  0.621291  1
  Si  Si6  1  0.169179  0.158218  0.739570  1
  Si  Si7  1  0.830821  0.841782  0.260430  1
  Si  Si8  1  0.534711  0.251775  0.378709  1
  Si  Si9  1  0.774579  0.448777  0.266931  1
  O  O10  1  0.141141  0.690467  0.877833  1
  O  O11  1  0.349374  0.938479  0.719199  1
  O  O12  1  0.044455  0.692628  0.488198  1
  O  O13  1  0.311089  0.845945  0.363763  1
  O  O14  1  0.096529  0.096530  0.922570  1
  O  O15  1  0.455133  0.526966  0.740219  1
  O  O16  1  0.282442  0.297840  0.810105  1
  O  O17  1  0.718531  0.642976  0.702586  1
  O  O18  1  0.281469  0.357024  0.297414  1
  O  O19  1  0.717558  0.702160  0.189895  1
  O  O20  1  0.544867  0.473035  0.259781  1
  O  O21  1  0.903471  0.903470  0.077430  1
  O  O22  1  0.688911  0.154055  0.636237  1
  O  O23  1  0.955545  0.307372  0.511802  1
  O  O24  1  0.650626  0.061521  0.280801  1
  O  O25  1  0.858859  0.309533  0.122167  1
