# generated using pymatgen
data_Li2Si4NiO10
_symmetry_space_group_name_H-M   'P 1'
_cell_length_a   9.63993073
_cell_length_b   7.52037165
_cell_length_c   6.92442574
_cell_angle_alpha   63.45554820
_cell_angle_beta   76.72362039
_cell_angle_gamma   100.08287709
_symmetry_Int_Tables_number   1
_chemical_formula_structural   Li2Si4NiO10
_chemical_formula_sum   'Li4 Si8 Ni2 O20'
_cell_volume   414.24670075
_cell_formula_units_Z   2
loop_
 _symmetry_equiv_pos_site_id
 _symmetry_equiv_pos_as_xyz
  1  'x, y, z'
loop_
 _atom_site_type_symbol
 _atom_site_label
 _atom_site_symmetry_multiplicity
 _atom_site_fract_x
 _atom_site_fract_y
 _atom_site_fract_z
 _atom_site_occupancy
  Li  Li0  1  0.043732  0.241532  0.615916  1
  Li  Li1  1  0.573184  0.689242  0.801614  1
  Li  Li2  1  0.426816  0.310758  0.198386  1
  Li  Li3  1  0.956268  0.758468  0.384084  1
  Si  Si4  1  0.194806  0.954616  0.750528  1
  Si  Si5  1  0.257877  0.641126  0.607818  1
  Si  Si6  1  0.242032  0.615673  0.190554  1
  Si  Si7  1  0.139685  0.277180  0.102083  1
  Si  Si8  1  0.860315  0.722820  0.897917  1
  Si  Si9  1  0.757968  0.384327  0.809446  1
  Si  Si10  1  0.742123  0.358874  0.392182  1
  Si  Si11  1  0.805194  0.045384  0.249472  1
  Ni  Ni12  1  0.426108  0.316858  0.746695  1
  Ni  Ni13  1  0.573892  0.683142  0.253305  1
  O  O14  1  0.014532  0.926412  0.771957  1
  O  O15  1  0.197321  0.803184  0.006517  1
  O  O16  1  0.133619  0.454967  0.858251  1
  O  O17  1  0.267548  0.870704  0.582222  1
  O  O18  1  0.178923  0.627637  0.425134  1
  O  O19  1  0.125612  0.382976  0.269328  1
  O  O20  1  0.422391  0.615426  0.564767  1
  O  O21  1  0.267476  0.199133  0.646595  1
  O  O22  1  0.710625  0.783825  0.930866  1
  O  O23  1  0.586493  0.377188  0.889176  1
  O  O24  1  0.413507  0.622812  0.110824  1
  O  O25  1  0.289375  0.216175  0.069134  1
  O  O26  1  0.732524  0.800867  0.353405  1
  O  O27  1  0.577609  0.384574  0.435233  1
  O  O28  1  0.874387  0.617024  0.730672  1
  O  O29  1  0.821077  0.372363  0.574866  1
  O  O30  1  0.732452  0.129296  0.417778  1
  O  O31  1  0.866381  0.545033  0.141749  1
  O  O32  1  0.802679  0.196816  0.993483  1
  O  O33  1  0.985468  0.073588  0.228043  1
