# generated using pymatgen
data_Ca12Al11Si3Cl5O32
_symmetry_space_group_name_H-M   'P 1'
_cell_length_a   10.47198400
_cell_length_b   10.47465144
_cell_length_c   10.45237987
_cell_angle_alpha   109.47507854
_cell_angle_beta   109.54544981
_cell_angle_gamma   109.31907610
_symmetry_Int_Tables_number   1
_chemical_formula_structural   Ca12Al11Si3Cl5O32
_chemical_formula_sum   'Ca12 Al11 Si3 Cl5 O32'
_cell_volume   883.39880955
_cell_formula_units_Z   1
loop_
 _symmetry_equiv_pos_site_id
 _symmetry_equiv_pos_as_xyz
  1  'x, y, z'
loop_
 _atom_site_type_symbol
 _atom_site_label
 _atom_site_symmetry_multiplicity
 _atom_site_fract_x
 _atom_site_fract_y
 _atom_site_fract_z
 _atom_site_occupancy
  Ca  Ca0  1  0.258361  0.901120  0.650932  1
  Ca  Ca1  1  0.141498  0.392522  0.749372  1
  Ca  Ca2  1  0.100122  0.246142  0.353341  1
  Ca  Ca3  1  0.606002  0.860937  0.753127  1
  Ca  Ca4  1  0.395037  0.751753  0.143333  1
  Ca  Ca5  1  0.242277  0.350285  0.100889  1
  Ca  Ca6  1  0.363835  0.108327  0.244962  1
  Ca  Ca7  1  0.752540  0.606496  0.853047  1
  Ca  Ca8  1  0.645997  0.244592  0.890906  1
  Ca  Ca9  1  0.858815  0.758730  0.608641  1
  Ca  Ca10  1  0.743231  0.137630  0.391743  1
  Ca  Ca11  1  0.889352  0.639575  0.250310  1
  Al  Al12  1  0.123872  0.745239  0.872893  1
  Al  Al13  1  0.032366  0.499258  0.000721  1
  Al  Al14  1  0.254106  0.625275  0.379309  1
  Al  Al15  1  0.374824  0.255130  0.628852  1
  Al  Al16  1  0.499421  0.000748  0.532819  1
  Al  Al17  1  0.967367  0.966093  0.967406  1
  Al  Al18  1  0.626450  0.376878  0.253703  1
  Al  Al19  1  0.745915  0.873230  0.122047  1
  Al  Al20  1  0.498454  0.999550  0.031447  1
  Al  Al21  1  0.875233  0.124815  0.749119  1
  Al  Al22  1  0.000574  0.032348  0.499361  1
  Si  Si23  1  0.464349  0.464090  0.465175  1
  Si  Si24  1  0.537271  0.501405  0.002168  1
  Si  Si25  1  0.000632  0.536299  0.499627  1
  Cl  Cl26  1  0.374035  0.623488  0.749077  1
  Cl  Cl27  1  0.249538  0.126190  0.876173  1
  Cl  Cl28  1  0.626486  0.749381  0.375490  1
  Cl  Cl29  1  0.749058  0.374463  0.624532  1
  Cl  Cl30  1  0.876340  0.251746  0.125661  1
  O  O31  1  0.022218  0.316542  0.902781  1
  O  O32  1  0.121915  0.597745  0.917210  1
  O  O33  1  0.076234  0.690644  0.673405  1
  O  O34  1  0.097173  0.608768  0.419455  1
  O  O35  1  0.182213  0.205659  0.579166  1
  O  O36  1  0.201451  0.586798  0.188028  1
  O  O37  1  0.396224  0.818197  0.521251  1
  O  O38  1  0.308425  0.481705  0.386235  1
  O  O39  1  0.313715  0.900511  0.016272  1
  O  O40  1  0.134955  0.126695  0.139767  1
  O  O41  1  0.518149  0.403478  0.827753  1
  O  O42  1  0.391115  0.311314  0.488075  1
  O  O43  1  0.795817  0.873061  0.977977  1
  O  O44  1  0.411481  0.101149  0.612363  1
  O  O45  1  0.382153  0.498764  0.000733  1
  O  O46  1  0.501765  0.002934  0.867763  1
  O  O47  1  0.619117  0.618609  0.618024  1
  O  O48  1  0.598595  0.917599  0.121391  1
  O  O49  1  0.487014  0.389949  0.311105  1
  O  O50  1  0.880386  0.978201  0.795521  1
  O  O51  1  0.486480  0.994902  0.360293  1
  O  O52  1  0.683000  0.085358  0.703245  1
  O  O53  1  0.981325  0.794665  0.881810  1
  O  O54  1  0.691896  0.675562  0.080495  1
  O  O55  1  0.614768  0.425963  0.103962  1
  O  O56  1  0.580773  0.185449  0.201426  1
  O  O57  1  0.825210  0.516821  0.399523  1
  O  O58  1  0.005612  0.864809  0.492021  1
  O  O59  1  0.915622  0.120194  0.596726  1
  O  O60  1  0.874258  0.515115  0.010182  1
  O  O61  1  0.997737  0.381251  0.498761  1
  O  O62  1  0.904847  0.012851  0.311098  1
