# generated using pymatgen
data_Fe5(OF4)2
_symmetry_space_group_name_H-M   'P 1'
_cell_length_a   4.82797206
_cell_length_b   8.00856186
_cell_length_c   10.17306610
_cell_angle_alpha   109.35303460
_cell_angle_beta   92.06555030
_cell_angle_gamma   88.54978585
_symmetry_Int_Tables_number   1
_chemical_formula_structural   Fe5(OF4)2
_chemical_formula_sum   'Fe10 O4 F16'
_cell_volume   370.83837554
_cell_formula_units_Z   2
loop_
 _symmetry_equiv_pos_site_id
 _symmetry_equiv_pos_as_xyz
  1  'x, y, z'
loop_
 _atom_site_type_symbol
 _atom_site_label
 _atom_site_symmetry_multiplicity
 _atom_site_fract_x
 _atom_site_fract_y
 _atom_site_fract_z
 _atom_site_occupancy
  Fe  Fe0  1  0.482779  0.296840  0.888825  1
  Fe  Fe1  1  0.553679  0.095405  0.290869  1
  Fe  Fe2  1  0.487609  0.894774  0.703249  1
  Fe  Fe3  1  0.504877  0.700319  0.103341  1
  Fe  Fe4  1  0.515010  0.506030  0.511209  1
  Fe  Fe5  1  0.975415  0.612508  0.794861  1
  Fe  Fe6  1  0.032842  0.192613  0.610290  1
  Fe  Fe7  1  0.978313  0.803821  0.386190  1
  Fe  Fe8  1  0.992976  0.385566  0.199024  1
  Fe  Fe9  1  0.982598  0.007960  0.013201  1
  O  O10  1  0.796581  0.159734  0.185103  1
  O  O11  1  0.678264  0.679903  0.677709  1
  O  O12  1  0.692011  0.864795  0.286861  1
  O  O13  1  0.307893  0.120620  0.711754  1
  F  F14  1  0.799537  0.761631  0.980043  1
  F  F15  1  0.812782  0.962556  0.574179  1
  F  F16  1  0.817424  0.568538  0.377797  1
  F  F17  1  0.817101  0.351934  0.767751  1
  F  F18  1  0.702528  0.049737  0.868090  1
  F  F19  1  0.695800  0.451669  0.064303  1
  F  F20  1  0.713662  0.245932  0.485357  1
  F  F21  1  0.279137  0.754510  0.516142  1
  F  F22  1  0.324390  0.333797  0.334798  1
  F  F23  1  0.301817  0.949425  0.133486  1
  F  F24  1  0.293392  0.549940  0.917727  1
  F  F25  1  0.185450  0.424502  0.616845  1
  F  F26  1  0.188810  0.039306  0.422128  1
  F  F27  1  0.199689  0.848639  0.826126  1
  F  F28  1  0.199344  0.245696  0.024264  1
  F  F29  1  0.188294  0.641303  0.228481  1
