# generated using pymatgen
data_MnH16C4N(OF2)2
_symmetry_space_group_name_H-M   'P 1'
_cell_length_a   5.61177559
_cell_length_b   8.60223875
_cell_length_c   10.87107560
_cell_angle_alpha   97.43276314
_cell_angle_beta   90.00000000
_cell_angle_gamma   109.03714765
_symmetry_Int_Tables_number   1
_chemical_formula_structural   MnH16C4N(OF2)2
_chemical_formula_sum   'Mn2 H32 C8 N2 O4 F8'
_cell_volume   491.41929481
_cell_formula_units_Z   2
loop_
 _symmetry_equiv_pos_site_id
 _symmetry_equiv_pos_as_xyz
  1  'x, y, z'
loop_
 _atom_site_type_symbol
 _atom_site_label
 _atom_site_symmetry_multiplicity
 _atom_site_fract_x
 _atom_site_fract_y
 _atom_site_fract_z
 _atom_site_occupancy
  Mn  Mn0  1  0.000000  0.500000  -0.000000  1
  Mn  Mn1  1  0.500000  0.500000  0.500000  1
  H  H2  1  0.256821  0.467308  0.225021  1
  H  H3  1  0.789513  0.532692  0.274979  1
  H  H4  1  0.743179  0.532692  0.774979  1
  H  H5  1  0.210487  0.467308  0.725021  1
  H  H6  1  0.411760  0.428573  0.112233  1
  H  H7  1  0.983186  0.571427  0.387767  1
  H  H8  1  0.588240  0.571427  0.887767  1
  H  H9  1  0.016814  0.428573  0.612233  1
  H  H10  1  0.790481  0.185765  0.405171  1
  H  H11  1  0.604716  0.814235  0.094829  1
  H  H12  1  0.209519  0.814235  0.594829  1
  H  H13  1  0.395284  0.185765  0.905171  1
  H  H14  1  0.001551  0.198421  0.280265  1
  H  H15  1  0.803130  0.801579  0.219735  1
  H  H16  1  0.998449  0.801579  0.719735  1
  H  H17  1  0.196870  0.198421  0.780265  1
  H  H18  1  0.960602  0.039670  0.377712  1
  H  H19  1  0.920932  0.960330  0.122288  1
  H  H20  1  0.039398  0.960330  0.622288  1
  H  H21  1  0.079068  0.039670  0.877712  1
  H  H22  1  0.470529  0.177726  0.242016  1
  H  H23  1  0.292803  0.822274  0.257984  1
  H  H24  1  0.529471  0.822274  0.757984  1
  H  H25  1  0.707197  0.177726  0.742016  1
  H  H26  1  0.397442  0.011646  0.113423  1
  H  H27  1  0.385796  0.988354  0.386577  1
  H  H28  1  0.602558  0.988354  0.886577  1
  H  H29  1  0.614204  0.011646  0.613423  1
  H  H30  1  0.695757  0.177304  0.124154  1
  H  H31  1  0.518453  0.822696  0.375846  1
  H  H32  1  0.304243  0.822696  0.875846  1
  H  H33  1  0.481547  0.177304  0.624154  1
  C  C34  1  0.867383  0.114479  0.335124  1
  C  C35  1  0.752904  0.885521  0.164876  1
  C  C36  1  0.132617  0.885521  0.664876  1
  C  C37  1  0.247096  0.114479  0.835124  1
  C  C38  1  0.546885  0.099959  0.176421  1
  C  C39  1  0.446926  0.900041  0.323579  1
  C  C40  1  0.453115  0.900041  0.823579  1
  C  C41  1  0.553074  0.099959  0.676421  1
  N  N42  1  0.654156  -0.000000  0.250000  1
  N  N43  1  0.345844  -0.000000  0.750000  1
  O  O44  1  0.238786  0.421234  0.135447  1
  O  O45  1  0.817551  0.578766  0.364553  1
  O  O46  1  0.761214  0.578766  0.864553  1
  O  O47  1  0.182449  0.421234  0.635447  1
  F  F48  1  0.149526  0.723976  0.060520  1
  F  F49  1  0.425550  0.276024  0.439480  1
  F  F50  1  0.850474  0.276024  0.939480  1
  F  F51  1  0.574449  0.723976  0.560520  1
  F  F52  1  0.740126  0.481093  0.119185  1
  F  F53  1  0.259032  0.518907  0.380815  1
  F  F54  1  0.259874  0.518907  0.880815  1
  F  F55  1  0.740968  0.481093  0.619185  1
