# generated using pymatgen
data_LiFe2(BO3)2
_symmetry_space_group_name_H-M   'P 1'
_cell_length_a   5.25296375
_cell_length_b   9.16179023
_cell_length_c   11.36810530
_cell_angle_alpha   67.42277165
_cell_angle_beta   76.87435128
_cell_angle_gamma   89.45420513
_symmetry_Int_Tables_number   1
_chemical_formula_structural   LiFe2(BO3)2
_chemical_formula_sum   'Li4 Fe8 B8 O24'
_cell_volume   490.14275387
_cell_formula_units_Z   4
loop_
 _symmetry_equiv_pos_site_id
 _symmetry_equiv_pos_as_xyz
  1  'x, y, z'
loop_
 _atom_site_type_symbol
 _atom_site_label
 _atom_site_symmetry_multiplicity
 _atom_site_fract_x
 _atom_site_fract_y
 _atom_site_fract_z
 _atom_site_occupancy
  Li  Li0  1  0.973986  0.968142  0.405065  1
  Li  Li1  1  0.712114  0.721429  0.903919  1
  Li  Li2  1  0.505747  0.488640  0.662305  1
  Li  Li3  1  0.737100  0.750815  0.162572  1
  Fe  Fe4  1  0.980898  0.643181  0.381250  1
  Fe  Fe5  1  0.753071  0.067724  0.877183  1
  Fe  Fe6  1  0.506358  0.853999  0.629460  1
  Fe  Fe7  1  0.762986  0.425263  0.133721  1
  Fe  Fe8  1  0.230473  0.554255  0.884181  1
  Fe  Fe9  1  0.466987  0.158685  0.379201  1
  Fe  Fe10  1  0.022021  0.341997  0.628519  1
  Fe  Fe11  1  0.266033  0.940578  0.125856  1
  B  B12  1  0.971124  0.307872  0.379311  1
  B  B13  1  0.739182  0.402634  0.869941  1
  B  B14  1  0.526450  0.186592  0.630680  1
  B  B15  1  0.763581  0.098098  0.133262  1
  B  B16  1  0.483561  0.822658  0.373491  1
  B  B17  1  0.232741  0.887407  0.882865  1
  B  B18  1  0.015016  0.681347  0.624812  1
  B  B19  1  0.266011  0.610216  0.125160  1
  O  O20  1  0.969395  0.881366  0.890258  1
  O  O21  1  0.901169  0.300285  0.829801  1
  O  O22  1  0.833630  0.494781  0.929598  1
  O  O23  1  0.866814  0.807012  0.620979  1
  O  O24  1  0.920326  0.562068  0.593203  1
  O  O25  1  0.758252  0.171849  0.671807  1
  O  O26  1  0.754660  0.345583  0.322713  1
  O  O27  1  0.497512  0.422443  0.845306  1
  O  O28  1  0.396184  0.791991  0.828785  1
  O  O29  1  0.568128  0.921659  0.429116  1
  O  O30  1  0.634596  0.709943  0.351552  1
  O  O31  1  0.353762  0.977567  0.932437  1
  O  O32  1  0.640341  0.994085  0.094702  1
  O  O33  1  0.381829  0.313176  0.628523  1
  O  O34  1  0.445759  0.074974  0.588584  1
  O  O35  1  0.625181  0.214866  0.162317  1
  O  O36  1  0.535072  0.605660  0.114280  1
  O  O37  1  0.258188  0.671334  0.656905  1
  O  O38  1  0.242951  0.847146  0.336836  1
  O  O39  1  0.050161  0.408555  0.432816  1
  O  O40  1  0.091883  0.174094  0.384646  1
  O  O41  1  0.129865  0.513229  0.088269  1
  O  O42  1  0.128093  0.720407  0.167031  1
  O  O43  1  0.015139  0.078724  0.145262  1
