# generated using pymatgen
data_Ni4(PO4)3
_symmetry_space_group_name_H-M   'P 1'
_cell_length_a   6.13859628
_cell_length_b   16.29559913
_cell_length_c   9.57169649
_cell_angle_alpha   90.00000000
_cell_angle_beta   90.00000000
_cell_angle_gamma   90.00000000
_symmetry_Int_Tables_number   1
_chemical_formula_structural   Ni4(PO4)3
_chemical_formula_sum   'Ni16 P12 O48'
_cell_volume   957.47694066
_cell_formula_units_Z   4
loop_
 _symmetry_equiv_pos_site_id
 _symmetry_equiv_pos_as_xyz
  1  'x, y, z'
loop_
 _atom_site_type_symbol
 _atom_site_label
 _atom_site_symmetry_multiplicity
 _atom_site_fract_x
 _atom_site_fract_y
 _atom_site_fract_z
 _atom_site_occupancy
  Ni  Ni0  1  0.000000  0.091730  0.533500  1
  Ni  Ni1  1  0.000000  0.141436  0.990563  1
  Ni  Ni2  1  0.000000  0.858564  0.009437  1
  Ni  Ni3  1  0.000000  0.908270  0.466500  1
  Ni  Ni4  1  0.248496  0.296393  0.751518  1
  Ni  Ni5  1  0.248496  0.703607  0.248482  1
  Ni  Ni6  1  0.251504  0.203607  0.251518  1
  Ni  Ni7  1  0.251504  0.796393  0.748482  1
  Ni  Ni8  1  0.500000  0.591730  0.966500  1
  Ni  Ni9  1  0.500000  0.408270  0.033500  1
  Ni  Ni10  1  0.500000  0.358564  0.490563  1
  Ni  Ni11  1  0.500000  0.641436  0.509437  1
  Ni  Ni12  1  0.748496  0.796393  0.748482  1
  Ni  Ni13  1  0.748496  0.203607  0.251518  1
  Ni  Ni14  1  0.751504  0.296393  0.751518  1
  Ni  Ni15  1  0.751504  0.703607  0.248482  1
  P  P16  1  0.000000  0.035865  0.206473  1
  P  P17  1  0.000000  0.339149  0.043355  1
  P  P18  1  0.000000  0.281734  0.453735  1
  P  P19  1  0.000000  0.718266  0.546265  1
  P  P20  1  0.000000  0.660851  0.956645  1
  P  P21  1  0.000000  0.964135  0.793527  1
  P  P22  1  0.500000  0.218266  0.953735  1
  P  P23  1  0.500000  0.535865  0.293527  1
  P  P24  1  0.500000  0.160851  0.543355  1
  P  P25  1  0.500000  0.464135  0.706473  1
  P  P26  1  0.500000  0.781734  0.046265  1
  P  P27  1  0.500000  0.839149  0.456645  1
  O  O28  1  0.000000  0.019712  0.366192  1
  O  O29  1  0.000000  0.249045  0.115535  1
  O  O30  1  0.000000  0.188875  0.393578  1
  O  O31  1  0.000000  0.046489  0.864973  1
  O  O32  1  0.000000  0.275299  0.615060  1
  O  O33  1  0.000000  0.672434  0.118497  1
  O  O34  1  0.000000  0.327566  0.881503  1
  O  O35  1  0.000000  0.724701  0.384940  1
  O  O36  1  0.000000  0.953511  0.135027  1
  O  O37  1  0.000000  0.811125  0.606422  1
  O  O38  1  0.000000  0.750955  0.884465  1
  O  O39  1  0.000000  0.980288  0.633808  1
  O  O40  1  0.203748  0.384290  0.090839  1
  O  O41  1  0.203748  0.615710  0.909161  1
  O  O42  1  0.198097  0.090829  0.159790  1
  O  O43  1  0.198097  0.909171  0.840210  1
  O  O44  1  0.213997  0.315422  0.392211  1
  O  O45  1  0.213997  0.684578  0.607789  1
  O  O46  1  0.286003  0.184578  0.892211  1
  O  O47  1  0.286003  0.815422  0.107789  1
  O  O48  1  0.301903  0.590829  0.340210  1
  O  O49  1  0.301903  0.409171  0.659790  1
  O  O50  1  0.296252  0.884290  0.409161  1
  O  O51  1  0.296252  0.115710  0.590839  1
  O  O52  1  0.500000  0.172434  0.381503  1
  O  O53  1  0.500000  0.453511  0.364973  1
  O  O54  1  0.500000  0.519712  0.133808  1
  O  O55  1  0.500000  0.224701  0.115060  1
  O  O56  1  0.500000  0.480288  0.866192  1
  O  O57  1  0.500000  0.546489  0.635027  1
  O  O58  1  0.500000  0.775299  0.884940  1
  O  O59  1  0.500000  0.250955  0.615535  1
  O  O60  1  0.500000  0.311125  0.893578  1
  O  O61  1  0.500000  0.688875  0.106422  1
  O  O62  1  0.500000  0.749045  0.384465  1
  O  O63  1  0.500000  0.827566  0.618497  1
  O  O64  1  0.703748  0.115710  0.590839  1
  O  O65  1  0.703748  0.884290  0.409161  1
  O  O66  1  0.698097  0.409171  0.659790  1
  O  O67  1  0.698097  0.590829  0.340210  1
  O  O68  1  0.713997  0.184578  0.892211  1
  O  O69  1  0.713997  0.815422  0.107789  1
  O  O70  1  0.786003  0.684578  0.607789  1
  O  O71  1  0.786003  0.315422  0.392211  1
  O  O72  1  0.801903  0.090829  0.159790  1
  O  O73  1  0.801903  0.909171  0.840210  1
  O  O74  1  0.796252  0.384290  0.090839  1
  O  O75  1  0.796252  0.615710  0.909161  1
