# generated using pymatgen
data_Li3V2(O2F)2
_symmetry_space_group_name_H-M   'P 1'
_cell_length_a   5.99562869
_cell_length_b   5.91261922
_cell_length_c   7.89365364
_cell_angle_alpha   100.69614777
_cell_angle_beta   67.70944323
_cell_angle_gamma   120.45708068
_symmetry_Int_Tables_number   1
_chemical_formula_structural   Li3V2(O2F)2
_chemical_formula_sum   'Li6 V4 O8 F4'
_cell_volume   223.18187855
_cell_formula_units_Z   2
loop_
 _symmetry_equiv_pos_site_id
 _symmetry_equiv_pos_as_xyz
  1  'x, y, z'
loop_
 _atom_site_type_symbol
 _atom_site_label
 _atom_site_symmetry_multiplicity
 _atom_site_fract_x
 _atom_site_fract_y
 _atom_site_fract_z
 _atom_site_occupancy
  Li  Li0  1  0.168249  0.681541  0.372103  1
  Li  Li1  1  0.331751  0.318459  0.627897  1
  Li  Li2  1  0.641001  0.681491  0.372135  1
  Li  Li3  1  0.860300  0.855353  0.634874  1
  Li  Li4  1  0.639700  0.144647  0.365126  1
  Li  Li5  1  0.858999  0.318509  0.627865  1
  V  V6  1  0.009221  0.504217  0.985883  1
  V  V7  1  0.002852  0.999937  0.999998  1
  V  V8  1  0.490779  0.495783  0.014117  1
  V  V9  1  0.497148  0.000063  0.000002  1
  O  O10  1  0.098224  0.836960  0.140792  1
  O  O11  1  0.078064  0.319437  0.138350  1
  O  O12  1  0.593790  0.841301  0.153915  1
  O  O13  1  0.603313  0.319519  0.138385  1
  O  O14  1  0.421936  0.680563  0.861650  1
  O  O15  1  0.401776  0.163040  0.859208  1
  O  O16  1  0.896687  0.680481  0.861615  1
  O  O17  1  0.906210  0.158699  0.846085  1
  F  F18  1  0.250000  0.500000  0.500000  1
  F  F19  1  0.250000  0.000000  0.500000  1
  F  F20  1  0.750000  0.500000  0.500000  1
  F  F21  1  0.750000  0.000000  0.500000  1
