# generated using pymatgen
data_Na5LiNi2P2(CO7)2
_symmetry_space_group_name_H-M   'P 1'
_cell_length_a   8.77295396
_cell_length_b   5.19011074
_cell_length_c   6.61625364
_cell_angle_alpha   90.11329720
_cell_angle_beta   89.47198885
_cell_angle_gamma   88.05753933
_symmetry_Int_Tables_number   1
_chemical_formula_structural   Na5LiNi2P2(CO7)2
_chemical_formula_sum   'Na5 Li1 Ni2 P2 C2 O14'
_cell_volume   301.06856238
_cell_formula_units_Z   1
loop_
 _symmetry_equiv_pos_site_id
 _symmetry_equiv_pos_as_xyz
  1  'x, y, z'
loop_
 _atom_site_type_symbol
 _atom_site_label
 _atom_site_symmetry_multiplicity
 _atom_site_fract_x
 _atom_site_fract_y
 _atom_site_fract_z
 _atom_site_occupancy
  Na  Na0  1  0.085494  0.775913  0.247829  1
  Na  Na1  1  0.274098  0.257711  0.490176  1
  Na  Na2  1  0.726264  0.741941  0.509010  1
  Na  Na3  1  0.726613  0.740973  0.990744  1
  Na  Na4  1  0.915748  0.223122  0.750912  1
  Li  Li5  1  0.281311  0.253937  0.005161  1
  Ni  Ni6  1  0.343938  0.781177  0.753152  1
  Ni  Ni7  1  0.654376  0.220291  0.249701  1
  P  P8  1  0.415523  0.720975  0.247821  1
  P  P9  1  0.580346  0.282651  0.754014  1
  C  C10  1  0.060957  0.707268  0.752552  1
  C  C11  1  0.942546  0.288790  0.245752  1
  O  O12  1  0.088239  0.317003  0.238267  1
  O  O13  1  0.116792  0.936100  0.749654  1
  O  O14  1  0.157465  0.509682  0.758486  1
  O  O15  1  0.316382  0.807503  0.064847  1
  O  O16  1  0.316845  0.790880  0.438088  1
  O  O17  1  0.425217  0.149301  0.764044  1
  O  O18  1  0.446295  0.421655  0.238346  1
  O  O19  1  0.548874  0.580294  0.751341  1
  O  O20  1  0.569279  0.856420  0.250420  1
  O  O21  1  0.677436  0.203204  0.564338  1
  O  O22  1  0.683108  0.207890  0.936750  1
  O  O23  1  0.846836  0.487133  0.249895  1
  O  O24  1  0.884217  0.061389  0.249631  1
  O  O25  1  0.915800  0.676798  0.749071  1
