# generated using pymatgen
data_Li3V3P8O29
_symmetry_space_group_name_H-M   'P 1'
_cell_length_a   9.76064375
_cell_length_b   9.78460333
_cell_length_c   13.88175536
_cell_angle_alpha   90.01575904
_cell_angle_beta   89.88338355
_cell_angle_gamma   59.92128335
_symmetry_Int_Tables_number   1
_chemical_formula_structural   Li3V3P8O29
_chemical_formula_sum   'Li6 V6 P16 O58'
_cell_volume   1147.22945322
_cell_formula_units_Z   2
loop_
 _symmetry_equiv_pos_site_id
 _symmetry_equiv_pos_as_xyz
  1  'x, y, z'
loop_
 _atom_site_type_symbol
 _atom_site_label
 _atom_site_symmetry_multiplicity
 _atom_site_fract_x
 _atom_site_fract_y
 _atom_site_fract_z
 _atom_site_occupancy
  Li  Li0  1  0.774561  0.908821  0.554793  1
  Li  Li1  1  0.774413  0.323671  0.061465  1
  Li  Li2  1  0.319124  0.770880  0.557056  1
  Li  Li3  1  0.680823  0.090190  0.942977  1
  Li  Li4  1  0.225487  0.683448  0.945190  1
  Li  Li5  1  0.225573  0.098165  0.438565  1
  V  V6  1  0.564982  0.431087  0.257301  1
  V  V7  1  0.435382  0.561839  0.749153  1
  V  V8  1  0.564626  0.997209  0.750849  1
  V  V9  1  0.435023  0.996014  0.242673  1
  V  V10  1  0.000032  0.568285  0.249994  1
  V  V11  1  0.999997  0.433366  0.749977  1
  P  P12  1  0.915711  0.769230  0.844110  1
  P  P13  1  0.769678  0.912309  0.341735  1
  P  P14  1  0.915798  0.315240  0.343634  1
  P  P15  1  0.670378  0.661226  0.127031  1
  P  P16  1  0.667298  0.665427  0.627349  1
  P  P17  1  0.772128  0.315716  0.841179  1
  P  P18  1  0.688291  0.225891  0.654524  1
  P  P19  1  0.311706  0.914251  0.845486  1
  P  P20  1  0.684953  0.088301  0.157878  1
  P  P21  1  0.315070  0.773295  0.342128  1
  P  P22  1  0.230343  0.681962  0.158230  1
  P  P23  1  0.329603  0.331743  0.372980  1
  P  P24  1  0.332654  0.332892  0.872634  1
  P  P25  1  0.084318  0.684902  0.655942  1
  P  P26  1  0.227864  0.087770  0.658827  1
  P  P27  1  0.084202  0.230937  0.156375  1
  O  O28  1  0.994392  0.765942  0.568483  1
  O  O29  1  0.913507  0.743167  0.334310  1
  O  O30  1  0.755227  0.006488  0.065471  1
  O  O31  1  0.744922  0.915598  0.840054  1
  O  O32  1  0.906176  0.617398  0.823916  1
  O  O33  1  0.815296  0.664831  0.173287  1
  O  O34  1  0.907251  0.475643  0.324904  1
  O  O35  1  0.995347  0.237921  0.068398  1
  O  O36  1  0.914732  0.341543  0.835687  1
  O  O37  1  0.669166  0.816976  0.670328  1
  O  O38  1  0.615750  0.907198  0.320524  1
  O  O39  1  0.813899  0.519914  0.673788  1
  O  O40  1  0.667244  0.664811  0.019904  1
  O  O41  1  0.663001  0.673505  0.520590  1
  O  O42  1  0.668787  0.512601  0.168234  1
  O  O43  1  0.475060  0.905811  0.821908  1
  O  O44  1  0.519374  0.814172  0.171999  1
  O  O45  1  0.744238  0.343255  0.335902  1
  O  O46  1  0.791228  0.203276  0.752202  1
  O  O47  1  0.763879  0.238442  0.566248  1
  O  O48  1  0.754720  0.245919  0.932907  1
  O  O49  1  0.617845  0.477622  0.821594  1
  O  O50  1  0.513049  0.669861  0.668883  1
  O  O51  1  0.661071  0.257576  0.161621  1
  O  O52  1  0.477751  0.619556  0.323462  1
  O  O53  1  0.338948  0.918692  0.338401  1
  O  O54  1  0.792755  0.001751  0.250031  1
  O  O55  1  0.759376  0.994370  0.433454  1
  O  O56  1  0.245320  0.000515  0.567077  1
  O  O57  1  0.660029  0.082651  0.661813  1
  O  O58  1  0.524946  0.380808  0.678099  1
  O  O59  1  0.339967  0.742750  0.838242  1
  O  O60  1  0.480532  0.333761  0.327993  1
  O  O61  1  0.384288  0.522944  0.179426  1
  O  O62  1  0.240571  0.753753  0.066567  1
  O  O63  1  0.244748  0.761778  0.434508  1
  O  O64  1  0.207268  0.794473  0.249976  1
  O  O65  1  0.255117  0.660446  0.659943  1
  O  O66  1  0.486917  0.182990  0.831183  1
  O  O67  1  0.522279  0.097204  0.176523  1
  O  O68  1  0.330778  0.486260  0.829608  1
  O  O69  1  0.336761  0.337021  0.979397  1
  O  O70  1  0.332659  0.332403  0.480122  1
  O  O71  1  0.184678  0.480222  0.326713  1
  O  O72  1  0.382164  0.095402  0.678401  1
  O  O73  1  0.331241  0.181486  0.331778  1
  O  O74  1  0.086570  0.656527  0.165657  1
  O  O75  1  0.000107  0.792174  0.750056  1
  O  O76  1  0.005608  0.760375  0.931577  1
  O  O77  1  0.093772  0.523570  0.676062  1
  O  O78  1  0.186113  0.333876  0.826145  1
  O  O79  1  0.092769  0.382800  0.175092  1
  O  O80  1  0.255756  0.087397  0.164102  1
  O  O81  1  0.236109  0.002586  0.933720  1
  O  O82  1  0.208792  0.994474  0.747792  1
  O  O83  1  0.085226  0.256177  0.664297  1
  O  O84  1  0.004670  0.233464  0.431607  1
  O  O85  1  0.000005  0.206283  0.250009  1
