# generated using pymatgen
data_Yb2P4O13
_symmetry_space_group_name_H-M   'P 1'
_cell_length_a   7.13186897
_cell_length_b   9.61815275
_cell_length_c   8.74610468
_cell_angle_alpha   90.00000000
_cell_angle_beta   90.00000000
_cell_angle_gamma   68.23809625
_symmetry_Int_Tables_number   1
_chemical_formula_structural   Yb2P4O13
_chemical_formula_sum   'Yb4 P8 O26'
_cell_volume   557.18621299
_cell_formula_units_Z   2
loop_
 _symmetry_equiv_pos_site_id
 _symmetry_equiv_pos_as_xyz
  1  'x, y, z'
loop_
 _atom_site_type_symbol
 _atom_site_label
 _atom_site_symmetry_multiplicity
 _atom_site_fract_x
 _atom_site_fract_y
 _atom_site_fract_z
 _atom_site_occupancy
  Yb  Yb0  1  0.399920  0.706613  0.397426  1
  Yb  Yb1  1  0.893466  0.706613  0.602574  1
  Yb  Yb2  1  0.106534  0.293387  0.102574  1
  Yb  Yb3  1  0.600080  0.293387  0.897426  1
  P  P4  1  0.279335  0.882745  0.022028  1
  P  P5  1  0.837920  0.882745  0.977972  1
  P  P6  1  0.902792  0.682789  0.248117  1
  P  P7  1  0.414418  0.682789  0.751883  1
  P  P8  1  0.585582  0.317211  0.251883  1
  P  P9  1  0.097208  0.317211  0.748117  1
  P  P10  1  0.720665  0.117255  0.522028  1
  P  P11  1  0.162080  0.117255  0.477972  1
  O  O12  1  0.743270  0.956888  0.544316  1
  O  O13  1  0.299842  0.956888  0.455684  1
  O  O14  1  0.061073  0.877855  0.000000  1
  O  O15  1  0.789431  0.829313  0.141397  1
  O  O16  1  0.381255  0.829313  0.858603  1
  O  O17  1  0.840549  0.774240  0.854291  1
  O  O18  1  0.385210  0.774240  0.145709  1
  O  O19  1  0.067204  0.711301  0.341691  1
  O  O20  1  0.221494  0.711301  0.658309  1
  O  O21  1  0.582419  0.676270  0.640477  1
  O  O22  1  0.741311  0.676270  0.359523  1
  O  O23  1  0.469818  0.546833  0.854885  1
  O  O24  1  0.983349  0.546833  0.145115  1
  O  O25  1  0.530182  0.453167  0.354885  1
  O  O26  1  0.016651  0.453167  0.645115  1
  O  O27  1  0.417581  0.323730  0.140477  1
  O  O28  1  0.258689  0.323730  0.859523  1
  O  O29  1  0.932796  0.288699  0.841691  1
  O  O30  1  0.778506  0.288699  0.158309  1
  O  O31  1  0.159451  0.225760  0.354291  1
  O  O32  1  0.614790  0.225760  0.645709  1
  O  O33  1  0.618745  0.170687  0.358603  1
  O  O34  1  0.210569  0.170687  0.641397  1
  O  O35  1  0.938927  0.122145  0.500000  1
  O  O36  1  0.700158  0.043112  0.955684  1
  O  O37  1  0.256730  0.043112  0.044316  1
