# generated using pymatgen
data_Y2TeO6
_symmetry_space_group_name_H-M   'P 1'
_cell_length_a   9.21021561
_cell_length_b   9.21012032
_cell_length_c   5.21771910
_cell_angle_alpha   90.00490503
_cell_angle_beta   90.00000000
_cell_angle_gamma   120.00034223
_symmetry_Int_Tables_number   1
_chemical_formula_structural   Y2TeO6
_chemical_formula_sum   'Y6 Te3 O18'
_cell_volume   383.30539074
_cell_formula_units_Z   3
loop_
 _symmetry_equiv_pos_site_id
 _symmetry_equiv_pos_as_xyz
  1  'x, y, z'
loop_
 _atom_site_type_symbol
 _atom_site_label
 _atom_site_symmetry_multiplicity
 _atom_site_fract_x
 _atom_site_fract_y
 _atom_site_fract_z
 _atom_site_occupancy
  Y  Y0  1  0.000021  0.621998  0.000005  1
  Y  Y1  1  -0.000025  0.284379  0.500014  1
  Y  Y2  1  0.378023  0.378002  -0.000005  1
  Y  Y3  1  0.284421  0.000000  0.500000  1
  Y  Y4  1  0.715596  0.715621  0.499986  1
  Y  Y5  1  0.621930  0.000000  0.000000  1
  Te  Te6  1  0.333407  0.666888  0.505491  1
  Te  Te7  1  0.000038  0.000000  0.000000  1
  Te  Te8  1  0.666519  0.333112  0.494509  1
  O  O9  1  0.079939  0.880090  0.789703  1
  O  O10  1  0.222450  0.757855  0.292803  1
  O  O11  1  0.133497  0.543076  0.719072  1
  O  O12  1  0.409560  0.866417  0.718979  1
  O  O13  1  0.242098  0.464540  0.292761  1
  O  O14  1  0.119902  0.199903  0.789642  1
  O  O15  1  0.199849  0.119910  0.210297  1
  O  O16  1  0.535421  0.777495  0.292809  1
  O  O17  1  0.456902  0.590385  0.719050  1
  O  O18  1  0.800098  0.920002  0.789634  1
  O  O19  1  0.464595  0.242145  0.707197  1
  O  O20  1  0.590421  0.456924  0.280928  1
  O  O21  1  0.543144  0.133583  0.281021  1
  O  O22  1  0.777558  0.535460  0.707239  1
  O  O23  1  0.919998  0.800098  0.210358  1
  O  O24  1  0.757926  0.222505  0.707191  1
  O  O25  1  0.866518  0.409615  0.280950  1
  O  O26  1  0.880096  0.079998  0.210366  1
