# generated using pymatgen
data_Li3FePCO7
_symmetry_space_group_name_H-M   'P 1'
_cell_length_a   8.60206010
_cell_length_b   4.88576588
_cell_length_c   6.47178658
_cell_angle_alpha   90.00000000
_cell_angle_beta   90.00000000
_cell_angle_gamma   85.29929458
_symmetry_Int_Tables_number   1
_chemical_formula_structural   Li3FePCO7
_chemical_formula_sum   'Li6 Fe2 P2 C2 O14'
_cell_volume   271.07910744
_cell_formula_units_Z   2
loop_
 _symmetry_equiv_pos_site_id
 _symmetry_equiv_pos_as_xyz
  1  'x, y, z'
loop_
 _atom_site_type_symbol
 _atom_site_label
 _atom_site_symmetry_multiplicity
 _atom_site_fract_x
 _atom_site_fract_y
 _atom_site_fract_z
 _atom_site_occupancy
  Li  Li0  1  0.106057  0.776899  0.264471  1
  Li  Li1  1  0.290172  0.235740  0.484733  1
  Li  Li2  1  0.358396  0.778503  0.738293  1
  Li  Li3  1  0.641604  0.221497  0.238293  1
  Li  Li4  1  0.709828  0.764260  0.984733  1
  Li  Li5  1  0.893943  0.223101  0.764471  1
  Fe  Fe6  1  0.261853  0.251541  0.995736  1
  Fe  Fe7  1  0.738147  0.748459  0.495736  1
  P  P8  1  0.407225  0.721452  0.248014  1
  P  P9  1  0.592775  0.278548  0.748014  1
  C  C10  1  0.042219  0.702745  0.762092  1
  C  C11  1  0.957781  0.297255  0.262092  1
  O  O12  1  0.069044  0.956435  0.760480  1
  O  O13  1  0.101547  0.370671  0.244661  1
  O  O14  1  0.155506  0.509791  0.776660  1
  O  O15  1  0.311770  0.838648  0.057040  1
  O  O16  1  0.309208  0.823172  0.437232  1
  O  O17  1  0.425309  0.183452  0.745558  1
  O  O18  1  0.417486  0.400741  0.235033  1
  O  O19  1  0.582514  0.599259  0.735033  1
  O  O20  1  0.574691  0.816548  0.245558  1
  O  O21  1  0.690792  0.176828  0.937232  1
  O  O22  1  0.688230  0.161352  0.557040  1
  O  O23  1  0.844494  0.490209  0.276660  1
  O  O24  1  0.898453  0.629329  0.744661  1
  O  O25  1  0.930956  0.043565  0.260480  1
