# generated using pymatgen
data_Li3V3P8O29
_symmetry_space_group_name_H-M   'P 1'
_cell_length_a   9.75880413
_cell_length_b   9.77230112
_cell_length_c   14.19072196
_cell_angle_alpha   90.01832636
_cell_angle_beta   90.28183940
_cell_angle_gamma   60.01544987
_symmetry_Int_Tables_number   1
_chemical_formula_structural   Li3V3P8O29
_chemical_formula_sum   'Li6 V6 P16 O58'
_cell_volume   1172.16723505
_cell_formula_units_Z   2
loop_
 _symmetry_equiv_pos_site_id
 _symmetry_equiv_pos_as_xyz
  1  'x, y, z'
loop_
 _atom_site_type_symbol
 _atom_site_label
 _atom_site_symmetry_multiplicity
 _atom_site_fract_x
 _atom_site_fract_y
 _atom_site_fract_z
 _atom_site_occupancy
  Li  Li0  1  0.767725  0.326328  0.050252  1
  Li  Li1  1  0.327810  0.905922  0.054210  1
  Li  Li2  1  0.695449  0.220795  0.449308  1
  Li  Li3  1  0.321518  0.774290  0.563830  1
  Li  Li4  1  0.084692  0.687707  0.442904  1
  Li  Li5  1  0.983711  0.971952  0.985924  1
  V  V6  1  0.567086  0.434265  0.249344  1
  V  V7  1  0.430806  0.562866  0.756270  1
  V  V8  1  0.567816  0.999580  0.750038  1
  V  V9  1  0.435020  0.004490  0.252196  1
  V  V10  1  0.993583  0.564977  0.244458  1
  V  V11  1  0.002351  0.433241  0.748711  1
  P  P12  1  0.916485  0.776197  0.839206  1
  P  P13  1  0.773666  0.913756  0.340365  1
  P  P14  1  0.917283  0.312810  0.346368  1
  P  P15  1  0.661900  0.667063  0.129949  1
  P  P16  1  0.662660  0.667440  0.631805  1
  P  P17  1  0.777893  0.312834  0.839680  1
  P  P18  1  0.681250  0.229375  0.660411  1
  P  P19  1  0.312175  0.914973  0.842695  1
  P  P20  1  0.692564  0.083545  0.155278  1
  P  P21  1  0.319689  0.770498  0.341882  1
  P  P22  1  0.223274  0.689690  0.161087  1
  P  P23  1  0.332695  0.338076  0.368456  1
  P  P24  1  0.333800  0.329008  0.870034  1
  P  P25  1  0.087493  0.684520  0.656968  1
  P  P26  1  0.226013  0.087691  0.660668  1
  P  P27  1  0.083132  0.222999  0.160517  1
  O  O28  1  0.011107  0.754846  0.565162  1
  O  O29  1  0.916593  0.743225  0.337662  1
  O  O30  1  0.783653  0.008655  0.069572  1
  O  O31  1  0.741267  0.912165  0.831156  1
  O  O32  1  0.922263  0.615827  0.828861  1
  O  O33  1  0.809913  0.670499  0.174937  1
  O  O34  1  0.908681  0.473798  0.320200  1
  O  O35  1  0.992286  0.221881  0.076797  1
  O  O36  1  0.915977  0.346297  0.831616  1
  O  O37  1  0.656034  0.817984  0.677960  1
  O  O38  1  0.618721  0.905714  0.320737  1
  O  O39  1  0.815554  0.526290  0.677757  1
  O  O40  1  0.665017  0.656189  0.025858  1
  O  O41  1  0.661312  0.670621  0.527042  1
  O  O42  1  0.672857  0.511379  0.173323  1
  O  O43  1  0.468836  0.915021  0.830393  1
  O  O44  1  0.510697  0.814932  0.169214  1
  O  O45  1  0.744445  0.339855  0.336296  1
  O  O46  1  0.794941  0.206385  0.749525  1
  O  O47  1  0.752690  0.239510  0.570873  1
  O  O48  1  0.785943  0.229051  0.929159  1
  O  O49  1  0.618828  0.471226  0.827247  1
  O  O50  1  0.515160  0.662674  0.671499  1
  O  O51  1  0.656421  0.259005  0.164325  1
  O  O52  1  0.480122  0.618446  0.320461  1
  O  O53  1  0.344229  0.914372  0.331753  1
  O  O54  1  0.795607  0.998025  0.248702  1
  O  O55  1  0.760770  0.005094  0.426084  1
  O  O56  1  0.231209  0.995071  0.576874  1
  O  O57  1  0.655571  0.085725  0.667597  1
  O  O58  1  0.522013  0.381581  0.681612  1
  O  O59  1  0.345266  0.742157  0.829836  1
  O  O60  1  0.483122  0.336492  0.323566  1
  O  O61  1  0.382932  0.532029  0.173953  1
  O  O62  1  0.216275  0.786768  0.078909  1
  O  O63  1  0.251273  0.755950  0.432497  1
  O  O64  1  0.202008  0.788900  0.257275  1
  O  O65  1  0.258194  0.659872  0.663309  1
  O  O66  1  0.481521  0.184919  0.825053  1
  O  O67  1  0.534526  0.082085  0.171960  1
  O  O68  1  0.332600  0.481571  0.826375  1
  O  O69  1  0.334989  0.333654  0.974274  1
  O  O70  1  0.345526  0.332122  0.472315  1
  O  O71  1  0.182348  0.485307  0.328132  1
  O  O72  1  0.380864  0.092071  0.677706  1
  O  O73  1  0.338294  0.186961  0.320947  1
  O  O74  1  0.086687  0.652861  0.167234  1
  O  O75  1  0.995601  0.797599  0.743561  1
  O  O76  1  0.996873  0.795294  0.922357  1
  O  O77  1  0.095892  0.524455  0.677132  1
  O  O78  1  0.185780  0.332135  0.824416  1
  O  O79  1  0.085128  0.382021  0.173496  1
  O  O80  1  0.257024  0.084386  0.161865  1
  O  O81  1  0.229244  0.980848  0.933658  1
  O  O82  1  0.199839  0.008902  0.755437  1
  O  O83  1  0.085330  0.259626  0.665112  1
  O  O84  1  0.996891  0.240931  0.435133  1
  O  O85  1  0.005776  0.202712  0.255319  1
