# generated using pymatgen
data_Li7Mn8(BO3)8
_symmetry_space_group_name_H-M   'P 1'
_cell_length_a   5.27463695
_cell_length_b   9.07688243
_cell_length_c   11.55039954
_cell_angle_alpha   68.10259658
_cell_angle_beta   77.94208244
_cell_angle_gamma   89.63081586
_symmetry_Int_Tables_number   1
_chemical_formula_structural   Li7Mn8(BO3)8
_chemical_formula_sum   'Li7 Mn8 B8 O24'
_cell_volume   500.22479052
_cell_formula_units_Z   1
loop_
 _symmetry_equiv_pos_site_id
 _symmetry_equiv_pos_as_xyz
  1  'x, y, z'
loop_
 _atom_site_type_symbol
 _atom_site_label
 _atom_site_symmetry_multiplicity
 _atom_site_fract_x
 _atom_site_fract_y
 _atom_site_fract_z
 _atom_site_occupancy
  Li  Li0  1  0.026311  0.037882  0.086349  1
  Li  Li1  1  0.284639  0.250185  0.329763  1
  Li  Li2  1  0.530244  0.537190  0.092483  1
  Li  Li3  1  0.478656  0.509526  0.827328  1
  Li  Li4  1  0.775360  0.739971  0.341411  1
  Li  Li5  1  0.799084  0.777992  0.586839  1
  Li  Li6  1  0.974019  0.009576  0.834980  1
  Mn  Mn7  1  0.024166  0.357005  0.114740  1
  Mn  Mn8  1  0.255027  0.560138  0.377319  1
  Mn  Mn9  1  0.272711  0.961634  0.616031  1
  Mn  Mn10  1  0.522537  0.853593  0.122789  1
  Mn  Mn11  1  0.462163  0.147815  0.865697  1
  Mn  Mn12  1  0.749457  0.064326  0.368199  1
  Mn  Mn13  1  0.787877  0.415783  0.619662  1
  Mn  Mn14  1  0.972854  0.663576  0.867706  1
  B  B15  1  0.024771  0.684902  0.128926  1
  B  B16  1  0.241690  0.893736  0.377568  1
  B  B17  1  0.263778  0.615107  0.625215  1
  B  B18  1  0.525161  0.186428  0.122979  1
  B  B19  1  0.468463  0.812517  0.878627  1
  B  B20  1  0.750211  0.389213  0.372828  1
  B  B21  1  0.757283  0.104151  0.627065  1
  B  B22  1  0.969075  0.314425  0.869062  1
  O  O23  1  0.264658  0.651768  0.162869  1
  O  O24  1  0.142340  0.518792  0.579076  1
  O  O25  1  0.113665  0.726040  0.660109  1
  O  O26  1  0.406832  0.086275  0.079391  1
  O  O27  1  0.405722  0.317822  0.133108  1
  O  O28  1  0.061638  0.166519  0.895023  1
  O  O29  1  0.084571  0.427340  0.900713  1
  O  O30  1  0.340566  0.017656  0.404169  1
  O  O31  1  0.411847  0.794801  0.337484  1
  O  O32  1  0.238248  0.855602  0.838761  1
  O  O33  1  0.500808  0.392488  0.359698  1
  O  O34  1  0.519430  0.599564  0.635349  1
  O  O35  1  0.766240  0.154162  0.156959  1
  O  O36  1  0.585092  0.213633  0.654241  1
  O  O37  1  0.672375  0.996246  0.580595  1
  O  O38  1  0.909416  0.588384  0.081176  1
  O  O39  1  0.900059  0.811082  0.147890  1
  O  O40  1  0.566216  0.667234  0.889599  1
  O  O41  1  0.603634  0.919454  0.910639  1
  O  O42  1  0.845213  0.491624  0.425582  1
  O  O43  1  0.921814  0.291744  0.332637  1
  O  O44  1  0.746682  0.349644  0.814280  1
  O  O45  1  0.975754  0.869558  0.393021  1
  O  O46  1  0.998562  0.106661  0.650040  1
