# generated using pymatgen
data_Na3Sb5O14
_symmetry_space_group_name_H-M   'P 1'
_cell_length_a   24.03340304
_cell_length_b   7.26746951
_cell_length_c   7.58926243
_cell_angle_alpha   90.00000000
_cell_angle_beta   90.00000000
_cell_angle_gamma   90.00000000
_symmetry_Int_Tables_number   1
_chemical_formula_structural   Na3Sb5O14
_chemical_formula_sum   'Na12 Sb20 O56'
_cell_volume   1325.55593528
_cell_formula_units_Z   4
loop_
 _symmetry_equiv_pos_site_id
 _symmetry_equiv_pos_as_xyz
  1  'x, y, z'
loop_
 _atom_site_type_symbol
 _atom_site_label
 _atom_site_symmetry_multiplicity
 _atom_site_fract_x
 _atom_site_fract_y
 _atom_site_fract_z
 _atom_site_occupancy
  Na  Na0  1  0.023802  0.229333  0.132176  1
  Na  Na1  1  0.132705  0.579654  0.878701  1
  Na  Na2  1  0.201360  0.714373  0.451678  1
  Na  Na3  1  0.298640  0.214373  0.451678  1
  Na  Na4  1  0.367295  0.079654  0.878701  1
  Na  Na5  1  0.476198  0.729333  0.132176  1
  Na  Na6  1  0.523802  0.270667  0.132176  1
  Na  Na7  1  0.632705  0.920346  0.878701  1
  Na  Na8  1  0.701360  0.785627  0.451678  1
  Na  Na9  1  0.798640  0.285627  0.451678  1
  Na  Na10  1  0.867295  0.420346  0.878701  1
  Na  Na11  1  0.976198  0.770667  0.132176  1
  Sb  Sb12  1  0.058593  0.417780  0.516666  1
  Sb  Sb13  1  0.063177  0.902504  0.516391  1
  Sb  Sb14  1  0.144049  0.099411  0.784233  1
  Sb  Sb15  1  0.145013  0.106505  0.249370  1
  Sb  Sb16  1  0.242518  0.810375  0.016369  1
  Sb  Sb17  1  0.257482  0.310375  0.016369  1
  Sb  Sb18  1  0.354987  0.606505  0.249370  1
  Sb  Sb19  1  0.355951  0.599411  0.784233  1
  Sb  Sb20  1  0.436823  0.402504  0.516391  1
  Sb  Sb21  1  0.441407  0.917780  0.516666  1
  Sb  Sb22  1  0.558593  0.082220  0.516666  1
  Sb  Sb23  1  0.563177  0.597496  0.516391  1
  Sb  Sb24  1  0.644049  0.400589  0.784233  1
  Sb  Sb25  1  0.645013  0.393495  0.249370  1
  Sb  Sb26  1  0.742518  0.689625  0.016369  1
  Sb  Sb27  1  0.757482  0.189625  0.016369  1
  Sb  Sb28  1  0.854987  0.893495  0.249370  1
  Sb  Sb29  1  0.855951  0.900589  0.784233  1
  Sb  Sb30  1  0.936823  0.097496  0.516391  1
  Sb  Sb31  1  0.941407  0.582220  0.516666  1
  O  O32  1  0.000000  0.500000  0.338551  1
  O  O33  1  0.000000  0.500000  0.688140  1
  O  O34  1  0.018067  0.162222  0.511213  1
  O  O35  1  0.072518  0.951250  0.767507  1
  O  O36  1  0.071255  0.951642  0.263494  1
  O  O37  1  0.098872  0.658950  0.525489  1
  O  O38  1  0.102002  0.332747  0.314932  1
  O  O39  1  0.107840  0.335134  0.705280  1
  O  O40  1  0.117702  0.180208  0.016232  1
  O  O41  1  0.144803  0.020513  0.513706  1
  O  O42  1  0.182226  0.861242  0.834765  1
  O  O43  1  0.182791  0.871199  0.195129  1
  O  O44  1  0.215158  0.245352  0.245170  1
  O  O45  1  0.213298  0.240999  0.797027  1
  O  O46  1  0.215807  0.548005  0.019090  1
  O  O47  1  0.284193  0.048005  0.019090  1
  O  O48  1  0.286702  0.740999  0.797027  1
  O  O49  1  0.284842  0.745352  0.245170  1
  O  O50  1  0.317209  0.371199  0.195129  1
  O  O51  1  0.317774  0.361242  0.834765  1
  O  O52  1  0.355197  0.520513  0.513706  1
  O  O53  1  0.382298  0.680208  0.016232  1
  O  O54  1  0.392160  0.835134  0.705280  1
  O  O55  1  0.397998  0.832747  0.314932  1
  O  O56  1  0.401128  0.158950  0.525489  1
  O  O57  1  0.428745  0.451642  0.263494  1
  O  O58  1  0.427482  0.451250  0.767507  1
  O  O59  1  0.481933  0.662222  0.511213  1
  O  O60  1  0.500000  0.000000  0.338551  1
  O  O61  1  0.500000  0.000000  0.688140  1
  O  O62  1  0.518067  0.337778  0.511213  1
  O  O63  1  0.572518  0.548750  0.767507  1
  O  O64  1  0.571255  0.548358  0.263494  1
  O  O65  1  0.598872  0.841050  0.525489  1
  O  O66  1  0.602002  0.167253  0.314932  1
  O  O67  1  0.607840  0.164866  0.705280  1
  O  O68  1  0.617702  0.319792  0.016232  1
  O  O69  1  0.644803  0.479487  0.513706  1
  O  O70  1  0.682226  0.638758  0.834765  1
  O  O71  1  0.682791  0.628801  0.195129  1
  O  O72  1  0.715158  0.254648  0.245170  1
  O  O73  1  0.713298  0.259001  0.797027  1
  O  O74  1  0.715807  0.951995  0.019090  1
  O  O75  1  0.784193  0.451995  0.019090  1
  O  O76  1  0.786702  0.759001  0.797027  1
  O  O77  1  0.784842  0.754648  0.245170  1
  O  O78  1  0.817209  0.128801  0.195129  1
  O  O79  1  0.817774  0.138758  0.834765  1
  O  O80  1  0.855197  0.979487  0.513706  1
  O  O81  1  0.882298  0.819792  0.016232  1
  O  O82  1  0.892160  0.664866  0.705280  1
  O  O83  1  0.897998  0.667253  0.314932  1
  O  O84  1  0.901128  0.341050  0.525489  1
  O  O85  1  0.928745  0.048358  0.263494  1
  O  O86  1  0.927482  0.048750  0.767507  1
  O  O87  1  0.981933  0.837778  0.511213  1
