# generated using pymatgen
data_MgVFeMo3O14
_symmetry_space_group_name_H-M   'P 1'
_cell_length_a   8.42557843
_cell_length_b   8.73589635
_cell_length_c   9.11228754
_cell_angle_alpha   90.00000000
_cell_angle_beta   90.00000000
_cell_angle_gamma   112.53324577
_symmetry_Int_Tables_number   1
_chemical_formula_structural   MgVFeMo3O14
_chemical_formula_sum   'Mg2 V2 Fe2 Mo6 O28'
_cell_volume   619.50596498
_cell_formula_units_Z   2
loop_
 _symmetry_equiv_pos_site_id
 _symmetry_equiv_pos_as_xyz
  1  'x, y, z'
loop_
 _atom_site_type_symbol
 _atom_site_label
 _atom_site_symmetry_multiplicity
 _atom_site_fract_x
 _atom_site_fract_y
 _atom_site_fract_z
 _atom_site_occupancy
  Mg  Mg0  1  0.496080  0.679117  0.995947  1
  Mg  Mg1  1  0.003920  0.820883  0.495947  1
  V  V2  1  0.134443  0.341229  0.142980  1
  V  V3  1  0.365557  0.158771  0.642980  1
  Fe  Fe4  1  0.011127  0.188663  0.500743  1
  Fe  Fe5  1  0.488873  0.311337  0.000743  1
  Mo  Mo6  1  0.204911  0.892871  0.118148  1
  Mo  Mo7  1  0.295089  0.607129  0.618148  1
  Mo  Mo8  1  0.632806  0.847713  0.359204  1
  Mo  Mo9  1  0.699854  0.390005  0.382752  1
  Mo  Mo10  1  0.867194  0.652287  0.859204  1
  Mo  Mo11  1  0.800146  0.109995  0.882752  1
  O  O12  1  0.012962  0.814818  0.990892  1
  O  O13  1  0.136894  0.857309  0.301243  1
  O  O14  1  0.059334  0.486608  0.167961  1
  O  O15  1  0.150671  0.699526  0.572367  1
  O  O16  1  0.123218  0.240515  0.308875  1
  O  O17  1  0.349329  0.800474  0.072367  1
  O  O18  1  0.191043  0.389692  0.589118  1
  O  O19  1  0.363106  0.642691  0.801243  1
  O  O20  1  0.150242  0.060249  0.573167  1
  O  O21  1  0.545268  0.994037  0.329310  1
  O  O22  1  0.349758  0.439751  0.073167  1
  O  O23  1  0.487038  0.685182  0.490892  1
  O  O24  1  0.308957  0.110308  0.089118  1
  O  O25  1  0.376782  0.259485  0.808875  1
  O  O26  1  0.636954  0.754346  0.189387  1
  O  O27  1  0.697051  0.892278  0.907947  1
  O  O28  1  0.515215  0.313643  0.511423  1
  O  O29  1  0.649287  0.544464  0.929799  1
  O  O30  1  0.440666  0.013392  0.667961  1
  O  O31  1  0.850713  0.955536  0.429799  1
  O  O32  1  0.624410  0.350579  0.198041  1
  O  O33  1  0.802949  0.607722  0.407947  1
  O  O34  1  0.652812  0.203759  0.930697  1
  O  O35  1  0.863046  0.745654  0.689387  1
  O  O36  1  0.847188  0.296241  0.430697  1
  O  O37  1  0.954732  0.505963  0.829310  1
  O  O38  1  0.875590  0.149421  0.698041  1
  O  O39  1  0.984785  0.186357  0.011423  1
