# generated using pymatgen
data_Li32Ti3Cr13O48
_symmetry_space_group_name_H-M   'P 1'
_cell_length_a   5.06372720
_cell_length_b   8.73273709
_cell_length_c   19.55448794
_cell_angle_alpha   98.39642919
_cell_angle_beta   94.94190430
_cell_angle_gamma   90.07561828
_symmetry_Int_Tables_number   1
_chemical_formula_structural   Li32Ti3Cr13O48
_chemical_formula_sum   'Li32 Ti3 Cr13 O48'
_cell_volume   852.17018153
_cell_formula_units_Z   1
loop_
 _symmetry_equiv_pos_site_id
 _symmetry_equiv_pos_as_xyz
  1  'x, y, z'
loop_
 _atom_site_type_symbol
 _atom_site_label
 _atom_site_symmetry_multiplicity
 _atom_site_fract_x
 _atom_site_fract_y
 _atom_site_fract_z
 _atom_site_occupancy
  Li  Li0  1  0.992230  0.169895  0.249070  1
  Li  Li1  1  0.873141  0.375102  0.375641  1
  Li  Li2  1  0.746788  0.252273  0.000249  1
  Li  Li3  1  0.742825  0.921483  0.000218  1
  Li  Li4  1  0.991317  0.169991  0.749798  1
  Li  Li5  1  0.754465  0.578391  0.500036  1
  Li  Li6  1  0.873039  0.375231  0.875711  1
  Li  Li7  1  0.742000  0.253137  0.500456  1
  Li  Li8  1  0.744897  0.921978  0.500425  1
  Li  Li9  1  0.624537  0.127160  0.125386  1
  Li  Li10  1  0.754030  0.578721  0.000037  1
  Li  Li11  1  0.510490  0.333148  0.249995  1
  Li  Li12  1  0.625488  0.126095  0.625166  1
  Li  Li13  1  0.502246  0.999605  0.250478  1
  Li  Li14  1  0.484587  0.666386  0.249530  1
  Li  Li15  1  0.515462  0.334164  0.750622  1
  Li  Li16  1  0.374355  0.873876  0.374748  1
  Li  Li17  1  0.500194  0.999867  0.750032  1
  Li  Li18  1  0.257406  0.747431  0.999750  1
  Li  Li19  1  0.485237  0.665940  0.749418  1
  Li  Li20  1  0.244488  0.421178  0.000223  1
  Li  Li21  1  0.374465  0.874307  0.874818  1
  Li  Li22  1  0.254952  0.077911  0.499354  1
  Li  Li23  1  0.258288  0.746780  0.499285  1
  Li  Li24  1  0.126801  0.622604  0.124523  1
  Li  Li25  1  0.245716  0.421341  0.499761  1
  Li  Li26  1  0.009176  0.830620  0.250333  1
  Li  Li27  1  0.255312  0.079034  0.000077  1
  Li  Li28  1  0.125903  0.624472  0.624330  1
  Li  Li29  1  0.003143  0.499501  0.249373  1
  Li  Li30  1  0.008464  0.829921  0.750299  1
  Li  Li31  1  0.999645  0.499881  0.749990  1
  Ti  Ti32  1  0.872275  0.710801  0.373712  1
  Ti  Ti33  1  0.871500  0.711186  0.873649  1
  Ti  Ti34  1  0.127628  0.288884  0.625464  1
  Cr  Cr35  1  0.876992  0.047242  0.375167  1
  Cr  Cr36  1  0.878066  0.047316  0.875366  1
  Cr  Cr37  1  0.624093  0.797275  0.124634  1
  Cr  Cr38  1  0.628060  0.462006  0.125208  1
  Cr  Cr39  1  0.624655  0.797522  0.624821  1
  Cr  Cr40  1  0.626578  0.462347  0.625101  1
  Cr  Cr41  1  0.371911  0.537762  0.374730  1
  Cr  Cr42  1  0.376599  0.202630  0.375578  1
  Cr  Cr43  1  0.370642  0.538497  0.874853  1
  Cr  Cr44  1  0.378268  0.203504  0.876010  1
  Cr  Cr45  1  0.123888  0.951822  0.124929  1
  Cr  Cr46  1  0.127640  0.287642  0.125508  1
  Cr  Cr47  1  0.123713  0.952884  0.624693  1
  O  O48  1  0.967403  0.104646  0.069769  1
  O  O49  1  0.934705  0.788252  0.068435  1
  O  O50  1  0.918080  0.426875  0.068126  1
  O  O51  1  0.963629  0.103057  0.568659  1
  O  O52  1  0.814423  0.961445  0.181535  1
  O  O53  1  0.831783  0.322410  0.182538  1
  O  O54  1  0.936377  0.787752  0.568770  1
  O  O55  1  0.920737  0.428303  0.567713  1
  O  O56  1  0.782805  0.643890  0.180195  1
  O  O57  1  0.712728  0.860076  0.318465  1
  O  O58  1  0.815745  0.960880  0.681664  1
  O  O59  1  0.824188  0.322126  0.683374  1
  O  O60  1  0.673372  0.533574  0.318789  1
  O  O61  1  0.686210  0.174903  0.317803  1
  O  O62  1  0.782998  0.643977  0.680212  1
  O  O63  1  0.712313  0.859878  0.818538  1
  O  O64  1  0.462337  0.610402  0.069221  1
  O  O65  1  0.569414  0.713698  0.431315  1
  O  O66  1  0.565573  0.075651  0.432700  1
  O  O67  1  0.674527  0.532995  0.819014  1
  O  O68  1  0.685916  0.174583  0.817842  1
  O  O69  1  0.436141  0.925030  0.067457  1
  O  O70  1  0.421284  0.286874  0.069136  1
  O  O71  1  0.537341  0.389265  0.430984  1
  O  O72  1  0.464806  0.608989  0.569326  1
  O  O73  1  0.568483  0.713095  0.931179  1
  O  O74  1  0.565478  0.075092  0.932737  1
  O  O75  1  0.316128  0.826271  0.182517  1
  O  O76  1  0.328056  0.465040  0.181166  1
  O  O77  1  0.434012  0.923572  0.567243  1
  O  O78  1  0.428966  0.284965  0.568315  1
  O  O79  1  0.536900  0.388656  0.931302  1
  O  O80  1  0.284885  0.141206  0.180960  1
  O  O81  1  0.217353  0.357506  0.320260  1
  O  O82  1  0.313950  0.825069  0.682024  1
  O  O83  1  0.327713  0.466020  0.681335  1
  O  O84  1  0.174172  0.678606  0.316216  1
  O  O85  1  0.184837  0.039623  0.318387  1
  O  O86  1  0.286892  0.140276  0.681562  1
  O  O87  1  0.216660  0.359144  0.819931  1
  O  O88  1  0.080320  0.571430  0.432367  1
  O  O89  1  0.063531  0.212032  0.431341  1
  O  O90  1  0.173353  0.679240  0.816176  1
  O  O91  1  0.184957  0.040531  0.818563  1
  O  O92  1  0.036025  0.896702  0.431189  1
  O  O93  1  0.080306  0.571005  0.932394  1
  O  O94  1  0.063272  0.212106  0.931266  1
  O  O95  1  0.035325  0.896541  0.931438  1
