# generated using pymatgen
data_Na2MnO3
_symmetry_space_group_name_H-M   'P 1'
_cell_length_a   6.41761037
_cell_length_b   5.29300129
_cell_length_c   10.92533049
_cell_angle_alpha   85.70628302
_cell_angle_beta   155.96279513
_cell_angle_gamma   105.66009607
_symmetry_Int_Tables_number   1
_chemical_formula_structural   Na2MnO3
_chemical_formula_sum   'Na4 Mn2 O6'
_cell_volume   130.87508958
_cell_formula_units_Z   2
loop_
 _symmetry_equiv_pos_site_id
 _symmetry_equiv_pos_as_xyz
  1  'x, y, z'
loop_
 _atom_site_type_symbol
 _atom_site_label
 _atom_site_symmetry_multiplicity
 _atom_site_fract_x
 _atom_site_fract_y
 _atom_site_fract_z
 _atom_site_occupancy
  Na  Na0  1  0.503877  0.495122  0.001798  1
  Na  Na1  1  0.182369  0.182745  0.340173  1
  Na  Na2  1  0.828097  0.816798  0.664257  1
  Na  Na3  1  0.004996  0.500122  0.001761  1
  Mn  Mn4  1  0.340294  0.833807  0.670553  1
  Mn  Mn5  1  0.671618  0.164887  0.336521  1
  O  O6  1  0.318524  0.123990  0.759578  1
  O  O7  1  0.698271  0.876920  0.249476  1
  O  O8  1  0.189248  0.499868  0.494555  1
  O  O9  1  0.070866  0.876088  0.136114  1
  O  O10  1  0.944499  0.121973  0.872875  1
  O  O11  1  0.820135  0.499784  0.511297  1
