# generated using pymatgen
data_Ni3OF5
_symmetry_space_group_name_H-M   'P 1'
_cell_length_a   4.68898694
_cell_length_b   4.68906744
_cell_length_c   9.28347457
_cell_angle_alpha   90.00153924
_cell_angle_beta   89.99871806
_cell_angle_gamma   89.21635592
_symmetry_Int_Tables_number   1
_chemical_formula_structural   Ni3OF5
_chemical_formula_sum   'Ni6 O2 F10'
_cell_volume   204.09644113
_cell_formula_units_Z   2
loop_
 _symmetry_equiv_pos_site_id
 _symmetry_equiv_pos_as_xyz
  1  'x, y, z'
loop_
 _atom_site_type_symbol
 _atom_site_label
 _atom_site_symmetry_multiplicity
 _atom_site_fract_x
 _atom_site_fract_y
 _atom_site_fract_z
 _atom_site_occupancy
  Ni  Ni0  1  0.007943  0.992060  0.663132  1
  Ni  Ni1  1  0.000906  0.999089  0.333339  1
  Ni  Ni2  1  0.007867  0.992142  0.003564  1
  Ni  Ni3  1  0.488481  0.511520  0.166433  1
  Ni  Ni4  1  0.507149  0.492859  0.833314  1
  Ni  Ni5  1  0.488588  0.511405  0.500230  1
  O  O6  1  0.195366  0.804638  0.165483  1
  O  O7  1  0.195458  0.804558  0.501194  1
  F  F8  1  0.202435  0.797582  0.833370  1
  F  F9  1  0.304941  0.301488  0.000057  1
  F  F10  1  0.300543  0.305301  0.333314  1
  F  F11  1  0.305006  0.301362  0.666615  1
  F  F12  1  0.698530  0.695059  0.000055  1
  F  F13  1  0.694694  0.699442  0.333314  1
  F  F14  1  0.698663  0.694969  0.666613  1
  F  F15  1  0.812303  0.187680  0.833320  1
  F  F16  1  0.795531  0.204464  0.166959  1
  F  F17  1  0.795594  0.204381  0.499693  1
