# generated using pymatgen
data_Ru4C12N2O13
_symmetry_space_group_name_H-M   'P 1'
_cell_length_a   9.86232662
_cell_length_b   14.06884099
_cell_length_c   16.67509418
_cell_angle_alpha   97.98913424
_cell_angle_beta   97.21436869
_cell_angle_gamma   107.75214514
_symmetry_Int_Tables_number   1
_chemical_formula_structural   Ru4C12N2O13
_chemical_formula_sum   'Ru16 C48 N8 O52'
_cell_volume   2147.25896685
_cell_formula_units_Z   4
loop_
 _symmetry_equiv_pos_site_id
 _symmetry_equiv_pos_as_xyz
  1  'x, y, z'
loop_
 _atom_site_type_symbol
 _atom_site_label
 _atom_site_symmetry_multiplicity
 _atom_site_fract_x
 _atom_site_fract_y
 _atom_site_fract_z
 _atom_site_occupancy
  Ru  Ru0  1  0.543806  0.836834  0.616504  1
  Ru  Ru1  1  0.456194  0.163166  0.383496  1
  Ru  Ru2  1  0.788478  0.856389  0.739081  1
  Ru  Ru3  1  0.211522  0.143611  0.260919  1
  Ru  Ru4  1  0.530512  0.957204  0.767825  1
  Ru  Ru5  1  0.469488  0.042796  0.232175  1
  Ru  Ru6  1  0.574984  0.792378  0.840151  1
  Ru  Ru7  1  0.425016  0.207622  0.159849  1
  Ru  Ru8  1  0.822405  0.626933  0.119591  1
  Ru  Ru9  1  0.177595  0.373067  0.880409  1
  Ru  Ru10  1  0.049623  0.616863  0.241132  1
  Ru  Ru11  1  0.950377  0.383137  0.758868  1
  Ru  Ru12  1  0.802778  0.724544  0.278732  1
  Ru  Ru13  1  0.197222  0.275456  0.721268  1
  Ru  Ru14  1  0.818118  0.540946  0.329199  1
  Ru  Ru15  1  0.181882  0.459054  0.670801  1
  C  C16  1  0.565377  0.728223  0.543182  1
  C  C17  1  0.434623  0.271777  0.456818  1
  C  C18  1  0.623538  0.936074  0.550691  1
  C  C19  1  0.376462  0.063926  0.449309  1
  C  C20  1  0.347818  0.812694  0.567364  1
  C  C21  1  0.652182  0.187306  0.432636  1
  C  C22  1  0.797911  0.721279  0.700719  1
  C  C23  1  0.202089  0.278721  0.299281  1
  C  C24  1  0.911573  0.917316  0.666515  1
  C  C25  1  0.088427  0.082684  0.333485  1
  C  C26  1  0.935068  0.879473  0.833836  1
  C  C27  1  0.064932  0.120527  0.166164  1
  C  C28  1  0.320611  0.904774  0.755420  1
  C  C29  1  0.679389  0.095226  0.244580  1
  C  C30  1  0.523091  0.060768  0.705381  1
  C  C31  1  0.476909  0.939232  0.294619  1
  C  C32  1  0.551301  0.031940  0.876510  1
  C  C33  1  0.448699  0.968060  0.123490  1
  C  C34  1  0.607886  0.667828  0.849805  1
  C  C35  1  0.392114  0.332172  0.150195  1
  C  C36  1  0.677799  0.859373  0.949833  1
  C  C37  1  0.322201  0.140627  0.050167  1
  C  C38  1  0.391736  0.752696  0.874637  1
  C  C39  1  0.608264  0.247304  0.125363  1
  C  C40  1  0.928045  0.731738  0.064683  1
  C  C41  1  0.071955  0.268262  0.935317  1
  C  C42  1  0.827833  0.520265  0.037540  1
  C  C43  1  0.172167  0.479735  0.962460  1
  C  C44  1  0.637935  0.626921  0.070360  1
  C  C45  1  0.362065  0.373079  0.929640  1
  C  C46  1  0.179131  0.614841  0.336461  1
  C  C47  1  0.820869  0.385159  0.663539  1
  C  C48  1  0.189076  0.688783  0.181144  1
  C  C49  1  0.810924  0.311217  0.818856  1
  C  C50  1  0.044771  0.483907  0.184993  1
  C  C51  1  0.955229  0.516093  0.815007  1
  C  C52  1  0.819890  0.788445  0.390432  1
  C  C53  1  0.180110  0.211555  0.609568  1
  C  C54  1  0.806884  0.838997  0.227448  1
  C  C55  1  0.193116  0.161003  0.772552  1
  C  C56  1  0.592058  0.672256  0.260662  1
  C  C57  1  0.407942  0.327744  0.739338  1
  C  C58  1  0.898754  0.582740  0.445583  1
  C  C59  1  0.101246  0.417260  0.554417  1
  C  C60  1  0.841161  0.411024  0.321735  1
  C  C61  1  0.158839  0.588976  0.678265  1
  C  C62  1  0.625571  0.494652  0.349051  1
  C  C63  1  0.374429  0.505348  0.650949  1
  N  N64  1  0.751364  0.990139  0.778102  1
  N  N65  1  0.248636  0.009861  0.221898  1
  N  N66  1  0.551125  0.806917  0.726083  1
  N  N67  1  0.448875  0.193083  0.273917  1
  N  N68  1  0.023016  0.749621  0.295667  1
  N  N69  1  0.976984  0.250379  0.704333  1
  N  N70  1  0.813178  0.577373  0.221505  1
  N  N71  1  0.186822  0.422627  0.778495  1
  O  O72  1  0.843022  0.072863  0.803031  1
  O  O73  1  0.156978  0.927137  0.196969  1
  O  O74  1  0.577248  0.660811  0.499107  1
  O  O75  1  0.422752  0.339189  0.500893  1
  O  O76  1  0.675667  0.998283  0.514507  1
  O  O77  1  0.324333  0.001717  0.485493  1
  O  O78  1  0.228272  0.795154  0.537043  1
  O  O79  1  0.771728  0.204846  0.462957  1
  O  O80  1  0.808750  0.642672  0.678835  1
  O  O81  1  0.191250  0.357328  0.321165  1
  O  O82  1  0.990733  0.957346  0.626373  1
  O  O83  1  0.009267  0.042654  0.373627  1
  O  O84  1  0.026072  0.896181  0.889878  1
  O  O85  1  0.973928  0.103819  0.110122  1
  O  O86  1  0.196094  0.875306  0.748289  1
  O  O87  1  0.803906  0.124694  0.251711  1
  O  O88  1  0.518955  0.126432  0.670935  1
  O  O89  1  0.481045  0.873568  0.329065  1
  O  O90  1  0.565929  0.080908  0.940877  1
  O  O91  1  0.434071  0.919092  0.059123  1
  O  O92  1  0.625668  0.590763  0.855137  1
  O  O93  1  0.374332  0.409237  0.144863  1
  O  O94  1  0.741886  0.904861  0.013841  1
  O  O95  1  0.258114  0.095139  0.986159  1
  O  O96  1  0.280397  0.725707  0.895316  1
  O  O97  1  0.719603  0.274293  0.104684  1
  O  O98  1  0.118187  0.826188  0.332429  1
  O  O99  1  0.881813  0.173812  0.667571  1
  O  O100  1  0.997665  0.792876  0.033308  1
  O  O101  1  0.002335  0.207124  0.966692  1
  O  O102  1  0.826767  0.453017  0.988312  1
  O  O103  1  0.173233  0.546983  0.011688  1
  O  O104  1  0.524940  0.626619  0.040188  1
  O  O105  1  0.475060  0.373381  0.959812  1
  O  O106  1  0.259815  0.616484  0.393981  1
  O  O107  1  0.740185  0.383516  0.606019  1
  O  O108  1  0.277309  0.734621  0.148593  1
  O  O109  1  0.722691  0.265379  0.851407  1
  O  O110  1  0.044575  0.406098  0.151495  1
  O  O111  1  0.955425  0.593902  0.848505  1
  O  O112  1  0.836587  0.831126  0.457388  1
  O  O113  1  0.163413  0.168874  0.542612  1
  O  O114  1  0.803599  0.908701  0.198416  1
  O  O115  1  0.196401  0.091299  0.801584  1
  O  O116  1  0.467231  0.639208  0.250375  1
  O  O117  1  0.532769  0.360792  0.749625  1
  O  O118  1  0.948190  0.611033  0.514810  1
  O  O119  1  0.051810  0.388967  0.485190  1
  O  O120  1  0.851889  0.330536  0.314126  1
  O  O121  1  0.148111  0.669464  0.685874  1
  O  O122  1  0.507733  0.463887  0.360394  1
  O  O123  1  0.492267  0.536113  0.639606  1
