# generated using pymatgen
data_CrH12Pd(NO)4
_symmetry_space_group_name_H-M   'P 1'
_cell_length_a   9.27029002
_cell_length_b   9.27029002
_cell_length_c   9.27029002
_cell_angle_alpha   133.03217733
_cell_angle_beta   133.03217733
_cell_angle_gamma   68.60361979
_symmetry_Int_Tables_number   1
_chemical_formula_structural   CrH12Pd(NO)4
_chemical_formula_sum   'Cr2 H24 Pd2 N8 O8'
_cell_volume   418.02334765
_cell_formula_units_Z   2
loop_
 _symmetry_equiv_pos_site_id
 _symmetry_equiv_pos_as_xyz
  1  'x, y, z'
loop_
 _atom_site_type_symbol
 _atom_site_label
 _atom_site_symmetry_multiplicity
 _atom_site_fract_x
 _atom_site_fract_y
 _atom_site_fract_z
 _atom_site_occupancy
  Cr  Cr0  1  0.875000  0.125000  0.750000  1
  Cr  Cr1  1  0.125000  0.875000  0.250000  1
  H  H2  1  0.308465  0.242734  0.434269  1
  H  H3  1  0.242734  0.308465  0.934269  1
  H  H4  1  0.874195  0.308465  0.565731  1
  H  H5  1  0.308465  0.874195  0.065731  1
  H  H6  1  0.691535  0.757266  0.565731  1
  H  H7  1  0.757266  0.691535  0.065731  1
  H  H8  1  0.125805  0.691535  0.434269  1
  H  H9  1  0.691535  0.125805  0.934269  1
  H  H10  1  0.515868  0.317562  0.527443  1
  H  H11  1  0.290119  0.317562  0.301694  1
  H  H12  1  0.317562  0.515868  0.027443  1
  H  H13  1  0.988425  0.515868  0.698306  1
  H  H14  1  0.515868  0.988425  0.198306  1
  H  H15  1  0.290119  0.988425  0.972557  1
  H  H16  1  0.317562  0.290119  0.801694  1
  H  H17  1  0.988425  0.290119  0.472557  1
  H  H18  1  0.484132  0.682438  0.472557  1
  H  H19  1  0.709881  0.682438  0.698306  1
  H  H20  1  0.682438  0.484132  0.972557  1
  H  H21  1  0.011575  0.484132  0.301694  1
  H  H22  1  0.484132  0.011575  0.801694  1
  H  H23  1  0.709881  0.011575  0.027443  1
  H  H24  1  0.682438  0.709881  0.198306  1
  H  H25  1  0.011575  0.709881  0.527443  1
  Pd  Pd26  1  0.625000  0.375000  0.250000  1
  Pd  Pd27  1  0.375000  0.625000  0.750000  1
  N  N28  1  0.373872  0.344928  0.471057  1
  N  N29  1  0.344928  0.373872  0.971057  1
  N  N30  1  0.902815  0.373872  0.528943  1
  N  N31  1  0.373872  0.902815  0.028943  1
  N  N32  1  0.626128  0.655072  0.528943  1
  N  N33  1  0.655072  0.626128  0.028943  1
  N  N34  1  0.097185  0.626128  0.471057  1
  N  N35  1  0.626128  0.097185  0.971057  1
  O  O36  1  0.187359  0.122862  0.435503  1
  O  O37  1  0.122862  0.187359  0.935503  1
  O  O38  1  0.751857  0.187359  0.564497  1
  O  O39  1  0.187359  0.751857  0.064497  1
  O  O40  1  0.812641  0.877138  0.564497  1
  O  O41  1  0.877138  0.812641  0.064497  1
  O  O42  1  0.248143  0.812641  0.435503  1
  O  O43  1  0.812641  0.248143  0.935503  1
