# generated using pymatgen
data_Li10CoNi9O20
_symmetry_space_group_name_H-M   'P 1'
_cell_length_a   21.47679976
_cell_length_b   2.79205842
_cell_length_c   5.71465514
_cell_angle_alpha   89.99999306
_cell_angle_beta   82.48703573
_cell_angle_gamma   89.99999789
_symmetry_Int_Tables_number   1
_chemical_formula_structural   Li10CoNi9O20
_chemical_formula_sum   'Li10 Co1 Ni9 O20'
_cell_volume   339.73454838
_cell_formula_units_Z   1
loop_
 _symmetry_equiv_pos_site_id
 _symmetry_equiv_pos_as_xyz
  1  'x, y, z'
loop_
 _atom_site_type_symbol
 _atom_site_label
 _atom_site_symmetry_multiplicity
 _atom_site_fract_x
 _atom_site_fract_y
 _atom_site_fract_z
 _atom_site_occupancy
  Li  Li0  1  0.901140  0.500000  0.303712  1
  Li  Li1  1  0.798206  0.000000  0.099831  1
  Li  Li2  1  0.700319  0.500000  0.898932  1
  Li  Li3  1  0.600098  0.000000  0.699815  1
  Li  Li4  1  0.500000  0.500000  0.500000  1
  Li  Li5  1  0.399902  1.000000  0.300185  1
  Li  Li6  1  0.201794  1.000000  0.900169  1
  Li  Li7  1  0.299681  0.500000  0.101068  1
  Li  Li8  1  0.098860  0.500000  0.696288  1
  Li  Li9  1  0.000000  0.000000  0.500000  1
  Co  Co10  1  0.000000  0.000000  0.000000  1
  Ni  Ni11  1  0.903141  0.500000  0.797921  1
  Ni  Ni12  1  0.801241  1.000000  0.600375  1
  Ni  Ni13  1  0.700333  0.500000  0.400145  1
  Ni  Ni14  1  0.600076  0.000000  0.199875  1
  Ni  Ni15  1  0.399924  1.000000  0.800125  1
  Ni  Ni16  1  0.500000  0.500000  0.000000  1
  Ni  Ni17  1  0.299667  0.500000  0.599855  1
  Ni  Ni18  1  0.198759  0.000000  0.399625  1
  Ni  Ni19  1  0.096859  0.500000  0.202079  1
  O  O20  1  0.000691  0.500000  0.771947  1
  O  O21  1  0.899697  1.000000  0.572814  1
  O  O22  1  0.801450  0.500000  0.829391  1
  O  O23  1  0.909206  1.000000  0.023349  1
  O  O24  1  0.700370  0.000000  0.625800  1
  O  O25  1  0.800801  0.500000  0.371882  1
  O  O26  1  0.600102  0.500000  0.974680  1
  O  O27  1  0.700117  1.000000  0.174561  1
  O  O28  1  0.600002  0.500000  0.425062  1
  O  O29  1  0.500057  1.000000  0.774730  1
  O  O30  1  0.499943  0.000000  0.225270  1
  O  O31  1  0.299883  0.000000  0.825439  1
  O  O32  1  0.399998  0.500000  0.574938  1
  O  O33  1  0.399898  0.500000  0.025320  1
  O  O34  1  0.299630  1.000000  0.374200  1
  O  O35  1  0.199199  0.500000  0.628118  1
  O  O36  1  0.090794  0.000000  0.976651  1
  O  O37  1  0.198550  0.500000  0.170609  1
  O  O38  1  0.100303  0.000000  0.427186  1
  O  O39  1  0.999309  0.500000  0.228053  1
