# generated using pymatgen
data_Li2MnPCO7
_symmetry_space_group_name_H-M   'P 1'
_cell_length_a   16.73895492
_cell_length_b   5.02371098
_cell_length_c   6.54626728
_cell_angle_alpha   90.19185842
_cell_angle_beta   89.46252763
_cell_angle_gamma   86.01874801
_symmetry_Int_Tables_number   1
_chemical_formula_structural   Li2MnPCO7
_chemical_formula_sum   'Li8 Mn4 P4 C4 O28'
_cell_volume   549.12955989
_cell_formula_units_Z   4
loop_
 _symmetry_equiv_pos_site_id
 _symmetry_equiv_pos_as_xyz
  1  'x, y, z'
loop_
 _atom_site_type_symbol
 _atom_site_label
 _atom_site_symmetry_multiplicity
 _atom_site_fract_x
 _atom_site_fract_y
 _atom_site_fract_z
 _atom_site_occupancy
  Li  Li0  1  0.130712  0.256222  0.033474  1
  Li  Li1  1  0.131004  0.253563  0.472289  1
  Li  Li2  1  0.373191  0.752434  0.528264  1
  Li  Li3  1  0.372024  0.753297  0.970575  1
  Li  Li4  1  0.631125  0.240540  0.028438  1
  Li  Li5  1  0.629350  0.246081  0.471721  1
  Li  Li6  1  0.863713  0.753870  0.529056  1
  Li  Li7  1  0.943924  0.229341  0.762528  1
  Mn  Mn8  1  0.168628  0.806613  0.753372  1
  Mn  Mn9  1  0.333773  0.197406  0.249950  1
  Mn  Mn10  1  0.667953  0.787586  0.746320  1
  Mn  Mn11  1  0.836294  0.196970  0.245483  1
  P  P12  1  0.207926  0.733134  0.251291  1
  P  P13  1  0.293840  0.269837  0.750623  1
  P  P14  1  0.708850  0.732225  0.253207  1
  P  P15  1  0.789454  0.285017  0.746270  1
  C  C16  1  0.020434  0.712410  0.737969  1
  C  C17  1  0.477363  0.274317  0.249159  1
  C  C18  1  0.525721  0.705850  0.752216  1
  C  C19  1  0.978501  0.278368  0.258039  1
  O  O20  1  0.034338  0.961339  0.747107  1
  O  O21  1  0.050870  0.336419  0.256694  1
  O  O22  1  0.085615  0.540925  0.752193  1
  O  O23  1  0.161678  0.842351  0.062299  1
  O  O24  1  0.161929  0.841822  0.443214  1
  O  O25  1  0.205571  0.175525  0.752376  1
  O  O26  1  0.217989  0.422351  0.250195  1
  O  O27  1  0.285528  0.580930  0.750456  1
  O  O28  1  0.294619  0.833208  0.249100  1
  O  O29  1  0.338611  0.158246  0.938507  1
  O  O30  1  0.338663  0.156364  0.560707  1
  O  O31  1  0.415493  0.461887  0.250683  1
  O  O32  1  0.451893  0.676158  0.749889  1
  O  O33  1  0.454215  0.034663  0.248022  1
  O  O34  1  0.555748  0.941411  0.757557  1
  O  O35  1  0.548486  0.338680  0.248917  1
  O  O36  1  0.581040  0.508237  0.749097  1
  O  O37  1  0.665293  0.832539  0.059686  1
  O  O38  1  0.656094  0.835421  0.435428  1
  O  O39  1  0.706915  0.166609  0.751480  1
  O  O40  1  0.721048  0.419780  0.255052  1
  O  O41  1  0.771996  0.594155  0.715868  1
  O  O42  1  0.793079  0.844903  0.268685  1
  O  O43  1  0.840770  0.225214  0.934641  1
  O  O44  1  0.844168  0.175216  0.568795  1
  O  O45  1  0.918253  0.463593  0.264496  1
  O  O46  1  0.952919  0.619524  0.715023  1
  O  O47  1  0.955281  0.037787  0.249773  1
