# generated using pymatgen
data_Tm(HO)3
_symmetry_space_group_name_H-M   'P 1'
_cell_length_a   10.58131783
_cell_length_b   6.16216122
_cell_length_c   10.51870614
_cell_angle_alpha   90.00000000
_cell_angle_beta   93.07203880
_cell_angle_gamma   90.00000000
_symmetry_Int_Tables_number   1
_chemical_formula_structural   Tm(HO)3
_chemical_formula_sum   'Tm8 H24 O24'
_cell_volume   684.87384883
_cell_formula_units_Z   8
loop_
 _symmetry_equiv_pos_site_id
 _symmetry_equiv_pos_as_xyz
  1  'x, y, z'
loop_
 _atom_site_type_symbol
 _atom_site_label
 _atom_site_symmetry_multiplicity
 _atom_site_fract_x
 _atom_site_fract_y
 _atom_site_fract_z
 _atom_site_occupancy
  Tm  Tm0  1  0.167673  0.535935  0.998223  1
  Tm  Tm1  1  0.165712  0.525663  0.501971  1
  Tm  Tm2  1  0.334288  0.025663  0.998029  1
  Tm  Tm3  1  0.332327  0.035935  0.501777  1
  Tm  Tm4  1  0.667673  0.964065  0.498223  1
  Tm  Tm5  1  0.665712  0.974337  0.001971  1
  Tm  Tm6  1  0.834288  0.474337  0.498029  1
  Tm  Tm7  1  0.832327  0.464065  0.001777  1
  H  H8  1  0.001046  0.372516  0.296058  1
  H  H9  1  0.034633  0.206708  0.114039  1
  H  H10  1  0.099324  0.148918  0.868486  1
  H  H11  1  0.092861  0.928494  0.392227  1
  H  H12  1  0.203216  0.227194  0.710469  1
  H  H13  1  0.187022  0.847108  0.202610  1
  H  H14  1  0.296784  0.727194  0.789531  1
  H  H15  1  0.312978  0.347108  0.297390  1
  H  H16  1  0.400676  0.648918  0.631514  1
  H  H17  1  0.407139  0.428494  0.107773  1
  H  H18  1  0.501046  0.127484  0.796058  1
  H  H19  1  0.465367  0.706708  0.385961  1
  H  H20  1  0.534633  0.293292  0.614039  1
  H  H21  1  0.498954  0.872516  0.203942  1
  H  H22  1  0.592861  0.571506  0.892227  1
  H  H23  1  0.599324  0.351082  0.368486  1
  H  H24  1  0.687022  0.652892  0.702610  1
  H  H25  1  0.703216  0.272806  0.210469  1
  H  H26  1  0.812978  0.152892  0.797390  1
  H  H27  1  0.796784  0.772806  0.289531  1
  H  H28  1  0.907139  0.071506  0.607773  1
  H  H29  1  0.900676  0.851082  0.131514  1
  H  H30  1  0.965367  0.793292  0.885961  1
  H  H31  1  0.998954  0.627484  0.703942  1
  O  O32  1  0.999541  0.610965  0.611251  1
  O  O33  1  0.015901  0.361436  0.106987  1
  O  O34  1  0.180227  0.221601  0.885722  1
  O  O35  1  0.173483  0.850735  0.396269  1
  O  O36  1  0.212545  0.233090  0.617715  1
  O  O37  1  0.189176  0.844160  0.109317  1
  O  O38  1  0.287455  0.733090  0.882285  1
  O  O39  1  0.319773  0.721601  0.614278  1
  O  O40  1  0.310824  0.344160  0.390683  1
  O  O41  1  0.326517  0.350735  0.103731  1
  O  O42  1  0.500459  0.110965  0.888749  1
  O  O43  1  0.484099  0.861436  0.393013  1
  O  O44  1  0.515901  0.138564  0.606987  1
  O  O45  1  0.499541  0.889035  0.111251  1
  O  O46  1  0.673483  0.649265  0.896269  1
  O  O47  1  0.689176  0.655840  0.609317  1
  O  O48  1  0.680227  0.278399  0.385722  1
  O  O49  1  0.712545  0.266910  0.117715  1
  O  O50  1  0.810824  0.155840  0.890683  1
  O  O51  1  0.787455  0.766910  0.382285  1
  O  O52  1  0.826517  0.149265  0.603731  1
  O  O53  1  0.819773  0.778399  0.114278  1
  O  O54  1  0.984099  0.638564  0.893013  1
  O  O55  1  0.000459  0.389035  0.388749  1
