# generated using pymatgen
data_LiCrP2HO7
_symmetry_space_group_name_H-M   'P 1'
_cell_length_a   7.02430029
_cell_length_b   6.45593350
_cell_length_c   6.52433477
_cell_angle_alpha   69.89112864
_cell_angle_beta   89.15396832
_cell_angle_gamma   97.40315821
_symmetry_Int_Tables_number   1
_chemical_formula_structural   LiCrP2HO7
_chemical_formula_sum   'Li2 Cr2 P4 H2 O14'
_cell_volume   274.96165393
_cell_formula_units_Z   2
loop_
 _symmetry_equiv_pos_site_id
 _symmetry_equiv_pos_as_xyz
  1  'x, y, z'
loop_
 _atom_site_type_symbol
 _atom_site_label
 _atom_site_symmetry_multiplicity
 _atom_site_fract_x
 _atom_site_fract_y
 _atom_site_fract_z
 _atom_site_occupancy
  Li  Li0  1  0.136963  0.212058  0.847557  1
  Li  Li1  1  0.863037  0.787942  0.152443  1
  Cr  Cr2  1  0.351146  0.104978  0.282603  1
  Cr  Cr3  1  0.648854  0.895022  0.717397  1
  P  P4  1  0.157924  0.784126  0.768531  1
  P  P5  1  0.389489  0.646728  0.169643  1
  P  P6  1  0.610511  0.353272  0.830357  1
  P  P7  1  0.842076  0.215874  0.231469  1
  H  H8  1  0.165955  0.662315  0.498166  1
  H  H9  1  0.834045  0.337685  0.501834  1
  O  O10  1  0.088740  0.614673  0.648071  1
  O  O11  1  0.004423  0.124346  0.150021  1
  O  O12  1  0.252184  0.624751  0.974585  1
  O  O13  1  0.288084  0.781210  0.281279  1
  O  O14  1  0.311107  0.967505  0.623772  1
  O  O15  1  0.388902  0.408910  0.319947  1
  O  O16  1  0.414090  0.231651  0.943325  1
  O  O17  1  0.585910  0.768349  0.056675  1
  O  O18  1  0.611098  0.591090  0.680053  1
  O  O19  1  0.688893  0.032495  0.376228  1
  O  O20  1  0.711916  0.218790  0.718721  1
  O  O21  1  0.747816  0.375249  0.025415  1
  O  O22  1  0.995577  0.875654  0.849979  1
  O  O23  1  0.911260  0.385327  0.351929  1
