# generated using pymatgen
data_Li3(FeS2)2
_symmetry_space_group_name_H-M   'P 1'
_cell_length_a   6.14444247
_cell_length_b   10.27912555
_cell_length_c   9.85472930
_cell_angle_alpha   89.99763422
_cell_angle_beta   90.01844624
_cell_angle_gamma   90.01116873
_symmetry_Int_Tables_number   1
_chemical_formula_structural   Li3(FeS2)2
_chemical_formula_sum   'Li12 Fe8 S16'
_cell_volume   622.41968702
_cell_formula_units_Z   4
loop_
 _symmetry_equiv_pos_site_id
 _symmetry_equiv_pos_as_xyz
  1  'x, y, z'
loop_
 _atom_site_type_symbol
 _atom_site_label
 _atom_site_symmetry_multiplicity
 _atom_site_fract_x
 _atom_site_fract_y
 _atom_site_fract_z
 _atom_site_occupancy
  Li  Li0  1  0.039209  0.092413  0.152336  1
  Li  Li1  1  0.039248  0.407589  0.152388  1
  Li  Li2  1  0.097925  0.249999  0.764309  1
  Li  Li3  1  0.402110  0.749997  0.264260  1
  Li  Li4  1  0.460785  0.907582  0.652365  1
  Li  Li5  1  0.460745  0.592410  0.652407  1
  Li  Li6  1  0.539265  0.092400  0.347575  1
  Li  Li7  1  0.539247  0.407590  0.347652  1
  Li  Li8  1  0.597903  0.249966  0.735733  1
  Li  Li9  1  0.902094  0.750031  0.235712  1
  Li  Li10  1  0.960791  0.592419  0.847650  1
  Li  Li11  1  0.960772  0.907588  0.847582  1
  Fe  Fe12  1  0.049244  0.125809  0.473295  1
  Fe  Fe13  1  0.049393  0.374107  0.473284  1
  Fe  Fe14  1  0.450698  0.625814  0.973307  1
  Fe  Fe15  1  0.450672  0.874241  0.973287  1
  Fe  Fe16  1  0.549350  0.125784  0.026702  1
  Fe  Fe17  1  0.549324  0.374183  0.026725  1
  Fe  Fe18  1  0.950601  0.625907  0.526722  1
  Fe  Fe19  1  0.950665  0.874153  0.526709  1
  S  S20  1  0.141264  0.750059  0.673073  1
  S  S21  1  0.186775  0.550771  0.365805  1
  S  S22  1  0.186734  0.949216  0.365829  1
  S  S23  1  0.174801  0.749986  0.048194  1
  S  S24  1  0.325107  0.250011  0.548166  1
  S  S25  1  0.313300  0.050741  0.865830  1
  S  S26  1  0.313241  0.449252  0.865800  1
  S  S27  1  0.358696  0.249974  0.173110  1
  S  S28  1  0.641325  0.749969  0.826883  1
  S  S29  1  0.686698  0.550770  0.134152  1
  S  S30  1  0.686734  0.949241  0.134189  1
  S  S31  1  0.674864  0.750023  0.451813  1
  S  S32  1  0.825171  0.249990  0.951819  1
  S  S33  1  0.813225  0.050763  0.634196  1
  S  S34  1  0.813234  0.449249  0.634179  1
  S  S35  1  0.858794  0.250004  0.326962  1
