# generated using pymatgen
data_Na5Ni2P2(CO7)2
_symmetry_space_group_name_H-M   'P 1'
_cell_length_a   10.20654298
_cell_length_b   10.48063985
_cell_length_c   6.56776105
_cell_angle_alpha   90.28169681
_cell_angle_beta   90.29194445
_cell_angle_gamma   60.59367567
_symmetry_Int_Tables_number   1
_chemical_formula_structural   Na5Ni2P2(CO7)2
_chemical_formula_sum   'Na10 Ni4 P4 C4 O28'
_cell_volume   612.03215536
_cell_formula_units_Z   2
loop_
 _symmetry_equiv_pos_site_id
 _symmetry_equiv_pos_as_xyz
  1  'x, y, z'
loop_
 _atom_site_type_symbol
 _atom_site_label
 _atom_site_symmetry_multiplicity
 _atom_site_fract_x
 _atom_site_fract_y
 _atom_site_fract_z
 _atom_site_occupancy
  Na  Na0  1  0.000249  0.268801  0.488020  1
  Na  Na1  1  0.000271  0.268288  0.011774  1
  Na  Na2  1  0.495631  0.240711  0.996080  1
  Na  Na3  1  0.497209  0.237536  0.506206  1
  Na  Na4  1  0.850430  0.062765  0.740208  1
  Na  Na5  1  0.344292  0.572581  0.740702  1
  Na  Na6  1  0.151394  0.927414  0.258478  1
  Na  Na7  1  0.514395  0.752779  0.011462  1
  Na  Na8  1  0.514475  0.752611  0.486374  1
  Na  Na9  1  0.986468  0.738352  0.975206  1
  Ni  Ni10  1  0.282742  0.062165  0.750390  1
  Ni  Ni11  1  0.212768  0.441934  0.253799  1
  Ni  Ni12  1  0.785716  0.562093  0.750397  1
  Ni  Ni13  1  0.720661  0.934548  0.252913  1
  P  P14  1  0.350108  0.069128  0.249502  1
  P  P15  1  0.148494  0.430006  0.750816  1
  P  P16  1  0.854336  0.571775  0.251901  1
  P  P17  1  0.646825  0.934439  0.750413  1
  C  C18  1  0.825695  0.110481  0.246666  1
  C  C19  1  0.319260  0.611203  0.248187  1
  C  C20  1  0.676321  0.389612  0.749804  1
  C  C21  1  0.178852  0.887479  0.755215  1
  O  O22  1  0.093282  0.030040  0.748092  1
  O  O23  1  0.262338  0.053941  0.063706  1
  O  O24  1  0.263408  0.055061  0.435872  1
  O  O25  1  0.145912  0.283808  0.751392  1
  O  O26  1  0.020135  0.440808  0.250728  1
  O  O27  1  0.480182  0.063121  0.757047  1
  O  O28  1  0.351591  0.215537  0.249395  1
  O  O29  1  0.235527  0.446242  0.937201  1
  O  O30  1  0.236217  0.441993  0.564949  1
  O  O31  1  0.680982  0.160543  0.250234  1
  O  O32  1  0.175196  0.663487  0.242580  1
  O  O33  1  0.399254  0.469130  0.255415  1
  O  O34  1  0.614885  0.308151  0.751025  1
  O  O35  1  0.122064  0.803842  0.768000  1
  O  O36  1  0.884804  0.193254  0.248999  1
  O  O37  1  0.378905  0.694004  0.248881  1
  O  O38  1  0.594680  0.532145  0.749319  1
  O  O39  1  0.821831  0.334170  0.748917  1
  O  O40  1  0.324548  0.836418  0.747900  1
  O  O41  1  0.771709  0.552724  0.063545  1
  O  O42  1  0.771756  0.554952  0.439132  1
  O  O43  1  0.646495  0.787346  0.748491  1
  O  O44  1  0.515473  0.938891  0.249530  1
  O  O45  1  0.983366  0.556950  0.756470  1
  O  O46  1  0.854466  0.717838  0.246966  1
  O  O47  1  0.722655  0.959054  0.561712  1
  O  O48  1  0.734174  0.947845  0.937500  1
  O  O49  1  0.910376  0.968871  0.242643  1
