# generated using pymatgen
data_K2ScPCO7
_symmetry_space_group_name_H-M   'P 1'
_cell_length_a   9.78340347
_cell_length_b   6.91103746
_cell_length_c   5.72284425
_cell_angle_alpha   90.00000000
_cell_angle_beta   90.98431941
_cell_angle_gamma   90.00000000
_symmetry_Int_Tables_number   1
_chemical_formula_structural   K2ScPCO7
_chemical_formula_sum   'K4 Sc2 P2 C2 O14'
_cell_volume   386.88424601
_cell_formula_units_Z   2
loop_
 _symmetry_equiv_pos_site_id
 _symmetry_equiv_pos_as_xyz
  1  'x, y, z'
loop_
 _atom_site_type_symbol
 _atom_site_label
 _atom_site_symmetry_multiplicity
 _atom_site_fract_x
 _atom_site_fract_y
 _atom_site_fract_z
 _atom_site_occupancy
  K  K0  1  0.233807  0.483269  0.247270  1
  K  K1  1  0.233807  0.016731  0.247270  1
  K  K2  1  0.766193  0.516731  0.752730  1
  K  K3  1  0.766193  0.983269  0.752730  1
  Sc  Sc4  1  0.360929  0.750000  0.775784  1
  Sc  Sc5  1  0.639071  0.250000  0.224216  1
  P  P6  1  0.433150  0.250000  0.717799  1
  P  P7  1  0.566850  0.750000  0.282201  1
  C  C8  1  0.096895  0.750000  0.729673  1
  C  C9  1  0.903105  0.250000  0.270327  1
  O  O10  1  0.030177  0.250000  0.297037  1
  O  O11  1  0.160495  0.750000  0.935108  1
  O  O12  1  0.182998  0.750000  0.552364  1
  O  O13  1  0.348815  0.064228  0.762467  1
  O  O14  1  0.348815  0.435772  0.762467  1
  O  O15  1  0.437312  0.750000  0.118065  1
  O  O16  1  0.479580  0.250000  0.456590  1
  O  O17  1  0.520420  0.750000  0.543410  1
  O  O18  1  0.562688  0.250000  0.881935  1
  O  O19  1  0.651185  0.564228  0.237533  1
  O  O20  1  0.651185  0.935772  0.237533  1
  O  O21  1  0.817002  0.250000  0.447636  1
  O  O22  1  0.839505  0.250000  0.064892  1
  O  O23  1  0.969823  0.750000  0.702963  1
