# generated using pymatgen
data_NaCuP2O7
_symmetry_space_group_name_H-M   'P 1'
_cell_length_a   8.69110685
_cell_length_b   8.80246990
_cell_length_c   5.04334213
_cell_angle_alpha   73.33076819
_cell_angle_beta   89.98689217
_cell_angle_gamma   67.97950808
_symmetry_Int_Tables_number   1
_chemical_formula_structural   NaCuP2O7
_chemical_formula_sum   'Na2 Cu2 P4 O14'
_cell_volume   340.14306533
_cell_formula_units_Z   2
loop_
 _symmetry_equiv_pos_site_id
 _symmetry_equiv_pos_as_xyz
  1  'x, y, z'
loop_
 _atom_site_type_symbol
 _atom_site_label
 _atom_site_symmetry_multiplicity
 _atom_site_fract_x
 _atom_site_fract_y
 _atom_site_fract_z
 _atom_site_occupancy
  Na  Na0  1  0.428156  0.903752  0.150195  1
  Na  Na1  1  0.928201  0.903665  0.446333  1
  Cu  Cu2  1  0.001242  0.496194  0.500544  1
  Cu  Cu3  1  0.501212  0.496201  0.503256  1
  P  P4  1  0.312506  0.318694  0.241475  1
  P  P5  1  0.189661  0.677183  0.054454  1
  P  P6  1  0.812464  0.318613  0.939798  1
  P  P7  1  0.689607  0.677029  0.768351  1
  O  O8  1  0.151286  0.323080  0.381678  1
  O  O9  1  0.054251  0.670818  0.257805  1
  O  O10  1  0.374781  0.167207  0.136871  1
  O  O11  1  0.251457  0.498387  0.974945  1
  O  O12  1  0.124523  0.830889  0.801704  1
  O  O13  1  0.449135  0.324074  0.432508  1
  O  O14  1  0.347670  0.673519  0.209913  1
  O  O15  1  0.651205  0.323087  0.795387  1
  O  O16  1  0.554035  0.670828  0.571648  1
  O  O17  1  0.874698  0.167081  0.196027  1
  O  O18  1  0.751475  0.498218  0.026674  1
  O  O19  1  0.624462  0.830742  0.867478  1
  O  O20  1  0.949073  0.324020  0.743236  1
  O  O21  1  0.847545  0.673493  0.616332  1
