# generated using pymatgen
data_Li6Ti8Ni(PO5)8
_symmetry_space_group_name_H-M   'P 1'
_cell_length_a   6.45341123
_cell_length_b   14.64555775
_cell_length_c   10.43517991
_cell_angle_alpha   45.52769216
_cell_angle_beta   90.32518374
_cell_angle_gamma   90.35757180
_symmetry_Int_Tables_number   1
_chemical_formula_structural   Li6Ti8Ni(PO5)8
_chemical_formula_sum   'Li6 Ti8 Ni1 P8 O40'
_cell_volume   703.77565598
_cell_formula_units_Z   1
loop_
 _symmetry_equiv_pos_site_id
 _symmetry_equiv_pos_as_xyz
  1  'x, y, z'
loop_
 _atom_site_type_symbol
 _atom_site_label
 _atom_site_symmetry_multiplicity
 _atom_site_fract_x
 _atom_site_fract_y
 _atom_site_fract_z
 _atom_site_occupancy
  Li  Li0  1  0.000000  0.000000  0.000000  1
  Li  Li1  1  0.000000  0.500000  0.000000  1
  Li  Li2  1  0.500000  0.500000  0.500000  1
  Li  Li3  1  0.500000  0.000000  0.000000  1
  Li  Li4  1  0.500000  0.500000  0.000000  1
  Li  Li5  1  0.000000  0.500000  0.500000  1
  Ti  Ti6  1  0.236356  0.056369  0.661770  1
  Ti  Ti7  1  0.250631  0.559342  0.661648  1
  Ti  Ti8  1  0.251066  0.279236  0.161301  1
  Ti  Ti9  1  0.250402  0.778826  0.162146  1
  Ti  Ti10  1  0.749369  0.440658  0.338352  1
  Ti  Ti11  1  0.763644  0.943631  0.338230  1
  Ti  Ti12  1  0.749598  0.221174  0.837854  1
  Ti  Ti13  1  0.748934  0.720764  0.838699  1
  Ni  Ni14  1  0.500000  0.000000  0.500000  1
  P  P15  1  0.248872  0.376120  0.373551  1
  P  P16  1  0.251126  0.877795  0.372084  1
  P  P17  1  0.249969  0.250185  0.871339  1
  P  P18  1  0.253706  0.748152  0.873251  1
  P  P19  1  0.748874  0.122205  0.627916  1
  P  P20  1  0.751128  0.623880  0.626449  1
  P  P21  1  0.746294  0.251848  0.126749  1
  P  P22  1  0.750031  0.749815  0.128661  1
  O  O23  1  0.056565  0.438948  0.373042  1
  O  O24  1  0.057494  0.939418  0.370037  1
  O  O25  1  0.056526  0.187845  0.870526  1
  O  O26  1  0.055542  0.693037  0.864131  1
  O  O27  1  0.247522  0.398843  0.203693  1
  O  O28  1  0.253786  0.898688  0.203909  1
  O  O29  1  0.248674  0.477007  0.886814  1
  O  O30  1  0.247083  0.976662  0.886029  1
  O  O31  1  0.250891  0.220595  0.045658  1
  O  O32  1  0.249003  0.231700  0.546146  1
  O  O33  1  0.247168  0.719228  0.046967  1
  O  O34  1  0.253395  0.733828  0.547105  1
  O  O35  1  0.278276  0.135923  0.384883  1
  O  O36  1  0.249631  0.635602  0.386774  1
  O  O37  1  0.249671  0.397146  0.703293  1
  O  O38  1  0.271415  0.894807  0.705918  1
  O  O39  1  0.442840  0.439430  0.372326  1
  O  O40  1  0.442365  0.944245  0.367326  1
  O  O41  1  0.442802  0.188477  0.870649  1
  O  O42  1  0.441790  0.680651  0.879747  1
  O  O43  1  0.558210  0.319349  0.120253  1
  O  O44  1  0.557198  0.811523  0.129351  1
  O  O45  1  0.557635  0.055755  0.632674  1
  O  O46  1  0.557160  0.560570  0.627674  1
  O  O47  1  0.752917  0.023338  0.113971  1
  O  O48  1  0.746214  0.101312  0.796091  1
  O  O49  1  0.751326  0.522993  0.113186  1
  O  O50  1  0.752832  0.280772  0.953033  1
  O  O51  1  0.752478  0.601157  0.796307  1
  O  O52  1  0.749109  0.779405  0.954342  1
  O  O53  1  0.728585  0.105193  0.294082  1
  O  O54  1  0.750329  0.602854  0.296707  1
  O  O55  1  0.746605  0.266172  0.452895  1
  O  O56  1  0.750369  0.364398  0.613226  1
  O  O57  1  0.750997  0.768300  0.453854  1
  O  O58  1  0.721724  0.864077  0.615117  1
  O  O59  1  0.944458  0.306963  0.135869  1
  O  O60  1  0.943474  0.812155  0.129474  1
  O  O61  1  0.942506  0.060582  0.629963  1
  O  O62  1  0.943435  0.561052  0.626958  1
