# generated using pymatgen
data_Na4CaTa4TiO15
_symmetry_space_group_name_H-M   'P 1'
_cell_length_a   5.50445513
_cell_length_b   5.57754458
_cell_length_c   39.07108425
_cell_angle_alpha   89.86890514
_cell_angle_beta   89.95040605
_cell_angle_gamma   90.20256707
_symmetry_Int_Tables_number   1
_chemical_formula_structural   Na4CaTa4TiO15
_chemical_formula_sum   'Na16 Ca4 Ta16 Ti4 O60'
_cell_volume   1199.52369927
_cell_formula_units_Z   4
loop_
 _symmetry_equiv_pos_site_id
 _symmetry_equiv_pos_as_xyz
  1  'x, y, z'
loop_
 _atom_site_type_symbol
 _atom_site_label
 _atom_site_symmetry_multiplicity
 _atom_site_fract_x
 _atom_site_fract_y
 _atom_site_fract_z
 _atom_site_occupancy
  Na  Na0  1  0.008566  0.968099  0.351000  1
  Na  Na1  1  0.009197  0.975635  0.554585  1
  Na  Na2  1  0.010367  0.976357  0.747589  1
  Na  Na3  1  0.003998  0.979845  0.955045  1
  Na  Na4  1  0.490122  0.472534  0.152035  1
  Na  Na5  1  0.492726  0.481153  0.554795  1
  Na  Na6  1  0.491890  0.476750  0.747731  1
  Na  Na7  1  0.485841  0.483599  0.954715  1
  Na  Na8  1  0.509096  0.517787  0.246913  1
  Na  Na9  1  0.508814  0.519941  0.046229  1
  Na  Na10  1  0.517368  0.516598  0.646771  1
  Na  Na11  1  0.505883  0.525140  0.449435  1
  Na  Na12  1  0.506282  0.529190  0.850425  1
  Na  Na13  1  0.990318  0.023277  0.247440  1
  Na  Na14  1  0.988345  0.025020  0.046416  1
  Na  Na15  1  0.990882  0.021177  0.646595  1
  Ca  Ca16  1  0.009250  0.954506  0.152131  1
  Ca  Ca17  1  0.490125  0.461609  0.351290  1
  Ca  Ca18  1  0.988972  0.046988  0.448775  1
  Ca  Ca19  1  0.991197  0.043134  0.850466  1
  Ta  Ta20  1  0.995626  0.505611  0.902235  1
  Ta  Ta21  1  0.501787  0.997387  0.099315  1
  Ta  Ta22  1  0.489176  0.005142  -0.000044  1
  Ta  Ta23  1  0.497757  0.002892  0.501031  1
  Ta  Ta24  1  0.501828  0.995439  0.299261  1
  Ta  Ta25  1  0.495880  0.002034  0.900823  1
  Ta  Ta26  1  0.502855  0.991785  0.199913  1
  Ta  Ta27  1  0.508383  0.993807  0.600764  1
  Ta  Ta28  1  0.501289  -0.001402  0.699365  1
  Ta  Ta29  1  0.494120  0.995261  0.399948  1
  Ta  Ta30  1  0.498633  0.002105  0.799076  1
  Ta  Ta31  1  0.001080  0.493798  0.099376  1
  Ta  Ta32  1  0.001050  0.498511  0.298769  1
  Ta  Ta33  1  0.997292  0.507034  0.501052  1
  Ta  Ta34  1  0.005539  0.498347  0.697823  1
  Ta  Ta35  1  0.999178  0.505837  0.799139  1
  Ti  Ti36  1  0.988561  0.508608  0.001666  1
  Ti  Ti37  1  0.995549  0.482121  0.199328  1
  Ti  Ti38  1  0.012069  0.489896  0.599462  1
  Ti  Ti39  1  0.991447  0.505781  0.400473  1
  O  O40  1  0.075181  0.490763  0.051004  1
  O  O41  1  0.072424  0.489304  0.250464  1
  O  O42  1  0.071756  0.481720  0.448820  1
  O  O43  1  0.075028  0.492231  0.649925  1
  O  O44  1  0.075374  0.479883  0.849882  1
  O  O45  1  0.226091  0.222414  0.392510  1
  O  O46  1  0.228243  0.238277  0.592644  1
  O  O47  1  0.215979  0.213166  0.793572  1
  O  O48  1  0.218156  0.226324  0.191733  1
  O  O49  1  0.214229  0.217382  0.109592  1
  O  O50  1  0.228041  0.228964  0.309252  1
  O  O51  1  0.215701  0.214138  0.505474  1
  O  O52  1  0.230001  0.231149  0.708389  1
  O  O53  1  0.234474  0.233553  0.993258  1
  O  O54  1  0.213750  0.211494  0.906130  1
  O  O55  1  0.269052  0.734705  0.191985  1
  O  O56  1  0.274236  0.728909  0.109568  1
  O  O57  1  0.261863  0.735980  0.592743  1
  O  O58  1  0.286775  0.719125  0.309277  1
  O  O59  1  0.272675  0.730876  0.708484  1
  O  O60  1  0.288215  0.713159  0.391210  1
  O  O61  1  0.285175  0.715056  0.792545  1
  O  O62  1  0.284518  0.714851  0.506659  1
  O  O63  1  0.282404  0.714046  0.907223  1
  O  O64  1  0.267956  0.730864  0.993378  1
  O  O65  1  0.426148  0.988586  0.050852  1
  O  O66  1  0.422689  0.992358  0.250629  1
  O  O67  1  0.422299  0.993584  0.650560  1
  O  O68  1  0.415870  0.984198  0.449643  1
  O  O69  1  0.415308  0.983025  0.849804  1
  O  O70  1  0.578044  0.018338  0.349809  1
  O  O71  1  0.583181  0.017774  0.149926  1
  O  O72  1  0.572764  0.012727  0.549132  1
  O  O73  1  0.577953  0.012951  0.750658  1
  O  O74  1  0.574781  0.008473  0.949251  1
  O  O75  1  0.725949  0.279473  0.207198  1
  O  O76  1  0.738144  0.265137  0.007090  1
  O  O77  1  0.715696  0.284838  0.092698  1
  O  O78  1  0.731772  0.270362  0.606571  1
  O  O79  1  0.727726  0.274755  0.692876  1
  O  O80  1  0.717202  0.285491  0.293514  1
  O  O81  1  0.727351  0.277297  0.407080  1
  O  O82  1  0.725798  0.270941  0.490167  1
  O  O83  1  0.725076  0.271769  0.809103  1
  O  O84  1  0.724694  0.269954  0.890680  1
  O  O85  1  0.771385  0.762937  0.007152  1
  O  O86  1  0.783320  0.786082  0.094083  1
  O  O87  1  0.777558  0.780603  0.206227  1
  O  O88  1  0.783483  0.785121  0.292635  1
  O  O89  1  0.789578  0.783968  0.408133  1
  O  O90  1  0.784685  0.783004  0.490133  1
  O  O91  1  0.765100  0.767810  0.606707  1
  O  O92  1  0.774562  0.775521  0.693023  1
  O  O93  1  0.783021  0.780176  0.890534  1
  O  O94  1  0.786261  0.783044  0.809235  1
  O  O95  1  0.925887  0.518033  0.150522  1
  O  O96  1  0.918640  0.515027  0.350329  1
  O  O97  1  0.925165  0.510361  0.548757  1
  O  O98  1  0.923273  0.510785  0.750702  1
  O  O99  1  0.924002  0.508827  0.949713  1
