# generated using pymatgen
data_Li4Mn2TeWO12
_symmetry_space_group_name_H-M   'P 1'
_cell_length_a   5.32073242
_cell_length_b   10.64344001
_cell_length_c   9.34421379
_cell_angle_alpha   28.56133588
_cell_angle_beta   51.84747637
_cell_angle_gamma   57.15196646
_symmetry_Int_Tables_number   1
_chemical_formula_structural   Li4Mn2TeWO12
_chemical_formula_sum   'Li4 Mn2 Te1 W1 O12'
_cell_volume   198.94849242
_cell_formula_units_Z   1
loop_
 _symmetry_equiv_pos_site_id
 _symmetry_equiv_pos_as_xyz
  1  'x, y, z'
loop_
 _atom_site_type_symbol
 _atom_site_label
 _atom_site_symmetry_multiplicity
 _atom_site_fract_x
 _atom_site_fract_y
 _atom_site_fract_z
 _atom_site_occupancy
  Li  Li0  1  0.291249  0.006889  0.275311  1
  Li  Li1  1  0.277437  0.493405  0.293276  1
  Li  Li2  1  0.779176  0.997545  0.789167  1
  Li  Li3  1  0.789416  0.501479  0.780458  1
  Mn  Mn4  1  0.500346  0.000790  0.500820  1
  Mn  Mn5  1  0.502646  0.499175  0.501394  1
  Te  Te6  1  0.000433  0.501510  0.999362  1
  W  W7  1  0.002100  0.998608  0.002710  1
  O  O8  1  0.377001  0.303939  0.119186  1
  O  O9  1  0.241747  0.113547  0.632935  1
  O  O10  1  0.134003  0.314372  0.734842  1
  O  O11  1  0.873499  0.199361  0.226205  1
  O  O12  1  0.365499  0.802225  0.134812  1
  O  O13  1  0.731292  0.371012  0.377731  1
  O  O14  1  0.231201  0.628043  0.621161  1
  O  O15  1  0.633784  0.187606  0.861070  1
  O  O16  1  0.120074  0.821994  0.734756  1
  O  O17  1  0.862590  0.692862  0.245073  1
  O  O18  1  0.736351  0.884592  0.365092  1
  O  O19  1  0.621358  0.681045  0.875840  1
