# generated using pymatgen
data_Yb(BO2)3
_symmetry_space_group_name_H-M   'P 1'
_cell_length_a   6.38008424
_cell_length_b   6.38008424
_cell_length_c   6.29807430
_cell_angle_alpha   62.63537592
_cell_angle_beta   62.63537592
_cell_angle_gamma   79.79958451
_symmetry_Int_Tables_number   1
_chemical_formula_structural   Yb(BO2)3
_chemical_formula_sum   'Yb2 B6 O12'
_cell_volume   202.01115179
_cell_formula_units_Z   2
loop_
 _symmetry_equiv_pos_site_id
 _symmetry_equiv_pos_as_xyz
  1  'x, y, z'
loop_
 _atom_site_type_symbol
 _atom_site_label
 _atom_site_symmetry_multiplicity
 _atom_site_fract_x
 _atom_site_fract_y
 _atom_site_fract_z
 _atom_site_occupancy
  Yb  Yb0  1  0.704140  0.795860  0.250000  1
  Yb  Yb1  1  0.295860  0.204140  0.750000  1
  B  B2  1  0.280481  0.219519  0.250000  1
  B  B3  1  0.708120  0.340709  0.086304  1
  B  B4  1  0.159291  0.791880  0.413696  1
  B  B5  1  0.840709  0.208120  0.586304  1
  B  B6  1  0.291880  0.659291  0.913696  1
  B  B7  1  0.719519  0.780481  0.750000  1
  O  O8  1  0.286680  0.415757  0.007039  1
  O  O9  1  0.282734  0.007234  0.210168  1
  O  O10  1  0.108881  0.783399  0.000151  1
  O  O11  1  0.492766  0.217266  0.289832  1
  O  O12  1  0.084243  0.213320  0.492961  1
  O  O13  1  0.283399  0.608881  0.500151  1
  O  O14  1  0.716601  0.391119  0.499849  1
  O  O15  1  0.915757  0.786680  0.507039  1
  O  O16  1  0.507234  0.782734  0.710168  1
  O  O17  1  0.891119  0.216601  0.999849  1
  O  O18  1  0.717266  0.992766  0.789832  1
  O  O19  1  0.713320  0.584243  0.992961  1
