# generated using pymatgen
data_MnP2H4O5
_symmetry_space_group_name_H-M   'P 1'
_cell_length_a   8.08154913
_cell_length_b   7.37685725
_cell_length_c   10.07718025
_cell_angle_alpha   90.00000000
_cell_angle_beta   104.45899605
_cell_angle_gamma   90.00000000
_symmetry_Int_Tables_number   1
_chemical_formula_structural   MnP2H4O5
_chemical_formula_sum   'Mn4 P8 H16 O20'
_cell_volume   581.73725338
_cell_formula_units_Z   4
loop_
 _symmetry_equiv_pos_site_id
 _symmetry_equiv_pos_as_xyz
  1  'x, y, z'
loop_
 _atom_site_type_symbol
 _atom_site_label
 _atom_site_symmetry_multiplicity
 _atom_site_fract_x
 _atom_site_fract_y
 _atom_site_fract_z
 _atom_site_occupancy
  Mn  Mn0  1  0.205615  0.467675  0.594372  1
  Mn  Mn1  1  0.794385  0.967675  0.905628  1
  Mn  Mn2  1  0.794385  0.532325  0.405628  1
  Mn  Mn3  1  0.205615  0.032325  0.094372  1
  P  P4  1  0.036897  0.326860  0.840832  1
  P  P5  1  0.963103  0.826859  0.659168  1
  P  P6  1  0.963103  0.673141  0.159168  1
  P  P7  1  0.036897  0.173141  0.340832  1
  P  P8  1  0.463336  0.111136  0.694355  1
  P  P9  1  0.536664  0.611136  0.805645  1
  P  P10  1  0.536664  0.888864  0.305645  1
  P  P11  1  0.463336  0.388864  0.194355  1
  H  H12  1  0.144562  0.452663  0.927550  1
  H  H13  1  0.855438  0.952663  0.572450  1
  H  H14  1  0.855438  0.547337  0.072451  1
  H  H15  1  0.144562  0.047337  0.427550  1
  H  H16  1  0.871603  0.403584  0.809200  1
  H  H17  1  0.128397  0.903584  0.690800  1
  H  H18  1  0.128397  0.596416  0.190800  1
  H  H19  1  0.871603  0.096416  0.309200  1
  H  H20  1  0.391912  0.949124  0.626741  1
  H  H21  1  0.608088  0.449124  0.873259  1
  H  H22  1  0.608088  0.050876  0.373259  1
  H  H23  1  0.391912  0.550876  0.126741  1
  H  H24  1  0.403037  0.115902  0.815359  1
  H  H25  1  0.596963  0.615902  0.684641  1
  H  H26  1  0.596963  0.884098  0.184641  1
  H  H27  1  0.403037  0.384098  0.315359  1
  O  O28  1  0.027586  0.150885  0.922160  1
  O  O29  1  0.972414  0.650885  0.577840  1
  O  O30  1  0.972414  0.849115  0.077840  1
  O  O31  1  0.027586  0.349115  0.422160  1
  O  O32  1  0.097863  0.302159  0.710163  1
  O  O33  1  0.902137  0.802159  0.789837  1
  O  O34  1  0.902137  0.697841  0.289837  1
  O  O35  1  0.097863  0.197841  0.210163  1
  O  O36  1  0.393232  0.270758  0.599975  1
  O  O37  1  0.606768  0.770758  0.900025  1
  O  O38  1  0.606768  0.729242  0.400025  1
  O  O39  1  0.393232  0.229242  0.099975  1
  O  O40  1  0.658738  0.092544  0.733185  1
  O  O41  1  0.341262  0.592544  0.766815  1
  O  O42  1  0.341262  0.907456  0.266815  1
  O  O43  1  0.658738  0.407456  0.233185  1
  O  O44  1  0.280631  0.618143  0.488130  1
  O  O45  1  0.719369  0.118143  0.011870  1
  O  O46  1  0.719369  0.381857  0.511870  1
  O  O47  1  0.280631  0.881857  0.988130  1
