# generated using pymatgen
data_Li3Fe4(BO3)4
_symmetry_space_group_name_H-M   'P 1'
_cell_length_a   5.23836651
_cell_length_b   5.26458784
_cell_length_c   10.03285480
_cell_angle_alpha   88.91576948
_cell_angle_beta   90.38190597
_cell_angle_gamma   60.11105928
_symmetry_Int_Tables_number   1
_chemical_formula_structural   Li3Fe4(BO3)4
_chemical_formula_sum   'Li3 Fe4 B4 O12'
_cell_volume   239.79919139
_cell_formula_units_Z   1
loop_
 _symmetry_equiv_pos_site_id
 _symmetry_equiv_pos_as_xyz
  1  'x, y, z'
loop_
 _atom_site_type_symbol
 _atom_site_label
 _atom_site_symmetry_multiplicity
 _atom_site_fract_x
 _atom_site_fract_y
 _atom_site_fract_z
 _atom_site_occupancy
  Li  Li0  1  0.327382  0.650079  0.337400  1
  Li  Li1  1  0.351410  0.673966  0.833757  1
  Li  Li2  1  0.666731  0.343947  0.095748  1
  Fe  Fe3  1  0.987374  0.673586  0.615501  1
  Fe  Fe4  1  0.683765  0.004894  0.868577  1
  Fe  Fe5  1  0.329843  0.008928  0.120932  1
  Fe  Fe6  1  0.997912  0.326590  0.370183  1
  B  B7  1  0.005569  0.333116  0.872835  1
  B  B8  1  0.326743  0.008306  0.623269  1
  B  B9  1  0.657527  0.000046  0.369971  1
  B  B10  1  0.996482  0.669288  0.124310  1
  O  O11  1  0.097704  0.273527  0.575058  1
  O  O12  1  0.259528  0.071591  0.908141  1
  O  O13  1  0.028910  0.573977  0.824967  1
  O  O14  1  0.595149  0.984107  0.658673  1
  O  O15  1  0.263279  0.659648  0.135493  1
  O  O16  1  0.290456  0.769009  0.640531  1
  O  O17  1  0.651872  0.260417  0.362859  1
  O  O18  1  0.731751  0.359657  0.887725  1
  O  O19  1  0.415662  0.971367  0.332327  1
  O  O20  1  0.975971  0.420777  0.159562  1
  O  O21  1  0.745954  0.924534  0.080892  1
  O  O22  1  0.919793  0.743128  0.414574  1
