# generated using pymatgen
data_K2FeH8(SO6)2
_symmetry_space_group_name_H-M   'P 1'
_cell_length_a   9.64904287
_cell_length_b   10.11180028
_cell_length_c   11.89938622
_cell_angle_alpha   95.11916998
_cell_angle_beta   90.00000000
_cell_angle_gamma   90.00000000
_symmetry_Int_Tables_number   1
_chemical_formula_structural   K2FeH8(SO6)2
_chemical_formula_sum   'K8 Fe4 H32 S8 O48'
_cell_volume   1156.38255539
_cell_formula_units_Z   4
loop_
 _symmetry_equiv_pos_site_id
 _symmetry_equiv_pos_as_xyz
  1  'x, y, z'
loop_
 _atom_site_type_symbol
 _atom_site_label
 _atom_site_symmetry_multiplicity
 _atom_site_fract_x
 _atom_site_fract_y
 _atom_site_fract_z
 _atom_site_occupancy
  K  K0  1  0.270786  0.240148  0.168535  1
  K  K1  1  0.770786  0.759852  0.331465  1
  K  K2  1  0.729214  0.759852  0.831465  1
  K  K3  1  0.229214  0.240148  0.668535  1
  K  K4  1  0.741293  0.260545  0.167937  1
  K  K5  1  0.241293  0.739455  0.332063  1
  K  K6  1  0.258707  0.739455  0.832063  1
  K  K7  1  0.758707  0.260545  0.667937  1
  Fe  Fe8  1  0.000000  0.000000  0.000000  1
  Fe  Fe9  1  0.500000  0.000000  0.500000  1
  Fe  Fe10  1  0.500000  0.500000  0.000000  1
  Fe  Fe11  1  0.000000  0.500000  0.500000  1
  S  S12  1  0.506293  0.950748  0.202629  1
  S  S13  1  0.006293  0.049252  0.297371  1
  S  S14  1  0.493707  0.049252  0.797371  1
  S  S15  1  0.993707  0.950748  0.702629  1
  S  S16  1  0.993458  0.521128  0.208950  1
  S  S17  1  0.493458  0.478872  0.291050  1
  S  S18  1  0.006542  0.478872  0.791050  1
  S  S19  1  0.506542  0.521128  0.708950  1
  O  O20  1  0.372566  0.117126  0.858503  1
  O  O21  1  0.872566  0.882874  0.641497  1
  O  O22  1  0.627434  0.882874  0.141497  1
  O  O23  1  0.127434  0.117126  0.358503  1
  O  O24  1  0.373955  0.885740  0.158411  1
  O  O25  1  0.873955  0.114260  0.341589  1
  O  O26  1  0.626045  0.114260  0.841589  1
  O  O27  1  0.126045  0.885740  0.658411  1
  O  O28  1  0.087475  0.606212  0.145347  1
  O  O29  1  0.587475  0.393788  0.354653  1
  O  O30  1  0.912525  0.393788  0.854653  1
  O  O31  1  0.412525  0.606212  0.645347  1
  O  O32  1  0.846365  0.545572  0.179652  1
  O  O33  1  0.346365  0.454428  0.320348  1
  O  O34  1  0.153635  0.454428  0.820348  1
  O  O35  1  0.653635  0.545572  0.679652  1
  O  O36  1  0.019786  0.071813  0.175853  1
  O  O37  1  0.519786  0.928187  0.324147  1
  O  O38  1  0.980214  0.928187  0.824147  1
  O  O39  1  0.480214  0.071813  0.675853  1
  O  O40  1  0.505623  0.092775  0.184582  1
  O  O41  1  0.005623  0.907225  0.315418  1
  O  O42  1  0.494377  0.907225  0.815418  1
  O  O43  1  0.994377  0.092775  0.684582  1
  O  O44  1  0.513703  0.437110  0.167631  1
  O  O45  1  0.013703  0.562890  0.332369  1
  O  O46  1  0.486297  0.562890  0.832369  1
  O  O47  1  0.986297  0.437110  0.667631  1
  O  O48  1  0.026724  0.378351  0.183801  1
  O  O49  1  0.526724  0.621649  0.316199  1
  O  O50  1  0.973276  0.621649  0.816199  1
  O  O51  1  0.473276  0.378351  0.683801  1
  O  O52  1  0.335815  0.358962  0.963895  1
  O  O53  1  0.835815  0.641038  0.536105  1
  O  O54  1  0.664185  0.641038  0.036105  1
  O  O55  1  0.164185  0.358962  0.463895  1
  O  O56  1  0.338273  0.643330  0.047557  1
  O  O57  1  0.838273  0.356670  0.452443  1
  O  O58  1  0.661727  0.356670  0.952443  1
  O  O59  1  0.161727  0.643330  0.547557  1
  O  O60  1  0.220004  0.976408  0.990337  1
  O  O61  1  0.720004  0.023592  0.509663  1
  O  O62  1  0.779996  0.023592  0.009663  1
  O  O63  1  0.279996  0.976408  0.490337  1
  O  O64  1  0.980922  0.788843  0.016451  1
  O  O65  1  0.480922  0.211157  0.483549  1
  O  O66  1  0.019078  0.211157  0.983549  1
  O  O67  1  0.519078  0.788843  0.516451  1
  H  H68  1  0.260097  0.396349  0.919423  1
  H  H69  1  0.760097  0.603651  0.580577  1
  H  H70  1  0.739903  0.603651  0.080577  1
  H  H71  1  0.239903  0.396349  0.419423  1
  H  H72  1  0.360459  0.272838  0.920969  1
  H  H73  1  0.860459  0.727162  0.579031  1
  H  H74  1  0.639541  0.727162  0.079031  1
  H  H75  1  0.139541  0.272838  0.420969  1
  H  H76  1  0.251679  0.612280  0.081903  1
  H  H77  1  0.751679  0.387720  0.418097  1
  H  H78  1  0.748321  0.387720  0.918097  1
  H  H79  1  0.248321  0.612280  0.581903  1
  H  H80  1  0.362635  0.729264  0.090769  1
  H  H81  1  0.862635  0.270736  0.409231  1
  H  H82  1  0.637365  0.270736  0.909231  1
  H  H83  1  0.137365  0.729264  0.590769  1
  H  H84  1  0.279334  0.029284  0.941404  1
  H  H85  1  0.779334  0.970716  0.558596  1
  H  H86  1  0.720666  0.970716  0.058596  1
  H  H87  1  0.220666  0.029284  0.441404  1
  H  H88  1  0.278099  0.948437  0.053431  1
  H  H89  1  0.778099  0.051563  0.446569  1
  H  H90  1  0.721901  0.051563  0.946569  1
  H  H91  1  0.221901  0.948437  0.553431  1
  H  H92  1  0.013398  0.733964  0.076596  1
  H  H93  1  0.513398  0.266036  0.423404  1
  H  H94  1  0.986602  0.266036  0.923404  1
  H  H95  1  0.486602  0.733964  0.576596  1
  H  H96  1  0.981796  0.727233  0.946902  1
  H  H97  1  0.481796  0.272767  0.553098  1
  H  H98  1  0.018204  0.272767  0.053098  1
  H  H99  1  0.518204  0.727233  0.446902  1
