# generated using pymatgen
data_Li4Ti3Mn3(NiO8)2
_symmetry_space_group_name_H-M   'P 1'
_cell_length_a   5.85282103
_cell_length_b   5.86542182
_cell_length_c   9.64504526
_cell_angle_alpha   90.00791833
_cell_angle_beta   89.87069661
_cell_angle_gamma   120.06302202
_symmetry_Int_Tables_number   1
_chemical_formula_structural   Li4Ti3Mn3(NiO8)2
_chemical_formula_sum   'Li4 Ti3 Mn3 Ni2 O16'
_cell_volume   286.56414834
_cell_formula_units_Z   1
loop_
 _symmetry_equiv_pos_site_id
 _symmetry_equiv_pos_as_xyz
  1  'x, y, z'
loop_
 _atom_site_type_symbol
 _atom_site_label
 _atom_site_symmetry_multiplicity
 _atom_site_fract_x
 _atom_site_fract_y
 _atom_site_fract_z
 _atom_site_occupancy
  Li  Li0  1  0.338413  0.669222  0.885317  1
  Li  Li1  1  0.992127  0.996061  0.997765  1
  Li  Li2  1  0.992642  0.996344  0.499595  1
  Li  Li3  1  0.672108  0.336061  0.387738  1
  Ti  Ti4  1  0.169662  0.831676  0.214833  1
  Ti  Ti5  1  0.169676  0.337991  0.214810  1
  Ti  Ti6  1  0.339558  0.169793  0.714005  1
  Mn  Mn7  1  0.661440  0.830722  0.215166  1
  Mn  Mn8  1  0.831221  0.662663  0.715141  1
  Mn  Mn9  1  0.831176  0.168556  0.715184  1
  Ni  Ni10  1  0.332754  0.666379  0.490289  1
  Ni  Ni11  1  0.666997  0.333504  0.987636  1
  O  O12  1  0.157876  0.839777  0.607045  1
  O  O13  1  0.037006  0.518585  0.331245  1
  O  O14  1  0.337620  0.668773  0.103909  1
  O  O15  1  0.991719  0.995935  0.314264  1
  O  O16  1  0.991810  0.995902  0.812356  1
  O  O17  1  0.157878  0.318103  0.607047  1
  O  O18  1  0.485439  0.964751  0.332808  1
  O  O19  1  0.485507  0.520796  0.332786  1
  O  O20  1  0.319749  0.159856  0.105777  1
  O  O21  1  0.680849  0.840433  0.609159  1
  O  O22  1  0.520905  0.484773  0.831231  1
  O  O23  1  0.520928  0.036179  0.831253  1
  O  O24  1  0.674341  0.337143  0.606055  1
  O  O25  1  0.838252  0.680974  0.107698  1
  O  O26  1  0.964152  0.482079  0.829990  1
  O  O27  1  0.838197  0.157267  0.107738  1
