# generated using pymatgen
data_NaCa9ScZn9(SiO3)20
_symmetry_space_group_name_H-M   'P 1'
_cell_length_a   26.51093217
_cell_length_b   6.72141358
_cell_length_c   6.72141364
_cell_angle_alpha   83.93355499
_cell_angle_beta   78.41848702
_cell_angle_gamma   78.41848493
_symmetry_Int_Tables_number   1
_chemical_formula_structural   NaCa9ScZn9(SiO3)20
_chemical_formula_sum   'Na1 Ca9 Sc1 Zn9 Si20 O60'
_cell_volume   1146.75141128
_cell_formula_units_Z   1
loop_
 _symmetry_equiv_pos_site_id
 _symmetry_equiv_pos_as_xyz
  1  'x, y, z'
loop_
 _atom_site_type_symbol
 _atom_site_label
 _atom_site_symmetry_multiplicity
 _atom_site_fract_x
 _atom_site_fract_y
 _atom_site_fract_z
 _atom_site_occupancy
  Na  Na0  1  0.950000  0.302805  0.697195  1
  Ca  Ca1  1  0.051152  0.696574  0.308013  1
  Ca  Ca2  1  0.150347  0.301256  0.696946  1
  Ca  Ca3  1  0.249835  0.699097  0.301006  1
  Ca  Ca4  1  0.349793  0.301479  0.699165  1
  Ca  Ca5  1  0.450000  0.698838  0.301162  1
  Ca  Ca6  1  0.550207  0.300835  0.698521  1
  Ca  Ca7  1  0.650165  0.698994  0.300903  1
  Ca  Ca8  1  0.749653  0.303054  0.698744  1
  Ca  Ca9  1  0.848848  0.691987  0.303426  1
  Sc  Sc10  1  0.950000  0.913638  0.086362  1
  Zn  Zn11  1  0.050418  0.101596  0.898084  1
  Zn  Zn12  1  0.149265  0.908245  0.095381  1
  Zn  Zn13  1  0.249566  0.094226  0.907315  1
  Zn  Zn14  1  0.349876  0.906738  0.093718  1
  Zn  Zn15  1  0.450000  0.093664  0.906336  1
  Zn  Zn16  1  0.550124  0.906282  0.093262  1
  Zn  Zn17  1  0.650434  0.092685  0.905774  1
  Zn  Zn18  1  0.750735  0.904619  0.091755  1
  Zn  Zn19  1  0.849582  0.101916  0.898404  1
  Si  Si20  1  0.052746  0.189700  0.383542  1
  Si  Si21  1  0.047026  0.620523  0.802721  1
  Si  Si22  1  0.152776  0.379099  0.194980  1
  Si  Si23  1  0.146806  0.809435  0.619879  1
  Si  Si24  1  0.253226  0.192773  0.380069  1
  Si  Si25  1  0.246420  0.620752  0.807801  1
  Si  Si26  1  0.353202  0.380186  0.192916  1
  Si  Si27  1  0.346520  0.807789  0.620517  1
  Si  Si28  1  0.453306  0.192711  0.379912  1
  Si  Si29  1  0.446694  0.620088  0.807289  1
  Si  Si30  1  0.553480  0.379483  0.192211  1
  Si  Si31  1  0.546798  0.807084  0.619814  1
  Si  Si32  1  0.653580  0.192199  0.379248  1
  Si  Si33  1  0.646774  0.619931  0.807227  1
  Si  Si34  1  0.753194  0.380121  0.190565  1
  Si  Si35  1  0.747224  0.805020  0.620901  1
  Si  Si36  1  0.852974  0.197279  0.379477  1
  Si  Si37  1  0.847254  0.616458  0.810300  1
  Si  Si38  1  0.954047  0.381574  0.197315  1
  Si  Si39  1  0.945953  0.802685  0.618426  1
  O  O40  1  0.001943  0.371643  0.328286  1
  O  O41  1  0.035371  0.095575  0.610120  1
  O  O42  1  0.070107  0.027649  0.206728  1
  O  O43  1  0.028427  0.787041  0.974681  1
  O  O44  1  0.066361  0.390425  0.883916  1
  O  O45  1  0.100872  0.325851  0.373217  1
  O  O46  1  0.099482  0.672589  0.628692  1
  O  O47  1  0.133318  0.610098  0.115056  1
  O  O48  1  0.170548  0.210145  0.026432  1
  O  O49  1  0.129185  0.973227  0.793314  1
  O  O50  1  0.166097  0.892607  0.390312  1
  O  O51  1  0.200799  0.369895  0.328972  1
  O  O52  1  0.198946  0.630830  0.671104  1
  O  O53  1  0.233984  0.110744  0.610351  1
  O  O54  1  0.270871  0.026729  0.208699  1
  O  O55  1  0.228430  0.791626  0.974379  1
  O  O56  1  0.265720  0.390400  0.889474  1
  O  O57  1  0.300791  0.328831  0.370128  1
  O  O58  1  0.298851  0.672103  0.630772  1
  O  O59  1  0.333812  0.610425  0.111164  1
  O  O60  1  0.370924  0.209032  0.026551  1
  O  O61  1  0.328720  0.974068  0.791757  1
  O  O62  1  0.365869  0.889433  0.390159  1
  O  O63  1  0.400877  0.369977  0.328609  1
  O  O64  1  0.398964  0.630512  0.671761  1
  O  O65  1  0.433923  0.111050  0.610228  1
  O  O66  1  0.471057  0.026307  0.208758  1
  O  O67  1  0.428943  0.791242  0.973693  1
  O  O68  1  0.466077  0.389772  0.888950  1
  O  O69  1  0.501036  0.328239  0.369488  1
  O  O70  1  0.499123  0.671391  0.630023  1
  O  O71  1  0.534131  0.609841  0.110567  1
  O  O72  1  0.571280  0.208243  0.025932  1
  O  O73  1  0.529076  0.973449  0.790968  1
  O  O74  1  0.566188  0.888836  0.389575  1
  O  O75  1  0.601149  0.369228  0.327897  1
  O  O76  1  0.599209  0.629872  0.671169  1
  O  O77  1  0.634280  0.110526  0.609600  1
  O  O78  1  0.671570  0.025621  0.208374  1
  O  O79  1  0.629129  0.791301  0.973271  1
  O  O80  1  0.666016  0.389649  0.889256  1
  O  O81  1  0.701054  0.328896  0.369170  1
  O  O82  1  0.699201  0.671028  0.630105  1
  O  O83  1  0.733903  0.609688  0.107393  1
  O  O84  1  0.770815  0.206686  0.026773  1
  O  O85  1  0.729452  0.973568  0.789855  1
  O  O86  1  0.766682  0.884944  0.389902  1
  O  O87  1  0.800518  0.371308  0.327411  1
  O  O88  1  0.799128  0.626783  0.674149  1
  O  O89  1  0.833639  0.116084  0.609575  1
  O  O90  1  0.871573  0.025319  0.212959  1
  O  O91  1  0.829893  0.793272  0.972351  1
  O  O92  1  0.864629  0.389880  0.904425  1
  O  O93  1  0.900122  0.333648  0.363493  1
  O  O94  1  0.898057  0.671714  0.628357  1
  O  O95  1  0.935788  0.615095  0.116103  1
  O  O96  1  0.971302  0.206239  0.033998  1
  O  O97  1  0.928698  0.966002  0.793761  1
  O  O98  1  0.964212  0.883897  0.384905  1
  O  O99  1  -0.000121  0.636507  0.666352  1
