# generated using pymatgen
data_Ti3CrFe2(PO4)6
_symmetry_space_group_name_H-M   'P 1'
_cell_length_a   8.54407137
_cell_length_b   8.54407159
_cell_length_c   8.54407142
_cell_angle_alpha   60.95782503
_cell_angle_beta   60.95782582
_cell_angle_gamma   60.95782721
_symmetry_Int_Tables_number   1
_chemical_formula_structural   Ti3CrFe2(PO4)6
_chemical_formula_sum   'Ti3 Cr1 Fe2 P6 O24'
_cell_volume   450.55981134
_cell_formula_units_Z   1
loop_
 _symmetry_equiv_pos_site_id
 _symmetry_equiv_pos_as_xyz
  1  'x, y, z'
loop_
 _atom_site_type_symbol
 _atom_site_label
 _atom_site_symmetry_multiplicity
 _atom_site_fract_x
 _atom_site_fract_y
 _atom_site_fract_z
 _atom_site_occupancy
  Ti  Ti0  1  0.143295  0.143295  0.143295  1
  Ti  Ti1  1  0.355575  0.355575  0.355575  1
  Ti  Ti2  1  0.643891  0.643891  0.643891  1
  Cr  Cr3  1  0.859232  0.859232  0.859232  1
  Fe  Fe4  1  0.000155  0.000155  0.000155  1
  Fe  Fe5  1  0.499081  0.499081  0.499081  1
  P  P6  1  0.042372  0.750264  0.460644  1
  P  P7  1  0.460644  0.042372  0.750264  1
  P  P8  1  0.248524  0.543637  0.956359  1
  P  P9  1  0.543637  0.956359  0.248524  1
  P  P10  1  0.956359  0.248524  0.543637  1
  P  P11  1  0.750264  0.460644  0.042372  1
  O  O12  1  0.116013  0.315140  0.499210  1
  O  O13  1  0.315140  0.499210  0.116013  1
  O  O14  1  0.055025  0.909981  0.263391  1
  O  O15  1  0.499210  0.116013  0.315140  1
  O  O16  1  0.007030  0.811516  0.616427  1
  O  O17  1  0.238280  0.588163  0.440534  1
  O  O18  1  0.263391  0.055025  0.909981  1
  O  O19  1  0.440534  0.238280  0.588163  1
  O  O20  1  0.184537  0.383133  0.998765  1
  O  O21  1  0.588163  0.440534  0.238280  1
  O  O22  1  0.090497  0.738303  0.944300  1
  O  O23  1  0.383133  0.998765  0.184537  1
  O  O24  1  0.616427  0.007030  0.811516  1
  O  O25  1  0.909981  0.263391  0.055025  1
  O  O26  1  0.410322  0.556259  0.761907  1
  O  O27  1  0.811516  0.616427  0.007030  1
  O  O28  1  0.556259  0.761907  0.410322  1
  O  O29  1  0.738303  0.944300  0.090497  1
  O  O30  1  0.761907  0.410322  0.556259  1
  O  O31  1  0.998765  0.184537  0.383133  1
  O  O32  1  0.502760  0.881025  0.684450  1
  O  O33  1  0.944300  0.090497  0.738303  1
  O  O34  1  0.684450  0.502760  0.881025  1
  O  O35  1  0.881025  0.684450  0.502760  1
