# generated using pymatgen
data_Li2Mn2Si4O11
_symmetry_space_group_name_H-M   'P 1'
_cell_length_a   8.91924114
_cell_length_b   7.58928765
_cell_length_c   7.04708852
_cell_angle_alpha   104.56050040
_cell_angle_beta   100.97544864
_cell_angle_gamma   99.49426566
_symmetry_Int_Tables_number   1
_chemical_formula_structural   Li2Mn2Si4O11
_chemical_formula_sum   'Li4 Mn4 Si8 O22'
_cell_volume   441.74189214
_cell_formula_units_Z   2
loop_
 _symmetry_equiv_pos_site_id
 _symmetry_equiv_pos_as_xyz
  1  'x, y, z'
loop_
 _atom_site_type_symbol
 _atom_site_label
 _atom_site_symmetry_multiplicity
 _atom_site_fract_x
 _atom_site_fract_y
 _atom_site_fract_z
 _atom_site_occupancy
  Li  Li0  1  0.196791  0.793648  0.609658  1
  Li  Li1  1  0.148462  0.752261  0.142148  1
  Li  Li2  1  0.851538  0.247739  0.857852  1
  Li  Li3  1  0.803209  0.206352  0.390342  1
  Mn  Mn4  1  0.388424  0.624327  0.881829  1
  Mn  Mn5  1  0.397494  0.618178  0.370482  1
  Mn  Mn6  1  0.602506  0.381822  0.629518  1
  Mn  Mn7  1  0.611576  0.375673  0.118171  1
  Si  Si8  1  0.033263  0.388617  0.240033  1
  Si  Si9  1  0.231197  0.223801  0.957935  1
  Si  Si10  1  0.223688  0.221925  0.520323  1
  Si  Si11  1  0.598486  0.973261  0.767724  1
  Si  Si12  1  0.401514  0.026739  0.232276  1
  Si  Si13  1  0.776312  0.778075  0.479677  1
  Si  Si14  1  0.768803  0.776199  0.042065  1
  Si  Si15  1  0.966737  0.611383  0.759967  1
  O  O16  1  0.150914  0.621588  0.816204  1
  O  O17  1  0.060428  0.258693  0.398294  1
  O  O18  1  0.151575  0.593715  0.322708  1
  O  O19  1  0.068504  0.260402  0.025508  1
  O  O20  1  0.182017  0.151586  0.709857  1
  O  O21  1  0.273928  0.040448  0.381544  1
  O  O22  1  0.437675  0.812036  0.678198  1
  O  O23  1  0.364546  0.407023  0.580912  1
  O  O24  1  0.414565  0.810650  0.184651  1
  O  O25  1  0.292700  0.049634  0.022728  1
  O  O26  1  0.368883  0.412396  0.059722  1
  O  O27  1  0.631117  0.587604  0.940278  1
  O  O28  1  0.707301  0.950366  0.977272  1
  O  O29  1  0.585435  0.189350  0.815349  1
  O  O30  1  0.635454  0.592977  0.419088  1
  O  O31  1  0.562325  0.187964  0.321802  1
  O  O32  1  0.726072  0.959552  0.618456  1
  O  O33  1  0.817983  0.848414  0.290143  1
  O  O34  1  0.931496  0.739598  0.974492  1
  O  O35  1  0.848425  0.406285  0.677292  1
  O  O36  1  0.939572  0.741307  0.601706  1
  O  O37  1  0.849086  0.378412  0.183796  1
