# generated using pymatgen
data_LiMnF4
_symmetry_space_group_name_H-M   'P 1'
_cell_length_a   7.69273213
_cell_length_b   7.51236588
_cell_length_c   4.97644421
_cell_angle_alpha   90.00000000
_cell_angle_beta   90.00000000
_cell_angle_gamma   102.68246176
_symmetry_Int_Tables_number   1
_chemical_formula_structural   LiMnF4
_chemical_formula_sum   'Li4 Mn4 F16'
_cell_volume   280.57506453
_cell_formula_units_Z   4
loop_
 _symmetry_equiv_pos_site_id
 _symmetry_equiv_pos_as_xyz
  1  'x, y, z'
loop_
 _atom_site_type_symbol
 _atom_site_label
 _atom_site_symmetry_multiplicity
 _atom_site_fract_x
 _atom_site_fract_y
 _atom_site_fract_z
 _atom_site_occupancy
  Li  Li0  1  0.137189  0.850756  0.255718  1
  Li  Li1  1  0.137189  0.350756  0.244282  1
  Li  Li2  1  0.862811  0.649244  0.755718  1
  Li  Li3  1  0.862811  0.149244  0.744282  1
  Mn  Mn4  1  0.316526  0.689945  0.745157  1
  Mn  Mn5  1  0.316526  0.189945  0.754843  1
  Mn  Mn6  1  0.683474  0.810055  0.245157  1
  Mn  Mn7  1  0.683474  0.310055  0.254843  1
  F  F8  1  0.093209  0.701716  0.927649  1
  F  F9  1  0.093209  0.201716  0.572351  1
  F  F10  1  0.196783  0.596594  0.438038  1
  F  F11  1  0.196783  0.096594  0.061962  1
  F  F12  1  0.310641  0.441950  0.911022  1
  F  F13  1  0.444497  0.800079  0.047107  1
  F  F14  1  0.310641  0.941950  0.588978  1
  F  F15  1  0.444497  0.300079  0.452893  1
  F  F16  1  0.555503  0.699921  0.547107  1
  F  F17  1  0.689359  0.058050  0.411022  1
  F  F18  1  0.555503  0.199921  0.952893  1
  F  F19  1  0.689359  0.558050  0.088978  1
  F  F20  1  0.803217  0.903406  0.938038  1
  F  F21  1  0.803217  0.403406  0.561962  1
  F  F22  1  0.906791  0.798284  0.427649  1
  F  F23  1  0.906791  0.298284  0.072351  1
