# generated using pymatgen
data_LiP3W2O13
_symmetry_space_group_name_H-M   'P 1'
_cell_length_a   8.90718930
_cell_length_b   8.93393985
_cell_length_c   8.93432160
_cell_angle_alpha   105.28857557
_cell_angle_beta   69.16706434
_cell_angle_gamma   69.18400374
_symmetry_Int_Tables_number   1
_chemical_formula_structural   LiP3W2O13
_chemical_formula_sum   'Li2 P6 W4 O26'
_cell_volume   555.75668385
_cell_formula_units_Z   2
loop_
 _symmetry_equiv_pos_site_id
 _symmetry_equiv_pos_as_xyz
  1  'x, y, z'
loop_
 _atom_site_type_symbol
 _atom_site_label
 _atom_site_symmetry_multiplicity
 _atom_site_fract_x
 _atom_site_fract_y
 _atom_site_fract_z
 _atom_site_occupancy
  Li  Li0  1  0.500000  0.000000  0.000000  1
  Li  Li1  1  0.000000  0.500000  0.500000  1
  P  P2  1  0.750047  0.511649  0.988213  1
  P  P3  1  0.939675  0.151612  0.239945  1
  P  P4  1  0.439687  0.739946  0.651646  1
  P  P5  1  0.560313  0.260054  0.348354  1
  P  P6  1  0.060325  0.848388  0.760055  1
  P  P7  1  0.249953  0.488351  0.011787  1
  W  W8  1  0.829079  0.827940  0.161018  1
  W  W9  1  0.670746  0.338996  0.672130  1
  W  W10  1  0.329254  0.661004  0.327870  1
  W  W11  1  0.170921  0.172060  0.838982  1
  O  O12  1  0.903110  0.848421  0.900061  1
  O  O13  1  0.917710  0.396772  0.998624  1
  O  O14  1  0.967098  0.963024  0.200738  1
  O  O15  1  0.793441  0.444317  0.790454  1
  O  O16  1  0.767761  0.802273  0.356376  1
  O  O17  1  0.905801  0.254354  0.429607  1
  O  O18  1  0.596889  0.599836  0.651476  1
  O  O19  1  0.731763  0.143799  0.698060  1
  O  O20  1  0.405893  0.929543  0.754509  1
  O  O21  1  0.706507  0.709450  0.055676  1
  O  O22  1  0.750018  0.261111  0.238898  1
  O  O23  1  0.417514  0.498946  0.896865  1
  O  O24  1  0.467090  0.700896  0.463084  1
  O  O25  1  0.532910  0.299104  0.536916  1
  O  O26  1  0.582486  0.501054  0.103135  1
  O  O27  1  0.249982  0.738889  0.761102  1
  O  O28  1  0.293493  0.290550  0.944324  1
  O  O29  1  0.594107  0.070457  0.245491  1
  O  O30  1  0.268237  0.856201  0.301940  1
  O  O31  1  0.403111  0.400164  0.348524  1
  O  O32  1  0.094199  0.745646  0.570393  1
  O  O33  1  0.232239  0.197727  0.643624  1
  O  O34  1  0.206559  0.555683  0.209546  1
  O  O35  1  0.032902  0.036976  0.799262  1
  O  O36  1  0.082290  0.603228  0.001376  1
  O  O37  1  0.096890  0.151579  0.099939  1
