# generated using pymatgen
data_Li3Mn(PO4)2
_symmetry_space_group_name_H-M   'P 1'
_cell_length_a   8.66147720
_cell_length_b   9.37119223
_cell_length_c   8.55296945
_cell_angle_alpha   86.92760476
_cell_angle_beta   110.62831069
_cell_angle_gamma   92.89470128
_symmetry_Int_Tables_number   1
_chemical_formula_structural   Li3Mn(PO4)2
_chemical_formula_sum   'Li12 Mn4 P8 O32'
_cell_volume   648.41505179
_cell_formula_units_Z   4
loop_
 _symmetry_equiv_pos_site_id
 _symmetry_equiv_pos_as_xyz
  1  'x, y, z'
loop_
 _atom_site_type_symbol
 _atom_site_label
 _atom_site_symmetry_multiplicity
 _atom_site_fract_x
 _atom_site_fract_y
 _atom_site_fract_z
 _atom_site_occupancy
  Li  Li0  1  0.385140  0.793369  0.852569  1
  Li  Li1  1  0.128260  0.298520  0.621372  1
  Li  Li2  1  0.041310  0.460711  0.160552  1
  Li  Li3  1  0.062596  0.772182  0.109345  1
  Li  Li4  1  0.598110  0.759954  0.608960  1
  Li  Li5  1  0.430945  0.247657  0.405362  1
  Li  Li6  1  0.889128  0.230527  0.894683  1
  Li  Li7  1  0.957726  0.538681  0.831961  1
  Li  Li8  1  0.161644  0.034967  0.046036  1
  Li  Li9  1  0.866337  0.697025  0.406287  1
  Li  Li10  1  0.608476  0.225562  0.146172  1
  Li  Li11  1  0.709828  0.901265  0.084197  1
  Mn  Mn12  1  0.244953  0.905549  0.495479  1
  Mn  Mn13  1  0.502699  0.396446  0.767450  1
  Mn  Mn14  1  0.499038  0.605458  0.232703  1
  Mn  Mn15  1  0.771447  0.097914  0.506459  1
  P  P16  1  0.012358  0.914598  0.713959  1
  P  P17  1  0.291870  0.413611  0.995864  1
  P  P18  1  0.249647  0.575862  0.435634  1
  P  P19  1  0.571984  0.075050  0.758151  1
  P  P20  1  0.444067  0.927706  0.252618  1
  P  P21  1  0.748639  0.428659  0.558743  1
  P  P22  1  0.708743  0.590930  0.000877  1
  P  P23  1  0.982045  0.071094  0.271967  1
  O  O24  1  0.040004  0.886924  0.899702  1
  O  O25  1  0.107284  0.400861  0.973368  1
  O  O26  1  0.169525  0.864221  0.683671  1
  O  O27  1  0.309713  0.358414  0.832788  1
  O  O28  1  0.061826  0.562827  0.375201  1
  O  O29  1  0.632229  0.080783  0.949068  1
  O  O30  1  0.938872  0.909034  0.246790  1
  O  O31  1  0.653271  0.427669  0.002390  1
  O  O32  1  0.595422  0.667284  0.842308  1
  O  O33  1  0.145597  0.089748  0.428499  1
  O  O34  1  0.485374  0.932197  0.687883  1
  O  O35  1  0.335016  0.441748  0.536528  1
  O  O36  1  0.323737  0.709699  0.537722  1
  O  O37  1  0.457495  0.197550  0.666333  1
  O  O38  1  0.288719  0.585704  0.269019  1
  O  O39  1  0.735384  0.094354  0.716802  1
  O  O40  1  0.268569  0.915484  0.272538  1
  O  O41  1  0.712561  0.414627  0.728430  1
  O  O42  1  0.546972  0.801187  0.344465  1
  O  O43  1  0.671086  0.301724  0.450413  1
  O  O44  1  0.667481  0.566863  0.463990  1
  O  O45  1  0.534043  0.065252  0.341928  1
  O  O46  1  0.856939  0.839793  0.593828  1
  O  O47  1  0.401775  0.332029  0.152102  1
  O  O48  1  0.353047  0.576578  0.002143  1
  O  O49  1  0.000527  0.081610  0.666016  1
  O  O50  1  0.406798  0.934218  0.064699  1
  O  O51  1  0.936747  0.440229  0.618488  1
  O  O52  1  0.689449  0.657579  0.159235  1
  O  O53  1  0.841461  0.142894  0.313062  1
  O  O54  1  0.892626  0.606476  0.019418  1
  O  O55  1  0.006082  0.149910  0.119596  1
