# generated using pymatgen
data_Li6Fe(BO3)3
_symmetry_space_group_name_H-M   'P 1'
_cell_length_a   7.03248992
_cell_length_b   16.50047500
_cell_length_c   6.43980872
_cell_angle_alpha   90.00000000
_cell_angle_beta   103.88013712
_cell_angle_gamma   90.00000000
_symmetry_Int_Tables_number   1
_chemical_formula_structural   Li6Fe(BO3)3
_chemical_formula_sum   'Li24 Fe4 B12 O36'
_cell_volume   725.45114054
_cell_formula_units_Z   4
loop_
 _symmetry_equiv_pos_site_id
 _symmetry_equiv_pos_as_xyz
  1  'x, y, z'
loop_
 _atom_site_type_symbol
 _atom_site_label
 _atom_site_symmetry_multiplicity
 _atom_site_fract_x
 _atom_site_fract_y
 _atom_site_fract_z
 _atom_site_occupancy
  Li  Li0  1  0.069192  0.995545  0.679142  1
  Li  Li1  1  0.136374  0.554474  0.594344  1
  Li  Li2  1  0.069192  0.504455  0.179142  1
  Li  Li3  1  0.304298  0.461897  0.945433  1
  Li  Li4  1  0.136374  0.945526  0.094344  1
  Li  Li5  1  0.271230  0.706642  0.634168  1
  Li  Li6  1  0.304298  0.038103  0.445433  1
  Li  Li7  1  0.411809  0.293612  0.950406  1
  Li  Li8  1  0.457590  0.969047  0.828899  1
  Li  Li9  1  0.271230  0.793358  0.134168  1
  Li  Li10  1  0.411809  0.206388  0.450406  1
  Li  Li11  1  0.457590  0.530953  0.328899  1
  Li  Li12  1  0.542410  0.469047  0.671101  1
  Li  Li13  1  0.588191  0.793612  0.549594  1
  Li  Li14  1  0.728770  0.206642  0.865832  1
  Li  Li15  1  0.542410  0.030953  0.171101  1
  Li  Li16  1  0.588191  0.706388  0.049594  1
  Li  Li17  1  0.695702  0.961897  0.554567  1
  Li  Li18  1  0.728770  0.293358  0.365832  1
  Li  Li19  1  0.863626  0.054474  0.905656  1
  Li  Li20  1  0.695702  0.538103  0.054567  1
  Li  Li21  1  0.930808  0.495545  0.820858  1
  Li  Li22  1  0.863626  0.445526  0.405656  1
  Li  Li23  1  0.930808  0.004455  0.320858  1
  Fe  Fe24  1  0.074944  0.183340  0.668697  1
  Fe  Fe25  1  0.074944  0.316660  0.168697  1
  Fe  Fe26  1  0.925056  0.683340  0.831303  1
  Fe  Fe27  1  0.925056  0.816660  0.331303  1
  B  B28  1  0.081993  0.363049  0.655896  1
  B  B29  1  0.081993  0.136951  0.155896  1
  B  B30  1  0.279573  0.875463  0.499313  1
  B  B31  1  0.431001  0.117626  0.810943  1
  B  B32  1  0.279573  0.624537  0.999313  1
  B  B33  1  0.431001  0.382374  0.310943  1
  B  B34  1  0.568999  0.617626  0.689057  1
  B  B35  1  0.720427  0.375463  0.000687  1
  B  B36  1  0.568999  0.882374  0.189057  1
  B  B37  1  0.720427  0.124537  0.500687  1
  B  B38  1  0.918007  0.863049  0.844104  1
  B  B39  1  0.918007  0.636951  0.344104  1
  O  O40  1  0.990890  0.666204  0.551246  1
  O  O41  1  0.113501  0.576164  0.956575  1
  O  O42  1  0.101548  0.445492  0.680264  1
  O  O43  1  0.118412  0.308554  0.825351  1
  O  O44  1  0.990890  0.833796  0.051246  1
  O  O45  1  0.113501  0.923836  0.456575  1
  O  O46  1  0.241588  0.705029  0.939432  1
  O  O47  1  0.101548  0.054508  0.180264  1
  O  O48  1  0.118412  0.191446  0.325351  1
  O  O49  1  0.271854  0.067616  0.732507  1
  O  O50  1  0.241588  0.794971  0.439432  1
  O  O51  1  0.271854  0.432384  0.232507  1
  O  O52  1  0.395882  0.199339  0.764274  1
  O  O53  1  0.394959  0.584844  0.576067  1
  O  O54  1  0.536870  0.406051  0.916041  1
  O  O55  1  0.463130  0.906051  0.583959  1
  O  O56  1  0.395882  0.300661  0.264274  1
  O  O57  1  0.605041  0.084844  0.923933  1
  O  O58  1  0.394959  0.915156  0.076067  1
  O  O59  1  0.604118  0.699339  0.735726  1
  O  O60  1  0.536870  0.093949  0.416041  1
  O  O61  1  0.463130  0.593949  0.083959  1
  O  O62  1  0.605041  0.415156  0.423933  1
  O  O63  1  0.604118  0.800661  0.235726  1
  O  O64  1  0.728146  0.567616  0.767493  1
  O  O65  1  0.758412  0.205029  0.560568  1
  O  O66  1  0.728146  0.932384  0.267493  1
  O  O67  1  0.881588  0.808554  0.674649  1
  O  O68  1  0.898452  0.945492  0.819736  1
  O  O69  1  0.758412  0.294971  0.060568  1
  O  O70  1  0.886499  0.076164  0.543425  1
  O  O71  1  0.009110  0.166204  0.948754  1
  O  O72  1  0.881588  0.691446  0.174649  1
  O  O73  1  0.898452  0.554508  0.319736  1
  O  O74  1  0.886499  0.423836  0.043425  1
  O  O75  1  0.009110  0.333796  0.448754  1
