# generated using pymatgen
data_LiMn2P2HO8
_symmetry_space_group_name_H-M   'P 1'
_cell_length_a   5.15284005
_cell_length_b   8.96893728
_cell_length_c   8.78069387
_cell_angle_alpha   78.12341733
_cell_angle_beta   77.39694194
_cell_angle_gamma   71.91810206
_symmetry_Int_Tables_number   1
_chemical_formula_structural   LiMn2P2HO8
_chemical_formula_sum   'Li2 Mn4 P4 H2 O16'
_cell_volume   372.27467110
_cell_formula_units_Z   2
loop_
 _symmetry_equiv_pos_site_id
 _symmetry_equiv_pos_as_xyz
  1  'x, y, z'
loop_
 _atom_site_type_symbol
 _atom_site_label
 _atom_site_symmetry_multiplicity
 _atom_site_fract_x
 _atom_site_fract_y
 _atom_site_fract_z
 _atom_site_occupancy
  Li  Li0  1  0.290018  0.295727  0.196343  1
  Li  Li1  1  0.709982  0.704273  0.803657  1
  Mn  Mn2  1  0.202081  0.121259  0.592630  1
  Mn  Mn3  1  0.377195  0.392095  0.782696  1
  Mn  Mn4  1  0.622805  0.607905  0.217304  1
  Mn  Mn5  1  0.797919  0.878741  0.407370  1
  P  P6  1  0.122229  0.747862  0.063407  1
  P  P7  1  0.357469  0.742778  0.573806  1
  P  P8  1  0.642531  0.257222  0.426194  1
  P  P9  1  0.877771  0.252138  0.936593  1
  H  H10  1  0.968436  0.939662  0.876975  1
  H  H11  1  0.031564  0.060339  0.123025  1
  O  O12  1  0.976721  0.128430  0.821167  1
  O  O13  1  0.966398  0.404527  0.867129  1
  O  O14  1  0.046357  0.766040  0.578281  1
  O  O15  1  0.439676  0.708927  0.013770  1
  O  O16  1  0.480348  0.256091  0.600680  1
  O  O17  1  0.971470  0.824362  0.912941  1
  O  O18  1  0.581087  0.118455  0.370171  1
  O  O19  1  0.509836  0.408435  0.319258  1
  O  O20  1  0.490164  0.591565  0.680742  1
  O  O21  1  0.418913  0.881545  0.629829  1
  O  O22  1  0.028530  0.175638  0.087059  1
  O  O23  1  0.519652  0.743909  0.399320  1
  O  O24  1  0.560324  0.291073  0.986230  1
  O  O25  1  0.953643  0.233960  0.421719  1
  O  O26  1  0.033602  0.595473  0.132871  1
  O  O27  1  0.023279  0.871570  0.178833  1
