# generated using pymatgen
data_CeTh2O6
_symmetry_space_group_name_H-M   'P 1'
_cell_length_a   3.94038945
_cell_length_b   6.81707083
_cell_length_c   5.56682344
_cell_angle_alpha   65.88888436
_cell_angle_beta   89.97956815
_cell_angle_gamma   73.20296586
_symmetry_Int_Tables_number   1
_chemical_formula_structural   CeTh2O6
_chemical_formula_sum   'Ce1 Th2 O6'
_cell_volume   129.47522802
_cell_formula_units_Z   1
loop_
 _symmetry_equiv_pos_site_id
 _symmetry_equiv_pos_as_xyz
  1  'x, y, z'
loop_
 _atom_site_type_symbol
 _atom_site_label
 _atom_site_symmetry_multiplicity
 _atom_site_fract_x
 _atom_site_fract_y
 _atom_site_fract_z
 _atom_site_occupancy
  Ce  Ce0  1  0.329425  0.334072  0.333638  1
  Th  Th1  1  0.663618  0.664662  0.667897  1
  Th  Th2  1  0.995188  0.001863  0.999297  1
  O  O3  1  0.164002  0.663906  0.921580  1
  O  O4  1  0.830001  0.332888  0.579848  1
  O  O5  1  0.164776  0.662656  0.418189  1
  O  O6  1  0.494555  0.003943  0.745263  1
  O  O7  1  0.828654  0.333784  0.087523  1
  O  O8  1  0.493840  0.003928  0.249028  1
