# generated using pymatgen
data_TiCo(PO4)2
_symmetry_space_group_name_H-M   'P 1'
_cell_length_a   9.96578319
_cell_length_b   5.95707335
_cell_length_c   4.92319198
_cell_angle_alpha   90.00000000
_cell_angle_beta   89.53103078
_cell_angle_gamma   90.00000000
_symmetry_Int_Tables_number   1
_chemical_formula_structural   TiCo(PO4)2
_chemical_formula_sum   'Ti2 Co2 P4 O16'
_cell_volume   292.26486249
_cell_formula_units_Z   2
loop_
 _symmetry_equiv_pos_site_id
 _symmetry_equiv_pos_as_xyz
  1  'x, y, z'
loop_
 _atom_site_type_symbol
 _atom_site_label
 _atom_site_symmetry_multiplicity
 _atom_site_fract_x
 _atom_site_fract_y
 _atom_site_fract_z
 _atom_site_occupancy
  Ti  Ti0  1  0.225523  0.750000  0.475640  1
  Ti  Ti1  1  0.774477  0.250000  0.524360  1
  Co  Co2  1  0.270349  0.250000  0.969250  1
  Co  Co3  1  0.729651  0.750000  0.030750  1
  P  P4  1  0.098187  0.250000  0.437608  1
  P  P5  1  0.400863  0.750000  0.900342  1
  P  P6  1  0.599137  0.250000  0.099658  1
  P  P7  1  0.901813  0.750000  0.562392  1
  O  O8  1  0.052283  0.750000  0.647106  1
  O  O9  1  0.109237  0.250000  0.742581  1
  O  O10  1  0.171104  0.043751  0.298674  1
  O  O11  1  0.171104  0.456249  0.298674  1
  O  O12  1  0.325969  0.553128  0.748182  1
  O  O13  1  0.325969  0.946872  0.748182  1
  O  O14  1  0.362993  0.750000  0.205749  1
  O  O15  1  0.449593  0.250000  0.140369  1
  O  O16  1  0.550407  0.750000  0.859631  1
  O  O17  1  0.637007  0.250000  0.794251  1
  O  O18  1  0.674031  0.053128  0.251818  1
  O  O19  1  0.674031  0.446872  0.251818  1
  O  O20  1  0.828896  0.543751  0.701326  1
  O  O21  1  0.828896  0.956249  0.701326  1
  O  O22  1  0.890763  0.750000  0.257419  1
  O  O23  1  0.947717  0.250000  0.352894  1
