# generated using pymatgen
data_Li4Nb3Cu3(SnO8)2
_symmetry_space_group_name_H-M   'P 1'
_cell_length_a   6.22416002
_cell_length_b   6.08652669
_cell_length_c   10.00304950
_cell_angle_alpha   90.00623501
_cell_angle_beta   87.37918340
_cell_angle_gamma   119.27639901
_symmetry_Int_Tables_number   1
_chemical_formula_structural   Li4Nb3Cu3(SnO8)2
_chemical_formula_sum   'Li4 Nb3 Cu3 Sn2 O16'
_cell_volume   330.09417704
_cell_formula_units_Z   1
loop_
 _symmetry_equiv_pos_site_id
 _symmetry_equiv_pos_as_xyz
  1  'x, y, z'
loop_
 _atom_site_type_symbol
 _atom_site_label
 _atom_site_symmetry_multiplicity
 _atom_site_fract_x
 _atom_site_fract_y
 _atom_site_fract_z
 _atom_site_occupancy
  Li  Li0  1  0.339494  0.669795  0.913282  1
  Li  Li1  1  0.003513  0.001867  0.997547  1
  Li  Li2  1  0.045947  0.022874  0.478315  1
  Li  Li3  1  0.686327  0.343197  0.387093  1
  Nb  Nb4  1  0.660500  0.830259  0.219360  1
  Nb  Nb5  1  0.820294  0.658122  0.712958  1
  Nb  Nb6  1  0.820161  0.162324  0.712736  1
  Cu  Cu7  1  0.171003  0.828799  0.208492  1
  Cu  Cu8  1  0.171068  0.342246  0.208510  1
  Cu  Cu9  1  0.353276  0.176470  0.717584  1
  Sn  Sn10  1  0.303501  0.651743  0.477842  1
  Sn  Sn11  1  0.634751  0.317317  0.000631  1
  O  O12  1  0.142698  0.821480  0.596143  1
  O  O13  1  0.044936  0.522495  0.333479  1
  O  O14  1  0.347319  0.673731  0.111612  1
  O  O15  1  0.998646  0.999276  0.295479  1
  O  O16  1  0.979517  0.989857  0.808462  1
  O  O17  1  0.142707  0.321220  0.596170  1
  O  O18  1  0.520684  0.975291  0.358061  1
  O  O19  1  0.520455  0.545187  0.357974  1
  O  O20  1  0.298059  0.149016  0.094696  1
  O  O21  1  0.666065  0.833034  0.610127  1
  O  O22  1  0.537305  0.500492  0.846652  1
  O  O23  1  0.537386  0.036800  0.846671  1
  O  O24  1  0.711002  0.355564  0.596979  1
  O  O25  1  0.793764  0.655257  0.094552  1
  O  O26  1  0.955812  0.477971  0.831792  1
  O  O27  1  0.793810  0.138617  0.094640  1
