# generated using pymatgen
data_VH24C4N4Cl7
_symmetry_space_group_name_H-M   'P 1'
_cell_length_a   16.15321610
_cell_length_b   7.38958208
_cell_length_c   16.24525060
_cell_angle_alpha   90.00000000
_cell_angle_beta   103.54191410
_cell_angle_gamma   90.00000000
_symmetry_Int_Tables_number   1
_chemical_formula_structural   VH24C4N4Cl7
_chemical_formula_sum   'V4 H96 C16 N16 Cl28'
_cell_volume   1885.21295222
_cell_formula_units_Z   4
loop_
 _symmetry_equiv_pos_site_id
 _symmetry_equiv_pos_as_xyz
  1  'x, y, z'
loop_
 _atom_site_type_symbol
 _atom_site_label
 _atom_site_symmetry_multiplicity
 _atom_site_fract_x
 _atom_site_fract_y
 _atom_site_fract_z
 _atom_site_occupancy
  V  V0  1  0.000000  0.000000  0.000000  1
  V  V1  1  0.500000  0.000000  0.500000  1
  V  V2  1  0.500000  0.000000  0.000000  1
  V  V3  1  0.000000  0.000000  0.500000  1
  H  H4  1  0.123454  0.433053  0.155216  1
  H  H5  1  0.876546  0.566947  0.844784  1
  H  H6  1  0.376546  0.433053  0.344784  1
  H  H7  1  0.623454  0.566947  0.655216  1
  H  H8  1  0.028391  0.434129  0.085484  1
  H  H9  1  0.971609  0.565871  0.914516  1
  H  H10  1  0.471609  0.434129  0.414516  1
  H  H11  1  0.528391  0.565871  0.585484  1
  H  H12  1  0.079229  0.626786  0.119811  1
  H  H13  1  0.920771  0.373214  0.880189  1
  H  H14  1  0.420771  0.626786  0.380189  1
  H  H15  1  0.579229  0.373214  0.619811  1
  H  H16  1  0.671913  0.133275  0.882216  1
  H  H17  1  0.328087  0.866725  0.117784  1
  H  H18  1  0.828087  0.133275  0.617784  1
  H  H19  1  0.171913  0.866725  0.382216  1
  H  H20  1  0.756773  0.056291  0.953101  1
  H  H21  1  0.243227  0.943709  0.046899  1
  H  H22  1  0.743227  0.056291  0.546899  1
  H  H23  1  0.256773  0.943709  0.453101  1
  H  H24  1  0.767765  0.137975  0.859756  1
  H  H25  1  0.232235  0.862025  0.140244  1
  H  H26  1  0.732235  0.137975  0.640244  1
  H  H27  1  0.267765  0.862025  0.359756  1
  H  H28  1  0.646179  0.442288  0.118613  1
  H  H29  1  0.353821  0.557712  0.881387  1
  H  H30  1  0.853821  0.442288  0.381387  1
  H  H31  1  0.146179  0.557712  0.618613  1
  H  H32  1  0.581608  0.476208  0.023426  1
  H  H33  1  0.418392  0.523792  0.976574  1
  H  H34  1  0.918392  0.476208  0.476574  1
  H  H35  1  0.081608  0.523792  0.523426  1
  H  H36  1  0.633679  0.649999  0.079302  1
  H  H37  1  0.366321  0.350001  0.920698  1
  H  H38  1  0.866321  0.649999  0.420698  1
  H  H39  1  0.133679  0.350001  0.579302  1
  H  H40  1  0.621593  0.866917  0.219616  1
  H  H41  1  0.378407  0.133083  0.780384  1
  H  H42  1  0.878407  0.866917  0.280384  1
  H  H43  1  0.121593  0.133083  0.719616  1
  H  H44  1  0.640104  0.842203  0.323890  1
  H  H45  1  0.359896  0.157797  0.676110  1
  H  H46  1  0.859896  0.842203  0.176110  1
  H  H47  1  0.140104  0.157797  0.823890  1
  H  H48  1  0.547274  0.927615  0.271693  1
  H  H49  1  0.452726  0.072385  0.728307  1
  H  H50  1  0.952726  0.927615  0.228307  1
  H  H51  1  0.047274  0.072385  0.771693  1
  H  H52  1  0.971482  0.402391  0.197480  1
  H  H53  1  0.028518  0.597609  0.802520  1
  H  H54  1  0.528518  0.402391  0.302520  1
  H  H55  1  0.471482  0.597609  0.697480  1
  H  H56  1  0.068931  0.470851  0.268874  1
  H  H57  1  0.931069  0.529149  0.731126  1
  H  H58  1  0.431069  0.470851  0.231126  1
  H  H59  1  0.568931  0.529149  0.768874  1
  H  H60  1  0.996838  0.637310  0.213619  1
  H  H61  1  0.003162  0.362690  0.786381  1
  H  H62  1  0.503162  0.637310  0.286381  1
  H  H63  1  0.496838  0.362690  0.713619  1
  H  H64  1  0.703322  0.785866  0.901452  1
  H  H65  1  0.296678  0.214134  0.098548  1
  H  H66  1  0.796678  0.785866  0.598548  1
  H  H67  1  0.203322  0.214134  0.401452  1
  H  H68  1  0.767658  0.837457  0.828429  1
  H  H69  1  0.232342  0.162543  0.171571  1
  H  H70  1  0.732342  0.837457  0.671571  1
  H  H71  1  0.267658  0.162543  0.328429  1
  H  H72  1  0.654522  0.882225  0.800830  1
  H  H73  1  0.345478  0.117775  0.199170  1
  H  H74  1  0.845478  0.882225  0.699170  1
  H  H75  1  0.154522  0.117775  0.300830  1
  H  H76  1  0.769984  0.481620  0.072582  1
  H  H77  1  0.230016  0.518380  0.927418  1
  H  H78  1  0.730016  0.481620  0.427418  1
  H  H79  1  0.269984  0.518380  0.572582  1
  H  H80  1  0.713250  0.600843  0.980972  1
  H  H81  1  0.286750  0.399157  0.019028  1
  H  H82  1  0.786750  0.600843  0.519028  1
  H  H83  1  0.213250  0.399157  0.480972  1
  H  H84  1  0.700381  0.361053  0.987251  1
  H  H85  1  0.299619  0.638947  0.012749  1
  H  H86  1  0.799619  0.361053  0.512749  1
  H  H87  1  0.200381  0.638947  0.487251  1
  H  H88  1  0.652599  0.164340  0.224381  1
  H  H89  1  0.347401  0.835660  0.775619  1
  H  H90  1  0.847401  0.164340  0.275619  1
  H  H91  1  0.152599  0.835660  0.724381  1
  H  H92  1  0.605066  0.196065  0.312970  1
  H  H93  1  0.394934  0.803935  0.687030  1
  H  H94  1  0.894934  0.196065  0.187030  1
  H  H95  1  0.105066  0.803935  0.812970  1
  H  H96  1  0.710432  0.106753  0.330455  1
  H  H97  1  0.289568  0.893247  0.669545  1
  H  H98  1  0.789568  0.106753  0.169545  1
  H  H99  1  0.210432  0.893247  0.830455  1
  C  C100  1  0.022684  0.502052  0.209997  1
  C  C101  1  0.977316  0.497948  0.790003  1
  C  C102  1  0.477316  0.502052  0.290003  1
  C  C103  1  0.522684  0.497948  0.709997  1
  C  C104  1  0.712445  0.877743  0.851864  1
  C  C105  1  0.287555  0.122257  0.148136  1
  C  C106  1  0.787555  0.877743  0.648136  1
  C  C107  1  0.212445  0.122257  0.351864  1
  C  C108  1  0.711154  0.487117  0.023179  1
  C  C109  1  0.288846  0.512883  0.976821  1
  C  C110  1  0.788846  0.487117  0.476821  1
  C  C111  1  0.211154  0.512883  0.523179  1
  C  C112  1  0.648042  0.112942  0.286211  1
  C  C113  1  0.351958  0.887058  0.713789  1
  C  C114  1  0.851958  0.112942  0.213789  1
  C  C115  1  0.148042  0.887058  0.786211  1
  N  N116  1  0.065651  0.498779  0.138116  1
  N  N117  1  0.934349  0.501221  0.861884  1
  N  N118  1  0.434349  0.498779  0.361884  1
  N  N119  1  0.565651  0.501221  0.638116  1
  N  N120  1  0.728344  0.062937  0.889055  1
  N  N121  1  0.271656  0.937063  0.110945  1
  N  N122  1  0.771656  0.062937  0.610945  1
  N  N123  1  0.228344  0.937063  0.389055  1
  N  N124  1  0.638396  0.515051  0.063270  1
  N  N125  1  0.361604  0.484949  0.936730  1
  N  N126  1  0.861604  0.515051  0.436730  1
  N  N127  1  0.138396  0.484949  0.563270  1
  N  N128  1  0.611919  0.925729  0.274274  1
  N  N129  1  0.388081  0.074271  0.725726  1
  N  N130  1  0.888081  0.925729  0.225726  1
  N  N131  1  0.111919  0.074271  0.774274  1
  Cl  Cl132  1  0.899493  0.780277  0.026060  1
  Cl  Cl133  1  0.100507  0.219723  0.973940  1
  Cl  Cl134  1  0.600507  0.780277  0.473940  1
  Cl  Cl135  1  0.399493  0.219723  0.526060  1
  Cl  Cl136  1  0.936442  0.989422  0.849191  1
  Cl  Cl137  1  0.063558  0.010578  0.150809  1
  Cl  Cl138  1  0.563558  0.989422  0.650809  1
  Cl  Cl139  1  0.436442  0.010578  0.349191  1
  Cl  Cl140  1  0.904703  0.241336  0.015725  1
  Cl  Cl141  1  0.095297  0.758664  0.984275  1
  Cl  Cl142  1  0.595297  0.241336  0.484275  1
  Cl  Cl143  1  0.404703  0.758664  0.515725  1
  Cl  Cl144  1  0.348864  0.019662  0.936459  1
  Cl  Cl145  1  0.651136  0.980338  0.063541  1
  Cl  Cl146  1  0.151136  0.019662  0.563541  1
  Cl  Cl147  1  0.848864  0.980338  0.436459  1
  Cl  Cl148  1  0.471038  0.781102  0.101479  1
  Cl  Cl149  1  0.528962  0.218898  0.898521  1
  Cl  Cl150  1  0.028962  0.781102  0.398521  1
  Cl  Cl151  1  0.971038  0.218898  0.601479  1
  Cl  Cl152  1  0.512850  0.759217  0.906150  1
  Cl  Cl153  1  0.487150  0.240783  0.093850  1
  Cl  Cl154  1  0.987150  0.759217  0.593850  1
  Cl  Cl155  1  0.012850  0.240783  0.406150  1
  Cl  Cl156  1  0.750000  0.613435  0.250000  1
  Cl  Cl157  1  0.250000  0.386565  0.750000  1
  Cl  Cl158  1  0.250000  0.619833  0.250000  1
  Cl  Cl159  1  0.750000  0.380167  0.750000  1
