# generated using pymatgen
data_NaTi2O4
_symmetry_space_group_name_H-M   'P 1'
_cell_length_a   6.16480501
_cell_length_b   6.16494104
_cell_length_c   6.16481172
_cell_angle_alpha   59.99671126
_cell_angle_beta   59.99550651
_cell_angle_gamma   59.99668857
_symmetry_Int_Tables_number   1
_chemical_formula_structural   NaTi2O4
_chemical_formula_sum   'Na2 Ti4 O8'
_cell_volume   165.65962650
_cell_formula_units_Z   2
loop_
 _symmetry_equiv_pos_site_id
 _symmetry_equiv_pos_as_xyz
  1  'x, y, z'
loop_
 _atom_site_type_symbol
 _atom_site_label
 _atom_site_symmetry_multiplicity
 _atom_site_fract_x
 _atom_site_fract_y
 _atom_site_fract_z
 _atom_site_occupancy
  Na  Na0  1  0.124995  0.125004  0.124995  1
  Na  Na1  1  0.875007  0.874998  0.875005  1
  Ti  Ti2  1  0.500002  0.499999  -0.000001  1
  Ti  Ti3  1  0.500000  0.999999  0.500000  1
  Ti  Ti4  1  0.999999  0.500001  0.500002  1
  Ti  Ti5  1  0.500000  0.499999  0.500000  1
  O  O6  1  0.695108  0.268290  0.268290  1
  O  O7  1  0.268296  0.268295  0.268293  1
  O  O8  1  0.268290  0.695109  0.268290  1
  O  O9  1  0.268290  0.268288  0.695106  1
  O  O10  1  0.731711  0.304890  0.731712  1
  O  O11  1  0.731710  0.731713  0.304890  1
  O  O12  1  0.304892  0.731711  0.731711  1
  O  O13  1  0.731701  0.731704  0.731706  1
