# generated using pymatgen
data_Hf2N2O
_symmetry_space_group_name_H-M   'P 1'
_cell_length_a   8.74780747
_cell_length_b   8.70763685
_cell_length_c   8.73707941
_cell_angle_alpha   109.32722371
_cell_angle_beta   109.56865186
_cell_angle_gamma   109.52184959
_symmetry_Int_Tables_number   1
_chemical_formula_structural   Hf2N2O
_chemical_formula_sum   'Hf16 N16 O8'
_cell_volume   512.29546479
_cell_formula_units_Z   8
loop_
 _symmetry_equiv_pos_site_id
 _symmetry_equiv_pos_as_xyz
  1  'x, y, z'
loop_
 _atom_site_type_symbol
 _atom_site_label
 _atom_site_symmetry_multiplicity
 _atom_site_fract_x
 _atom_site_fract_y
 _atom_site_fract_z
 _atom_site_occupancy
  Hf  Hf0  1  0.496300  0.988609  0.987184  1
  Hf  Hf1  1  0.757205  0.292574  0.544953  1
  Hf  Hf2  1  0.210684  0.955267  0.249640  1
  Hf  Hf3  1  0.719783  0.464823  0.250270  1
  Hf  Hf4  1  0.251453  0.214375  0.958184  1
  Hf  Hf5  1  0.467521  0.248997  0.722025  1
  Hf  Hf6  1  0.995989  0.507410  0.995430  1
  Hf  Hf7  1  0.967516  0.260008  0.217179  1
  Hf  Hf8  1  0.016081  0.008081  0.516642  1
  Hf  Hf9  1  0.502147  0.508755  0.512193  1
  Hf  Hf10  1  0.027937  0.742599  0.776707  1
  Hf  Hf11  1  0.528143  0.750624  0.283326  1
  Hf  Hf12  1  0.742457  0.783113  0.027870  1
  Hf  Hf13  1  0.778815  0.028118  0.750666  1
  Hf  Hf14  1  0.285461  0.536741  0.749533  1
  Hf  Hf15  1  0.249846  0.713305  0.464489  1
  N  N16  1  0.731953  0.993213  0.959120  1
  N  N17  1  0.511691  0.240671  0.972678  1
  N  N18  1  0.767778  0.538634  0.527402  1
  N  N19  1  0.726219  0.254530  0.766635  1
  N  N20  1  0.235542  0.967782  0.508058  1
  N  N21  1  0.491797  0.762994  0.035997  1
  N  N22  1  0.273139  0.739688  0.225766  1
  N  N23  1  0.960598  0.506571  0.234645  1
  N  N24  1  0.226597  0.447698  0.460996  1
  N  N25  1  0.548968  0.532818  0.771135  1
  N  N26  1  0.958265  0.732386  0.992200  1
  N  N27  1  0.536735  0.772278  0.543736  1
  N  N28  1  0.990503  0.959307  0.730804  1
  N  N29  1  0.226147  0.272768  0.741070  1
  N  N30  1  0.031796  0.484178  0.758812  1
  N  N31  1  0.262007  0.776876  0.728670  1
  O  O32  1  0.278803  0.016474  0.053728  1
  O  O33  1  0.759235  0.031865  0.476336  1
  O  O34  1  0.741294  0.224961  0.276422  1
  O  O35  1  0.004319  0.042416  0.274774  1
  O  O36  1  0.450579  0.469902  0.222249  1
  O  O37  1  0.771489  0.726736  0.264685  1
  O  O38  1  0.461347  0.224009  0.446014  1
  O  O39  1  0.055860  0.277849  0.021778  1
