# generated using pymatgen
data_LiAgF4
_symmetry_space_group_name_H-M   'P 1'
_cell_length_a   7.81345911
_cell_length_b   5.21605508
_cell_length_c   7.79004404
_cell_angle_alpha   90.00000000
_cell_angle_beta   77.40613772
_cell_angle_gamma   90.00000000
_symmetry_Int_Tables_number   1
_chemical_formula_structural   LiAgF4
_chemical_formula_sum   'Li4 Ag4 F16'
_cell_volume   309.84793047
_cell_formula_units_Z   4
loop_
 _symmetry_equiv_pos_site_id
 _symmetry_equiv_pos_as_xyz
  1  'x, y, z'
loop_
 _atom_site_type_symbol
 _atom_site_label
 _atom_site_symmetry_multiplicity
 _atom_site_fract_x
 _atom_site_fract_y
 _atom_site_fract_z
 _atom_site_occupancy
  Li  Li0  1  0.355329  0.254894  0.329402  1
  Li  Li1  1  0.355329  0.245106  0.829402  1
  Li  Li2  1  0.644671  0.754894  0.170598  1
  Li  Li3  1  0.644671  0.745106  0.670598  1
  Ag  Ag4  1  0.188613  0.754809  0.175719  1
  Ag  Ag5  1  0.188613  0.745191  0.675719  1
  Ag  Ag6  1  0.811387  0.254809  0.324281  1
  Ag  Ag7  1  0.811387  0.245191  0.824281  1
  F  F8  1  0.056047  0.441258  0.300359  1
  F  F9  1  0.056047  0.058742  0.800359  1
  F  F10  1  0.195931  0.921658  0.425537  1
  F  F11  1  0.309852  0.087820  0.074919  1
  F  F12  1  0.195931  0.578342  0.925537  1
  F  F13  1  0.309852  0.412180  0.574919  1
  F  F14  1  0.421993  0.573406  0.193709  1
  F  F15  1  0.421993  0.926594  0.693709  1
  F  F16  1  0.578007  0.073406  0.306291  1
  F  F17  1  0.578007  0.426594  0.806291  1
  F  F18  1  0.690148  0.587820  0.425081  1
  F  F19  1  0.804069  0.421658  0.074463  1
  F  F20  1  0.690148  0.912180  0.925081  1
  F  F21  1  0.804069  0.078342  0.574463  1
  F  F22  1  0.943953  0.941258  0.199641  1
  F  F23  1  0.943953  0.558742  0.699641  1
