# generated using pymatgen
data_Li2Ni4OF8
_symmetry_space_group_name_H-M   'P 1'
_cell_length_a   5.15724918
_cell_length_b   5.11588738
_cell_length_c   14.05720074
_cell_angle_alpha   90.03339396
_cell_angle_beta   90.40106480
_cell_angle_gamma   119.74140560
_symmetry_Int_Tables_number   1
_chemical_formula_structural   Li2Ni4OF8
_chemical_formula_sum   'Li4 Ni8 O2 F16'
_cell_volume   322.01713031
_cell_formula_units_Z   2
loop_
 _symmetry_equiv_pos_site_id
 _symmetry_equiv_pos_as_xyz
  1  'x, y, z'
loop_
 _atom_site_type_symbol
 _atom_site_label
 _atom_site_symmetry_multiplicity
 _atom_site_fract_x
 _atom_site_fract_y
 _atom_site_fract_z
 _atom_site_occupancy
  Li  Li0  1  0.002615  0.997187  0.153584  1
  Li  Li1  1  0.019602  0.021427  0.354930  1
  Li  Li2  1  0.003246  0.005286  0.653915  1
  Li  Li3  1  0.016406  0.993448  0.854437  1
  Ni  Ni4  1  0.340803  0.653403  0.319445  1
  Ni  Ni5  1  0.323933  0.669190  0.012366  1
  Ni  Ni6  1  0.338222  0.684159  0.819672  1
  Ni  Ni7  1  0.327265  0.654147  0.512156  1
  Ni  Ni8  1  0.665246  0.329229  0.181343  1
  Ni  Ni9  1  0.647091  0.305318  0.975689  1
  Ni  Ni10  1  0.665573  0.335267  0.681029  1
  Ni  Ni11  1  0.650451  0.341410  0.475479  1
  O  O12  1  0.328451  0.952114  0.918231  1
  O  O13  1  0.332015  0.376218  0.417894  1
  F  F14  1  0.997166  0.688656  0.747287  1
  F  F15  1  0.025291  0.677132  0.416932  1
  F  F16  1  0.999463  0.309481  0.246814  1
  F  F17  1  0.021645  0.344392  0.916348  1
  F  F18  1  0.317295  0.324056  0.747339  1
  F  F19  1  0.356533  0.333415  0.084338  1
  F  F20  1  0.643916  0.984811  0.415021  1
  F  F21  1  0.318068  0.991672  0.247483  1
  F  F22  1  0.359145  0.023368  0.583801  1
  F  F23  1  0.640625  0.655917  0.915450  1
  F  F24  1  0.695901  0.686821  0.247922  1
  F  F25  1  0.669756  0.646257  0.585424  1
  F  F26  1  0.958628  0.627574  0.082528  1
  F  F27  1  0.665845  0.019697  0.085987  1
  F  F28  1  0.691583  0.005308  0.747329  1
  F  F29  1  0.962743  0.331346  0.583127  1
