# generated using pymatgen
data_LiSn2P5O16
_symmetry_space_group_name_H-M   'P 1'
_cell_length_a   7.36983633
_cell_length_b   10.34726731
_cell_length_c   10.69644411
_cell_angle_alpha   90.00000000
_cell_angle_beta   110.42650231
_cell_angle_gamma   90.00000000
_symmetry_Int_Tables_number   1
_chemical_formula_structural   LiSn2P5O16
_chemical_formula_sum   'Li2 Sn4 P10 O32'
_cell_volume   764.39607591
_cell_formula_units_Z   2
loop_
 _symmetry_equiv_pos_site_id
 _symmetry_equiv_pos_as_xyz
  1  'x, y, z'
loop_
 _atom_site_type_symbol
 _atom_site_label
 _atom_site_symmetry_multiplicity
 _atom_site_fract_x
 _atom_site_fract_y
 _atom_site_fract_z
 _atom_site_occupancy
  Li  Li0  1  0.230705  0.809241  0.192504  1
  Li  Li1  1  0.730705  0.190759  0.692504  1
  Sn  Sn2  1  0.146436  0.127661  0.499592  1
  Sn  Sn3  1  0.217227  0.370285  0.134663  1
  Sn  Sn4  1  0.717227  0.629715  0.634663  1
  Sn  Sn5  1  0.646436  0.872339  0.999592  1
  P  P6  1  0.009954  0.857945  0.629534  1
  P  P7  1  0.990135  0.467545  0.497630  1
  P  P8  1  0.319431  0.288326  0.879140  1
  P  P9  1  0.426181  0.871350  0.663385  1
  P  P10  1  0.366206  0.412959  0.465523  1
  P  P11  1  0.866206  0.587041  0.965523  1
  P  P12  1  0.509954  0.142055  0.129534  1
  P  P13  1  0.490135  0.532455  0.997630  1
  P  P14  1  0.819431  0.711674  0.379140  1
  P  P15  1  0.926181  0.128650  0.163385  1
  O  O16  1  0.156883  0.299503  0.937605  1
  O  O17  1  0.235343  0.846356  0.707949  1
  O  O18  1  0.070375  0.059456  0.282186  1
  O  O19  1  0.272479  0.228850  0.745475  1
  O  O20  1  0.219998  0.477411  0.531172  1
  O  O21  1  0.408672  0.430162  0.874837  1
  O  O22  1  0.417619  0.665378  0.956715  1
  O  O23  1  0.495130  0.213187  0.990157  1
  O  O24  1  0.062037  0.527667  0.046998  1
  O  O25  1  0.361320  0.949837  0.535293  1
  O  O26  1  0.384851  0.267816  0.486094  1
  O  O27  1  0.287547  0.458154  0.318428  1
  O  O28  1  0.570375  0.940544  0.782186  1
  O  O29  1  0.485089  0.729844  0.645381  1
  O  O30  1  0.412720  0.224322  0.207114  1
  O  O31  1  0.562037  0.472333  0.546998  1
  O  O32  1  0.884851  0.732184  0.986094  1
  O  O33  1  0.457359  0.470449  0.117834  1
  O  O34  1  0.787547  0.541846  0.818428  1
  O  O35  1  0.656883  0.700497  0.437605  1
  O  O36  1  0.437998  0.005737  0.106715  1
  O  O37  1  0.912720  0.775678  0.707114  1
  O  O38  1  0.735343  0.153644  0.207949  1
  O  O39  1  0.957359  0.529551  0.617834  1
  O  O40  1  0.772479  0.771150  0.245475  1
  O  O41  1  0.719998  0.522589  0.031172  1
  O  O42  1  0.937998  0.994263  0.606715  1
  O  O43  1  0.908672  0.569838  0.374837  1
  O  O44  1  0.917619  0.334622  0.456715  1
  O  O45  1  0.995130  0.786813  0.490157  1
  O  O46  1  0.861320  0.050163  0.035293  1
  O  O47  1  0.985089  0.270156  0.145381  1
