# generated using pymatgen
data_Na2MnPCO7
_symmetry_space_group_name_H-M   'P 1'
_cell_length_a   8.98307974
_cell_length_b   13.36057443
_cell_length_c   5.24550230
_cell_angle_alpha   90.20608431
_cell_angle_beta   88.41208437
_cell_angle_gamma   90.16770711
_symmetry_Int_Tables_number   1
_chemical_formula_structural   Na2MnPCO7
_chemical_formula_sum   'Na8 Mn4 P4 C4 O28'
_cell_volume   629.31214358
_cell_formula_units_Z   4
loop_
 _symmetry_equiv_pos_site_id
 _symmetry_equiv_pos_as_xyz
  1  'x, y, z'
loop_
 _atom_site_type_symbol
 _atom_site_label
 _atom_site_symmetry_multiplicity
 _atom_site_fract_x
 _atom_site_fract_y
 _atom_site_fract_z
 _atom_site_occupancy
  Na  Na0  1  0.250104  0.230562  0.241043  1
  Na  Na1  1  0.238359  0.505086  0.244114  1
  Na  Na2  1  0.249464  0.747609  0.239890  1
  Na  Na3  1  0.760043  0.254403  0.758256  1
  Na  Na4  1  0.761269  0.497824  0.760110  1
  Na  Na5  1  0.751804  0.749625  0.751443  1
  Na  Na6  1  0.748189  0.998543  0.751030  1
  Na  Na7  1  0.934997  0.888062  0.228265  1
  Mn  Mn8  1  0.351518  0.374503  0.783965  1
  Mn  Mn9  1  0.352981  0.879145  0.776730  1
  Mn  Mn10  1  0.647804  0.125792  0.215720  1
  Mn  Mn11  1  0.644060  0.625575  0.227559  1
  P  P12  1  0.423330  0.121496  0.711829  1
  P  P13  1  0.421279  0.629669  0.707654  1
  P  P14  1  0.574805  0.377436  0.286243  1
  P  P15  1  0.579516  0.872209  0.299365  1
  C  C16  1  0.080130  0.374187  0.729368  1
  C  C17  1  0.065610  0.871373  0.719827  1
  C  C18  1  0.925973  0.624782  0.276232  1
  C  C19  1  0.919196  0.126680  0.268771  1
  O  O20  1  0.055366  0.125774  0.287856  1
  O  O21  1  0.065752  0.628309  0.262965  1
  O  O22  1  0.149225  0.374650  0.948612  1
  O  O23  1  0.144668  0.874608  0.928049  1
  O  O24  1  0.134884  0.865835  0.505503  1
  O  O25  1  0.174669  0.373071  0.533559  1
  O  O26  1  0.334841  0.024716  0.765122  1
  O  O27  1  0.327954  0.212670  0.786460  1
  O  O28  1  0.326252  0.538408  0.782543  1
  O  O29  1  0.333799  0.727028  0.773178  1
  O  O30  1  0.465928  0.129098  0.420465  1
  O  O31  1  0.449999  0.627798  0.406913  1
  O  O32  1  0.422844  0.375757  0.149760  1
  O  O33  1  0.433246  0.868402  0.159908  1
  O  O34  1  0.572923  0.122256  0.858485  1
  O  O35  1  0.574371  0.628227  0.836750  1
  O  O36  1  0.541011  0.375683  0.583746  1
  O  O37  1  0.548813  0.876629  0.598625  1
  O  O38  1  0.671622  0.287549  0.210160  1
  O  O39  1  0.662857  0.474204  0.221088  1
  O  O40  1  0.679048  0.777715  0.246426  1
  O  O41  1  0.681717  0.961711  0.226272  1
  O  O42  1  0.821187  0.126980  0.463405  1
  O  O43  1  0.844810  0.622263  0.483866  1
  O  O44  1  0.849856  0.124347  0.047761  1
  O  O45  1  0.846830  0.625400  0.064391  1
  O  O46  1  0.941629  0.374961  0.715245  1
  O  O47  1  0.921911  0.875349  0.745462  1
