# generated using pymatgen
data_Li4Ti2Fe3Sn3O16
_symmetry_space_group_name_H-M   'P 1'
_cell_length_a   6.13145561
_cell_length_b   6.14044105
_cell_length_c   9.70996446
_cell_angle_alpha   89.63674546
_cell_angle_beta   90.25974657
_cell_angle_gamma   119.87793317
_symmetry_Int_Tables_number   1
_chemical_formula_structural   Li4Ti2Fe3Sn3O16
_chemical_formula_sum   'Li4 Ti2 Fe3 Sn3 O16'
_cell_volume   316.98231496
_cell_formula_units_Z   1
loop_
 _symmetry_equiv_pos_site_id
 _symmetry_equiv_pos_as_xyz
  1  'x, y, z'
loop_
 _atom_site_type_symbol
 _atom_site_label
 _atom_site_symmetry_multiplicity
 _atom_site_fract_x
 _atom_site_fract_y
 _atom_site_fract_z
 _atom_site_occupancy
  Li  Li0  1  0.347610  0.676514  0.893971  1
  Li  Li1  1  0.978474  0.987655  0.987905  1
  Li  Li2  1  0.984221  0.994472  0.500887  1
  Li  Li3  1  0.664362  0.332970  0.398766  1
  Ti  Ti4  1  0.348594  0.668775  0.501321  1
  Ti  Ti5  1  0.699538  0.344390  0.977559  1
  Fe  Fe6  1  0.654823  0.826218  0.217553  1
  Fe  Fe7  1  0.832377  0.657811  0.715649  1
  Fe  Fe8  1  0.832379  0.171703  0.710059  1
  Sn  Sn9  1  0.166766  0.829326  0.212983  1
  Sn  Sn10  1  0.168257  0.337944  0.213498  1
  Sn  Sn11  1  0.344162  0.170400  0.713930  1
  O  O12  1  0.170943  0.829934  0.593349  1
  O  O13  1  0.030318  0.513374  0.340742  1
  O  O14  1  0.340715  0.670931  0.099343  1
  O  O15  1  0.986871  0.993381  0.314169  1
  O  O16  1  0.997219  0.992926  0.802369  1
  O  O17  1  0.184395  0.344327  0.587756  1
  O  O18  1  0.478671  0.955925  0.343420  1
  O  O19  1  0.479044  0.522524  0.343966  1
  O  O20  1  0.316587  0.160838  0.095206  1
  O  O21  1  0.650363  0.813374  0.590487  1
  O  O22  1  0.529164  0.485731  0.845436  1
  O  O23  1  0.517990  0.047617  0.856764  1
  O  O24  1  0.675884  0.344634  0.603599  1
  O  O25  1  0.825876  0.664287  0.096876  1
  O  O26  1  0.965215  0.495843  0.856518  1
  O  O27  1  0.829182  0.166473  0.093758  1
