# generated using pymatgen
data_Na3Fe2(PO4)3
_symmetry_space_group_name_H-M   'P 1'
_cell_length_a   8.84505857
_cell_length_b   9.08728009
_cell_length_c   8.84505881
_cell_angle_alpha   119.12211077
_cell_angle_beta   59.99999711
_cell_angle_gamma   119.12211170
_symmetry_Int_Tables_number   1
_chemical_formula_structural   Na3Fe2(PO4)3
_chemical_formula_sum   'Na6 Fe4 P6 O24'
_cell_volume   509.28095835
_cell_formula_units_Z   2
loop_
 _symmetry_equiv_pos_site_id
 _symmetry_equiv_pos_as_xyz
  1  'x, y, z'
loop_
 _atom_site_type_symbol
 _atom_site_label
 _atom_site_symmetry_multiplicity
 _atom_site_fract_x
 _atom_site_fract_y
 _atom_site_fract_z
 _atom_site_occupancy
  Na  Na0  1  0.249871  0.818434  0.658981  1
  Na  Na1  1  0.341019  0.181566  0.090419  1
  Na  Na2  1  0.090419  0.181566  0.750129  1
  Na  Na3  1  0.909581  0.818434  0.249871  1
  Na  Na4  1  0.658981  0.818434  0.909581  1
  Na  Na5  1  0.750129  0.181566  0.341019  1
  Fe  Fe6  1  0.148533  0.445597  0.148533  1
  Fe  Fe7  1  0.350335  0.051007  0.350335  1
  Fe  Fe8  1  0.649665  0.948993  0.649665  1
  Fe  Fe9  1  0.851467  0.554403  0.851467  1
  P  P10  1  0.036930  0.252987  0.464936  1
  P  P11  1  0.535064  0.747013  0.248879  1
  P  P12  1  0.248879  0.747013  0.963070  1
  P  P13  1  0.751121  0.252987  0.036930  1
  P  P14  1  0.464936  0.252987  0.751121  1
  P  P15  1  0.963070  0.747013  0.535064  1
  O  O16  1  0.238998  0.905032  0.149708  1
  O  O17  1  0.149708  0.905032  0.516326  1
  O  O18  1  0.012302  0.422920  0.627882  1
  O  O19  1  0.086054  0.271604  0.278700  1
  O  O20  1  0.516326  0.905032  0.238998  1
  O  O21  1  0.093149  0.728396  0.913946  1
  O  O22  1  0.372118  0.577080  0.217264  1
  O  O23  1  0.187045  0.205207  0.457419  1
  O  O24  1  0.542581  0.794793  0.439258  1
  O  O25  1  0.217264  0.577080  0.987698  1
  O  O26  1  0.721300  0.728396  0.093149  1
  O  O27  1  0.439258  0.794793  0.812955  1
  O  O28  1  0.560742  0.205207  0.187045  1
  O  O29  1  0.278700  0.271604  0.906851  1
  O  O30  1  0.782736  0.422920  0.012302  1
  O  O31  1  0.457419  0.205207  0.560742  1
  O  O32  1  0.812955  0.794793  0.542581  1
  O  O33  1  0.627882  0.422920  0.782736  1
  O  O34  1  0.906851  0.271604  0.086054  1
  O  O35  1  0.483674  0.094968  0.761002  1
  O  O36  1  0.913946  0.728396  0.721300  1
  O  O37  1  0.987698  0.577080  0.372118  1
  O  O38  1  0.850292  0.094968  0.483674  1
  O  O39  1  0.761002  0.094968  0.850292  1
