# generated using pymatgen
data_FeOF
_symmetry_space_group_name_H-M   'P 1'
_cell_length_a   14.22311565
_cell_length_b   14.26320650
_cell_length_c   3.10301293
_cell_angle_alpha   90.00000000
_cell_angle_beta   90.00000000
_cell_angle_gamma   90.23198807
_symmetry_Int_Tables_number   1
_chemical_formula_structural   FeOF
_chemical_formula_sum   'Fe18 O18 F18'
_cell_volume   629.49449536
_cell_formula_units_Z   18
loop_
 _symmetry_equiv_pos_site_id
 _symmetry_equiv_pos_as_xyz
  1  'x, y, z'
loop_
 _atom_site_type_symbol
 _atom_site_label
 _atom_site_symmetry_multiplicity
 _atom_site_fract_x
 _atom_site_fract_y
 _atom_site_fract_z
 _atom_site_occupancy
  Fe  Fe0  1  0.012153  0.996057  0.000000  1
  Fe  Fe1  1  0.007930  0.326614  0.000000  1
  Fe  Fe2  1  0.006079  0.670151  0.000000  1
  Fe  Fe3  1  0.154243  0.163480  0.500000  1
  Fe  Fe4  1  0.166192  0.520592  0.500000  1
  Fe  Fe5  1  0.153243  0.829838  0.500000  1
  Fe  Fe6  1  0.345305  0.995921  0.000000  1
  Fe  Fe7  1  0.343429  0.334535  0.000000  1
  Fe  Fe8  1  0.336580  0.655706  0.000000  1
  Fe  Fe9  1  0.487047  0.499999  0.500000  1
  Fe  Fe10  1  0.482514  0.167720  0.500000  1
  Fe  Fe11  1  0.504349  0.847319  0.500000  1
  Fe  Fe12  1  0.667384  0.997878  0.000000  1
  Fe  Fe13  1  0.679882  0.331253  0.000000  1
  Fe  Fe14  1  0.680301  0.666369  0.000000  1
  Fe  Fe15  1  0.816393  0.159975  0.500000  1
  Fe  Fe16  1  0.819883  0.499608  0.500000  1
  Fe  Fe17  1  0.838180  0.813501  0.500000  1
  O  O18  1  0.065026  0.270312  0.500000  1
  O  O19  1  0.062363  0.600451  0.500000  1
  O  O20  1  0.064052  0.935526  0.500000  1
  O  O21  1  0.100689  0.102763  0.000000  1
  O  O22  1  0.106414  0.768008  0.000000  1
  O  O23  1  0.233469  0.567412  0.000000  1
  O  O24  1  0.395726  0.270563  0.500000  1
  O  O25  1  0.402832  0.607021  0.500000  1
  O  O26  1  0.397676  0.932732  0.500000  1
  O  O27  1  0.434722  0.101355  0.000000  1
  O  O28  1  0.434075  0.436892  0.000000  1
  O  O29  1  0.570757  0.902256  0.000000  1
  O  O30  1  0.731198  0.265790  0.500000  1
  O  O31  1  0.731223  0.602843  0.500000  1
  O  O32  1  0.764000  0.095368  0.000000  1
  O  O33  1  0.768820  0.433856  0.000000  1
  O  O34  1  0.765747  0.771887  0.000000  1
  O  O35  1  0.937378  0.729284  0.500000  1
  F  F36  1  0.099385  0.435215  0.000000  1
  F  F37  1  0.231479  0.231996  0.000000  1
  F  F38  1  0.232528  0.902175  0.000000  1
  F  F39  1  0.268031  0.066309  0.500000  1
  F  F40  1  0.273853  0.737484  0.500000  1
  F  F41  1  0.263110  0.396737  0.500000  1
  F  F42  1  0.438219  0.771727  0.000000  1
  F  F43  1  0.564330  0.232932  0.000000  1
  F  F44  1  0.566881  0.564813  0.000000  1
  F  F45  1  0.602059  0.067883  0.500000  1
  F  F46  1  0.601261  0.398152  0.500000  1
  F  F47  1  0.597014  0.731062  0.500000  1
  F  F48  1  0.734459  0.936164  0.500000  1
  F  F49  1  0.896823  0.230043  0.000000  1
  F  F50  1  0.897436  0.559619  0.000000  1
  F  F51  1  0.897164  0.902332  0.000000  1
  F  F52  1  0.932275  0.067549  0.500000  1
  F  F53  1  0.936436  0.396973  0.500000  1
