# generated using pymatgen
data_Li2Fe3(P2O7)2
_symmetry_space_group_name_H-M   'P 1'
_cell_length_a   5.29361433
_cell_length_b   6.60912726
_cell_length_c   16.03158138
_cell_angle_alpha   81.54987948
_cell_angle_beta   82.37726398
_cell_angle_gamma   72.01886551
_symmetry_Int_Tables_number   1
_chemical_formula_structural   Li2Fe3(P2O7)2
_chemical_formula_sum   'Li4 Fe6 P8 O28'
_cell_volume   525.42168440
_cell_formula_units_Z   2
loop_
 _symmetry_equiv_pos_site_id
 _symmetry_equiv_pos_as_xyz
  1  'x, y, z'
loop_
 _atom_site_type_symbol
 _atom_site_label
 _atom_site_symmetry_multiplicity
 _atom_site_fract_x
 _atom_site_fract_y
 _atom_site_fract_z
 _atom_site_occupancy
  Li  Li0  1  0.068100  0.233459  0.991002  1
  Li  Li1  1  0.362551  0.696387  0.120443  1
  Li  Li2  1  0.637449  0.303613  0.879557  1
  Li  Li3  1  0.931900  0.766541  0.008998  1
  Fe  Fe4  1  0.162374  0.288190  0.576086  1
  Fe  Fe5  1  0.034995  0.623965  0.812146  1
  Fe  Fe6  1  0.253143  0.970733  0.333165  1
  Fe  Fe7  1  0.746857  0.029267  0.666835  1
  Fe  Fe8  1  0.965005  0.376035  0.187854  1
  Fe  Fe9  1  0.837626  0.711810  0.423914  1
  P  P10  1  0.165662  0.093430  0.788430  1
  P  P11  1  0.368518  0.442546  0.318393  1
  P  P12  1  0.563459  0.248044  0.074552  1
  P  P13  1  0.281038  0.781984  0.538411  1
  P  P14  1  0.718962  0.218016  0.461589  1
  P  P15  1  0.436541  0.751956  0.925448  1
  P  P16  1  0.631482  0.557454  0.681607  1
  P  P17  1  0.834338  0.906570  0.211570  1
  O  O18  1  0.029410  0.032525  0.221115  1
  O  O19  1  0.256172  0.328708  0.076846  1
  O  O20  1  0.216051  0.303304  0.290433  1
  O  O21  1  0.022927  0.284280  0.839656  1
  O  O22  1  0.180750  0.659849  0.340574  1
  O  O23  1  0.136603  0.615829  0.534342  1
  O  O24  1  0.329534  0.142294  0.706389  1
  O  O25  1  0.606192  0.060822  0.153542  1
  O  O26  1  0.106918  0.975310  0.581283  1
  O  O27  1  0.707846  0.142856  0.995162  1
  O  O28  1  0.463622  0.320553  0.408437  1
  O  O29  1  0.314843  0.579167  0.909502  1
  O  O30  1  0.574409  0.158770  0.548207  1
  O  O31  1  0.602454  0.468996  0.257489  1
  O  O32  1  0.397546  0.531004  0.742511  1
  O  O33  1  0.425591  0.841230  0.451793  1
  O  O34  1  0.685157  0.420833  0.090498  1
  O  O35  1  0.536378  0.679447  0.591563  1
  O  O36  1  0.292154  0.857144  0.004838  1
  O  O37  1  0.893082  0.024690  0.418717  1
  O  O38  1  0.393808  0.939178  0.846458  1
  O  O39  1  0.670466  0.857706  0.293611  1
  O  O40  1  0.863397  0.384171  0.465658  1
  O  O41  1  0.819250  0.340151  0.659426  1
  O  O42  1  0.977073  0.715720  0.160344  1
  O  O43  1  0.783949  0.696696  0.709567  1
  O  O44  1  0.743828  0.671292  0.923154  1
  O  O45  1  0.970590  0.967475  0.778885  1
