# generated using pymatgen
data_V9Sb7O32
_symmetry_space_group_name_H-M   'P 1'
_cell_length_a   4.66774017
_cell_length_b   15.34063166
_cell_length_c   7.80794259
_cell_angle_alpha   102.43390918
_cell_angle_beta   89.98519241
_cell_angle_gamma   90.12029257
_symmetry_Int_Tables_number   1
_chemical_formula_structural   V9Sb7O32
_chemical_formula_sum   'V9 Sb7 O32'
_cell_volume   545.98137939
_cell_formula_units_Z   1
loop_
 _symmetry_equiv_pos_site_id
 _symmetry_equiv_pos_as_xyz
  1  'x, y, z'
loop_
 _atom_site_type_symbol
 _atom_site_label
 _atom_site_symmetry_multiplicity
 _atom_site_fract_x
 _atom_site_fract_y
 _atom_site_fract_z
 _atom_site_occupancy
  V  V0  1  0.494535  0.311786  0.437067  1
  V  V1  1  0.505465  0.188214  0.062933  1
  V  V2  1  0.503920  0.561032  0.187667  1
  V  V3  1  0.496080  0.938968  0.312333  1
  V  V4  1  0.000000  0.250000  0.750000  1
  V  V5  1  0.007958  0.621081  0.875499  1
  V  V6  1  0.004386  0.496740  0.499273  1
  V  V7  1  0.992042  0.878919  0.624501  1
  V  V8  1  0.995614  0.003260  0.000727  1
  Sb  Sb9  1  0.495409  0.062612  0.691392  1
  Sb  Sb10  1  0.504591  0.437388  0.808608  1
  Sb  Sb11  1  0.499987  0.817205  0.936611  1
  Sb  Sb12  1  0.500013  0.682795  0.563389  1
  Sb  Sb13  1  0.997277  0.127347  0.371013  1
  Sb  Sb14  1  0.002723  0.372653  0.128987  1
  Sb  Sb15  1  0.000000  0.750000  0.250000  1
  O  O16  1  0.803465  0.136875  0.608544  1
  O  O17  1  0.802724  0.391549  0.364185  1
  O  O18  1  0.810117  0.013671  0.235084  1
  O  O19  1  0.808539  0.264521  0.988391  1
  O  O20  1  0.811227  0.639613  0.115222  1
  O  O21  1  0.804785  0.512928  0.728451  1
  O  O22  1  0.808899  0.890848  0.865228  1
  O  O23  1  0.799339  0.762200  0.484840  1
  O  O24  1  0.699778  0.449692  0.045566  1
  O  O25  1  0.708739  0.073122  0.922594  1
  O  O26  1  0.687370  0.952952  0.552460  1
  O  O27  1  0.701483  0.575131  0.428145  1
  O  O28  1  0.695037  0.702429  0.801299  1
  O  O29  1  0.693602  0.825786  0.170492  1
  O  O30  1  0.690207  0.326600  0.674703  1
  O  O31  1  0.694397  0.200860  0.296345  1
  O  O32  1  0.309793  0.173400  0.825297  1
  O  O33  1  0.291261  0.426878  0.577406  1
  O  O34  1  0.298517  0.924869  0.071855  1
  O  O35  1  0.312630  0.547048  0.947540  1
  O  O36  1  0.304963  0.797571  0.698701  1
  O  O37  1  0.305603  0.299140  0.203655  1
  O  O38  1  0.306398  0.674214  0.329508  1
  O  O39  1  0.300222  0.050308  0.454434  1
  O  O40  1  0.197276  0.108451  0.135815  1
  O  O41  1  0.191101  0.609152  0.634772  1
  O  O42  1  0.196535  0.363125  0.891456  1
  O  O43  1  0.188773  0.860387  0.384778  1
  O  O44  1  0.191461  0.235479  0.511609  1
  O  O45  1  0.200661  0.737800  0.015160  1
  O  O46  1  0.195215  0.987072  0.771549  1
  O  O47  1  0.189883  0.486329  0.264916  1
