# generated using pymatgen
data_K2SbPCO7
_symmetry_space_group_name_H-M   'P 1'
_cell_length_a   9.94011255
_cell_length_b   7.01048191
_cell_length_c   6.06035643
_cell_angle_alpha   90.00000000
_cell_angle_beta   97.03937593
_cell_angle_gamma   90.00000000
_symmetry_Int_Tables_number   1
_chemical_formula_structural   K2SbPCO7
_chemical_formula_sum   'K4 Sb2 P2 C2 O14'
_cell_volume   419.13246449
_cell_formula_units_Z   2
loop_
 _symmetry_equiv_pos_site_id
 _symmetry_equiv_pos_as_xyz
  1  'x, y, z'
loop_
 _atom_site_type_symbol
 _atom_site_label
 _atom_site_symmetry_multiplicity
 _atom_site_fract_x
 _atom_site_fract_y
 _atom_site_fract_z
 _atom_site_occupancy
  K  K0  1  0.223967  0.010894  0.248346  1
  K  K1  1  0.223967  0.489106  0.248346  1
  K  K2  1  0.776033  0.510894  0.751654  1
  K  K3  1  0.776033  0.989106  0.751654  1
  Sb  Sb4  1  0.379428  0.750000  0.809482  1
  Sb  Sb5  1  0.620572  0.250000  0.190518  1
  P  P6  1  0.409268  0.250000  0.743324  1
  P  P7  1  0.590732  0.750000  0.256676  1
  C  C8  1  0.105369  0.750000  0.718524  1
  C  C9  1  0.894631  0.250000  0.281476  1
  O  O10  1  0.020035  0.250000  0.282779  1
  O  O11  1  0.187620  0.750000  0.915028  1
  O  O12  1  0.171835  0.750000  0.546004  1
  O  O13  1  0.343617  0.070412  0.841384  1
  O  O14  1  0.343617  0.429588  0.841384  1
  O  O15  1  0.432681  0.750000  0.159447  1
  O  O16  1  0.398044  0.250000  0.490936  1
  O  O17  1  0.601956  0.750000  0.509064  1
  O  O18  1  0.567319  0.250000  0.840553  1
  O  O19  1  0.656383  0.570411  0.158616  1
  O  O20  1  0.656383  0.929589  0.158616  1
  O  O21  1  0.828165  0.250000  0.453996  1
  O  O22  1  0.812380  0.250000  0.084972  1
  O  O23  1  0.979965  0.750000  0.717221  1
