# generated using pymatgen
data_ErAsO4
_symmetry_space_group_name_H-M   'P 1'
_cell_length_a   5.93358656
_cell_length_b   5.93358605
_cell_length_c   5.93358639
_cell_angle_alpha   106.53157067
_cell_angle_beta   106.53157438
_cell_angle_gamma   115.52549527
_symmetry_Int_Tables_number   1
_chemical_formula_structural   ErAsO4
_chemical_formula_sum   'Er2 As2 O8'
_cell_volume   159.45545752
_cell_formula_units_Z   2
loop_
 _symmetry_equiv_pos_site_id
 _symmetry_equiv_pos_as_xyz
  1  'x, y, z'
loop_
 _atom_site_type_symbol
 _atom_site_label
 _atom_site_symmetry_multiplicity
 _atom_site_fract_x
 _atom_site_fract_y
 _atom_site_fract_z
 _atom_site_occupancy
  Er  Er0  1  0.125000  0.875000  0.250000  1
  Er  Er1  1  0.875000  0.125000  0.750000  1
  As  As2  1  0.375000  0.625000  0.750000  1
  As  As3  1  0.625000  0.375000  0.250000  1
  O  O4  1  0.196350  0.628910  0.932561  1
  O  O5  1  0.371090  0.803650  0.567439  1
  O  O6  1  0.196350  0.263789  0.567439  1
  O  O7  1  0.736211  0.803650  0.932561  1
  O  O8  1  0.263789  0.196350  0.067439  1
  O  O9  1  0.803650  0.736211  0.432561  1
  O  O10  1  0.628910  0.196350  0.432561  1
  O  O11  1  0.803650  0.371090  0.067439  1
