# generated using pymatgen
data_Li4V3CrO8
_symmetry_space_group_name_H-M   'P 1'
_cell_length_a   5.18574872
_cell_length_b   7.92026924
_cell_length_c   7.91083116
_cell_angle_alpha   81.72194374
_cell_angle_beta   70.94230579
_cell_angle_gamma   83.76866269
_symmetry_Int_Tables_number   1
_chemical_formula_structural   Li4V3CrO8
_chemical_formula_sum   'Li8 V6 Cr2 O16'
_cell_volume   303.25106513
_cell_formula_units_Z   2
loop_
 _symmetry_equiv_pos_site_id
 _symmetry_equiv_pos_as_xyz
  1  'x, y, z'
loop_
 _atom_site_type_symbol
 _atom_site_label
 _atom_site_symmetry_multiplicity
 _atom_site_fract_x
 _atom_site_fract_y
 _atom_site_fract_z
 _atom_site_occupancy
  Li  Li0  1  0.000230  0.002170  0.998751  1
  Li  Li1  1  0.999817  0.250017  0.250108  1
  Li  Li2  1  0.999320  0.625888  0.125671  1
  Li  Li3  1  0.997883  0.127048  0.626169  1
  Li  Li4  1  0.000014  0.498578  0.501074  1
  Li  Li5  1  0.000575  0.873738  0.374645  1
  Li  Li6  1  0.002474  0.373521  0.873663  1
  Li  Li7  1  0.999625  0.749075  0.750048  1
  V  V8  1  0.500183  0.062168  0.312257  1
  V  V9  1  0.500650  0.437708  0.188093  1
  V  V10  1  0.499177  0.813157  0.062108  1
  V  V11  1  0.500415  0.686361  0.437897  1
  V  V12  1  0.500677  0.562527  0.812626  1
  V  V13  1  0.500036  0.937705  0.686948  1
  Cr  Cr14  1  0.499738  0.312190  0.563476  1
  Cr  Cr15  1  0.499213  0.188185  0.936324  1
  O  O16  1  0.273159  0.031138  0.147903  1
  O  O17  1  0.725188  0.219111  0.097115  1
  O  O18  1  0.274286  0.405137  0.025637  1
  O  O19  1  0.727087  0.095750  0.475508  1
  O  O20  1  0.275135  0.279284  0.402477  1
  O  O21  1  0.269288  0.654906  0.279059  1
  O  O22  1  0.727764  0.467856  0.350774  1
  O  O23  1  0.273704  0.158193  0.776381  1
  O  O24  1  0.272106  0.527854  0.651509  1
  O  O25  1  0.729654  0.845734  0.221967  1
  O  O26  1  0.723939  0.343963  0.723883  1
  O  O27  1  0.270585  0.905198  0.527302  1
  O  O28  1  0.730972  0.716386  0.597565  1
  O  O29  1  0.270196  0.780843  0.901819  1
  O  O30  1  0.731225  0.595964  0.975300  1
  O  O31  1  0.725685  0.972646  0.845938  1
