# generated using pymatgen
data_Fe10O11F9
_symmetry_space_group_name_H-M   'P 1'
_cell_length_a   4.75896262
_cell_length_b   4.75896262
_cell_length_c   15.30827424
_cell_angle_alpha   90.12874525
_cell_angle_beta   90.12874525
_cell_angle_gamma   93.91250251
_symmetry_Int_Tables_number   1
_chemical_formula_structural   Fe10O11F9
_chemical_formula_sum   'Fe10 O11 F9'
_cell_volume   345.88770510
_cell_formula_units_Z   1
loop_
 _symmetry_equiv_pos_site_id
 _symmetry_equiv_pos_as_xyz
  1  'x, y, z'
loop_
 _atom_site_type_symbol
 _atom_site_label
 _atom_site_symmetry_multiplicity
 _atom_site_fract_x
 _atom_site_fract_y
 _atom_site_fract_z
 _atom_site_occupancy
  Fe  Fe0  1  0.003734  0.985726  0.994451  1
  Fe  Fe1  1  0.000038  -0.000038  0.200000  1
  Fe  Fe2  1  0.014274  0.996266  0.405549  1
  Fe  Fe3  1  0.994377  0.948559  0.601139  1
  Fe  Fe4  1  0.051441  0.005623  0.798861  1
  Fe  Fe5  1  0.503185  0.495148  0.101316  1
  Fe  Fe6  1  0.483409  0.538097  0.491985  1
  Fe  Fe7  1  0.504852  0.496815  0.298684  1
  Fe  Fe8  1  0.475744  0.524256  0.700000  1
  Fe  Fe9  1  0.461903  0.516591  0.908015  1
  O  O10  1  0.186787  0.805123  0.498877  1
  O  O11  1  0.195313  0.804687  0.700000  1
  O  O12  1  0.194877  0.813213  0.901123  1
  O  O13  1  0.297498  0.299447  0.007654  1
  O  O14  1  0.307134  0.301986  0.200110  1
  O  O15  1  0.305785  0.306776  0.394285  1
  O  O16  1  0.321584  0.322316  0.801369  1
  O  O17  1  0.693224  0.694215  0.005715  1
  O  O18  1  0.698014  0.692866  0.199891  1
  O  O19  1  0.700553  0.702502  0.392346  1
  O  O20  1  0.677684  0.678416  0.598631  1
  F  F21  1  0.189882  0.803898  0.102574  1
  F  F22  1  0.196102  0.810118  0.297426  1
  F  F23  1  0.288322  0.294282  0.597828  1
  F  F24  1  0.705718  0.711678  0.802172  1
  F  F25  1  0.807914  0.186703  0.101619  1
  F  F26  1  0.803744  0.188950  0.500748  1
  F  F27  1  0.813297  0.192086  0.298381  1
  F  F28  1  0.811050  0.196256  0.899252  1
  F  F29  1  0.812561  0.187439  0.700000  1
