# generated using pymatgen
data_Bi5BO10
_symmetry_space_group_name_H-M   'P 1'
_cell_length_a   8.72357191
_cell_length_b   22.43860190
_cell_length_c   5.65100533
_cell_angle_alpha   90.00000000
_cell_angle_beta   111.49471037
_cell_angle_gamma   90.00000000
_symmetry_Int_Tables_number   1
_chemical_formula_structural   Bi5BO10
_chemical_formula_sum   'Bi20 B4 O40'
_cell_volume   1029.22315841
_cell_formula_units_Z   4
loop_
 _symmetry_equiv_pos_site_id
 _symmetry_equiv_pos_as_xyz
  1  'x, y, z'
loop_
 _atom_site_type_symbol
 _atom_site_label
 _atom_site_symmetry_multiplicity
 _atom_site_fract_x
 _atom_site_fract_y
 _atom_site_fract_z
 _atom_site_occupancy
  Bi  Bi0  1  0.995468  0.695924  0.714481  1
  Bi  Bi1  1  0.995468  0.804076  0.214481  1
  Bi  Bi2  1  0.284147  0.057511  0.869713  1
  Bi  Bi3  1  0.361217  0.314543  0.907542  1
  Bi  Bi4  1  0.336845  0.814500  0.888054  1
  Bi  Bi5  1  0.353874  0.557401  0.867571  1
  Bi  Bi6  1  0.284147  0.442489  0.369713  1
  Bi  Bi7  1  0.361217  0.185457  0.407542  1
  Bi  Bi8  1  0.336845  0.685500  0.388054  1
  Bi  Bi9  1  0.353874  0.942599  0.367571  1
  Bi  Bi10  1  0.646126  0.057401  0.632429  1
  Bi  Bi11  1  0.663155  0.314500  0.611946  1
  Bi  Bi12  1  0.638783  0.814543  0.592458  1
  Bi  Bi13  1  0.715853  0.557511  0.630287  1
  Bi  Bi14  1  0.646126  0.442599  0.132429  1
  Bi  Bi15  1  0.663155  0.185500  0.111946  1
  Bi  Bi16  1  0.638783  0.685457  0.092458  1
  Bi  Bi17  1  0.715853  0.942489  0.130287  1
  Bi  Bi18  1  0.004532  0.195924  0.785519  1
  Bi  Bi19  1  0.004532  0.304076  0.285519  1
  B  B20  1  0.001273  0.920062  0.706976  1
  B  B21  1  0.001273  0.579938  0.206976  1
  B  B22  1  0.998727  0.420062  0.793024  1
  B  B23  1  0.998727  0.079938  0.293024  1
  O  O24  1  0.085333  0.388253  0.014186  1
  O  O25  1  0.077750  0.469459  0.749240  1
  O  O26  1  0.085333  0.111747  0.514186  1
  O  O27  1  0.156373  0.904086  0.871385  1
  O  O28  1  0.153345  0.256057  0.664911  1
  O  O29  1  0.077750  0.030541  0.249240  1
  O  O30  1  0.158830  0.760419  0.599163  1
  O  O31  1  0.156373  0.595914  0.371385  1
  O  O32  1  0.153345  0.243943  0.164911  1
  O  O33  1  0.158830  0.739581  0.099163  1
  O  O34  1  0.249120  0.361396  0.535613  1
  O  O35  1  0.249120  0.138604  0.035613  1
  O  O36  1  0.388841  0.852566  0.560435  1
  O  O37  1  0.476228  0.476192  0.758697  1
  O  O38  1  0.463182  0.104356  0.751529  1
  O  O39  1  0.485950  0.252956  0.715277  1
  O  O40  1  0.514050  0.752956  0.784723  1
  O  O41  1  0.536818  0.604356  0.748471  1
  O  O42  1  0.388841  0.647434  0.060435  1
  O  O43  1  0.523772  0.976192  0.741303  1
  O  O44  1  0.476228  0.023808  0.258697  1
  O  O45  1  0.611159  0.352566  0.939565  1
  O  O46  1  0.463182  0.395644  0.251529  1
  O  O47  1  0.485950  0.247044  0.215277  1
  O  O48  1  0.514050  0.747044  0.284723  1
  O  O49  1  0.536818  0.895644  0.248471  1
  O  O50  1  0.523772  0.523808  0.241303  1
  O  O51  1  0.611159  0.147434  0.439565  1
  O  O52  1  0.750880  0.861396  0.964387  1
  O  O53  1  0.750880  0.638604  0.464387  1
  O  O54  1  0.841170  0.260419  0.900837  1
  O  O55  1  0.846655  0.756057  0.835089  1
  O  O56  1  0.843627  0.404086  0.628615  1
  O  O57  1  0.841170  0.239581  0.400837  1
  O  O58  1  0.922250  0.969459  0.750760  1
  O  O59  1  0.846655  0.743943  0.335089  1
  O  O60  1  0.843627  0.095914  0.128615  1
  O  O61  1  0.914667  0.888253  0.485814  1
  O  O62  1  0.922250  0.530541  0.250760  1
  O  O63  1  0.914667  0.611747  0.985814  1
