# generated using pymatgen
data_K3CuPCO7
_symmetry_space_group_name_H-M   'P 1'
_cell_length_a   9.54061063
_cell_length_b   7.28983327
_cell_length_c   5.52469936
_cell_angle_alpha   90.00000000
_cell_angle_beta   89.19339976
_cell_angle_gamma   90.00000000
_symmetry_Int_Tables_number   1
_chemical_formula_structural   K3CuPCO7
_chemical_formula_sum   'K6 Cu2 P2 C2 O14'
_cell_volume   384.20178672
_cell_formula_units_Z   2
loop_
 _symmetry_equiv_pos_site_id
 _symmetry_equiv_pos_as_xyz
  1  'x, y, z'
loop_
 _atom_site_type_symbol
 _atom_site_label
 _atom_site_symmetry_multiplicity
 _atom_site_fract_x
 _atom_site_fract_y
 _atom_site_fract_z
 _atom_site_occupancy
  K  K0  1  0.078214  0.250000  0.758822  1
  K  K1  1  0.279776  0.015525  0.251318  1
  K  K2  1  0.279776  0.484475  0.251318  1
  K  K3  1  0.720224  0.515525  0.748682  1
  K  K4  1  0.720224  0.984475  0.748682  1
  K  K5  1  0.921786  0.750000  0.241178  1
  Cu  Cu6  1  0.359148  0.750000  0.765951  1
  Cu  Cu7  1  0.640852  0.250000  0.234049  1
  P  P8  1  0.425006  0.250000  0.712197  1
  P  P9  1  0.574994  0.750000  0.287803  1
  C  C10  1  0.090984  0.750000  0.732614  1
  C  C11  1  0.909016  0.250000  0.267386  1
  O  O12  1  0.044053  0.250000  0.246684  1
  O  O13  1  0.169438  0.750000  0.926431  1
  O  O14  1  0.154907  0.750000  0.525088  1
  O  O15  1  0.330426  0.077677  0.749871  1
  O  O16  1  0.330426  0.422323  0.749871  1
  O  O17  1  0.477718  0.250000  0.439645  1
  O  O18  1  0.447243  0.750000  0.117816  1
  O  O19  1  0.552757  0.250000  0.882184  1
  O  O20  1  0.522282  0.750000  0.560355  1
  O  O21  1  0.669574  0.577677  0.250129  1
  O  O22  1  0.669574  0.922323  0.250129  1
  O  O23  1  0.845093  0.250000  0.474912  1
  O  O24  1  0.830562  0.250000  0.073569  1
  O  O25  1  0.955947  0.750000  0.753316  1
