# generated using pymatgen
data_LiFe8(BO3)8
_symmetry_space_group_name_H-M   'P 1'
_cell_length_a   5.22044033
_cell_length_b   9.19267706
_cell_length_c   11.46463110
_cell_angle_alpha   66.34975039
_cell_angle_beta   75.93252335
_cell_angle_gamma   88.91183884
_symmetry_Int_Tables_number   1
_chemical_formula_structural   LiFe8(BO3)8
_chemical_formula_sum   'Li1 Fe8 B8 O24'
_cell_volume   486.94972795
_cell_formula_units_Z   1
loop_
 _symmetry_equiv_pos_site_id
 _symmetry_equiv_pos_as_xyz
  1  'x, y, z'
loop_
 _atom_site_type_symbol
 _atom_site_label
 _atom_site_symmetry_multiplicity
 _atom_site_fract_x
 _atom_site_fract_y
 _atom_site_fract_z
 _atom_site_occupancy
  Li  Li0  1  0.017679  0.996571  0.652701  1
  Fe  Fe1  1  0.977312  0.651450  0.376387  1
  Fe  Fe2  1  0.728857  0.072556  0.877528  1
  Fe  Fe3  1  0.533198  0.837505  0.623265  1
  Fe  Fe4  1  0.764780  0.432445  0.129481  1
  Fe  Fe5  1  0.233437  0.565731  0.875678  1
  Fe  Fe6  1  0.482656  0.144970  0.379672  1
  Fe  Fe7  1  0.017982  0.358807  0.625172  1
  Fe  Fe8  1  0.264474  0.932703  0.128129  1
  B  B9  1  0.971274  0.312035  0.381687  1
  B  B10  1  0.732116  0.394132  0.879078  1
  B  B11  1  0.516216  0.181790  0.626984  1
  B  B12  1  0.763470  0.106802  0.128442  1
  B  B13  1  0.473070  0.815612  0.372951  1
  B  B14  1  0.240615  0.896955  0.872995  1
  B  B15  1  0.040915  0.687707  0.627323  1
  B  B16  1  0.263196  0.604875  0.127373  1
  O  O17  1  0.001274  0.943412  0.847459  1
  O  O18  1  0.869243  0.294129  0.822466  1
  O  O19  1  0.868916  0.466174  0.935058  1
  O  O20  1  0.912225  0.817540  0.624973  1
  O  O21  1  0.968329  0.587044  0.571430  1
  O  O22  1  0.753908  0.163199  0.669951  1
  O  O23  1  0.749233  0.326995  0.331060  1
  O  O24  1  0.478172  0.414528  0.879305  1
  O  O25  1  0.367329  0.783776  0.836083  1
  O  O26  1  0.528257  0.922243  0.423003  1
  O  O27  1  0.631374  0.697629  0.371454  1
  O  O28  1  0.367513  0.971923  0.931955  1
  O  O29  1  0.632588  0.032366  0.070231  1
  O  O30  1  0.359354  0.298299  0.634260  1
  O  O31  1  0.445284  0.074350  0.579302  1
  O  O32  1  0.622308  0.208808  0.178994  1
  O  O33  1  0.516199  0.579833  0.132954  1
  O  O34  1  0.252803  0.646942  0.684260  1
  O  O35  1  0.246356  0.832296  0.324416  1
  O  O36  1  0.021402  0.422226  0.431879  1
  O  O37  1  0.129291  0.192450  0.387515  1
  O  O38  1  0.128856  0.525492  0.075502  1
  O  O39  1  0.123235  0.710541  0.175244  1
  O  O40  1  0.015794  0.079345  0.133243  1
