# generated using pymatgen
data_Mg8V5O16
_symmetry_space_group_name_H-M   'P 1'
_cell_length_a   6.05324398
_cell_length_b   6.05416183
_cell_length_c   10.38618659
_cell_angle_alpha   107.21268226
_cell_angle_beta   72.16471616
_cell_angle_gamma   120.17026428
_symmetry_Int_Tables_number   1
_chemical_formula_structural   Mg8V5O16
_chemical_formula_sum   'Mg8 V5 O16'
_cell_volume   308.55265715
_cell_formula_units_Z   1
loop_
 _symmetry_equiv_pos_site_id
 _symmetry_equiv_pos_as_xyz
  1  'x, y, z'
loop_
 _atom_site_type_symbol
 _atom_site_label
 _atom_site_symmetry_multiplicity
 _atom_site_fract_x
 _atom_site_fract_y
 _atom_site_fract_z
 _atom_site_occupancy
  Mg  Mg0  1  0.799646  0.683940  0.074115  1
  Mg  Mg1  1  0.998821  0.500457  0.498916  1
  Mg  Mg2  1  0.245058  0.751992  0.753945  1
  Mg  Mg3  1  0.756826  0.249596  0.246359  1
  Mg  Mg4  1  0.997582  0.995480  0.498446  1
  Mg  Mg5  1  0.507416  0.503539  0.494038  1
  Mg  Mg6  1  0.499951  0.997128  0.498247  1
  Mg  Mg7  1  0.199657  0.318294  0.929815  1
  V  V8  1  0.241911  0.734965  0.246384  1
  V  V9  1  0.242003  0.246457  0.249520  1
  V  V10  1  0.501333  0.998513  0.001809  1
  V  V11  1  0.755152  0.750730  0.750255  1
  V  V12  1  0.758882  0.264731  0.753992  1
  O  O13  1  0.139931  0.889539  0.132806  1
  O  O14  1  0.598374  0.884501  0.130006  1
  O  O15  1  0.126667  0.385021  0.134779  1
  O  O16  1  0.359135  0.610610  0.377725  1
  O  O17  1  0.596927  0.340220  0.129492  1
  O  O18  1  0.111847  0.854922  0.624242  1
  O  O19  1  0.089373  0.366186  0.631079  1
  O  O20  1  0.372903  0.122849  0.379768  1
  O  O21  1  0.624924  0.877528  0.623676  1
  O  O22  1  0.886337  0.622664  0.378656  1
  O  O23  1  0.400963  0.658864  0.869220  1
  O  O24  1  0.886273  0.143233  0.379702  1
  O  O25  1  0.639742  0.384027  0.630372  1
  O  O26  1  0.870713  0.607532  0.864851  1
  O  O27  1  0.416944  0.124357  0.863026  1
  O  O28  1  0.861030  0.115468  0.862536  1
