# generated using pymatgen
data_Li2FeBO4
_symmetry_space_group_name_H-M   'P 1'
_cell_length_a   6.28781749
_cell_length_b   5.59325606
_cell_length_c   10.00484114
_cell_angle_alpha   90.00000000
_cell_angle_beta   90.13239346
_cell_angle_gamma   90.00000000
_symmetry_Int_Tables_number   1
_chemical_formula_structural   Li2FeBO4
_chemical_formula_sum   'Li8 Fe4 B4 O16'
_cell_volume   351.86305329
_cell_formula_units_Z   4
loop_
 _symmetry_equiv_pos_site_id
 _symmetry_equiv_pos_as_xyz
  1  'x, y, z'
loop_
 _atom_site_type_symbol
 _atom_site_label
 _atom_site_symmetry_multiplicity
 _atom_site_fract_x
 _atom_site_fract_y
 _atom_site_fract_z
 _atom_site_occupancy
  Li  Li0  1  0.089243  0.395940  0.801493  1
  Li  Li1  1  0.089243  0.104060  0.301493  1
  Li  Li2  1  0.263101  0.147980  0.585807  1
  Li  Li3  1  0.263101  0.352020  0.085807  1
  Li  Li4  1  0.736899  0.647980  0.914193  1
  Li  Li5  1  0.736899  0.852020  0.414193  1
  Li  Li6  1  0.910757  0.895940  0.698507  1
  Li  Li7  1  0.910757  0.604060  0.198507  1
  Fe  Fe8  1  0.259414  0.851443  0.909836  1
  Fe  Fe9  1  0.259414  0.648557  0.409836  1
  Fe  Fe10  1  0.740586  0.351443  0.590164  1
  Fe  Fe11  1  0.740586  0.148557  0.090164  1
  B  B12  1  0.502588  0.249161  0.841035  1
  B  B13  1  0.497412  0.749161  0.658965  1
  B  B14  1  0.502588  0.250839  0.341035  1
  B  B15  1  0.497412  0.750839  0.158965  1
  O  O16  1  0.014393  0.722705  0.848105  1
  O  O17  1  0.014393  0.777295  0.348105  1
  O  O18  1  0.307474  0.200334  0.905459  1
  O  O19  1  0.307474  0.299666  0.405459  1
  O  O20  1  0.316339  0.790695  0.583281  1
  O  O21  1  0.503108  0.259935  0.702930  1
  O  O22  1  0.316339  0.709305  0.083281  1
  O  O23  1  0.503108  0.240065  0.202930  1
  O  O24  1  0.496892  0.759935  0.797070  1
  O  O25  1  0.683661  0.290695  0.916719  1
  O  O26  1  0.496892  0.740065  0.297070  1
  O  O27  1  0.683661  0.209305  0.416719  1
  O  O28  1  0.692526  0.700334  0.594541  1
  O  O29  1  0.692526  0.799666  0.094541  1
  O  O30  1  0.985607  0.222705  0.651895  1
  O  O31  1  0.985607  0.277295  0.151895  1
