# generated using pymatgen
data_Cr(PO3)2
_symmetry_space_group_name_H-M   'P 1'
_cell_length_a   7.74694892
_cell_length_b   7.74694892
_cell_length_c   9.85614586
_cell_angle_alpha   84.76112729
_cell_angle_beta   68.41555945
_cell_angle_gamma   114.56986782
_symmetry_Int_Tables_number   1
_chemical_formula_structural   Cr(PO3)2
_chemical_formula_sum   'Cr4 P8 O24'
_cell_volume   478.91389360
_cell_formula_units_Z   4
loop_
 _symmetry_equiv_pos_site_id
 _symmetry_equiv_pos_as_xyz
  1  'x, y, z'
loop_
 _atom_site_type_symbol
 _atom_site_label
 _atom_site_symmetry_multiplicity
 _atom_site_fract_x
 _atom_site_fract_y
 _atom_site_fract_z
 _atom_site_occupancy
  Cr  Cr0  1  0.197630  0.947630  0.750000  1
  Cr  Cr1  1  0.000000  0.500000  0.000000  1
  Cr  Cr2  1  0.000000  0.000000  0.500000  1
  Cr  Cr3  1  0.802370  0.052370  0.250000  1
  P  P4  1  0.002545  0.683025  0.309670  1
  P  P5  1  0.270071  0.726441  0.478379  1
  P  P6  1  0.507305  0.687785  0.809670  1
  P  P7  1  0.704819  0.748449  0.021621  1
  P  P8  1  0.295181  0.251551  0.978379  1
  P  P9  1  0.492695  0.312215  0.190330  1
  P  P10  1  0.729929  0.273559  0.521621  1
  P  P11  1  0.997455  0.316975  0.690330  1
  O  O12  1  0.047102  0.652614  0.156395  1
  O  O13  1  0.141508  0.800143  0.588979  1
  O  O14  1  0.192378  0.691951  0.346937  1
  O  O15  1  0.306124  0.693069  0.832236  1
  O  O16  1  0.505219  0.842541  0.406717  1
  O  O17  1  0.110878  0.269512  0.088979  1
  O  O18  1  0.209343  0.504981  0.557871  1
  O  O19  1  0.749257  0.911935  0.093283  1
  O  O20  1  0.562852  0.767213  0.942129  1
  O  O21  1  0.690990  0.796502  0.656395  1
  O  O22  1  0.538888  0.539315  0.153063  1
  O  O23  1  0.025306  0.138361  0.667764  1
  O  O24  1  0.974694  0.861639  0.332236  1
  O  O25  1  0.461112  0.460685  0.846937  1
  O  O26  1  0.309010  0.203498  0.343605  1
  O  O27  1  0.437148  0.232787  0.057871  1
  O  O28  1  0.250743  0.088065  0.906717  1
  O  O29  1  0.790657  0.495019  0.442130  1
  O  O30  1  0.889122  0.730488  0.911021  1
  O  O31  1  0.494781  0.157459  0.593283  1
  O  O32  1  0.693876  0.306931  0.167764  1
  O  O33  1  0.807622  0.308049  0.653063  1
  O  O34  1  0.858492  0.199857  0.411021  1
  O  O35  1  0.952898  0.347386  0.843605  1
