# generated using pymatgen
data_TiH14(OF)6
_symmetry_space_group_name_H-M   'P 1'
_cell_length_a   6.08746026
_cell_length_b   15.69626414
_cell_length_c   6.78314496
_cell_angle_alpha   90.00000000
_cell_angle_beta   104.90495483
_cell_angle_gamma   90.00000000
_symmetry_Int_Tables_number   1
_chemical_formula_structural   TiH14(OF)6
_chemical_formula_sum   'Ti2 H28 O12 F12'
_cell_volume   626.32494975
_cell_formula_units_Z   2
loop_
 _symmetry_equiv_pos_site_id
 _symmetry_equiv_pos_as_xyz
  1  'x, y, z'
loop_
 _atom_site_type_symbol
 _atom_site_label
 _atom_site_symmetry_multiplicity
 _atom_site_fract_x
 _atom_site_fract_y
 _atom_site_fract_z
 _atom_site_occupancy
  Ti  Ti0  1  0.000000  0.500000  0.500000  1
  Ti  Ti1  1  0.000000  0.000000  0.000000  1
  H  H2  1  0.324092  0.940363  0.745139  1
  H  H3  1  0.675908  0.440363  0.754861  1
  H  H4  1  0.675908  0.059637  0.254861  1
  H  H5  1  0.324092  0.559637  0.245139  1
  H  H6  1  0.587543  0.045550  0.720884  1
  H  H7  1  0.412457  0.545550  0.779116  1
  H  H8  1  0.412457  0.954450  0.279116  1
  H  H9  1  0.587543  0.454450  0.220884  1
  H  H10  1  0.816313  0.296528  0.545360  1
  H  H11  1  0.183687  0.796528  0.954640  1
  H  H12  1  0.183687  0.703472  0.454640  1
  H  H13  1  0.816313  0.203472  0.045360  1
  H  H14  1  0.534025  0.581018  0.595934  1
  H  H15  1  0.465975  0.081018  0.904066  1
  H  H16  1  0.465975  0.418982  0.404066  1
  H  H17  1  0.534025  0.918982  0.095934  1
  H  H18  1  0.259416  0.195442  0.626442  1
  H  H19  1  0.740584  0.695442  0.873558  1
  H  H20  1  0.740584  0.804558  0.373558  1
  H  H21  1  0.259416  0.304558  0.126442  1
  H  H22  1  0.817668  0.797036  0.305103  1
  H  H23  1  0.182332  0.297036  0.194897  1
  H  H24  1  0.182332  0.202964  0.694897  1
  H  H25  1  0.817668  0.702964  0.805103  1
  H  H26  1  0.341312  0.895121  0.718732  1
  H  H27  1  0.658688  0.395121  0.781268  1
  H  H28  1  0.658688  0.104879  0.281268  1
  H  H29  1  0.341312  0.604879  0.218732  1
  O  O30  1  0.810671  0.394579  0.436816  1
  O  O31  1  0.189329  0.894579  0.063184  1
  O  O32  1  0.189329  0.605421  0.563184  1
  O  O33  1  0.810671  0.105421  0.936816  1
  O  O34  1  0.577963  0.095779  0.812415  1
  O  O35  1  0.422037  0.595779  0.687585  1
  O  O36  1  0.422037  0.904221  0.187585  1
  O  O37  1  0.577963  0.404221  0.312415  1
  O  O38  1  0.068606  0.458266  0.785301  1
  O  O39  1  0.931394  0.958266  0.714699  1
  O  O40  1  0.931394  0.541734  0.214699  1
  O  O41  1  0.068606  0.041734  0.285301  1
  F  F42  1  0.271338  0.442903  0.473875  1
  F  F43  1  0.728662  0.942903  0.026125  1
  F  F44  1  0.728662  0.557097  0.526125  1
  F  F45  1  0.271338  0.057097  -0.026125  1
  F  F46  1  0.208727  0.750874  0.373078  1
  F  F47  1  0.791273  0.250874  0.126922  1
  F  F48  1  0.791273  0.249126  0.626922  1
  F  F49  1  0.208727  0.749126  0.873078  1
  F  F50  1  0.310515  0.473093  0.889570  1
  F  F51  1  0.689485  0.973093  0.610430  1
  F  F52  1  0.689485  0.526907  0.110430  1
  F  F53  1  0.310515  0.026907  0.389570  1
