# generated using pymatgen
data_Ba5Y3F19
_symmetry_space_group_name_H-M   'P 1'
_cell_length_a   11.94657967
_cell_length_b   11.94688476
_cell_length_c   11.94481956
_cell_angle_alpha   97.04717116
_cell_angle_beta   97.04871827
_cell_angle_gamma   138.99622081
_symmetry_Int_Tables_number   1
_chemical_formula_structural   Ba5Y3F19
_chemical_formula_sum   'Ba10 Y6 F38'
_cell_volume   1047.65827364
_cell_formula_units_Z   2
loop_
 _symmetry_equiv_pos_site_id
 _symmetry_equiv_pos_as_xyz
  1  'x, y, z'
loop_
 _atom_site_type_symbol
 _atom_site_label
 _atom_site_symmetry_multiplicity
 _atom_site_fract_x
 _atom_site_fract_y
 _atom_site_fract_z
 _atom_site_occupancy
  Ba  Ba0  1  0.690589  0.190618  0.499860  1
  Ba  Ba1  1  0.746139  0.568918  0.302318  1
  Ba  Ba2  1  0.766359  0.069151  0.822423  1
  Ba  Ba3  1  0.068979  0.246138  0.302257  1
  Ba  Ba4  1  0.443835  0.746407  0.177382  1
  Ba  Ba5  1  0.569058  0.266432  0.822548  1
  Ba  Ba6  1  0.943992  0.766374  0.697188  1
  Ba  Ba7  1  0.266247  0.443963  0.697034  1
  Ba  Ba8  1  0.246220  0.943763  0.177189  1
  Ba  Ba9  1  0.190610  0.690630  0.499819  1
  Y  Y10  1  0.828882  0.328928  0.164257  1
  Y  Y11  1  0.166971  0.166979  0.999854  1
  Y  Y12  1  0.667392  0.667440  0.999895  1
  Y  Y13  1  0.328936  0.164646  0.499939  1
  Y  Y14  1  0.664696  0.828983  0.500002  1
  Y  Y15  1  0.164645  0.664636  0.835661  1
  F  F16  1  0.751209  0.093693  0.163337  1
  F  F17  1  0.593592  0.251153  0.163208  1
  F  F18  1  0.867597  0.367852  0.356285  1
  F  F19  1  0.887810  0.108636  0.630228  1
  F  F20  1  0.978184  0.608454  0.220685  1
  F  F21  1  0.234761  0.040540  0.988917  1
  F  F22  1  0.416029  0.414843  0.002514  1
  F  F23  1  0.915935  0.915453  0.003208  1
  F  F24  1  0.735437  0.746122  0.194316  1
  F  F25  1  0.478351  0.257355  0.369771  1
  F  F26  1  0.011489  0.511338  0.643570  1
  F  F27  1  0.652397  0.152490  0.709730  1
  F  F28  1  0.942407  0.652161  0.499821  1
  F  F29  1  0.246632  0.236134  0.194319  1
  F  F30  1  0.540433  0.734665  0.989109  1
  F  F31  1  0.608602  0.387827  0.630218  1
  F  F32  1  0.773974  0.742923  0.499966  1
  F  F33  1  0.742890  0.242897  0.968865  1
  F  F34  1  0.430324  0.593929  0.342510  1
  F  F35  1  0.930426  0.587978  0.836525  1
  F  F36  1  0.251287  0.088074  0.657612  1
  F  F37  1  0.274027  0.774024  0.031048  1
  F  F38  1  0.242950  0.274008  0.499918  1
  F  F39  1  0.757392  0.978407  0.369826  1
  F  F40  1  0.108441  0.478204  0.220807  1
  F  F41  1  0.040045  0.050754  0.805739  1
  F  F42  1  0.745918  0.551635  0.010168  1
  F  F43  1  0.441764  0.941801  0.290317  1
  F  F44  1  0.151735  0.442076  0.499641  1
  F  F45  1  0.587956  0.751316  0.657605  1
  F  F46  1  0.511663  0.868012  0.500380  1
  F  F47  1  0.550923  0.540559  0.805730  1
  F  F48  1  0.051352  0.245601  0.010224  1
  F  F49  1  0.387692  0.757541  0.779043  1
  F  F50  1  0.367948  0.011629  0.500336  1
  F  F51  1  0.093875  0.930368  0.342416  1
  F  F52  1  0.088036  0.430451  0.836613  1
  F  F53  1  0.257476  0.887608  0.778968  1
