# generated using pymatgen
data_W5(O2F11)2
_symmetry_space_group_name_H-M   'P 1'
_cell_length_a   10.26930195
_cell_length_b   10.25944126
_cell_length_c   12.71145456
_cell_angle_alpha   66.17712499
_cell_angle_beta   66.25265479
_cell_angle_gamma   89.85624199
_symmetry_Int_Tables_number   1
_chemical_formula_structural   W5(O2F11)2
_chemical_formula_sum   'W10 O8 F44'
_cell_volume   1100.70540384
_cell_formula_units_Z   2
loop_
 _symmetry_equiv_pos_site_id
 _symmetry_equiv_pos_as_xyz
  1  'x, y, z'
loop_
 _atom_site_type_symbol
 _atom_site_label
 _atom_site_symmetry_multiplicity
 _atom_site_fract_x
 _atom_site_fract_y
 _atom_site_fract_z
 _atom_site_occupancy
  W  W0  1  0.886222  0.051776  0.308816  1
  W  W1  1  0.446899  0.194293  0.193728  1
  W  W2  1  0.375177  0.126125  0.748747  1
  W  W3  1  0.693237  0.360542  0.693688  1
  W  W4  1  0.858957  0.611752  0.193809  1
  W  W5  1  0.140812  0.390682  0.805496  1
  W  W6  1  0.305627  0.641494  0.305528  1
  W  W7  1  0.623982  0.874512  0.250815  1
  W  W8  1  0.552586  0.804595  0.808911  1
  W  W9  1  0.111423  0.947640  0.692819  1
  O  O10  1  0.557124  0.051515  0.245270  1
  O  O11  1  0.205632  0.058180  0.741797  1
  O  O12  1  0.549918  0.199979  0.745067  1
  O  O13  1  0.301314  0.297751  0.754020  1
  O  O14  1  0.697867  0.703881  0.244524  1
  O  O15  1  0.448722  0.802683  0.253406  1
  O  O16  1  0.793506  0.940334  0.259403  1
  O  O17  1  0.444034  0.948984  0.756191  1
  F  F18  1  0.071998  0.058934  0.188675  1
  F  F19  1  0.447746  0.126138  0.075662  1
  F  F20  1  0.275980  0.055382  0.318980  1
  F  F21  1  0.700364  0.047639  0.428825  1
  F  F22  1  0.871047  0.222977  0.183921  1
  F  F23  1  0.965078  0.165425  0.361362  1
  F  F24  1  0.618145  0.329649  0.067173  1
  F  F25  1  0.333968  0.327977  0.142662  1
  F  F26  1  0.099511  0.118765  0.567015  1
  F  F27  1  0.443585  0.260813  0.312509  1
  F  F28  1  0.282148  0.035415  0.929579  1
  F  F29  1  0.466963  0.214150  0.567814  1
  F  F30  1  0.747300  0.425044  0.312266  1
  F  F31  1  0.830216  0.316605  0.566808  1
  F  F32  1  0.025460  0.533575  0.140419  1
  F  F33  1  0.810813  0.599790  0.069553  1
  F  F34  1  0.760839  0.244191  0.811690  1
  F  F35  1  0.172056  0.475491  0.361781  1
  F  F36  1  0.026525  0.204169  0.925130  1
  F  F37  1  0.440872  0.592558  0.180542  1
  F  F38  1  0.092133  0.376591  0.681391  1
  F  F39  1  0.378100  0.527125  0.421307  1
  F  F40  1  0.623092  0.475461  0.576384  1
  F  F41  1  0.905495  0.626588  0.318657  1
  F  F42  1  0.555846  0.407448  0.819218  1
  F  F43  1  0.973338  0.798360  0.074614  1
  F  F44  1  0.824976  0.525648  0.641976  1
  F  F45  1  0.237785  0.754719  0.186728  1
  F  F46  1  0.187260  0.403547  0.930207  1
  F  F47  1  0.974851  0.470204  0.857965  1
  F  F48  1  0.169599  0.688361  0.430823  1
  F  F49  1  0.253926  0.576763  0.686945  1
  F  F50  1  0.530630  0.783482  0.431687  1
  F  F51  1  0.715772  0.965522  0.069886  1
  F  F52  1  0.555486  0.734493  0.692329  1
  F  F53  1  0.902336  0.880634  0.431681  1
  F  F54  1  0.664712  0.670633  0.861476  1
  F  F55  1  0.379788  0.671064  0.934264  1
  F  F56  1  0.029246  0.833905  0.642477  1
  F  F57  1  0.124711  0.776079  0.818495  1
  F  F58  1  0.297101  0.948341  0.574817  1
  F  F59  1  0.725169  0.941047  0.683322  1
  F  F60  1  0.550472  0.872014  0.927718  1
  F  F61  1  0.926777  0.945229  0.811736  1
