# generated using pymatgen
data_Fe4O3F5
_symmetry_space_group_name_H-M   'P 1'
_cell_length_a   4.82158757
_cell_length_b   9.66321060
_cell_length_c   6.15176219
_cell_angle_alpha   90.10699475
_cell_angle_beta   90.14558784
_cell_angle_gamma   90.70595809
_symmetry_Int_Tables_number   1
_chemical_formula_structural   Fe4O3F5
_chemical_formula_sum   'Fe8 O6 F10'
_cell_volume   286.59980511
_cell_formula_units_Z   2
loop_
 _symmetry_equiv_pos_site_id
 _symmetry_equiv_pos_as_xyz
  1  'x, y, z'
loop_
 _atom_site_type_symbol
 _atom_site_label
 _atom_site_symmetry_multiplicity
 _atom_site_fract_x
 _atom_site_fract_y
 _atom_site_fract_z
 _atom_site_occupancy
  Fe  Fe0  1  0.991628  0.994275  0.999732  1
  Fe  Fe1  1  0.040650  0.016693  0.500116  1
  Fe  Fe2  1  0.991923  0.497005  0.000392  1
  Fe  Fe3  1  0.014637  0.509974  0.500497  1
  Fe  Fe4  1  0.540254  0.237396  0.248685  1
  Fe  Fe5  1  0.504019  0.255826  0.752608  1
  Fe  Fe6  1  0.471810  0.732598  0.248975  1
  Fe  Fe7  1  0.440487  0.751067  0.749898  1
  O  O8  1  0.178398  0.912754  0.753572  1
  O  O9  1  0.333410  0.156441  0.503414  1
  O  O10  1  0.293233  0.658045  0.000679  1
  O  O11  1  0.300639  0.660523  0.498321  1
  O  O12  1  0.685461  0.335139  0.997526  1
  O  O13  1  0.828510  0.090056  0.247600  1
  F  F14  1  0.213863  0.390384  0.252988  1
  F  F15  1  0.197803  0.392677  0.746684  1
  F  F16  1  0.206569  0.903151  0.247462  1
  F  F17  1  0.306885  0.143784  0.999241  1
  F  F18  1  0.707875  0.349755  0.502142  1
  F  F19  1  0.686970  0.849875  0.002081  1
  F  F20  1  0.689646  0.851302  0.496117  1
  F  F21  1  0.777861  0.606168  0.749146  1
  F  F22  1  0.806004  0.101381  0.750663  1
  F  F23  1  0.791466  0.603733  0.251460  1
