# generated using pymatgen
data_Er2TeO2
_symmetry_space_group_name_H-M   'P 1'
_cell_length_a   3.87796819
_cell_length_b   3.87815815
_cell_length_c   7.19902403
_cell_angle_alpha   90.00018529
_cell_angle_beta   90.00106891
_cell_angle_gamma   60.00023134
_symmetry_Int_Tables_number   1
_chemical_formula_structural   Er2TeO2
_chemical_formula_sum   'Er2 Te1 O2'
_cell_volume   93.76376234
_cell_formula_units_Z   1
loop_
 _symmetry_equiv_pos_site_id
 _symmetry_equiv_pos_as_xyz
  1  'x, y, z'
loop_
 _atom_site_type_symbol
 _atom_site_label
 _atom_site_symmetry_multiplicity
 _atom_site_fract_x
 _atom_site_fract_y
 _atom_site_fract_z
 _atom_site_occupancy
  Er  Er0  1  0.333289  0.333327  0.694196  1
  Er  Er1  1  0.666617  0.666664  0.305806  1
  Te  Te2  1  0.000035  0.000005  -0.000000  1
  O  O3  1  0.333251  0.333352  0.380087  1
  O  O4  1  0.666607  0.666652  0.619912  1
