# generated using pymatgen
data_LiV2(CO3)4
_symmetry_space_group_name_H-M   'P 1'
_cell_length_a   9.16572790
_cell_length_b   5.87772939
_cell_length_c   8.20888202
_cell_angle_alpha   90.00000000
_cell_angle_beta   89.55526902
_cell_angle_gamma   90.00000000
_symmetry_Int_Tables_number   1
_chemical_formula_structural   LiV2(CO3)4
_chemical_formula_sum   'Li2 V4 C8 O24'
_cell_volume   442.22926432
_cell_formula_units_Z   2
loop_
 _symmetry_equiv_pos_site_id
 _symmetry_equiv_pos_as_xyz
  1  'x, y, z'
loop_
 _atom_site_type_symbol
 _atom_site_label
 _atom_site_symmetry_multiplicity
 _atom_site_fract_x
 _atom_site_fract_y
 _atom_site_fract_z
 _atom_site_occupancy
  Li  Li0  1  0.326762  0.567304  0.145158  1
  Li  Li1  1  0.826762  0.432696  0.645158  1
  V  V2  1  0.000943  0.001243  0.458695  1
  V  V3  1  0.001983  0.957631  0.042449  1
  V  V4  1  0.501983  0.042369  0.542449  1
  V  V5  1  0.500943  0.998757  0.958695  1
  C  C6  1  0.005599  0.567572  0.453582  1
  C  C7  1  0.993194  0.472844  0.950971  1
  C  C8  1  0.220475  0.001890  0.753006  1
  C  C9  1  0.281957  0.004562  0.255992  1
  C  C10  1  0.493194  0.527156  0.450971  1
  C  C11  1  0.505599  0.432428  0.953582  1
  C  C12  1  0.720475  0.998110  0.253006  1
  C  C13  1  0.781957  0.995438  0.755992  1
  O  O14  1  0.997113  0.354473  0.431278  1
  O  O15  1  0.972900  0.508718  0.804832  1
  O  O16  1  0.013575  0.631114  0.062673  1
  O  O17  1  0.997239  0.264183  0.012262  1
  O  O18  1  0.122110  0.689220  0.439010  1
  O  O19  1  0.137690  0.019000  0.242040  1
  O  O20  1  0.148200  0.068478  0.634729  1
  O  O21  1  0.169053  0.922379  0.888360  1
  O  O22  1  0.338635  0.090225  0.384374  1
  O  O23  1  0.351847  0.901842  0.144212  1
  O  O24  1  0.366873  0.014768  0.744284  1
  O  O25  1  0.388482  0.313052  0.994181  1
  O  O26  1  0.513575  0.368886  0.562673  1
  O  O27  1  0.497239  0.735817  0.512262  1
  O  O28  1  0.472900  0.491282  0.304832  1
  O  O29  1  0.497113  0.645527  0.931278  1
  O  O30  1  0.622110  0.310780  0.939010  1
  O  O31  1  0.637690  0.981000  0.742040  1
  O  O32  1  0.648200  0.931522  0.134729  1
  O  O33  1  0.669053  0.077620  0.388360  1
  O  O34  1  0.838635  0.909775  0.884374  1
  O  O35  1  0.851847  0.098158  0.644212  1
  O  O36  1  0.866873  0.985232  0.244284  1
  O  O37  1  0.888482  0.686948  0.494181  1
