# generated using pymatgen
data_Bi12Rh12O41
_symmetry_space_group_name_H-M   'P 1'
_cell_length_a   7.31698366
_cell_length_b   12.68859291
_cell_length_c   10.36713729
_cell_angle_alpha   65.84988620
_cell_angle_beta   89.95969228
_cell_angle_gamma   73.22595545
_symmetry_Int_Tables_number   1
_chemical_formula_structural   Bi12Rh12O41
_chemical_formula_sum   'Bi12 Rh12 O41'
_cell_volume   833.27328201
_cell_formula_units_Z   1
loop_
 _symmetry_equiv_pos_site_id
 _symmetry_equiv_pos_as_xyz
  1  'x, y, z'
loop_
 _atom_site_type_symbol
 _atom_site_label
 _atom_site_symmetry_multiplicity
 _atom_site_fract_x
 _atom_site_fract_y
 _atom_site_fract_z
 _atom_site_occupancy
  Bi  Bi0  1  0.829922  0.843084  0.819808  1
  Bi  Bi1  1  0.837770  0.329906  0.831349  1
  Bi  Bi2  1  0.338428  0.328573  0.834694  1
  Bi  Bi3  1  0.336916  0.832772  0.338538  1
  Bi  Bi4  1  0.500286  0.495310  0.496791  1
  Bi  Bi5  1  0.674652  0.156573  0.665536  1
  Bi  Bi6  1  0.996459  0.000055  0.510122  1
  Bi  Bi7  1  0.163473  0.671449  0.162031  1
  Bi  Bi8  1  0.509144  0.000542  0.508920  1
  Bi  Bi9  1  0.664494  0.671679  0.160605  1
  Bi  Bi10  1  0.166004  0.167005  0.172890  1
  Bi  Bi11  1  0.998593  0.504503  0.992662  1
  Rh  Rh12  1  0.334181  0.832263  0.834479  1
  Rh  Rh13  1  0.168730  0.666765  0.664945  1
  Rh  Rh14  1  0.666321  0.665983  0.665511  1
  Rh  Rh15  1  0.167821  0.168325  0.666396  1
  Rh  Rh16  1  0.000338  0.500003  0.499185  1
  Rh  Rh17  1  0.833938  0.834246  0.331434  1
  Rh  Rh18  1  0.332203  0.334073  0.331880  1
  Rh  Rh19  1  0.834989  0.334411  0.331835  1
  Rh  Rh20  1  0.667582  0.166395  0.165450  1
  Rh  Rh21  1  0.500256  0.500454  0.998677  1
  Rh  Rh22  1  0.000360  0.000320  0.002359  1
  Rh  Rh23  1  0.501544  0.000605  0.001699  1
  O  O24  1  0.530147  0.862912  0.941745  1
  O  O25  1  0.106631  0.863423  0.941411  1
  O  O26  1  0.416832  0.666716  0.000456  1
  O  O27  1  0.278057  0.529473  0.859257  1
  O  O28  1  0.087448  0.330337  0.960940  1
  O  O29  1  0.140373  0.804082  0.723749  1
  O  O30  1  0.694672  0.528772  0.859569  1
  O  O31  1  0.554891  0.804143  0.722230  1
  O  O32  1  0.916068  0.668894  0.747681  1
  O  O33  1  0.751018  0.000790  0.918629  1
  O  O34  1  0.418050  0.666081  0.582865  1
  O  O35  1  0.593802  0.316569  0.702733  1
  O  O36  1  0.637550  0.808333  0.471380  1
  O  O37  1  0.393689  0.138875  0.804685  1
  O  O38  1  0.779094  0.526799  0.611450  1
  O  O39  1  0.971147  0.138512  0.805007  1
  O  O40  1  0.054921  0.809506  0.471770  1
  O  O41  1  0.193816  0.529048  0.609032  1
  O  O42  1  0.085957  0.333331  0.666733  1
  O  O43  1  0.917337  0.666597  0.333148  1
  O  O44  1  0.251103  0.000210  0.665114  1
  O  O45  1  0.612726  0.861059  0.194053  1
  O  O46  1  0.222605  0.472546  0.387236  1
  O  O47  1  0.806278  0.472080  0.388077  1
  O  O48  1  0.028123  0.861138  0.194340  1
  O  O49  1  0.946884  0.196957  0.527061  1
  O  O50  1  0.360671  0.195491  0.527009  1
  O  O51  1  0.415545  0.669164  0.290124  1
  O  O52  1  0.584286  0.332111  0.416616  1
  O  O53  1  0.084202  0.332866  0.249758  1
  O  O54  1  0.253099  0.999317  0.400141  1
  O  O55  1  0.907835  0.683815  0.017986  1
  O  O56  1  0.445554  0.192288  0.280044  1
  O  O57  1  0.722706  0.472273  0.137411  1
  O  O58  1  0.863537  0.192062  0.280719  1
  O  O59  1  0.305570  0.472833  0.137887  1
  O  O60  1  0.749371  0.000231  0.330595  1
  O  O61  1  0.584228  0.333628  0.998801  1
  O  O62  1  0.889974  0.139405  0.055663  1
  O  O63  1  0.473488  0.139907  0.054397  1
  O  O64  1  0.251682  0.999419  0.085058  1
