# generated using pymatgen
data_Na2Ni2(B4O7)3
_symmetry_space_group_name_H-M   'P 1'
_cell_length_a   4.51148446
_cell_length_b   11.73684707
_cell_length_c   14.52468225
_cell_angle_alpha   80.74002143
_cell_angle_beta   81.15095227
_cell_angle_gamma   78.97869885
_symmetry_Int_Tables_number   1
_chemical_formula_structural   Na2Ni2(B4O7)3
_chemical_formula_sum   'Na4 Ni4 B24 O42'
_cell_volume   739.03148448
_cell_formula_units_Z   2
loop_
 _symmetry_equiv_pos_site_id
 _symmetry_equiv_pos_as_xyz
  1  'x, y, z'
loop_
 _atom_site_type_symbol
 _atom_site_label
 _atom_site_symmetry_multiplicity
 _atom_site_fract_x
 _atom_site_fract_y
 _atom_site_fract_z
 _atom_site_occupancy
  Na  Na0  1  0.697668  0.703507  0.006995  1
  Na  Na1  1  0.593097  0.205144  0.508735  1
  Na  Na2  1  0.302804  0.296590  0.990232  1
  Na  Na3  1  0.408785  0.797237  0.492795  1
  Ni  Ni4  1  0.444949  0.488337  0.606309  1
  Ni  Ni5  1  0.555130  0.512138  0.393428  1
  Ni  Ni6  1  0.463847  0.988530  0.106067  1
  Ni  Ni7  1  0.538540  0.012878  0.893625  1
  B  B8  1  0.938483  0.117821  0.993261  1
  B  B9  1  0.058320  0.799101  0.172171  1
  B  B10  1  0.112633  0.826578  0.680694  1
  B  B11  1  0.971639  0.298511  0.672319  1
  B  B12  1  0.420826  0.962342  0.704373  1
  B  B13  1  0.092766  0.537582  0.795629  1
  B  B14  1  0.911930  0.463499  0.204265  1
  B  B15  1  0.882451  0.172750  0.320121  1
  B  B16  1  0.132636  0.334441  0.344213  1
  B  B17  1  0.377331  0.326841  0.181154  1
  B  B18  1  0.951644  0.615686  0.492843  1
  B  B19  1  0.438764  0.622721  0.200467  1
  B  B20  1  0.046743  0.383796  0.506774  1
  B  B21  1  0.029427  0.700984  0.327099  1
  B  B22  1  0.564672  0.378135  0.798687  1
  B  B23  1  0.187602  0.833706  0.843898  1
  B  B24  1  0.866109  0.664585  0.655818  1
  B  B25  1  0.813127  0.165563  0.156508  1
  B  B26  1  0.260245  0.877623  0.298821  1
  B  B27  1  0.739383  0.121605  0.701040  1
  B  B28  1  0.623783  0.671801  0.818996  1
  B  B29  1  0.574675  0.037539  0.295734  1
  B  B30  1  0.943027  0.201293  0.827345  1
  B  B31  1  0.063747  0.883667  0.006708  1
  O  O32  1  0.247211  0.367576  0.424523  1
  O  O33  1  0.785397  0.108907  0.794248  1
  O  O34  1  0.887733  0.854258  0.092931  1
  O  O35  1  0.314625  0.455142  0.835513  1
  O  O36  1  0.311935  0.609051  0.293605  1
  O  O37  1  0.846307  0.207111  0.636838  1
  O  O38  1  0.407596  0.730375  0.879484  1
  O  O39  1  0.693138  0.547211  0.164116  1
  O  O40  1  0.598597  0.045404  0.664567  1
  O  O41  1  0.040492  0.134034  0.075634  1
  O  O42  1  0.310256  0.708184  0.136164  1
  O  O43  1  0.147906  0.412199  0.142722  1
  O  O44  1  0.688556  0.390332  0.705431  1
  O  O45  1  0.606820  0.688248  0.725105  1
  O  O46  1  0.866043  0.750208  0.249614  1
  O  O47  1  0.748052  0.421707  0.503668  1
  O  O48  1  0.979214  0.231500  0.380747  1
  O  O49  1  0.113922  0.147954  0.906957  1
  O  O50  1  0.326345  0.922733  0.003402  1
  O  O51  1  0.594388  0.268992  0.120516  1
  O  O52  1  0.014637  0.768776  0.619674  1
  O  O53  1  0.961983  0.865860  0.924767  1
  O  O54  1  0.900220  0.433485  0.300501  1
  O  O55  1  0.364187  0.932995  0.800538  1
  O  O56  1  0.135130  0.250009  0.749910  1
  O  O57  1  0.396172  0.954863  0.335556  1
  O  O58  1  0.249856  0.577492  0.496158  1
  O  O59  1  0.102554  0.567156  0.699412  1
  O  O60  1  0.690682  0.291994  0.862855  1
  O  O61  1  0.675218  0.079594  0.995993  1
  O  O62  1  0.392064  0.309091  0.275245  1
  O  O63  1  0.020266  0.809395  0.774679  1
  O  O64  1  0.166092  0.353233  0.593067  1
  O  O65  1  0.751703  0.631210  0.575489  1
  O  O66  1  0.634466  0.066550  0.199525  1
  O  O67  1  0.217292  0.890399  0.205418  1
  O  O68  1  0.156629  0.791372  0.363049  1
  O  O69  1  0.298286  0.911035  0.642447  1
  O  O70  1  0.978700  0.188902  0.226307  1
  O  O71  1  0.696643  0.088396  0.358078  1
  O  O72  1  0.832713  0.646879  0.406529  1
  O  O73  1  0.855200  0.587356  0.857468  1
