# generated using pymatgen
data_Co7(SbO6)2
_symmetry_space_group_name_H-M   'P 1'
_cell_length_a   6.15798783
_cell_length_b   18.43167701
_cell_length_c   16.13932082
_cell_angle_alpha   19.07623403
_cell_angle_beta   55.91912176
_cell_angle_gamma   60.46953246
_symmetry_Int_Tables_number   1
_chemical_formula_structural   Co7(SbO6)2
_chemical_formula_sum   'Co14 Sb4 O24'
_cell_volume   491.28787814
_cell_formula_units_Z   2
loop_
 _symmetry_equiv_pos_site_id
 _symmetry_equiv_pos_as_xyz
  1  'x, y, z'
loop_
 _atom_site_type_symbol
 _atom_site_label
 _atom_site_symmetry_multiplicity
 _atom_site_fract_x
 _atom_site_fract_y
 _atom_site_fract_z
 _atom_site_occupancy
  Co  Co0  1  0.025283  0.008885  0.986938  1
  Co  Co1  1  0.000109  0.349567  0.988525  1
  Co  Co2  1  0.250065  0.231603  0.264223  1
  Co  Co3  1  0.015998  0.681443  0.985498  1
  Co  Co4  1  0.604649  0.114891  0.141394  1
  Co  Co5  1  0.222849  0.573221  0.264863  1
  Co  Co6  1  0.645259  0.466735  0.111083  1
  Co  Co7  1  0.622226  0.132203  0.624070  1
  Co  Co8  1  0.624157  0.290719  0.626248  1
  Co  Co9  1  0.233945  0.900423  0.266487  1
  Co  Co10  1  0.624313  0.790817  0.126052  1
  Co  Co11  1  0.626533  0.449735  0.627997  1
  Co  Co12  1  0.125254  0.790463  0.626623  1
  Co  Co13  1  0.625492  0.790464  0.626493  1
  Sb  Sb14  1  0.123070  0.134171  0.618466  1
  Sb  Sb15  1  0.126026  0.447688  0.633497  1
  Sb  Sb16  1  0.609809  0.621458  0.631186  1
  Sb  Sb17  1  0.640133  0.960390  0.620906  1
  O  O18  1  0.380050  0.013768  0.398066  1
  O  O19  1  0.384543  0.195784  0.396270  1
  O  O20  1  0.376057  0.356475  0.387160  1
  O  O21  1  0.857982  0.034852  0.392666  1
  O  O22  1  0.844209  0.195205  0.395253  1
  O  O23  1  0.411280  0.046642  0.865164  1
  O  O24  1  0.358695  0.537522  0.389981  1
  O  O25  1  0.358937  0.672028  0.409383  1
  O  O26  1  0.354489  0.220563  0.864551  1
  O  O27  1  0.894572  0.361322  0.387407  1
  O  O28  1  0.889708  0.044084  0.862271  1
  O  O29  1  0.836939  0.534944  0.387197  1
  O  O30  1  0.405597  0.386397  0.857177  1
  O  O31  1  0.390450  0.857721  0.391096  1
  O  O32  1  0.392936  0.546299  0.860092  1
  O  O33  1  0.872627  0.225426  0.864956  1
  O  O34  1  0.869019  0.681770  0.410342  1
  O  O35  1  0.865391  0.386008  0.855785  1
  O  O36  1  0.834646  0.854573  0.397915  1
  O  O37  1  0.415398  0.727078  0.854382  1
  O  O38  1  0.380008  0.900229  0.841605  1
  O  O39  1  0.870613  0.567169  0.855075  1
  O  O40  1  0.859279  0.723948  0.861287  1
  O  O41  1  0.890200  0.909851  0.842540  1
