# generated using pymatgen
data_Na5Cr2P(CO4)4
_symmetry_space_group_name_H-M   'P 1'
_cell_length_a   9.87910679
_cell_length_b   9.88716385
_cell_length_c   9.87910679
_cell_angle_alpha   59.47180470
_cell_angle_beta   90.95993098
_cell_angle_gamma   120.52819530
_symmetry_Int_Tables_number   1
_chemical_formula_structural   Na5Cr2P(CO4)4
_chemical_formula_sum   'Na10 Cr4 P2 C8 O32'
_cell_volume   677.06119864
_cell_formula_units_Z   2
loop_
 _symmetry_equiv_pos_site_id
 _symmetry_equiv_pos_as_xyz
  1  'x, y, z'
loop_
 _atom_site_type_symbol
 _atom_site_label
 _atom_site_symmetry_multiplicity
 _atom_site_fract_x
 _atom_site_fract_y
 _atom_site_fract_z
 _atom_site_occupancy
  Na  Na0  1  0.683267  0.344009  0.083371  1
  Na  Na1  1  0.338427  0.266906  0.317269  1
  Na  Na2  1  0.915825  0.233094  0.928477  1
  Na  Na3  1  0.916629  0.844009  0.316733  1
  Na  Na4  1  0.071523  0.733094  0.084175  1
  Na  Na5  1  0.072619  0.155991  0.660742  1
  Na  Na6  1  0.682731  0.766906  0.661573  1
  Na  Na7  1  0.328246  0.250000  0.921754  1
  Na  Na8  1  0.339258  0.655991  0.927381  1
  Na  Na9  1  0.078246  0.750000  0.671754  1
  Cr  Cr10  1  0.499546  0.996816  0.002501  1
  Cr  Cr11  1  0.502730  0.003184  0.499317  1
  Cr  Cr12  1  0.500683  0.503184  0.497270  1
  Cr  Cr13  1  0.997499  0.496816  0.500454  1
  P  P14  1  0.126559  0.250000  0.123441  1
  P  P15  1  0.876559  0.750000  0.873441  1
  C  C16  1  0.711580  0.074353  0.716105  1
  C  C17  1  0.709542  0.425647  0.362774  1
  C  C18  1  0.360043  0.072970  0.713026  1
  C  C19  1  0.714004  0.427030  0.712927  1
  C  C20  1  0.637226  0.925647  0.290458  1
  C  C21  1  0.283895  0.574353  0.288420  1
  C  C22  1  0.286974  0.572970  0.639957  1
  C  C23  1  0.287073  0.927030  0.285996  1
  O  O24  1  0.641582  0.046689  0.144871  1
  O  O25  1  0.685603  0.287589  0.356732  1
  O  O26  1  0.855679  0.212411  0.601986  1
  O  O27  1  0.403546  0.047419  0.310242  1
  O  O28  1  0.855129  0.546689  0.358418  1
  O  O29  1  0.321992  0.379109  0.057369  1
  O  O30  1  0.063522  0.120891  0.057117  1
  O  O31  1  0.591882  0.447239  0.367081  1
  O  O32  1  0.685680  0.052761  0.855357  1
  O  O33  1  0.358290  0.046247  0.596936  1
  O  O34  1  0.856817  0.453753  0.687958  1
  O  O35  1  0.067441  0.383232  0.049710  1
  O  O36  1  0.067059  0.116768  0.315791  1
  O  O37  1  0.643268  0.787589  0.314397  1
  O  O38  1  0.398014  0.712411  0.144321  1
  O  O39  1  0.689758  0.547419  0.596454  1
  O  O40  1  0.308440  0.453311  0.405107  1
  O  O41  1  0.598239  0.285617  0.856064  1
  O  O42  1  0.358320  0.214383  0.687378  1
  O  O43  1  0.942883  0.620891  0.936478  1
  O  O44  1  0.942631  0.879109  0.678008  1
  O  O45  1  0.144643  0.552761  0.314320  1
  O  O46  1  0.632919  0.947239  0.408118  1
  O  O47  1  0.312042  0.953753  0.143183  1
  O  O48  1  0.403064  0.546247  0.641710  1
  O  O49  1  0.950290  0.883232  0.932559  1
  O  O50  1  0.684209  0.616768  0.932941  1
  O  O51  1  0.142339  0.452581  0.643873  1
  O  O52  1  0.594893  0.953311  0.691560  1
  O  O53  1  0.312622  0.714383  0.641680  1
  O  O54  1  0.143936  0.785617  0.401761  1
  O  O55  1  0.356127  0.952581  0.857661  1
