# generated using pymatgen
data_Na2CuP2O7
_symmetry_space_group_name_H-M   'P 1'
_cell_length_a   9.00653912
_cell_length_b   8.83659494
_cell_length_c   5.16027948
_cell_angle_alpha   107.06139838
_cell_angle_beta   90.05392947
_cell_angle_gamma   66.21965095
_symmetry_Int_Tables_number   1
_chemical_formula_structural   Na2CuP2O7
_chemical_formula_sum   'Na4 Cu2 P4 O14'
_cell_volume   356.03570370
_cell_formula_units_Z   2
loop_
 _symmetry_equiv_pos_site_id
 _symmetry_equiv_pos_as_xyz
  1  'x, y, z'
loop_
 _atom_site_type_symbol
 _atom_site_label
 _atom_site_symmetry_multiplicity
 _atom_site_fract_x
 _atom_site_fract_y
 _atom_site_fract_z
 _atom_site_occupancy
  Na  Na0  1  0.566998  0.116552  0.947491  1
  Na  Na1  1  0.069190  0.113388  0.675280  1
  Na  Na2  1  0.928140  0.889258  0.326932  1
  Na  Na3  1  0.428983  0.887424  0.052031  1
  Cu  Cu4  1  0.497934  0.502190  0.001425  1
  Cu  Cu5  1  0.000830  0.501943  0.001618  1
  P  P6  1  0.811476  0.318464  0.265017  1
  P  P7  1  0.311939  0.316559  0.557707  1
  P  P8  1  0.686862  0.686506  0.444933  1
  P  P9  1  0.187582  0.683374  0.734165  1
  O  O10  1  0.877101  0.169934  0.383878  1
  O  O11  1  0.377230  0.166456  0.293615  1
  O  O12  1  0.942189  0.320048  0.074519  1
  O  O13  1  0.659143  0.319370  0.122965  1
  O  O14  1  0.442238  0.320333  0.750514  1
  O  O15  1  0.159988  0.318269  0.701993  1
  O  O16  1  0.748928  0.503343  0.518076  1
  O  O17  1  0.251336  0.498044  0.482742  1
  O  O18  1  0.838798  0.684545  0.300249  1
  O  O19  1  0.555758  0.684786  0.253420  1
  O  O20  1  0.338240  0.682911  0.879768  1
  O  O21  1  0.055933  0.681754  0.923840  1
  O  O22  1  0.622071  0.835106  0.712832  1
  O  O23  1  0.124284  0.831002  0.614695  1
