# generated using pymatgen
data_LaTa3O9
_symmetry_space_group_name_H-M   'P 1'
_cell_length_a   8.85020913
_cell_length_b   5.59456540
_cell_length_c   8.91665243
_cell_angle_alpha   108.23398734
_cell_angle_beta   78.46865646
_cell_angle_gamma   71.55409660
_symmetry_Int_Tables_number   1
_chemical_formula_structural   LaTa3O9
_chemical_formula_sum   'La2 Ta6 O18'
_cell_volume   375.25054361
_cell_formula_units_Z   2
loop_
 _symmetry_equiv_pos_site_id
 _symmetry_equiv_pos_as_xyz
  1  'x, y, z'
loop_
 _atom_site_type_symbol
 _atom_site_label
 _atom_site_symmetry_multiplicity
 _atom_site_fract_x
 _atom_site_fract_y
 _atom_site_fract_z
 _atom_site_occupancy
  La  La0  1  0.334518  0.334946  0.998667  1
  La  La1  1  0.665372  0.669961  0.999636  1
  Ta  Ta2  1  0.085271  0.333681  0.746162  1
  Ta  Ta3  1  0.238824  0.015212  0.263115  1
  Ta  Ta4  1  0.414781  0.665427  0.739231  1
  Ta  Ta5  1  0.587062  0.338785  0.258198  1
  Ta  Ta6  1  0.761765  0.990170  0.735213  1
  Ta  Ta7  1  0.915889  0.670850  0.251645  1
  O  O8  1  0.094402  0.329429  0.234756  1
  O  O9  1  0.167453  0.174148  0.502302  1
  O  O10  1  0.003741  0.499303  0.999166  1
  O  O11  1  0.423951  0.154536  0.228362  1
  O  O12  1  0.098036  0.808616  0.235427  1
  O  O13  1  0.251206  0.504404  0.767876  1
  O  O14  1  0.749693  0.982443  0.228204  1
  O  O15  1  0.424148  0.655942  0.229449  1
  O  O16  1  0.254158  0.018998  0.763033  1
  O  O17  1  0.504399  0.495615  0.498991  1
  O  O18  1  0.577176  0.352981  0.771839  1
  O  O19  1  0.650120  0.182234  0.999328  1
  O  O20  1  0.349110  0.830595  0.000179  1
  O  O21  1  0.749136  0.503872  0.232125  1
  O  O22  1  0.906317  0.190263  0.763944  1
  O  O23  1  0.574860  0.855747  0.773430  1
  O  O24  1  0.901315  0.675495  0.768474  1
  O  O25  1  0.831345  0.837393  0.496830  1
