# generated using pymatgen
data_Al2HgO4
_symmetry_space_group_name_H-M   'P 1'
_cell_length_a   6.05545600
_cell_length_b   6.05556348
_cell_length_c   6.05545600
_cell_angle_alpha   119.99941286
_cell_angle_beta   90.00000000
_cell_angle_gamma   60.00058714
_symmetry_Int_Tables_number   1
_chemical_formula_structural   Al2HgO4
_chemical_formula_sum   'Al4 Hg2 O8'
_cell_volume   157.01493978
_cell_formula_units_Z   2
loop_
 _symmetry_equiv_pos_site_id
 _symmetry_equiv_pos_as_xyz
  1  'x, y, z'
loop_
 _atom_site_type_symbol
 _atom_site_label
 _atom_site_symmetry_multiplicity
 _atom_site_fract_x
 _atom_site_fract_y
 _atom_site_fract_z
 _atom_site_occupancy
  Al  Al0  1  0.375000  0.750000  0.375000  1
  Al  Al1  1  0.875000  0.750000  0.375000  1
  Al  Al2  1  0.375000  0.250000  0.875000  1
  Al  Al3  1  0.375000  0.250000  0.375000  1
  Hg  Hg4  1  0.750000  0.500000  0.750000  1
  Hg  Hg5  1  0.000000  0.000000  0.000000  1
  O  O6  1  0.602508  0.794984  0.602513  1
  O  O7  1  0.602508  0.794984  0.192471  1
  O  O8  1  0.147492  0.705016  0.147487  1
  O  O9  1  0.147492  0.705016  0.557529  1
  O  O10  1  0.557529  0.294984  0.147492  1
  O  O11  1  0.147487  0.294984  0.147492  1
  O  O12  1  0.602513  0.205016  0.602508  1
  O  O13  1  0.192471  0.205016  0.602508  1
