# generated using pymatgen
data_Cs2ZnH12(SeO7)2
_symmetry_space_group_name_H-M   'P 1'
_cell_length_a   9.48745693
_cell_length_b   13.27662199
_cell_length_c   6.59355871
_cell_angle_alpha   90.00000000
_cell_angle_beta   105.40149815
_cell_angle_gamma   90.00000000
_symmetry_Int_Tables_number   1
_chemical_formula_structural   Cs2ZnH12(SeO7)2
_chemical_formula_sum   'Cs4 Zn2 H24 Se4 O28'
_cell_volume   800.70800420
_cell_formula_units_Z   2
loop_
 _symmetry_equiv_pos_site_id
 _symmetry_equiv_pos_as_xyz
  1  'x, y, z'
loop_
 _atom_site_type_symbol
 _atom_site_label
 _atom_site_symmetry_multiplicity
 _atom_site_fract_x
 _atom_site_fract_y
 _atom_site_fract_z
 _atom_site_occupancy
  Cs  Cs0  1  0.134004  0.353007  0.349557  1
  Cs  Cs1  1  0.365996  0.853007  0.650443  1
  Cs  Cs2  1  0.634004  0.146993  0.349557  1
  Cs  Cs3  1  0.865996  0.646993  0.650443  1
  Zn  Zn4  1  0.000000  0.000000  0.000000  1
  Zn  Zn5  1  0.500000  0.500000  0.000000  1
  H  H6  1  0.093734  0.062254  0.669462  1
  H  H7  1  0.029477  0.861755  0.308858  1
  H  H8  1  0.229369  0.403051  0.926550  1
  H  H9  1  0.268541  0.629321  0.904573  1
  H  H10  1  0.199181  0.093480  0.314151  1
  H  H11  1  0.144265  0.822367  0.999465  1
  H  H12  1  0.355735  0.322367  0.000535  1
  H  H13  1  0.300819  0.593480  0.685849  1
  H  H14  1  0.231459  0.129321  0.095427  1
  H  H15  1  0.270631  0.903051  0.073450  1
  H  H16  1  0.470523  0.361755  0.691142  1
  H  H17  1  0.406266  0.562254  0.330538  1
  H  H18  1  0.593734  0.437746  0.669462  1
  H  H19  1  0.529477  0.638245  0.308858  1
  H  H20  1  0.729369  0.096949  0.926550  1
  H  H21  1  0.768541  0.870679  0.904573  1
  H  H22  1  0.699181  0.406520  0.314151  1
  H  H23  1  0.644265  0.677633  0.999465  1
  H  H24  1  0.855735  0.177633  0.000535  1
  H  H25  1  0.800819  0.906520  0.685849  1
  H  H26  1  0.731459  0.370679  0.095427  1
  H  H27  1  0.770631  0.596949  0.073450  1
  H  H28  1  0.970523  0.138245  0.691142  1
  H  H29  1  0.906266  0.937746  0.330538  1
  Se  Se30  1  0.102964  0.645026  0.256333  1
  Se  Se31  1  0.397036  0.145026  0.743667  1
  Se  Se32  1  0.602964  0.854974  0.256333  1
  Se  Se33  1  0.897036  0.354974  0.743667  1
  O  O34  1  0.000445  0.065814  0.711184  1
  O  O35  1  0.047584  0.426503  0.796723  1
  O  O36  1  0.169604  0.893946  0.981719  1
  O  O37  1  0.080122  0.744832  0.399941  1
  O  O38  1  0.153829  0.110158  0.164052  1
  O  O39  1  0.140151  0.685325  0.033415  1
  O  O40  1  0.257527  0.075479  0.599174  1
  O  O41  1  0.242473  0.575479  0.400826  1
  O  O42  1  0.359849  0.185325  0.966585  1
  O  O43  1  0.346171  0.610158  0.835948  1
  O  O44  1  0.419878  0.244832  0.600059  1
  O  O45  1  0.330396  0.393946  0.018281  1
  O  O46  1  0.500445  0.434186  0.711184  1
  O  O47  1  0.547584  0.073497  0.796723  1
  O  O48  1  0.452416  0.926503  0.203277  1
  O  O49  1  0.499555  0.565814  0.288816  1
  O  O50  1  0.669604  0.606054  0.981719  1
  O  O51  1  0.580122  0.755168  0.399941  1
  O  O52  1  0.653829  0.389842  0.164052  1
  O  O53  1  0.640151  0.814675  0.033415  1
  O  O54  1  0.757527  0.424521  0.599174  1
  O  O55  1  0.742473  0.924521  0.400826  1
  O  O56  1  0.859849  0.314675  0.966585  1
  O  O57  1  0.846171  0.889842  0.835948  1
  O  O58  1  0.919878  0.255168  0.600059  1
  O  O59  1  0.830396  0.106054  0.018281  1
  O  O60  1  0.952416  0.573497  0.203277  1
  O  O61  1  0.999555  0.934186  0.288816  1
