# generated using pymatgen
data_VOF
_symmetry_space_group_name_H-M   'P 1'
_cell_length_a   4.74676784
_cell_length_b   14.23552538
_cell_length_c   3.10957127
_cell_angle_alpha   90.00000000
_cell_angle_beta   90.00000000
_cell_angle_gamma   93.29679149
_symmetry_Int_Tables_number   1
_chemical_formula_structural   VOF
_chemical_formula_sum   'V6 O6 F6'
_cell_volume   209.77448821
_cell_formula_units_Z   6
loop_
 _symmetry_equiv_pos_site_id
 _symmetry_equiv_pos_as_xyz
  1  'x, y, z'
loop_
 _atom_site_type_symbol
 _atom_site_label
 _atom_site_symmetry_multiplicity
 _atom_site_fract_x
 _atom_site_fract_y
 _atom_site_fract_z
 _atom_site_occupancy
  V  V0  1  0.046856  0.999421  0.000000  1
  V  V1  1  0.006372  0.333342  0.000000  1
  V  V2  1  0.982745  0.666794  0.000000  1
  V  V3  1  0.519460  0.166756  0.500000  1
  V  V4  1  0.494551  0.499841  0.500000  1
  V  V5  1  0.449680  0.833367  0.500000  1
  O  O6  1  0.202237  0.933782  0.500000  1
  O  O7  1  0.317250  0.102378  0.000000  1
  O  O8  1  0.282341  0.765400  0.000000  1
  O  O9  1  0.299481  0.433648  0.000000  1
  O  O10  1  0.713385  0.233128  0.000000  1
  O  O11  1  0.690131  0.567018  0.000000  1
  F  F12  1  0.206691  0.268946  0.500000  1
  F  F13  1  0.183338  0.601878  0.500000  1
  F  F14  1  0.697395  0.899068  0.000000  1
  F  F15  1  0.814429  0.061743  0.500000  1
  F  F16  1  0.806024  0.398367  0.500000  1
  F  F17  1  0.787632  0.735125  0.500000  1
