# generated using pymatgen
data_Li4Nb3Fe2Ni3O16
_symmetry_space_group_name_H-M   'P 1'
_cell_length_a   6.07139611
_cell_length_b   6.05549962
_cell_length_c   9.74228999
_cell_angle_alpha   89.68452417
_cell_angle_beta   91.28844001
_cell_angle_gamma   120.07802432
_symmetry_Int_Tables_number   1
_chemical_formula_structural   Li4Nb3Fe2Ni3O16
_chemical_formula_sum   'Li4 Nb3 Fe2 Ni3 O16'
_cell_volume   309.86233427
_cell_formula_units_Z   1
loop_
 _symmetry_equiv_pos_site_id
 _symmetry_equiv_pos_as_xyz
  1  'x, y, z'
loop_
 _atom_site_type_symbol
 _atom_site_label
 _atom_site_symmetry_multiplicity
 _atom_site_fract_x
 _atom_site_fract_y
 _atom_site_fract_z
 _atom_site_occupancy
  Li  Li0  1  0.330090  0.668793  0.883393  1
  Li  Li1  1  0.954620  0.975711  0.986451  1
  Li  Li2  1  0.988740  0.994235  0.503958  1
  Li  Li3  1  0.662919  0.333425  0.403357  1
  Nb  Nb4  1  0.172333  0.833535  0.214097  1
  Nb  Nb5  1  0.171721  0.337219  0.214089  1
  Nb  Nb6  1  0.345398  0.171231  0.718164  1
  Fe  Fe7  1  0.354982  0.672839  0.506748  1
  Fe  Fe8  1  0.697805  0.350570  0.975052  1
  Ni  Ni9  1  0.659470  0.830332  0.212453  1
  Ni  Ni10  1  0.829202  0.659803  0.711777  1
  Ni  Ni11  1  0.835057  0.173650  0.712357  1
  O  O12  1  0.197140  0.854920  0.595419  1
  O  O13  1  0.026073  0.511450  0.330703  1
  O  O14  1  0.314797  0.658818  0.098989  1
  O  O15  1  0.005990  0.002468  0.316223  1
  O  O16  1  0.998464  0.981072  0.804037  1
  O  O17  1  0.182459  0.334909  0.598048  1
  O  O18  1  0.467724  0.956715  0.341253  1
  O  O19  1  0.466964  0.510047  0.340078  1
  O  O20  1  0.320502  0.161050  0.104328  1
  O  O21  1  0.679929  0.825725  0.600073  1
  O  O22  1  0.501019  0.467960  0.849235  1
  O  O23  1  0.513898  0.040040  0.848161  1
  O  O24  1  0.666191  0.348214  0.605731  1
  O  O25  1  0.846392  0.672974  0.100514  1
  O  O26  1  0.961939  0.497333  0.835639  1
  O  O27  1  0.848178  0.175264  0.097513  1
