# generated using pymatgen
data_Co6O5F7
_symmetry_space_group_name_H-M   'P 1'
_cell_length_a   4.66867575
_cell_length_b   7.63470939
_cell_length_c   5.58399670
_cell_angle_alpha   94.31338148
_cell_angle_beta   93.18797691
_cell_angle_gamma   87.16075956
_symmetry_Int_Tables_number   1
_chemical_formula_structural   Co6O5F7
_chemical_formula_sum   'Co6 O5 F7'
_cell_volume   197.95929909
_cell_formula_units_Z   1
loop_
 _symmetry_equiv_pos_site_id
 _symmetry_equiv_pos_as_xyz
  1  'x, y, z'
loop_
 _atom_site_type_symbol
 _atom_site_label
 _atom_site_symmetry_multiplicity
 _atom_site_fract_x
 _atom_site_fract_y
 _atom_site_fract_z
 _atom_site_occupancy
  Co  Co0  1  0.508576  0.999411  0.510992  1
  Co  Co1  1  0.489189  0.331182  0.825373  1
  Co  Co2  1  0.530546  0.678523  0.146103  1
  Co  Co3  1  0.997124  0.666640  0.674805  1
  Co  Co4  1  0.026974  0.328805  0.344864  1
  Co  Co5  1  0.959190  0.000198  0.987388  1
  O  O6  1  0.797982  0.768173  0.967373  1
  O  O7  1  0.698063  0.775463  0.469269  1
  O  O8  1  0.686653  0.103864  0.798858  1
  O  O9  1  0.299598  0.559852  0.859461  1
  O  O10  1  0.321864  0.224149  0.544893  1
  F  F11  1  0.807473  0.434525  0.630796  1
  F  F12  1  0.802473  0.100235  0.296793  1
  F  F13  1  0.693375  0.425469  0.127337  1
  F  F14  1  0.292851  0.908289  0.207478  1
  F  F15  1  0.190625  0.223647  0.035475  1
  F  F16  1  0.194284  0.900008  0.711435  1
  F  F17  1  0.203160  0.571568  0.361308  1
