# generated using pymatgen
data_CuH9C4S4N
_symmetry_space_group_name_H-M   'P 1'
_cell_length_a   9.50158637
_cell_length_b   10.97899000
_cell_length_c   10.98202583
_cell_angle_alpha   78.37578120
_cell_angle_beta   74.14170013
_cell_angle_gamma   66.05267983
_symmetry_Int_Tables_number   1
_chemical_formula_structural   CuH9C4S4N
_chemical_formula_sum   'Cu4 H36 C16 S16 N4'
_cell_volume   1001.79652000
_cell_formula_units_Z   4
loop_
 _symmetry_equiv_pos_site_id
 _symmetry_equiv_pos_as_xyz
  1  'x, y, z'
loop_
 _atom_site_type_symbol
 _atom_site_label
 _atom_site_symmetry_multiplicity
 _atom_site_fract_x
 _atom_site_fract_y
 _atom_site_fract_z
 _atom_site_occupancy
  Cu  Cu0  1  0.570414  0.942765  0.109956  1
  Cu  Cu1  1  0.429586  0.057235  0.890044  1
  Cu  Cu2  1  0.082545  0.454575  0.377831  1
  Cu  Cu3  1  0.917455  0.545425  0.622169  1
  H  H4  1  0.306510  0.472344  0.053921  1
  H  H5  1  0.693490  0.527656  0.946079  1
  H  H6  1  0.305926  0.588248  0.913466  1
  H  H7  1  0.694074  0.411752  0.086534  1
  H  H8  1  0.133139  0.553195  0.991265  1
  H  H9  1  0.866861  0.446805  0.008735  1
  H  H10  1  0.032353  0.876476  0.102463  1
  H  H11  1  0.967647  0.123524  0.897537  1
  H  H12  1  0.974382  0.786329  0.019827  1
  H  H13  1  0.025618  0.213671  0.980173  1
  H  H14  1  0.136414  0.838444  0.944078  1
  H  H15  1  0.863586  0.161556  0.055922  1
  H  H16  1  0.386584  0.593928  0.161767  1
  H  H17  1  0.613416  0.406072  0.838233  1
  H  H18  1  0.266352  0.764503  0.188495  1
  H  H19  1  0.733648  0.235497  0.811505  1
  H  H20  1  0.385184  0.725131  0.034305  1
  H  H21  1  0.614816  0.274869  0.965695  1
  H  H22  1  0.884568  0.058084  0.328353  1
  H  H23  1  0.115432  0.941916  0.671647  1
  H  H24  1  0.935251  0.133821  0.431410  1
  H  H25  1  0.064749  0.866179  0.568590  1
  H  H26  1  0.860270  0.231175  0.295926  1
  H  H27  1  0.139730  0.768825  0.704074  1
  H  H28  1  0.697982  0.989778  0.491404  1
  H  H29  1  0.302018  0.010222  0.508596  1
  H  H30  1  0.533634  0.110789  0.581513  1
  H  H31  1  0.466366  0.889211  0.418487  1
  H  H32  1  0.724202  0.056857  0.615552  1
  H  H33  1  0.275798  0.943143  0.384448  1
  H  H34  1  0.653902  0.392016  0.426081  1
  H  H35  1  0.346098  0.607984  0.573919  1
  H  H36  1  0.700446  0.303182  0.574214  1
  H  H37  1  0.299554  0.696818  0.425786  1
  H  H38  1  0.509213  0.343462  0.545592  1
  H  H39  1  0.490787  0.656538  0.454408  1
  C  C40  1  0.795199  0.655777  0.250389  1
  C  C41  1  0.204801  0.344223  0.749611  1
  C  C42  1  0.389971  0.214322  0.240900  1
  C  C43  1  0.610029  0.785678  0.759100  1
  C  C44  1  0.234444  0.567187  0.007530  1
  C  C45  1  0.765556  0.432813  0.992470  1
  C  C46  1  0.076048  0.800022  0.035663  1
  C  C47  1  0.923952  0.199978  0.964337  1
  C  C48  1  0.311447  0.690071  0.119343  1
  C  C49  1  0.688553  0.309929  0.880657  1
  C  C50  1  0.850259  0.150584  0.371633  1
  C  C51  1  0.149741  0.849416  0.628367  1
  C  C52  1  0.660053  0.081152  0.537544  1
  C  C53  1  0.339947  0.918848  0.462456  1
  C  C54  1  0.634975  0.313431  0.500427  1
  C  C55  1  0.365025  0.686569  0.499573  1
  S  S56  1  0.304171  0.040958  0.105048  1
  S  S57  1  0.695829  0.959042  0.894952  1
  S  S58  1  0.229041  0.206015  0.197921  1
  S  S59  1  0.770959  0.793985  0.802079  1
  S  S60  1  0.577585  0.106670  0.200366  1
  S  S61  1  0.422415  0.893330  0.799634  1
  S  S62  1  0.345576  0.343542  0.326170  1
  S  S63  1  0.654424  0.656458  0.673830  1
  S  S64  1  0.983905  0.671103  0.431639  1
  S  S65  1  0.016095  0.328897  0.568361  1
  S  S66  1  0.811922  0.770437  0.331327  1
  S  S67  1  0.188078  0.229563  0.668673  1
  S  S68  1  0.658373  0.718959  0.158228  1
  S  S69  1  0.341627  0.281041  0.841772  1
  S  S70  1  0.901820  0.490105  0.263022  1
  S  S71  1  0.098180  0.509895  0.736978  1
  N  N72  1  0.181909  0.674534  0.087648  1
  N  N73  1  0.818091  0.325466  0.912352  1
  N  N74  1  0.690101  0.187791  0.446168  1
  N  N75  1  0.309899  0.812209  0.553832  1
