# generated using pymatgen
data_Fe8SiO12
_symmetry_space_group_name_H-M   'P 1'
_cell_length_a   6.00298381
_cell_length_b   9.11982281
_cell_length_c   8.48437632
_cell_angle_alpha   89.28485666
_cell_angle_beta   90.00000000
_cell_angle_gamma   90.00000000
_symmetry_Int_Tables_number   1
_chemical_formula_structural   Fe8SiO12
_chemical_formula_sum   'Fe16 Si2 O24'
_cell_volume   464.45074648
_cell_formula_units_Z   2
loop_
 _symmetry_equiv_pos_site_id
 _symmetry_equiv_pos_as_xyz
  1  'x, y, z'
loop_
 _atom_site_type_symbol
 _atom_site_label
 _atom_site_symmetry_multiplicity
 _atom_site_fract_x
 _atom_site_fract_y
 _atom_site_fract_z
 _atom_site_occupancy
  Fe  Fe0  1  0.000000  0.000000  0.000000  1
  Fe  Fe1  1  0.986932  0.336693  0.504755  1
  Fe  Fe2  1  0.013068  0.663307  0.495245  1
  Fe  Fe3  1  0.250000  0.008956  0.381367  1
  Fe  Fe4  1  0.250000  0.324376  0.135275  1
  Fe  Fe5  1  0.250000  0.165369  0.752373  1
  Fe  Fe6  1  0.250000  0.499100  0.783089  1
  Fe  Fe7  1  0.250000  0.834355  0.753566  1
  Fe  Fe8  1  0.500000  0.000000  0.000000  1
  Fe  Fe9  1  0.486932  0.663307  0.495245  1
  Fe  Fe10  1  0.513068  0.336693  0.504755  1
  Fe  Fe11  1  0.750000  0.991044  0.618633  1
  Fe  Fe12  1  0.750000  0.165645  0.246434  1
  Fe  Fe13  1  0.750000  0.500900  0.216911  1
  Fe  Fe14  1  0.750000  0.675624  0.864725  1
  Fe  Fe15  1  0.750000  0.834631  0.247627  1
  Si  Si16  1  0.250000  0.671814  0.131243  1
  Si  Si17  1  0.750000  0.328186  0.868757  1
  O  O18  1  0.010553  0.988763  0.751187  1
  O  O19  1  0.985898  0.327215  0.259951  1
  O  O20  1  0.023430  0.668652  0.244843  1
  O  O21  1  0.250000  0.162396  0.996341  1
  O  O22  1  0.250000  0.182402  0.509433  1
  O  O23  1  0.250000  0.491998  0.529291  1
  O  O24  1  0.250000  0.516931  0.028134  1
  O  O25  1  0.250000  0.814102  0.007238  1
  O  O26  1  0.250000  0.828702  0.507830  1
  O  O27  1  0.514102  0.327215  0.259951  1
  O  O28  1  0.476570  0.668652  0.244843  1
  O  O29  1  0.489447  0.988763  0.751187  1
  O  O30  1  0.510553  0.011237  0.248813  1
  O  O31  1  0.523430  0.331348  0.755157  1
  O  O32  1  0.485898  0.672785  0.740049  1
  O  O33  1  0.750000  0.171298  0.492170  1
  O  O34  1  0.750000  0.508002  0.470709  1
  O  O35  1  0.750000  0.185898  0.992762  1
  O  O36  1  0.750000  0.483069  0.971866  1
  O  O37  1  0.750000  0.817598  0.490567  1
  O  O38  1  0.750000  0.837604  0.003659  1
  O  O39  1  0.014102  0.672785  0.740049  1
  O  O40  1  0.976570  0.331348  0.755157  1
  O  O41  1  0.989447  0.011237  0.248813  1
