# generated using pymatgen
data_Na3Ni2P2(CO7)2
_symmetry_space_group_name_H-M   'P 1'
_cell_length_a   10.27133877
_cell_length_b   10.51778247
_cell_length_c   6.49256143
_cell_angle_alpha   90.00000000
_cell_angle_beta   90.00000000
_cell_angle_gamma   59.52190339
_symmetry_Int_Tables_number   1
_chemical_formula_structural   Na3Ni2P2(CO7)2
_chemical_formula_sum   'Na6 Ni4 P4 C4 O28'
_cell_volume   604.48488628
_cell_formula_units_Z   2
loop_
 _symmetry_equiv_pos_site_id
 _symmetry_equiv_pos_as_xyz
  1  'x, y, z'
loop_
 _atom_site_type_symbol
 _atom_site_label
 _atom_site_symmetry_multiplicity
 _atom_site_fract_x
 _atom_site_fract_y
 _atom_site_fract_z
 _atom_site_occupancy
  Na  Na0  1  0.002673  0.248116  0.038648  1
  Na  Na1  1  0.496650  0.256959  0.987104  1
  Na  Na2  1  0.496348  0.255984  0.515445  1
  Na  Na3  1  0.502673  0.748116  0.461352  1
  Na  Na4  1  0.996348  0.755984  0.984555  1
  Na  Na5  1  0.996650  0.756959  0.512896  1
  Ni  Ni6  1  0.278202  0.068290  0.745600  1
  Ni  Ni7  1  0.215085  0.432259  0.249916  1
  Ni  Ni8  1  0.778202  0.568290  0.754400  1
  Ni  Ni9  1  0.715085  0.932259  0.250084  1
  P  P10  1  0.352652  0.070321  0.251553  1
  P  P11  1  0.143353  0.428108  0.750185  1
  P  P12  1  0.852652  0.570321  0.248447  1
  P  P13  1  0.643353  0.928108  0.749815  1
  C  C14  1  0.817756  0.099824  0.252414  1
  C  C15  1  0.317756  0.599824  0.247586  1
  C  C16  1  0.684687  0.394449  0.746465  1
  C  C17  1  0.184687  0.894449  0.753535  1
  O  O18  1  0.098302  0.037167  0.760786  1
  O  O19  1  0.267615  0.063638  0.060229  1
  O  O20  1  0.276035  0.049920  0.444268  1
  O  O21  1  0.141915  0.282183  0.756808  1
  O  O22  1  0.020059  0.440733  0.246081  1
  O  O23  1  0.477822  0.062518  0.750017  1
  O  O24  1  0.357870  0.215417  0.255568  1
  O  O25  1  0.230806  0.440516  0.936836  1
  O  O26  1  0.229296  0.439545  0.561912  1
  O  O27  1  0.672474  0.146373  0.252069  1
  O  O28  1  0.172474  0.646373  0.247931  1
  O  O29  1  0.402647  0.456174  0.248819  1
  O  O30  1  0.634592  0.306771  0.748718  1
  O  O31  1  0.134592  0.806771  0.751282  1
  O  O32  1  0.868165  0.185398  0.253244  1
  O  O33  1  0.368165  0.685398  0.246756  1
  O  O34  1  0.598302  0.537167  0.739214  1
  O  O35  1  0.828148  0.351473  0.753007  1
  O  O36  1  0.328148  0.851473  0.746993  1
  O  O37  1  0.776035  0.549920  0.055732  1
  O  O38  1  0.767615  0.563638  0.439771  1
  O  O39  1  0.641915  0.782183  0.743192  1
  O  O40  1  0.520059  0.940733  0.253919  1
  O  O41  1  0.977822  0.562518  0.749983  1
  O  O42  1  0.857870  0.715417  0.244432  1
  O  O43  1  0.730806  0.940516  0.563164  1
  O  O44  1  0.729296  0.939545  0.938088  1
  O  O45  1  0.902647  0.956174  0.251181  1
