# generated using pymatgen
data_NaLi3Ti2Cr2(PO4)6
_symmetry_space_group_name_H-M   'P 1'
_cell_length_a   8.47626948
_cell_length_b   8.88418221
_cell_length_c   8.47626975
_cell_angle_alpha   118.49243396
_cell_angle_beta   59.99999714
_cell_angle_gamma   118.49243335
_symmetry_Int_Tables_number   1
_chemical_formula_structural   NaLi3Ti2Cr2(PO4)6
_chemical_formula_sum   'Na1 Li3 Ti2 Cr2 P6 O24'
_cell_volume   461.36127049
_cell_formula_units_Z   1
loop_
 _symmetry_equiv_pos_site_id
 _symmetry_equiv_pos_as_xyz
  1  'x, y, z'
loop_
 _atom_site_type_symbol
 _atom_site_label
 _atom_site_symmetry_multiplicity
 _atom_site_fract_x
 _atom_site_fract_y
 _atom_site_fract_z
 _atom_site_occupancy
  Na  Na0  1  0.994223  0.982669  0.994223  1
  Li  Li1  1  0.346988  0.165843  0.093902  1
  Li  Li2  1  0.093902  0.165843  0.724953  1
  Li  Li3  1  0.724953  0.165843  0.346988  1
  Ti  Ti4  1  0.641566  0.924696  0.641566  1
  Ti  Ti5  1  0.855775  0.567325  0.855775  1
  Cr  Cr6  1  0.145609  0.436825  0.145609  1
  Cr  Cr7  1  0.350325  0.050976  0.350325  1
  P  P8  1  0.031012  0.246507  0.461604  1
  P  P9  1  0.539921  0.751891  0.245622  1
  P  P10  1  0.245622  0.751891  0.966349  1
  P  P11  1  0.753891  0.246507  0.031012  1
  P  P12  1  0.461604  0.246507  0.753891  1
  P  P13  1  0.966349  0.751891  0.539921  1
  O  O14  1  0.234140  0.919464  0.149636  1
  O  O15  1  0.149636  0.919464  0.535687  1
  O  O16  1  0.999025  0.424915  0.616180  1
  O  O17  1  0.116615  0.256349  0.254126  1
  O  O18  1  0.535687  0.919464  0.234140  1
  O  O19  1  0.102003  0.734664  0.891918  1
  O  O20  1  0.383361  0.578331  0.199243  1
  O  O21  1  0.172856  0.206732  0.488440  1
  O  O22  1  0.529388  0.793960  0.451099  1
  O  O23  1  0.199243  0.578331  0.995728  1
  O  O24  1  0.740742  0.734664  0.102003  1
  O  O25  1  0.451099  0.793960  0.813473  1
  O  O26  1  0.545437  0.206732  0.172856  1
  O  O27  1  0.254126  0.256349  0.885608  1
  O  O28  1  0.809710  0.424915  0.999025  1
  O  O29  1  0.488440  0.206732  0.545437  1
  O  O30  1  0.813473  0.793960  0.529388  1
  O  O31  1  0.616180  0.424915  0.809710  1
  O  O32  1  0.885608  0.256349  0.116615  1
  O  O33  1  0.476816  0.098145  0.789783  1
  O  O34  1  0.891918  0.734664  0.740742  1
  O  O35  1  0.995728  0.578331  0.383361  1
  O  O36  1  0.831547  0.098145  0.476816  1
  O  O37  1  0.789783  0.098145  0.831547  1
