# generated using pymatgen
data_ScTlO2
_symmetry_space_group_name_H-M   'P 1'
_cell_length_a   3.26466228
_cell_length_b   3.26482385
_cell_length_c   12.96808494
_cell_angle_alpha   90.00298526
_cell_angle_beta   90.00394068
_cell_angle_gamma   120.00029616
_symmetry_Int_Tables_number   1
_chemical_formula_structural   ScTlO2
_chemical_formula_sum   'Sc2 Tl2 O4'
_cell_volume   119.70249301
_cell_formula_units_Z   2
loop_
 _symmetry_equiv_pos_site_id
 _symmetry_equiv_pos_as_xyz
  1  'x, y, z'
loop_
 _atom_site_type_symbol
 _atom_site_label
 _atom_site_symmetry_multiplicity
 _atom_site_fract_x
 _atom_site_fract_y
 _atom_site_fract_z
 _atom_site_occupancy
  Sc  Sc0  1  0.333226  0.666755  0.249995  1
  Sc  Sc1  1  0.333198  0.666771  0.750004  1
  Tl  Tl2  1  0.000404  0.999670  0.000003  1
  Tl  Tl3  1  0.667045  0.332913  0.500002  1
  O  O4  1  0.999870  0.000116  0.331770  1
  O  O5  1  0.999877  0.000136  0.668226  1
  O  O6  1  0.666553  0.333507  0.831780  1
  O  O7  1  0.666528  0.333433  0.168218  1
