# generated using pymatgen
data_LiCuPO4
_symmetry_space_group_name_H-M   'P 1'
_cell_length_a   7.49408834
_cell_length_b   7.49481526
_cell_length_c   9.77944758
_cell_angle_alpha   90.00435767
_cell_angle_beta   89.98767380
_cell_angle_gamma   119.98626645
_symmetry_Int_Tables_number   1
_chemical_formula_structural   LiCuPO4
_chemical_formula_sum   'Li6 Cu6 P6 O24'
_cell_volume   475.75654228
_cell_formula_units_Z   6
loop_
 _symmetry_equiv_pos_site_id
 _symmetry_equiv_pos_as_xyz
  1  'x, y, z'
loop_
 _atom_site_type_symbol
 _atom_site_label
 _atom_site_symmetry_multiplicity
 _atom_site_fract_x
 _atom_site_fract_y
 _atom_site_fract_z
 _atom_site_occupancy
  Li  Li0  1  0.069455  0.587597  0.482137  1
  Li  Li1  1  0.518096  0.930583  0.482161  1
  Li  Li2  1  0.412396  0.481809  0.482194  1
  Li  Li3  1  0.481826  0.412376  0.982147  1
  Li  Li4  1  0.587520  0.069409  0.982171  1
  Li  Li5  1  0.930546  0.518139  0.982173  1
  Cu  Cu6  1  0.226929  0.956594  0.271124  1
  Cu  Cu7  1  0.043509  0.270215  0.271071  1
  Cu  Cu8  1  0.270085  0.043392  0.771039  1
  Cu  Cu9  1  0.729656  0.773399  0.271136  1
  Cu  Cu10  1  0.773428  0.729707  0.771097  1
  Cu  Cu11  1  0.956402  0.226783  0.771188  1
  P  P12  1  0.333357  0.666685  0.181558  1
  P  P13  1  0.999983  0.999981  0.006886  1
  P  P14  1  0.000027  0.000006  0.506887  1
  P  P15  1  0.333361  0.666652  0.770082  1
  P  P16  1  0.666654  0.333305  0.681562  1
  P  P17  1  0.666671  0.333386  0.270073  1
  O  O18  1  0.098109  0.873214  0.456194  1
  O  O19  1  0.240975  0.797167  0.123186  1
  O  O20  1  0.398673  0.885262  0.828629  1
  O  O21  1  0.114685  0.513392  0.828644  1
  O  O22  1  0.202908  0.443802  0.123197  1
  O  O23  1  0.333355  0.666721  0.339594  1
  O  O24  1  0.999945  0.999982  0.172745  1
  O  O25  1  -0.000054  0.999963  0.672764  1
  O  O26  1  0.333379  0.666694  0.612475  1
  O  O27  1  0.126785  0.224811  0.456172  1
  O  O28  1  0.224824  0.126752  0.956188  1
  O  O29  1  0.556252  0.759003  0.123160  1
  O  O30  1  0.486595  0.601232  0.828614  1
  O  O31  1  0.775181  0.901986  0.456242  1
  O  O32  1  0.443805  0.202859  0.623180  1
  O  O33  1  0.513433  0.114779  0.328606  1
  O  O34  1  0.601293  0.486670  0.328638  1
  O  O35  1  0.759081  0.556167  0.623178  1
  O  O36  1  0.666593  0.333289  0.839594  1
  O  O37  1  0.666672  0.333359  0.112472  1
  O  O38  1  0.901920  0.775177  0.956161  1
  O  O39  1  0.797226  0.240932  0.623192  1
  O  O40  1  0.885302  0.398722  0.328600  1
  O  O41  1  0.873163  0.098047  0.956225  1
