# generated using pymatgen
data_Mn3OF5
_symmetry_space_group_name_H-M   'P 1'
_cell_length_a   7.50539967
_cell_length_b   5.88648360
_cell_length_c   5.88648360
_cell_angle_alpha   73.85888669
_cell_angle_beta   73.67955207
_cell_angle_gamma   73.67955207
_symmetry_Int_Tables_number   1
_chemical_formula_structural   Mn3OF5
_chemical_formula_sum   'Mn6 O2 F10'
_cell_volume   233.87079582
_cell_formula_units_Z   2
loop_
 _symmetry_equiv_pos_site_id
 _symmetry_equiv_pos_as_xyz
  1  'x, y, z'
loop_
 _atom_site_type_symbol
 _atom_site_label
 _atom_site_symmetry_multiplicity
 _atom_site_fract_x
 _atom_site_fract_y
 _atom_site_fract_z
 _atom_site_occupancy
  Mn  Mn0  1  0.845358  0.671956  0.671956  1
  Mn  Mn1  1  0.653679  0.340225  0.340225  1
  Mn  Mn2  1  0.319278  0.658267  0.658267  1
  Mn  Mn3  1  0.174858  0.339565  0.339565  1
  Mn  Mn4  1  0.497464  0.997529  0.997529  1
  Mn  Mn5  1  0.998107  0.988382  0.988382  1
  O  O6  1  0.045379  0.758027  0.758027  1
  O  O7  1  0.364672  0.447295  0.447295  1
  F  F8  1  0.673813  0.028484  0.635302  1
  F  F9  1  0.335871  0.360420  0.975902  1
  F  F10  1  0.306024  0.879304  0.879304  1
  F  F11  1  0.624665  0.581917  0.581917  1
  F  F12  1  0.964190  0.231976  0.231976  1
  F  F13  1  0.701428  0.103346  0.103346  1
  F  F14  1  0.335871  0.975902  0.360420  1
  F  F15  1  0.673813  0.635302  0.028484  1
  F  F16  1  0.992766  0.304371  0.697732  1
  F  F17  1  0.992766  0.697732  0.304371  1
