# generated using pymatgen
data_SbOF3
_symmetry_space_group_name_H-M   'P 1'
_cell_length_a   7.50181163
_cell_length_b   5.58808581
_cell_length_c   9.48439378
_cell_angle_alpha   90.00000000
_cell_angle_beta   112.71737635
_cell_angle_gamma   90.00000000
_symmetry_Int_Tables_number   1
_chemical_formula_structural   SbOF3
_chemical_formula_sum   'Sb4 O4 F12'
_cell_volume   366.74819534
_cell_formula_units_Z   4
loop_
 _symmetry_equiv_pos_site_id
 _symmetry_equiv_pos_as_xyz
  1  'x, y, z'
loop_
 _atom_site_type_symbol
 _atom_site_label
 _atom_site_symmetry_multiplicity
 _atom_site_fract_x
 _atom_site_fract_y
 _atom_site_fract_z
 _atom_site_occupancy
  Sb  Sb0  1  0.310249  0.925201  0.506147  1
  Sb  Sb1  1  0.689751  0.425201  0.993853  1
  Sb  Sb2  1  0.310249  0.574799  0.006147  1
  Sb  Sb3  1  0.689751  0.074799  0.493853  1
  O  O4  1  0.537347  0.725643  0.990366  1
  O  O5  1  0.462653  0.225643  0.509634  1
  O  O6  1  0.537347  0.774357  0.490366  1
  O  O7  1  0.462653  0.274357  0.009634  1
  F  F8  1  0.094809  0.466575  0.837098  1
  F  F9  1  0.094809  0.033425  0.337098  1
  F  F10  1  0.179166  0.636517  0.509610  1
  F  F11  1  0.302139  0.009253  0.696702  1
  F  F12  1  0.179166  0.863483  0.009610  1
  F  F13  1  0.302139  0.490747  0.196702  1
  F  F14  1  0.697861  0.509253  0.803298  1
  F  F15  1  0.820834  0.136517  0.990390  1
  F  F16  1  0.697861  0.990747  0.303298  1
  F  F17  1  0.820834  0.363483  0.490390  1
  F  F18  1  0.905191  0.966575  0.662902  1
  F  F19  1  0.905191  0.533425  0.162902  1
