# generated using pymatgen
data_Ti2Ni3Te3O16
_symmetry_space_group_name_H-M   'P 1'
_cell_length_a   6.09167677
_cell_length_b   6.07322716
_cell_length_c   9.31041103
_cell_angle_alpha   89.99979577
_cell_angle_beta   91.18763986
_cell_angle_gamma   119.89933887
_symmetry_Int_Tables_number   1
_chemical_formula_structural   Ti2Ni3Te3O16
_chemical_formula_sum   'Ti2 Ni3 Te3 O16'
_cell_volume   298.51856312
_cell_formula_units_Z   1
loop_
 _symmetry_equiv_pos_site_id
 _symmetry_equiv_pos_as_xyz
  1  'x, y, z'
loop_
 _atom_site_type_symbol
 _atom_site_label
 _atom_site_symmetry_multiplicity
 _atom_site_fract_x
 _atom_site_fract_y
 _atom_site_fract_z
 _atom_site_occupancy
  Ti  Ti0  1  0.354390  0.677202  0.513093  1
  Ti  Ti1  1  0.724571  0.362296  0.960107  1
  Ni  Ni2  1  0.653126  0.826573  0.210256  1
  Ni  Ni3  1  0.836571  0.669134  0.704631  1
  Ni  Ni4  1  0.836554  0.167452  0.704639  1
  Te  Te5  1  0.156062  0.826852  0.215091  1
  Te  Te6  1  0.156068  0.329224  0.215092  1
  Te  Te7  1  0.340855  0.170440  0.713647  1
  O  O8  1  0.190783  0.844159  0.598537  1
  O  O9  1  0.020283  0.510148  0.335526  1
  O  O10  1  0.302297  0.651154  0.097168  1
  O  O11  1  0.000927  0.000472  0.323749  1
  O  O12  1  0.023532  0.011770  0.807219  1
  O  O13  1  0.190774  0.346642  0.598540  1
  O  O14  1  0.451393  0.947728  0.335386  1
  O  O15  1  0.451402  0.503680  0.335383  1
  O  O16  1  0.309253  0.154629  0.107731  1
  O  O17  1  0.656532  0.828274  0.590660  1
  O  O18  1  0.518238  0.468340  0.847070  1
  O  O19  1  0.518241  0.049921  0.847072  1
  O  O20  1  0.643338  0.321681  0.602900  1
  O  O21  1  0.845383  0.670104  0.104468  1
  O  O22  1  0.974039  0.487026  0.843288  1
  O  O23  1  0.845388  0.175301  0.104468  1
