# generated using pymatgen
data_Li5V3P8O29
_symmetry_space_group_name_H-M   'P 1'
_cell_length_a   9.79809140
_cell_length_b   9.80148922
_cell_length_c   14.08596890
_cell_angle_alpha   90.07913715
_cell_angle_beta   91.29061835
_cell_angle_gamma   60.10817049
_symmetry_Int_Tables_number   1
_chemical_formula_structural   Li5V3P8O29
_chemical_formula_sum   'Li10 V6 P16 O58'
_cell_volume   1172.42496645
_cell_formula_units_Z   2
loop_
 _symmetry_equiv_pos_site_id
 _symmetry_equiv_pos_as_xyz
  1  'x, y, z'
loop_
 _atom_site_type_symbol
 _atom_site_label
 _atom_site_symmetry_multiplicity
 _atom_site_fract_x
 _atom_site_fract_y
 _atom_site_fract_z
 _atom_site_occupancy
  Li  Li0  1  0.691779  0.655025  0.391022  1
  Li  Li1  1  0.773134  0.314323  0.060922  1
  Li  Li2  1  0.324583  0.906002  0.066206  1
  Li  Li3  1  0.674540  0.235185  0.437975  1
  Li  Li4  1  0.320146  0.769512  0.561165  1
  Li  Li5  1  0.686439  0.085519  0.934614  1
  Li  Li6  1  0.230934  0.677677  0.945099  1
  Li  Li7  1  0.330177  0.323269  0.609418  1
  Li  Li8  1  0.098006  0.229149  0.942798  1
  Li  Li9  1  0.003933  0.007153  0.495086  1
  V  V10  1  0.568621  0.430430  0.249374  1
  V  V11  1  0.429127  0.569689  0.751614  1
  V  V12  1  0.570763  0.995427  0.748653  1
  V  V13  1  0.432123  0.004951  0.252405  1
  V  V14  1  0.004115  0.569299  0.253870  1
  V  V15  1  0.994276  0.437545  0.742241  1
  P  P16  1  0.920485  0.767772  0.840361  1
  P  P17  1  0.780761  0.914547  0.337609  1
  P  P18  1  0.918862  0.302702  0.342806  1
  P  P19  1  0.663631  0.666853  0.131218  1
  P  P20  1  0.658761  0.671407  0.627660  1
  P  P21  1  0.771705  0.319243  0.837485  1
  P  P22  1  0.677253  0.228814  0.656490  1
  P  P23  1  0.321186  0.915046  0.845849  1
  P  P24  1  0.679731  0.085522  0.152701  1
  P  P25  1  0.324472  0.774026  0.344605  1
  P  P26  1  0.227748  0.684031  0.164473  1
  P  P27  1  0.336637  0.329716  0.373343  1
  P  P28  1  0.333246  0.332241  0.869160  1
  P  P29  1  0.080217  0.695622  0.653604  1
  P  P30  1  0.217801  0.088472  0.661461  1
  P  P31  1  0.084524  0.233494  0.158287  1
  O  O32  1  0.003024  0.791824  0.567649  1
  O  O33  1  0.918486  0.739402  0.338334  1
  O  O34  1  0.740959  0.012942  0.059589  1
  O  O35  1  0.752742  0.912816  0.838736  1
  O  O36  1  0.912869  0.615697  0.817112  1
  O  O37  1  0.815025  0.656751  0.182907  1
  O  O38  1  0.910544  0.465462  0.336410  1
  O  O39  1  0.999838  0.243178  0.066065  1
  O  O40  1  0.919674  0.338478  0.837175  1
  O  O41  1  0.669453  0.809583  0.671482  1
  O  O42  1  0.629226  0.902814  0.332926  1
  O  O43  1  0.810129  0.518626  0.672619  1
  O  O44  1  0.663007  0.672103  0.025756  1
  O  O45  1  0.664178  0.665204  0.521659  1
  O  O46  1  0.667726  0.511072  0.166079  1
  O  O47  1  0.479194  0.903972  0.822387  1
  O  O48  1  0.515210  0.813675  0.171367  1
  O  O49  1  0.742940  0.339620  0.337013  1
  O  O50  1  0.789982  0.212305  0.747284  1
  O  O51  1  0.757426  0.223729  0.567235  1
  O  O52  1  0.761544  0.242504  0.927393  1
  O  O53  1  0.621191  0.479750  0.818714  1
  O  O54  1  0.509033  0.672306  0.662914  1
  O  O55  1  0.664340  0.251109  0.161176  1
  O  O56  1  0.486016  0.625311  0.330224  1
  O  O57  1  0.347805  0.918460  0.334689  1
  O  O58  1  0.801109  0.982037  0.237296  1
  O  O59  1  0.794121  0.009800  0.415721  1
  O  O60  1  0.202486  0.994154  0.583266  1
  O  O61  1  0.653306  0.084459  0.667621  1
  O  O62  1  0.513968  0.375879  0.671375  1
  O  O63  1  0.335440  0.750626  0.841764  1
  O  O64  1  0.485205  0.332634  0.339374  1
  O  O65  1  0.376580  0.522036  0.182697  1
  O  O66  1  0.239425  0.757489  0.073996  1
  O  O67  1  0.241636  0.780803  0.433311  1
  O  O68  1  0.211260  0.793118  0.253104  1
  O  O69  1  0.255822  0.658674  0.663204  1
  O  O70  1  0.485868  0.185990  0.832445  1
  O  O71  1  0.521222  0.097297  0.178278  1
  O  O72  1  0.330190  0.487153  0.834108  1
  O  O73  1  0.319591  0.331704  0.974435  1
  O  O74  1  0.335065  0.328410  0.479345  1
  O  O75  1  0.184555  0.481173  0.329521  1
  O  O76  1  0.369080  0.100359  0.667073  1
  O  O77  1  0.327623  0.191781  0.327125  1
  O  O78  1  0.081160  0.663259  0.168882  1
  O  O79  1  0.001630  0.791059  0.748088  1
  O  O80  1  0.013774  0.756146  0.927054  1
  O  O81  1  0.088717  0.531258  0.664729  1
  O  O82  1  0.185347  0.333900  0.818134  1
  O  O83  1  0.092223  0.384053  0.180127  1
  O  O84  1  0.249680  0.084952  0.160400  1
  O  O85  1  0.253047  0.998631  0.937091  1
  O  O86  1  0.200719  0.016469  0.761138  1
  O  O87  1  0.076919  0.261193  0.662873  1
  O  O88  1  0.000752  0.196185  0.424448  1
  O  O89  1  0.990123  0.213637  0.243616  1
