# generated using pymatgen
data_Li4Mn2Nb3V3O16
_symmetry_space_group_name_H-M   'P 1'
_cell_length_a   6.10552810
_cell_length_b   6.10847958
_cell_length_c   10.07097440
_cell_angle_alpha   89.99926226
_cell_angle_beta   89.94008974
_cell_angle_gamma   120.01315962
_symmetry_Int_Tables_number   1
_chemical_formula_structural   Li4Mn2Nb3V3O16
_chemical_formula_sum   'Li4 Mn2 Nb3 V3 O16'
_cell_volume   325.23745831
_cell_formula_units_Z   1
loop_
 _symmetry_equiv_pos_site_id
 _symmetry_equiv_pos_as_xyz
  1  'x, y, z'
loop_
 _atom_site_type_symbol
 _atom_site_label
 _atom_site_symmetry_multiplicity
 _atom_site_fract_x
 _atom_site_fract_y
 _atom_site_fract_z
 _atom_site_occupancy
  Li  Li0  1  0.331362  0.665729  0.901350  1
  Li  Li1  1  0.008984  0.004504  0.003508  1
  Li  Li2  1  0.017788  0.008843  0.491520  1
  Li  Li3  1  0.669321  0.334668  0.383833  1
  Mn  Mn4  1  0.317023  0.658496  0.485931  1
  Mn  Mn5  1  0.653843  0.327004  0.012213  1
  Nb  Nb6  1  0.658955  0.829531  0.217942  1
  Nb  Nb7  1  0.825725  0.660492  0.715643  1
  Nb  Nb8  1  0.825792  0.165196  0.715696  1
  V  V9  1  0.166525  0.825712  0.212534  1
  V  V10  1  0.166495  0.340920  0.212514  1
  V  V11  1  0.335890  0.167901  0.713812  1
  O  O12  1  0.152106  0.842781  0.608648  1
  O  O13  1  0.035260  0.517595  0.327259  1
  O  O14  1  0.351248  0.675643  0.098898  1
  O  O15  1  0.992658  0.996427  0.313674  1
  O  O16  1  0.994245  0.997064  0.819357  1
  O  O17  1  0.152093  0.309230  0.608627  1
  O  O18  1  0.488663  0.970255  0.330625  1
  O  O19  1  0.488750  0.518544  0.330613  1
  O  O20  1  0.306723  0.153474  0.112577  1
  O  O21  1  0.686797  0.843371  0.601741  1
  O  O22  1  0.519718  0.489707  0.826723  1
  O  O23  1  0.519750  0.030020  0.826734  1
  O  O24  1  0.676979  0.338455  0.600619  1
  O  O25  1  0.843294  0.687228  0.103942  1
  O  O26  1  0.970768  0.485344  0.827371  1
  O  O27  1  0.843247  0.156162  0.103936  1
