# generated using pymatgen
data_Ga3P3H6C2NO13
_symmetry_space_group_name_H-M   'P 1'
_cell_length_a   8.93749908
_cell_length_b   18.05446520
_cell_length_c   9.37912438
_cell_angle_alpha   90.00000000
_cell_angle_beta   109.54609916
_cell_angle_gamma   90.00000000
_symmetry_Int_Tables_number   1
_chemical_formula_structural   Ga3P3H6C2NO13
_chemical_formula_sum   'Ga12 P12 H24 C8 N4 O52'
_cell_volume   1426.21693578
_cell_formula_units_Z   4
loop_
 _symmetry_equiv_pos_site_id
 _symmetry_equiv_pos_as_xyz
  1  'x, y, z'
loop_
 _atom_site_type_symbol
 _atom_site_label
 _atom_site_symmetry_multiplicity
 _atom_site_fract_x
 _atom_site_fract_y
 _atom_site_fract_z
 _atom_site_occupancy
  Ga  Ga0  1  0.414537  0.789626  0.174024  1
  Ga  Ga1  1  0.914537  0.710374  0.674024  1
  Ga  Ga2  1  0.585463  0.210374  0.825976  1
  Ga  Ga3  1  0.085463  0.289626  0.325976  1
  Ga  Ga4  1  0.360983  0.606407  0.339857  1
  Ga  Ga5  1  0.860983  0.893593  0.839857  1
  Ga  Ga6  1  0.639017  0.393593  0.660143  1
  Ga  Ga7  1  0.139017  0.106407  0.160143  1
  Ga  Ga8  1  0.994123  0.831166  0.307531  1
  Ga  Ga9  1  0.494123  0.668834  0.807531  1
  Ga  Ga10  1  0.005877  0.168834  0.692469  1
  Ga  Ga11  1  0.505877  0.331166  0.192469  1
  P  P12  1  0.157381  0.927324  0.126485  1
  P  P13  1  0.657381  0.572676  0.626485  1
  P  P14  1  0.842619  0.072676  0.873515  1
  P  P15  1  0.342619  0.427324  0.373515  1
  P  P16  1  0.199291  0.711167  0.521743  1
  P  P17  1  0.699291  0.788833  0.021743  1
  P  P18  1  0.800709  0.288833  0.478257  1
  P  P19  1  0.300709  0.211167  0.978257  1
  P  P20  1  0.266023  0.653010  0.996422  1
  P  P21  1  0.766023  0.846990  0.496422  1
  P  P22  1  0.733977  0.346990  0.003578  1
  P  P23  1  0.233977  0.153010  0.503578  1
  H  H24  1  0.563706  0.721072  0.394571  1
  H  H25  1  0.063706  0.778928  0.894571  1
  H  H26  1  0.436294  0.278928  0.605429  1
  H  H27  1  0.936294  0.221072  0.105429  1
  H  H28  1  0.626791  0.966990  0.105555  1
  H  H29  1  0.126791  0.533010  0.605555  1
  H  H30  1  0.373209  0.033010  0.894445  1
  H  H31  1  0.873209  0.466990  0.394445  1
  H  H32  1  0.643001  0.065732  0.113332  1
  H  H33  1  0.143001  0.434268  0.613332  1
  H  H34  1  0.356999  0.934268  0.886668  1
  H  H35  1  0.856999  0.565732  0.386668  1
  H  H36  1  0.786155  0.010796  0.250721  1
  H  H37  1  0.286155  0.489204  0.750721  1
  H  H38  1  0.213845  0.989204  0.749279  1
  H  H39  1  0.713845  0.510796  0.249279  1
  H  H40  1  0.442313  0.009572  0.227673  1
  H  H41  1  0.942313  0.490428  0.727673  1
  H  H42  1  0.557687  0.990428  0.772327  1
  H  H43  1  0.057687  0.509572  0.272327  1
  H  H44  1  0.578754  0.916114  0.345903  1
  H  H45  1  0.078754  0.583886  0.845903  1
  H  H46  1  0.421246  0.083886  0.654097  1
  H  H47  1  0.921246  0.416114  0.154097  1
  C  C48  1  0.614406  0.043986  0.418935  1
  C  C49  1  0.114406  0.456014  0.918935  1
  C  C50  1  0.385594  0.956014  0.581065  1
  C  C51  1  0.885594  0.543986  0.081065  1
  C  C52  1  0.661459  0.014946  0.181261  1
  C  C53  1  0.161459  0.485054  0.681261  1
  C  C54  1  0.338541  0.985054  0.818739  1
  C  C55  1  0.838541  0.514946  0.318739  1
  N  N56  1  0.564160  0.018247  0.281580  1
  N  N57  1  0.064160  0.481753  0.781580  1
  N  N58  1  0.435840  0.981753  0.718420  1
  N  N59  1  0.935840  0.518247  0.218420  1
  O  O60  1  0.460545  0.712793  0.314193  1
  O  O61  1  0.960545  0.787207  0.814193  1
  O  O62  1  0.539455  0.287207  0.685807  1
  O  O63  1  0.039455  0.212793  0.185807  1
  O  O64  1  0.299871  0.873237  0.179022  1
  O  O65  1  0.799871  0.626763  0.679022  1
  O  O66  1  0.700129  0.126763  0.820978  1
  O  O67  1  0.200129  0.373237  0.320978  1
  O  O68  1  0.250586  0.736887  0.020488  1
  O  O69  1  0.750586  0.763113  0.520489  1
  O  O70  1  0.749414  0.263113  0.979511  1
  O  O71  1  0.249414  0.236887  0.479511  1
  O  O72  1  0.547893  0.804528  0.061400  1
  O  O73  1  0.047893  0.695472  0.561400  1
  O  O74  1  0.452107  0.195472  0.938600  1
  O  O75  1  0.952107  0.304528  0.438600  1
  O  O76  1  0.605103  0.862745  0.358777  1
  O  O77  1  0.105103  0.637255  0.858777  1
  O  O78  1  0.394897  0.137255  0.641223  1
  O  O79  1  0.894897  0.362745  0.141223  1
  O  O80  1  0.040987  0.912648  0.214543  1
  O  O81  1  0.540987  0.587352  0.714543  1
  O  O82  1  0.959013  0.087352  0.785457  1
  O  O83  1  0.459013  0.412648  0.285457  1
  O  O84  1  0.173096  0.779401  0.415772  1
  O  O85  1  0.673096  0.720599  0.915772  1
  O  O86  1  0.826904  0.220599  0.584228  1
  O  O87  1  0.326904  0.279401  0.084228  1
  O  O88  1  0.908612  0.867461  0.448823  1
  O  O89  1  0.408612  0.632539  0.948823  1
  O  O90  1  0.091388  0.132539  0.551177  1
  O  O91  1  0.591388  0.367461  0.051177  1
  O  O92  1  0.844035  0.772457  0.165558  1
  O  O93  1  0.344035  0.727543  0.665558  1
  O  O94  1  0.155965  0.227543  0.834442  1
  O  O95  1  0.655965  0.272457  0.334442  1
  O  O96  1  0.266972  0.604733  0.129763  1
  O  O97  1  0.766972  0.895267  0.629763  1
  O  O98  1  0.733028  0.395267  0.870237  1
  O  O99  1  0.233028  0.104733  0.370237  1
  O  O100  1  0.569220  0.582882  0.454688  1
  O  O101  1  0.069220  0.917118  0.954688  1
  O  O102  1  0.430780  0.417118  0.545312  1
  O  O103  1  0.930780  0.082882  0.045312  1
  O  O104  1  0.224739  0.005977  0.158595  1
  O  O105  1  0.724739  0.494023  0.658595  1
  O  O106  1  0.775261  0.994023  0.841405  1
  O  O107  1  0.275261  0.505977  0.341405  1
  O  O108  1  0.227581  0.641572  0.439210  1
  O  O109  1  0.727581  0.858428  0.939210  1
  O  O110  1  0.772419  0.358428  0.560790  1
  O  O111  1  0.272419  0.141572  0.060790  1
