# generated using pymatgen
data_DyHoO3
_symmetry_space_group_name_H-M   'P 1'
_cell_length_a   6.42339354
_cell_length_b   6.42348540
_cell_length_c   12.74775476
_cell_angle_alpha   89.99999661
_cell_angle_beta   90.00006477
_cell_angle_gamma   120.00098604
_symmetry_Int_Tables_number   1
_chemical_formula_structural   DyHoO3
_chemical_formula_sum   'Dy6 Ho6 O18'
_cell_volume   455.50724445
_cell_formula_units_Z   6
loop_
 _symmetry_equiv_pos_site_id
 _symmetry_equiv_pos_as_xyz
  1  'x, y, z'
loop_
 _atom_site_type_symbol
 _atom_site_label
 _atom_site_symmetry_multiplicity
 _atom_site_fract_x
 _atom_site_fract_y
 _atom_site_fract_z
 _atom_site_occupancy
  Dy  Dy0  1  0.333323  0.666677  0.233378  1
  Dy  Dy1  1  -0.000001  0.000007  0.264738  1
  Dy  Dy2  1  0.999996  0.999997  0.764739  1
  Dy  Dy3  1  0.333314  0.666646  0.733381  1
  Dy  Dy4  1  0.666661  0.333323  0.733383  1
  Dy  Dy5  1  0.666677  0.333356  0.233377  1
  Ho  Ho6  1  0.999973  0.667267  0.496593  1
  Ho  Ho7  1  0.000014  0.332741  0.996589  1
  Ho  Ho8  1  0.332690  0.332690  0.496592  1
  Ho  Ho9  1  0.667286  0.667302  0.996589  1
  Ho  Ho10  1  0.332714  0.000023  0.996589  1
  Ho  Ho11  1  0.667276  0.999979  0.496590  1
  O  O12  1  0.999988  0.694492  0.670356  1
  O  O13  1  -0.000002  0.635099  0.324484  1
  O  O14  1  0.999996  0.364900  0.824480  1
  O  O15  1  0.999998  0.305504  0.170356  1
  O  O16  1  0.333331  0.666695  0.022284  1
  O  O17  1  0.999977  0.999975  0.460927  1
  O  O18  1  0.333308  0.666646  0.522284  1
  O  O19  1  0.000002  0.000022  0.960920  1
  O  O20  1  0.305479  0.305473  0.670354  1
  O  O21  1  0.364883  0.364920  0.324490  1
  O  O22  1  0.305511  0.000018  0.170362  1
  O  O23  1  0.635096  0.635070  0.824487  1
  O  O24  1  0.694504  0.694520  0.170361  1
  O  O25  1  0.364922  0.999989  0.824493  1
  O  O26  1  0.666653  0.333306  0.522280  1
  O  O27  1  0.666685  0.333359  0.022281  1
  O  O28  1  0.635071  0.000013  0.324496  1
  O  O29  1  0.694472  0.999987  0.670361  1
