# generated using pymatgen
data_WOF4
_symmetry_space_group_name_H-M   'P 1'
_cell_length_a   16.90270958
_cell_length_b   5.51212777
_cell_length_c   9.34681587
_cell_angle_alpha   90.00000000
_cell_angle_beta   90.00000000
_cell_angle_gamma   90.00000000
_symmetry_Int_Tables_number   1
_chemical_formula_structural   WOF4
_chemical_formula_sum   'W8 O8 F32'
_cell_volume   870.84185192
_cell_formula_units_Z   8
loop_
 _symmetry_equiv_pos_site_id
 _symmetry_equiv_pos_as_xyz
  1  'x, y, z'
loop_
 _atom_site_type_symbol
 _atom_site_label
 _atom_site_symmetry_multiplicity
 _atom_site_fract_x
 _atom_site_fract_y
 _atom_site_fract_z
 _atom_site_occupancy
  W  W0  1  0.126619  0.151482  0.100461  1
  W  W1  1  0.150346  0.468447  0.501111  1
  W  W2  1  0.349654  0.468447  0.001111  1
  W  W3  1  0.373381  0.151482  0.600461  1
  W  W4  1  0.626619  0.848518  0.100461  1
  W  W5  1  0.650346  0.531553  0.501111  1
  W  W6  1  0.849654  0.531553  0.001111  1
  W  W7  1  0.873381  0.848518  0.600461  1
  O  O8  1  0.043619  0.029507  0.177672  1
  O  O9  1  0.138882  0.574342  0.672537  1
  O  O10  1  0.361118  0.574342  0.172537  1
  O  O11  1  0.456381  0.029507  0.677672  1
  O  O12  1  0.543619  0.970493  0.177672  1
  O  O13  1  0.638882  0.425658  0.672537  1
  O  O14  1  0.861118  0.425658  0.172537  1
  O  O15  1  0.956381  0.970493  0.677672  1
  F  F16  1  0.055240  0.564425  0.414529  1
  F  F17  1  0.090730  0.467833  0.057709  1
  F  F18  1  0.111650  0.148849  0.522517  1
  F  F19  1  0.115324  0.055623  0.909462  1
  F  F20  1  0.172376  0.308847  0.273530  1
  F  F21  1  0.203707  0.728166  0.413603  1
  F  F22  1  0.200980  0.905184  0.136834  1
  F  F23  1  0.242943  0.323107  0.016487  1
  F  F24  1  0.257057  0.323107  0.516487  1
  F  F25  1  0.299020  0.905184  0.636834  1
  F  F26  1  0.296293  0.728166  0.913603  1
  F  F27  1  0.327624  0.308847  0.773530  1
  F  F28  1  0.384676  0.055623  0.409462  1
  F  F29  1  0.388350  0.148849  0.022517  1
  F  F30  1  0.409270  0.467833  0.557709  1
  F  F31  1  0.444760  0.564425  0.914529  1
  F  F32  1  0.555240  0.435575  0.414529  1
  F  F33  1  0.590730  0.532167  0.057709  1
  F  F34  1  0.611650  0.851151  0.522517  1
  F  F35  1  0.615324  0.944377  0.909462  1
  F  F36  1  0.672376  0.691153  0.273530  1
  F  F37  1  0.703707  0.271834  0.413603  1
  F  F38  1  0.700980  0.094816  0.136834  1
  F  F39  1  0.742943  0.676893  0.016487  1
  F  F40  1  0.757057  0.676893  0.516487  1
  F  F41  1  0.799020  0.094816  0.636834  1
  F  F42  1  0.796293  0.271834  0.913603  1
  F  F43  1  0.827624  0.691153  0.773530  1
  F  F44  1  0.884676  0.944377  0.409462  1
  F  F45  1  0.888350  0.851151  0.022517  1
  F  F46  1  0.909270  0.532167  0.557709  1
  F  F47  1  0.944760  0.435575  0.914529  1
