# generated using pymatgen
data_Re2H6PbC(NO5)2
_symmetry_space_group_name_H-M   'P 1'
_cell_length_a   10.53080072
_cell_length_b   7.47425203
_cell_length_c   14.70605449
_cell_angle_alpha   90.00000000
_cell_angle_beta   100.34312577
_cell_angle_gamma   90.00000000
_symmetry_Int_Tables_number   1
_chemical_formula_structural   Re2H6PbC(NO5)2
_chemical_formula_sum   'Re8 H24 Pb4 C4 N8 O40'
_cell_volume   1138.70211368
_cell_formula_units_Z   4
loop_
 _symmetry_equiv_pos_site_id
 _symmetry_equiv_pos_as_xyz
  1  'x, y, z'
loop_
 _atom_site_type_symbol
 _atom_site_label
 _atom_site_symmetry_multiplicity
 _atom_site_fract_x
 _atom_site_fract_y
 _atom_site_fract_z
 _atom_site_occupancy
  Re  Re0  1  0.543877  0.153657  0.349335  1
  Re  Re1  1  0.456123  0.653657  0.150665  1
  Re  Re2  1  0.456123  0.846343  0.650665  1
  Re  Re3  1  0.543877  0.346343  0.849335  1
  Re  Re4  1  0.984860  0.253383  0.413325  1
  Re  Re5  1  0.015140  0.753383  0.086675  1
  Re  Re6  1  0.015140  0.746617  0.586675  1
  Re  Re7  1  0.984860  0.246617  0.913325  1
  H  H8  1  0.837250  0.394153  0.731597  1
  H  H9  1  0.162750  0.894153  0.768403  1
  H  H10  1  0.162750  0.605847  0.268403  1
  H  H11  1  0.837250  0.105847  0.231597  1
  H  H12  1  0.737625  0.560758  0.674086  1
  H  H13  1  0.262375  0.060758  0.825914  1
  H  H14  1  0.262375  0.439242  0.325914  1
  H  H15  1  0.737625  0.939242  0.174086  1
  H  H16  1  0.813182  0.101975  0.683976  1
  H  H17  1  0.186818  0.601975  0.816024  1
  H  H18  1  0.186818  0.898025  0.316024  1
  H  H19  1  0.813182  0.398025  0.183976  1
  H  H20  1  0.701197  0.042112  0.585916  1
  H  H21  1  0.298803  0.542112  0.914084  1
  H  H22  1  0.298803  0.957888  0.414084  1
  H  H23  1  0.701197  0.457888  0.085916  1
  H  H24  1  0.151815  0.186366  0.650470  1
  H  H25  1  0.848185  0.686366  0.849530  1
  H  H26  1  0.848185  0.813634  0.349530  1
  H  H27  1  0.151815  0.313634  0.150470  1
  H  H28  1  0.143989  0.391054  0.676511  1
  H  H29  1  0.856011  0.891054  0.823489  1
  H  H30  1  0.856011  0.608946  0.323489  1
  H  H31  1  0.143989  0.108946  0.176511  1
  Pb  Pb32  1  0.357989  0.372590  0.559634  1
  Pb  Pb33  1  0.642011  0.872590  0.940366  1
  Pb  Pb34  1  0.642011  0.627410  0.440366  1
  Pb  Pb35  1  0.357989  0.127410  0.059634  1
  C  C36  1  0.702577  0.308584  0.620147  1
  C  C37  1  0.297423  0.808584  0.879853  1
  C  C38  1  0.297423  0.691416  0.379853  1
  C  C39  1  0.702577  0.191416  0.120147  1
  N  N40  1  0.763994  0.430155  0.679888  1
  N  N41  1  0.236006  0.930155  0.820112  1
  N  N42  1  0.236006  0.569845  0.320112  1
  N  N43  1  0.763994  0.069845  0.179888  1
  N  N44  1  0.738287  0.136279  0.632958  1
  N  N45  1  0.261713  0.636279  0.867042  1
  N  N46  1  0.261713  0.863721  0.367042  1
  N  N47  1  0.738287  0.363721  0.132959  1
  O  O48  1  0.413918  0.245039  0.393313  1
  O  O49  1  0.586082  0.745039  0.106687  1
  O  O50  1  0.586082  0.754961  0.606687  1
  O  O51  1  0.413918  0.254961  0.893313  1
  O  O52  1  0.668778  0.311026  0.355442  1
  O  O53  1  0.331222  0.811026  0.144558  1
  O  O54  1  0.331222  0.688974  0.644558  1
  O  O55  1  0.668778  0.188974  0.855442  1
  O  O56  1  0.602442  0.961729  0.412714  1
  O  O57  1  0.397558  0.461729  0.087286  1
  O  O58  1  0.397558  0.038271  0.587286  1
  O  O59  1  0.602442  0.538271  0.912714  1
  O  O60  1  0.490915  0.097575  0.233411  1
  O  O61  1  0.509085  0.597575  0.266589  1
  O  O62  1  0.509085  0.902425  0.766589  1
  O  O63  1  0.490915  0.402425  0.733411  1
  O  O64  1  0.153536  0.244450  0.451468  1
  O  O65  1  0.846464  0.744450  0.048532  1
  O  O66  1  0.846464  0.755550  0.548532  1
  O  O67  1  0.153536  0.255550  0.951468  1
  O  O68  1  0.949774  0.385407  0.312255  1
  O  O69  1  0.050226  0.885407  0.187745  1
  O  O70  1  0.050226  0.614593  0.687745  1
  O  O71  1  0.949774  0.114593  0.812255  1
  O  O72  1  0.910815  0.344846  0.499294  1
  O  O73  1  0.089185  0.844846  0.000706  1
  O  O74  1  0.089185  0.655154  0.500706  1
  O  O75  1  0.910815  0.155154  0.999294  1
  O  O76  1  0.927658  0.035413  0.386502  1
  O  O77  1  0.072342  0.535413  0.113498  1
  O  O78  1  0.072342  0.964587  0.613498  1
  O  O79  1  0.927658  0.464587  0.886502  1
  O  O80  1  0.611324  0.355096  0.553679  1
  O  O81  1  0.388676  0.855096  0.946321  1
  O  O82  1  0.388676  0.644904  0.446321  1
  O  O83  1  0.611324  0.144904  0.053679  1
  O  O84  1  0.204513  0.290930  0.674886  1
  O  O85  1  0.795487  0.790930  0.825114  1
  O  O86  1  0.795487  0.709070  0.325114  1
  O  O87  1  0.204513  0.209070  0.174886  1
