# generated using pymatgen
data_Li2FeSi4O11
_symmetry_space_group_name_H-M   'P 1'
_cell_length_a   7.27665242
_cell_length_b   7.27665242
_cell_length_c   8.29326319
_cell_angle_alpha   81.00155976
_cell_angle_beta   98.99844024
_cell_angle_gamma   96.59803565
_symmetry_Int_Tables_number   1
_chemical_formula_structural   Li2FeSi4O11
_chemical_formula_sum   'Li4 Fe2 Si8 O22'
_cell_volume   426.53819036
_cell_formula_units_Z   2
loop_
 _symmetry_equiv_pos_site_id
 _symmetry_equiv_pos_as_xyz
  1  'x, y, z'
loop_
 _atom_site_type_symbol
 _atom_site_label
 _atom_site_symmetry_multiplicity
 _atom_site_fract_x
 _atom_site_fract_y
 _atom_site_fract_z
 _atom_site_occupancy
  Li  Li0  1  0.080359  0.080359  0.750000  1
  Li  Li1  1  0.351297  0.351297  0.750000  1
  Li  Li2  1  0.648703  0.648703  0.250000  1
  Li  Li3  1  0.919641  0.919641  0.250000  1
  Fe  Fe4  1  0.000000  0.500000  0.500000  1
  Fe  Fe5  1  0.500000  0.000000  0.000000  1
  Si  Si6  1  0.342219  0.781201  0.658546  1
  Si  Si7  1  0.218799  0.657781  0.158546  1
  Si  Si8  1  0.747083  0.841916  0.564982  1
  Si  Si9  1  0.841916  0.747083  0.935018  1
  Si  Si10  1  0.158084  0.252917  0.064982  1
  Si  Si11  1  0.252917  0.158084  0.435018  1
  Si  Si12  1  0.781201  0.342219  0.841454  1
  Si  Si13  1  0.657781  0.218799  0.341454  1
  O  O14  1  0.242157  0.942558  0.525578  1
  O  O15  1  0.378274  0.847916  0.838886  1
  O  O16  1  0.057442  0.757843  0.025578  1
  O  O17  1  0.152084  0.621726  0.338886  1
  O  O18  1  0.205707  0.587907  0.675685  1
  O  O19  1  0.412093  0.794293  0.175685  1
  O  O20  1  0.537053  0.750283  0.592437  1
  O  O21  1  0.160065  0.269861  0.550897  1
  O  O22  1  0.249717  0.462947  0.092437  1
  O  O23  1  0.866142  0.866142  0.750000  1
  O  O24  1  0.269861  0.160065  0.949103  1
  O  O25  1  0.730139  0.839935  0.050897  1
  O  O26  1  0.133858  0.133858  0.250000  1
  O  O27  1  0.750283  0.537053  0.907563  1
  O  O28  1  0.839935  0.730139  0.449103  1
  O  O29  1  0.462947  0.249717  0.407563  1
  O  O30  1  0.587907  0.205707  0.824315  1
  O  O31  1  0.794293  0.412093  0.324315  1
  O  O32  1  0.847916  0.378274  0.661114  1
  O  O33  1  0.942558  0.242157  0.974422  1
  O  O34  1  0.621726  0.152084  0.161114  1
  O  O35  1  0.757843  0.057442  0.474422  1
