# generated using pymatgen
data_Li3VF5
_symmetry_space_group_name_H-M   'P 1'
_cell_length_a   8.35083991
_cell_length_b   7.56735686
_cell_length_c   6.80653456
_cell_angle_alpha   89.99996081
_cell_angle_beta   90.00000230
_cell_angle_gamma   90.00006632
_symmetry_Int_Tables_number   1
_chemical_formula_structural   Li3VF5
_chemical_formula_sum   'Li12 V4 F20'
_cell_volume   430.13068621
_cell_formula_units_Z   4
loop_
 _symmetry_equiv_pos_site_id
 _symmetry_equiv_pos_as_xyz
  1  'x, y, z'
loop_
 _atom_site_type_symbol
 _atom_site_label
 _atom_site_symmetry_multiplicity
 _atom_site_fract_x
 _atom_site_fract_y
 _atom_site_fract_z
 _atom_site_occupancy
  Li  Li0  1  0.123052  0.249999  0.854520  1
  Li  Li1  1  0.124119  0.553890  0.262883  1
  Li  Li2  1  0.124120  0.946110  0.262884  1
  Li  Li3  1  0.375881  0.053889  0.762884  1
  Li  Li4  1  0.375882  0.446109  0.762884  1
  Li  Li5  1  0.376948  0.750001  0.354519  1
  Li  Li6  1  0.623053  0.250000  0.645481  1
  Li  Li7  1  0.624119  0.553890  0.237117  1
  Li  Li8  1  0.624119  0.946110  0.237116  1
  Li  Li9  1  0.875882  0.053890  0.737117  1
  Li  Li10  1  0.875881  0.446109  0.737117  1
  Li  Li11  1  0.876948  0.750000  0.145481  1
  V  V12  1  0.125101  0.749998  0.750997  1
  V  V13  1  0.374903  0.250007  0.251005  1
  V  V14  1  0.625093  0.750001  0.748996  1
  V  V15  1  0.874905  0.249997  0.249003  1
  F  F16  1  0.091218  0.749997  0.061352  1
  F  F17  1  0.124197  0.027034  0.738486  1
  F  F18  1  0.124198  0.472962  0.738485  1
  F  F19  1  0.124893  0.250001  0.279480  1
  F  F20  1  0.162523  0.750000  0.442970  1
  F  F21  1  0.337478  0.249998  0.942972  1
  F  F22  1  0.375108  0.750002  0.779477  1
  F  F23  1  0.375799  0.527039  0.238486  1
  F  F24  1  0.375798  0.972967  0.238486  1
  F  F25  1  0.408782  0.250000  0.561353  1
  F  F26  1  0.591216  0.750000  0.438646  1
  F  F27  1  0.624204  0.027039  0.761516  1
  F  F28  1  0.624199  0.472966  0.761514  1
  F  F29  1  0.624895  0.249999  0.220522  1
  F  F30  1  0.662523  0.749999  0.057027  1
  F  F31  1  0.837476  0.250002  0.557030  1
  F  F32  1  0.875107  0.749998  0.720524  1
  F  F33  1  0.875801  0.527034  0.261513  1
  F  F34  1  0.875799  0.972963  0.261512  1
  F  F35  1  0.908781  0.250001  0.938647  1
