# generated using pymatgen
data_LiMnPO4
_symmetry_space_group_name_H-M   'P 1'
_cell_length_a   5.30121022
_cell_length_b   5.30113689
_cell_length_c   9.44451659
_cell_angle_alpha   89.94795543
_cell_angle_beta   90.04045604
_cell_angle_gamma   120.00455856
_symmetry_Int_Tables_number   1
_chemical_formula_structural   LiMnPO4
_chemical_formula_sum   'Li2 Mn2 P2 O8'
_cell_volume   229.84457766
_cell_formula_units_Z   2
loop_
 _symmetry_equiv_pos_site_id
 _symmetry_equiv_pos_as_xyz
  1  'x, y, z'
loop_
 _atom_site_type_symbol
 _atom_site_label
 _atom_site_symmetry_multiplicity
 _atom_site_fract_x
 _atom_site_fract_y
 _atom_site_fract_z
 _atom_site_occupancy
  Li  Li0  1  0.999805  0.999950  0.202327  1
  Li  Li1  1  0.999952  0.000030  0.702293  1
  Mn  Mn2  1  0.333181  0.666654  0.137860  1
  Mn  Mn3  1  0.666554  0.333400  0.638025  1
  P  P4  1  0.333490  0.666677  0.764772  1
  P  P5  1  0.666664  0.333300  0.264755  1
  O  O6  1  0.063344  0.384737  0.706459  1
  O  O7  1  0.321204  0.936549  0.706275  1
  O  O8  1  0.334319  0.666735  0.925701  1
  O  O9  1  0.384562  0.321247  0.206395  1
  O  O10  1  0.615147  0.678747  0.705944  1
  O  O11  1  0.667266  0.333471  0.425701  1
  O  O12  1  0.678463  0.063357  0.206300  1
  O  O13  1  0.936347  0.615148  0.206013  1
