# generated using pymatgen
data_LiBi(PO3)4
_symmetry_space_group_name_H-M   'P 1'
_cell_length_a   7.19026102
_cell_length_b   12.43623685
_cell_length_c   7.19026102
_cell_angle_alpha   71.70006996
_cell_angle_beta   68.41026284
_cell_angle_gamma   108.29993004
_symmetry_Int_Tables_number   1
_chemical_formula_structural   LiBi(PO3)4
_chemical_formula_sum   'Li2 Bi2 P8 O24'
_cell_volume   495.89516410
_cell_formula_units_Z   2
loop_
 _symmetry_equiv_pos_site_id
 _symmetry_equiv_pos_as_xyz
  1  'x, y, z'
loop_
 _atom_site_type_symbol
 _atom_site_label
 _atom_site_symmetry_multiplicity
 _atom_site_fract_x
 _atom_site_fract_y
 _atom_site_fract_z
 _atom_site_occupancy
  Li  Li0  1  0.921032  0.750000  0.921032  1
  Li  Li1  1  0.078968  0.250000  0.078968  1
  Bi  Bi2  1  0.630979  0.750000  0.630979  1
  Bi  Bi3  1  0.369021  0.250000  0.369021  1
  P  P4  1  0.292338  0.005982  0.836021  1
  P  P5  1  0.163979  0.505982  0.707662  1
  P  P6  1  0.230967  0.943805  0.319314  1
  P  P7  1  0.319314  0.556195  0.230967  1
  P  P8  1  0.680686  0.443805  0.769033  1
  P  P9  1  0.769033  0.056195  0.680686  1
  P  P10  1  0.836021  0.494018  0.292338  1
  P  P11  1  0.707662  0.994018  0.163979  1
  O  O12  1  0.202000  0.895819  0.796667  1
  O  O13  1  0.218561  0.611400  0.772795  1
  O  O14  1  0.010644  0.823402  0.518607  1
  O  O15  1  0.203333  0.395819  0.798000  1
  O  O16  1  0.727288  0.927185  0.694567  1
  O  O17  1  0.227205  0.111400  0.781439  1
  O  O18  1  0.090182  0.554120  0.249790  1
  O  O19  1  0.428609  0.912490  0.322444  1
  O  O20  1  0.322444  0.587510  0.428609  1
  O  O21  1  0.249790  0.945880  0.090182  1
  O  O22  1  0.481393  0.323402  0.989356  1
  O  O23  1  0.694567  0.572815  0.727288  1
  O  O24  1  0.305433  0.427185  0.272712  1
  O  O25  1  0.518607  0.676598  0.010644  1
  O  O26  1  0.750210  0.054120  0.909818  1
  O  O27  1  0.677556  0.412490  0.571391  1
  O  O28  1  0.571391  0.087510  0.677556  1
  O  O29  1  0.909818  0.445880  0.750210  1
  O  O30  1  0.772795  0.888600  0.218561  1
  O  O31  1  0.272712  0.072815  0.305433  1
  O  O32  1  0.796667  0.604181  0.202000  1
  O  O33  1  0.989356  0.176598  0.481393  1
  O  O34  1  0.781439  0.388600  0.227205  1
  O  O35  1  0.798000  0.104181  0.203333  1
