# generated using pymatgen
data_LiV4O5F7
_symmetry_space_group_name_H-M   'P 1'
_cell_length_a   5.09088274
_cell_length_b   5.36525665
_cell_length_c   9.06237405
_cell_angle_alpha   106.32506629
_cell_angle_beta   105.00715132
_cell_angle_gamma   62.91057263
_symmetry_Int_Tables_number   1
_chemical_formula_structural   LiV4O5F7
_chemical_formula_sum   'Li1 V4 O5 F7'
_cell_volume   208.99081499
_cell_formula_units_Z   1
loop_
 _symmetry_equiv_pos_site_id
 _symmetry_equiv_pos_as_xyz
  1  'x, y, z'
loop_
 _atom_site_type_symbol
 _atom_site_label
 _atom_site_symmetry_multiplicity
 _atom_site_fract_x
 _atom_site_fract_y
 _atom_site_fract_z
 _atom_site_occupancy
  Li  Li0  1  0.572732  0.736650  0.859111  1
  V  V1  1  0.007112  0.004271  0.008364  1
  V  V2  1  0.204442  0.266832  0.745091  1
  V  V3  1  0.484739  0.483300  0.497046  1
  V  V4  1  0.792735  0.740305  0.247431  1
  O  O5  1  0.165004  0.144776  0.914960  1
  O  O6  1  0.344377  0.335196  0.582459  1
  O  O7  1  0.157104  0.589359  0.327571  1
  O  O8  1  0.834557  0.433065  0.677008  1
  O  O9  1  0.829669  0.823852  0.064821  1
  F  F10  1  0.261561  0.609246  0.878775  1
  F  F11  1  0.659894  0.059845  0.825479  1
  F  F12  1  0.287014  0.871776  0.631385  1
  F  F13  1  0.727943  0.131214  0.369001  1
  F  F14  1  0.340070  0.921234  0.180412  1
  F  F15  1  0.661288  0.675478  0.421926  1
  F  F16  1  0.772037  0.379664  0.124811  1
