# generated using pymatgen
data_Li10Mn3Cr5O16
_symmetry_space_group_name_H-M   'P 1'
_cell_length_a   5.99742714
_cell_length_b   6.05624966
_cell_length_c   9.86964584
_cell_angle_alpha   90.84023041
_cell_angle_beta   90.30407761
_cell_angle_gamma   119.88534060
_symmetry_Int_Tables_number   1
_chemical_formula_structural   Li10Mn3Cr5O16
_chemical_formula_sum   'Li10 Mn3 Cr5 O16'
_cell_volume   310.74839461
_cell_formula_units_Z   1
loop_
 _symmetry_equiv_pos_site_id
 _symmetry_equiv_pos_as_xyz
  1  'x, y, z'
loop_
 _atom_site_type_symbol
 _atom_site_label
 _atom_site_symmetry_multiplicity
 _atom_site_fract_x
 _atom_site_fract_y
 _atom_site_fract_z
 _atom_site_occupancy
  Li  Li0  1  0.380098  0.202540  0.943033  1
  Li  Li1  1  0.325920  0.669995  0.225753  1
  Li  Li2  1  0.190005  0.808937  0.442025  1
  Li  Li3  1  0.663491  0.332922  0.725301  1
  Li  Li4  1  0.197339  0.406399  0.446455  1
  Li  Li5  1  0.780375  0.198028  0.950265  1
  Li  Li6  1  0.617510  0.824501  0.440022  1
  Li  Li7  1  0.799305  0.609745  0.944839  1
  Li  Li8  1  0.014794  0.029348  0.513364  1
  Li  Li9  1  0.996827  0.015244  0.009951  1
  Mn  Mn10  1  0.170976  0.843550  0.711307  1
  Mn  Mn11  1  0.830903  0.681300  0.211843  1
  Mn  Mn12  1  0.668727  0.845592  0.713078  1
  Cr  Cr13  1  0.173438  0.355209  0.714146  1
  Cr  Cr14  1  0.677757  0.357562  0.469595  1
  Cr  Cr15  1  0.329910  0.682726  0.971165  1
  Cr  Cr16  1  0.336075  0.184321  0.213553  1
  Cr  Cr17  1  0.829664  0.185239  0.213317  1
  O  O18  1  0.349310  0.206709  0.590975  1
  O  O19  1  0.162957  0.344467  0.097615  1
  O  O20  1  0.510844  0.039622  0.335610  1
  O  O21  1  0.011642  0.501474  0.843620  1
  O  O22  1  0.846287  0.196094  0.588717  1
  O  O23  1  0.172148  0.858138  0.086723  1
  O  O24  1  0.501640  0.495448  0.341783  1
  O  O25  1  0.653840  0.330597  0.096716  1
  O  O26  1  0.317934  0.676604  0.598098  1
  O  O27  1  0.479239  0.514480  0.844782  1
  O  O28  1  0.980611  0.492239  0.339590  1
  O  O29  1  0.470103  0.982191  0.841193  1
  O  O30  1  0.665699  0.864501  0.084397  1
  O  O31  1  0.858824  0.694447  0.581832  1
  O  O32  1  0.007556  0.034722  0.324084  1
  O  O33  1  0.027908  0.022946  0.818837  1
