# generated using pymatgen
data_Li2TiFe2O5
_symmetry_space_group_name_H-M   'P 1'
_cell_length_a   9.62775918
_cell_length_b   4.25728181
_cell_length_c   5.08270947
_cell_angle_alpha   65.25400242
_cell_angle_beta   87.75882834
_cell_angle_gamma   90.00117870
_symmetry_Int_Tables_number   1
_chemical_formula_structural   Li2TiFe2O5
_chemical_formula_sum   'Li4 Ti2 Fe4 O10'
_cell_volume   189.02447225
_cell_formula_units_Z   2
loop_
 _symmetry_equiv_pos_site_id
 _symmetry_equiv_pos_as_xyz
  1  'x, y, z'
loop_
 _atom_site_type_symbol
 _atom_site_label
 _atom_site_symmetry_multiplicity
 _atom_site_fract_x
 _atom_site_fract_y
 _atom_site_fract_z
 _atom_site_occupancy
  Li  Li0  1  0.901257  0.298207  0.402869  1
  Li  Li1  1  0.698729  0.901865  0.197026  1
  Li  Li2  1  0.503615  0.504225  0.991757  1
  Li  Li3  1  0.096417  0.695743  0.608253  1
  Ti  Ti4  1  0.604675  0.211453  0.587012  1
  Ti  Ti5  1  0.995251  0.987884  0.012857  1
  Fe  Fe6  1  0.799936  0.600040  0.799995  1
  Fe  Fe7  1  0.300050  0.099959  0.800143  1
  Fe  Fe8  1  0.194212  0.390950  0.218336  1
  Fe  Fe9  1  0.405684  0.809018  0.381745  1
  O  O10  1  0.800051  0.100064  0.799959  1
  O  O11  1  0.901998  0.813583  0.373851  1
  O  O12  1  0.697984  0.386511  0.226123  1
  O  O13  1  0.508988  0.012531  0.973773  1
  O  O14  1  0.604409  0.698134  0.597426  1
  O  O15  1  0.421547  0.297543  0.404002  1
  O  O16  1  0.300041  0.599984  0.800067  1
  O  O17  1  0.091148  0.187459  0.626322  1
  O  O18  1  0.178473  0.902504  0.196023  1
  O  O19  1  0.995533  0.502344  0.002461  1
