# generated using pymatgen
data_Li4AlCr3O8
_symmetry_space_group_name_H-M   'P 1'
_cell_length_a   5.11264433
_cell_length_b   5.86782786
_cell_length_c   5.08153574
_cell_angle_alpha   90.00876936
_cell_angle_beta   80.47252277
_cell_angle_gamma   73.32489292
_symmetry_Int_Tables_number   1
_chemical_formula_structural   Li4AlCr3O8
_chemical_formula_sum   'Li4 Al1 Cr3 O8'
_cell_volume   143.83820074
_cell_formula_units_Z   1
loop_
 _symmetry_equiv_pos_site_id
 _symmetry_equiv_pos_as_xyz
  1  'x, y, z'
loop_
 _atom_site_type_symbol
 _atom_site_label
 _atom_site_symmetry_multiplicity
 _atom_site_fract_x
 _atom_site_fract_y
 _atom_site_fract_z
 _atom_site_occupancy
  Li  Li0  1  0.000105  0.999387  0.000653  1
  Li  Li1  1  -0.000078  0.249434  0.499007  1
  Li  Li2  1  0.000078  0.500545  0.001006  1
  Li  Li3  1  0.999881  0.750585  0.499354  1
  Al  Al4  1  0.499990  0.874990  0.250001  1
  Cr  Cr5  1  0.499751  0.122914  0.750031  1
  Cr  Cr6  1  0.500030  0.374983  0.249995  1
  Cr  Cr7  1  0.500233  0.627133  0.749963  1
  O  O8  1  0.278661  0.171320  0.126073  1
  O  O9  1  0.720000  0.060910  0.374373  1
  O  O10  1  0.273179  0.431884  0.622079  1
  O  O11  1  0.726817  0.318167  0.877897  1
  O  O12  1  0.280021  0.689032  0.125646  1
  O  O13  1  0.721342  0.578669  0.373919  1
  O  O14  1  0.278454  0.930256  0.607613  1
  O  O15  1  0.721533  0.819792  0.892389  1
