# generated using pymatgen
data_Rb3TmO3
_symmetry_space_group_name_H-M   'P 1'
_cell_length_a   11.71309098
_cell_length_b   7.36131071
_cell_length_c   7.96150265
_cell_angle_alpha   90.00000000
_cell_angle_beta   94.24887983
_cell_angle_gamma   90.00000000
_symmetry_Int_Tables_number   1
_chemical_formula_structural   Rb3TmO3
_chemical_formula_sum   'Rb12 Tm4 O12'
_cell_volume   684.58356092
_cell_formula_units_Z   4
loop_
 _symmetry_equiv_pos_site_id
 _symmetry_equiv_pos_as_xyz
  1  'x, y, z'
loop_
 _atom_site_type_symbol
 _atom_site_label
 _atom_site_symmetry_multiplicity
 _atom_site_fract_x
 _atom_site_fract_y
 _atom_site_fract_z
 _atom_site_occupancy
  Rb  Rb0  1  0.078927  0.331248  0.641969  1
  Rb  Rb1  1  0.155001  0.620779  0.067239  1
  Rb  Rb2  1  0.192442  0.804145  0.624937  1
  Rb  Rb3  1  0.307558  0.304145  0.375063  1
  Rb  Rb4  1  0.344999  0.120779  0.932761  1
  Rb  Rb5  1  0.421073  0.831248  0.358031  1
  Rb  Rb6  1  0.578927  0.168752  0.641969  1
  Rb  Rb7  1  0.655001  0.879221  0.067239  1
  Rb  Rb8  1  0.692442  0.695855  0.624937  1
  Rb  Rb9  1  0.807558  0.195855  0.375063  1
  Rb  Rb10  1  0.844999  0.379221  0.932761  1
  Rb  Rb11  1  0.921073  0.668752  0.358031  1
  Tm  Tm12  1  0.066559  0.087566  0.160010  1
  Tm  Tm13  1  0.433441  0.587566  0.839990  1
  Tm  Tm14  1  0.566559  0.412434  0.160010  1
  Tm  Tm15  1  0.933441  0.912434  0.839990  1
  O  O16  1  0.042953  0.351604  0.251774  1
  O  O17  1  0.094741  0.050799  0.894647  1
  O  O18  1  0.187944  0.941028  0.308731  1
  O  O19  1  0.312056  0.441028  0.691269  1
  O  O20  1  0.405259  0.550799  0.105353  1
  O  O21  1  0.457047  0.851604  0.748226  1
  O  O22  1  0.542953  0.148396  0.251774  1
  O  O23  1  0.594741  0.449201  0.894647  1
  O  O24  1  0.687944  0.558972  0.308731  1
  O  O25  1  0.812056  0.058972  0.691269  1
  O  O26  1  0.905259  0.949201  0.105353  1
  O  O27  1  0.957047  0.648396  0.748226  1
