# generated using pymatgen
data_Mn2PO5
_symmetry_space_group_name_H-M   'P 1'
_cell_length_a   7.46496114
_cell_length_b   8.55892171
_cell_length_c   6.16390931
_cell_angle_alpha   88.87508722
_cell_angle_beta   99.79937199
_cell_angle_gamma   106.15864909
_symmetry_Int_Tables_number   1
_chemical_formula_structural   Mn2PO5
_chemical_formula_sum   'Mn8 P4 O20'
_cell_volume   372.58742597
_cell_formula_units_Z   4
loop_
 _symmetry_equiv_pos_site_id
 _symmetry_equiv_pos_as_xyz
  1  'x, y, z'
loop_
 _atom_site_type_symbol
 _atom_site_label
 _atom_site_symmetry_multiplicity
 _atom_site_fract_x
 _atom_site_fract_y
 _atom_site_fract_z
 _atom_site_occupancy
  Mn  Mn0  1  0.201025  0.802428  0.536399  1
  Mn  Mn1  1  0.166532  0.793605  0.027939  1
  Mn  Mn2  1  0.367834  0.558239  0.322131  1
  Mn  Mn3  1  0.393434  0.124503  0.862206  1
  Mn  Mn4  1  0.606566  0.875497  0.137794  1
  Mn  Mn5  1  0.632166  0.441761  0.677869  1
  Mn  Mn6  1  0.833468  0.206395  0.972061  1
  Mn  Mn7  1  0.798975  0.197572  0.463601  1
  P  P8  1  0.201604  0.435656  0.793001  1
  P  P9  1  0.213673  0.167811  0.300871  1
  P  P10  1  0.786327  0.832189  0.699129  1
  P  P11  1  0.798396  0.564344  0.206999  1
  O  O12  1  0.977422  0.781951  0.748977  1
  O  O13  1  0.988400  0.706799  0.241643  1
  O  O14  1  0.011600  0.293201  0.758357  1
  O  O15  1  0.022578  0.218049  0.251023  1
  O  O16  1  0.211397  0.543411  0.589174  1
  O  O17  1  0.359195  0.888360  0.851616  1
  O  O18  1  0.207993  0.538632  0.996656  1
  O  O19  1  0.371501  0.804105  0.276626  1
  O  O20  1  0.214217  0.056645  0.499818  1
  O  O21  1  0.368936  0.355382  0.824458  1
  O  O22  1  0.220769  0.073599  0.087866  1
  O  O23  1  0.381054  0.322526  0.349487  1
  O  O24  1  0.618946  0.677474  0.650513  1
  O  O25  1  0.779231  0.926401  0.912134  1
  O  O26  1  0.631064  0.644618  0.175542  1
  O  O27  1  0.785783  0.943355  0.500182  1
  O  O28  1  0.628499  0.195895  0.723374  1
  O  O29  1  0.792007  0.461368  0.003344  1
  O  O30  1  0.640805  0.111640  0.148384  1
  O  O31  1  0.788603  0.456589  0.410826  1
