# generated using pymatgen
data_Li3CrPCO7
_symmetry_space_group_name_H-M   'P 1'
_cell_length_a   8.57276693
_cell_length_b   4.97935413
_cell_length_c   6.49733695
_cell_angle_alpha   90.00000000
_cell_angle_beta   90.00000000
_cell_angle_gamma   84.94833636
_symmetry_Int_Tables_number   1
_chemical_formula_structural   Li3CrPCO7
_chemical_formula_sum   'Li6 Cr2 P2 C2 O14'
_cell_volume   276.27348627
_cell_formula_units_Z   2
loop_
 _symmetry_equiv_pos_site_id
 _symmetry_equiv_pos_as_xyz
  1  'x, y, z'
loop_
 _atom_site_type_symbol
 _atom_site_label
 _atom_site_symmetry_multiplicity
 _atom_site_fract_x
 _atom_site_fract_y
 _atom_site_fract_z
 _atom_site_occupancy
  Li  Li0  1  0.110930  0.771581  0.259275  1
  Li  Li1  1  0.296512  0.234529  0.479391  1
  Li  Li2  1  0.357108  0.774836  0.743036  1
  Li  Li3  1  0.642892  0.225164  0.243036  1
  Li  Li4  1  0.703488  0.765471  0.979391  1
  Li  Li5  1  0.889070  0.228419  0.759275  1
  Cr  Cr6  1  0.257821  0.244372  0.987369  1
  Cr  Cr7  1  0.742179  0.755628  0.487369  1
  P  P8  1  0.411015  0.723719  0.256938  1
  P  P9  1  0.588985  0.276281  0.756938  1
  C  C10  1  0.038852  0.707325  0.753935  1
  C  C11  1  0.961148  0.292675  0.253935  1
  O  O12  1  0.061795  0.957152  0.755824  1
  O  O13  1  0.104552  0.368780  0.229167  1
  O  O14  1  0.152905  0.520435  0.771938  1
  O  O15  1  0.317484  0.835326  0.063993  1
  O  O16  1  0.310657  0.830987  0.442159  1
  O  O17  1  0.421033  0.177648  0.753264  1
  O  O18  1  0.425414  0.410882  0.253710  1
  O  O19  1  0.574586  0.589118  0.753710  1
  O  O20  1  0.578967  0.822352  0.253264  1
  O  O21  1  0.689343  0.169013  0.942159  1
  O  O22  1  0.682516  0.164674  0.563993  1
  O  O23  1  0.847095  0.479565  0.271938  1
  O  O24  1  0.895448  0.631220  0.729167  1
  O  O25  1  0.938205  0.042848  0.255824  1
