# generated using pymatgen
data_Rb3ErO3
_symmetry_space_group_name_H-M   'P 1'
_cell_length_a   11.72841068
_cell_length_b   7.36136088
_cell_length_c   7.97795418
_cell_angle_alpha   90.00000000
_cell_angle_beta   94.11901416
_cell_angle_gamma   90.00000000
_symmetry_Int_Tables_number   1
_chemical_formula_structural   Rb3ErO3
_chemical_formula_sum   'Rb12 Er4 O12'
_cell_volume   687.01398477
_cell_formula_units_Z   4
loop_
 _symmetry_equiv_pos_site_id
 _symmetry_equiv_pos_as_xyz
  1  'x, y, z'
loop_
 _atom_site_type_symbol
 _atom_site_label
 _atom_site_symmetry_multiplicity
 _atom_site_fract_x
 _atom_site_fract_y
 _atom_site_fract_z
 _atom_site_occupancy
  Rb  Rb0  1  0.078243  0.329079  0.640784  1
  Rb  Rb1  1  0.154765  0.622041  0.065725  1
  Rb  Rb2  1  0.192499  0.803867  0.625502  1
  Rb  Rb3  1  0.307501  0.303867  0.374498  1
  Rb  Rb4  1  0.345235  0.122041  0.934275  1
  Rb  Rb5  1  0.421757  0.829079  0.359216  1
  Rb  Rb6  1  0.578243  0.170921  0.640784  1
  Rb  Rb7  1  0.654765  0.877959  0.065725  1
  Rb  Rb8  1  0.692499  0.696133  0.625502  1
  Rb  Rb9  1  0.807501  0.196133  0.374498  1
  Rb  Rb10  1  0.845235  0.377959  0.934275  1
  Rb  Rb11  1  0.921757  0.670921  0.359216  1
  Er  Er12  1  0.066930  0.088416  0.161054  1
  Er  Er13  1  0.433070  0.588416  0.838946  1
  Er  Er14  1  0.566930  0.411584  0.161054  1
  Er  Er15  1  0.933070  0.911584  0.838946  1
  O  O16  1  0.042287  0.354110  0.253144  1
  O  O17  1  0.096239  0.049042  0.894393  1
  O  O18  1  0.188742  0.940268  0.310053  1
  O  O19  1  0.311258  0.440268  0.689947  1
  O  O20  1  0.403761  0.549042  0.105607  1
  O  O21  1  0.457713  0.854110  0.746856  1
  O  O22  1  0.542287  0.145890  0.253144  1
  O  O23  1  0.596239  0.450958  0.894393  1
  O  O24  1  0.688742  0.559732  0.310053  1
  O  O25  1  0.811258  0.059732  0.689947  1
  O  O26  1  0.903761  0.950958  0.105607  1
  O  O27  1  0.957713  0.645890  0.746856  1
