# generated using pymatgen
data_NaLiMn2Fe4(PO4)6
_symmetry_space_group_name_H-M   'P 1'
_cell_length_a   8.68452334
_cell_length_b   8.75474861
_cell_length_c   6.47192671
_cell_angle_alpha   73.30068993
_cell_angle_beta   106.28241648
_cell_angle_gamma   87.27906939
_symmetry_Int_Tables_number   1
_chemical_formula_structural   NaLiMn2Fe4(PO4)6
_chemical_formula_sum   'Na1 Li1 Mn2 Fe4 P6 O24'
_cell_volume   448.00145823
_cell_formula_units_Z   1
loop_
 _symmetry_equiv_pos_site_id
 _symmetry_equiv_pos_as_xyz
  1  'x, y, z'
loop_
 _atom_site_type_symbol
 _atom_site_label
 _atom_site_symmetry_multiplicity
 _atom_site_fract_x
 _atom_site_fract_y
 _atom_site_fract_z
 _atom_site_occupancy
  Na  Na0  1  0.501682  0.500899  0.998553  1
  Li  Li1  1  0.989169  0.990147  0.246498  1
  Mn  Mn2  1  0.730124  0.729899  0.747220  1
  Mn  Mn3  1  0.276885  0.277271  0.254103  1
  Fe  Fe4  1  0.065496  0.621729  0.635154  1
  Fe  Fe5  1  0.370014  0.932988  0.128116  1
  Fe  Fe6  1  0.623920  0.067604  0.864061  1
  Fe  Fe7  1  0.934397  0.371767  0.372694  1
  P  P8  1  0.343417  0.869305  0.625017  1
  P  P9  1  0.133911  0.651477  0.129912  1
  P  P10  1  0.287121  0.285365  0.751396  1
  P  P11  1  0.713415  0.715247  0.249001  1
  P  P12  1  0.867392  0.345521  0.879345  1
  P  P13  1  0.652854  0.131168  0.366344  1
  O  O14  1  0.004960  0.665782  0.896744  1
  O  O15  1  0.390166  0.954967  0.813070  1
  O  O16  1  0.170072  0.819887  0.594859  1
  O  O17  1  0.330858  0.997933  0.392951  1
  O  O18  1  0.049607  0.594720  0.320689  1
  O  O19  1  0.177475  0.822403  0.124741  1
  O  O20  1  0.474579  0.727241  0.689991  1
  O  O21  1  0.258213  0.458707  0.763172  1
  O  O22  1  0.263001  0.169053  0.969563  1
  O  O23  1  0.169947  0.264257  0.532903  1
  O  O24  1  0.278881  0.529478  0.172540  1
  O  O25  1  0.538187  0.743086  0.253903  1
  O  O26  1  0.462174  0.258623  0.742823  1
  O  O27  1  0.725429  0.472385  0.831856  1
  O  O28  1  0.832708  0.740357  0.464937  1
  O  O29  1  0.742560  0.833724  0.033992  1
  O  O30  1  0.743242  0.541843  0.239819  1
  O  O31  1  0.526882  0.276626  0.306330  1
  O  O32  1  0.821824  0.171953  0.906021  1
  O  O33  1  0.948460  0.397780  0.684173  1
  O  O34  1  0.663948  0.007618  0.601304  1
  O  O35  1  0.824099  0.178630  0.374397  1
  O  O36  1  0.601174  0.042826  0.182240  1
  O  O37  1  0.001076  0.329060  0.109567  1
