# generated using pymatgen
data_Mg10FeO11
_symmetry_space_group_name_H-M   'P 1'
_cell_length_a   6.76158024
_cell_length_b   6.76643573
_cell_length_c   5.22244856
_cell_angle_alpha   104.98229289
_cell_angle_beta   97.68925541
_cell_angle_gamma   107.45998198
_symmetry_Int_Tables_number   1
_chemical_formula_structural   Mg10FeO11
_chemical_formula_sum   'Mg10 Fe1 O11'
_cell_volume   214.30931593
_cell_formula_units_Z   1
loop_
 _symmetry_equiv_pos_site_id
 _symmetry_equiv_pos_as_xyz
  1  'x, y, z'
loop_
 _atom_site_type_symbol
 _atom_site_label
 _atom_site_symmetry_multiplicity
 _atom_site_fract_x
 _atom_site_fract_y
 _atom_site_fract_z
 _atom_site_occupancy
  Mg  Mg0  1  0.182071  0.634408  0.907566  1
  Mg  Mg1  1  0.999747  0.001956  0.001525  1
  Mg  Mg2  1  0.272896  0.456720  0.363672  1
  Mg  Mg3  1  0.364562  0.275043  0.818549  1
  Mg  Mg4  1  0.544974  0.909008  0.727908  1
  Mg  Mg5  1  0.454737  0.091310  0.275308  1
  Mg  Mg6  1  0.727082  0.545053  0.633783  1
  Mg  Mg7  1  0.636844  0.727356  0.181183  1
  Mg  Mg8  1  0.908923  0.179644  0.545419  1
  Mg  Mg9  1  0.817256  0.361321  0.090542  1
  Fe  Fe10  1  0.090909  0.818182  0.454545  1
  O  O11  1  0.996906  0.492433  0.500921  1
  O  O12  1  0.272600  0.955364  0.865644  1
  O  O13  1  0.090909  0.318182  0.954545  1
  O  O14  1  0.454444  0.591645  0.772286  1
  O  O15  1  0.184912  0.143931  0.408170  1
  O  O16  1  0.369339  0.771540  0.313552  1
  O  O17  1  0.635061  0.227132  0.682795  1
  O  O18  1  0.812479  0.864824  0.595539  1
  O  O19  1  0.546757  0.409231  0.226295  1
  O  O20  1  0.909218  0.681000  0.043447  1
  O  O21  1  0.727374  0.044719  0.136805  1
