# generated using pymatgen
data_Na5Mn2P2(CO7)2
_symmetry_space_group_name_H-M   'P 1'
_cell_length_a   9.02573161
_cell_length_b   13.48661055
_cell_length_c   5.23740986
_cell_angle_alpha   90.05083215
_cell_angle_beta   89.27510160
_cell_angle_gamma   90.06774497
_symmetry_Int_Tables_number   1
_chemical_formula_structural   Na5Mn2P2(CO7)2
_chemical_formula_sum   'Na10 Mn4 P4 C4 O28'
_cell_volume   637.48000165
_cell_formula_units_Z   2
loop_
 _symmetry_equiv_pos_site_id
 _symmetry_equiv_pos_as_xyz
  1  'x, y, z'
loop_
 _atom_site_type_symbol
 _atom_site_label
 _atom_site_symmetry_multiplicity
 _atom_site_fract_x
 _atom_site_fract_y
 _atom_site_fract_z
 _atom_site_occupancy
  Na  Na0  1  0.080776  0.623900  0.758049  1
  Na  Na1  1  0.249894  0.005097  0.243695  1
  Na  Na2  1  0.237904  0.246263  0.242159  1
  Na  Na3  1  0.250943  0.499862  0.246390  1
  Na  Na4  1  0.259198  0.749323  0.247105  1
  Na  Na5  1  0.762096  0.253737  0.757841  1
  Na  Na6  1  0.750106  0.494903  0.756305  1
  Na  Na7  1  0.740802  0.750677  0.752895  1
  Na  Na8  1  0.749057  0.000138  0.753610  1
  Na  Na9  1  0.919224  0.876100  0.241951  1
  Mn  Mn10  1  0.355157  0.373673  0.777392  1
  Mn  Mn11  1  0.358981  0.876087  0.779227  1
  Mn  Mn12  1  0.644843  0.126327  0.222608  1
  Mn  Mn13  1  0.641019  0.623913  0.220773  1
  P  P14  1  0.422579  0.125981  0.704776  1
  P  P15  1  0.414478  0.623888  0.702899  1
  P  P16  1  0.577421  0.374019  0.295224  1
  P  P17  1  0.585522  0.876112  0.297101  1
  C  C18  1  0.074713  0.374859  0.724244  1
  C  C19  1  0.061478  0.874597  0.733919  1
  C  C20  1  0.938522  0.625403  0.266081  1
  C  C21  1  0.925287  0.125141  0.275756  1
  O  O22  1  0.064606  0.121964  0.270609  1
  O  O23  1  0.081217  0.626705  0.285165  1
  O  O24  1  0.151872  0.373481  0.939292  1
  O  O25  1  0.123319  0.874254  0.957435  1
  O  O26  1  0.145794  0.874561  0.529896  1
  O  O27  1  0.157627  0.374883  0.520080  1
  O  O28  1  0.331402  0.033795  0.776636  1
  O  O29  1  0.332410  0.220075  0.772667  1
  O  O30  1  0.321709  0.530373  0.782744  1
  O  O31  1  0.320606  0.714985  0.788082  1
  O  O32  1  0.451469  0.124438  0.403743  1
  O  O33  1  0.431458  0.625161  0.406240  1
  O  O34  1  0.423992  0.373178  0.164359  1
  O  O35  1  0.430078  0.876865  0.175443  1
  O  O36  1  0.576008  0.126822  0.835641  1
  O  O37  1  0.569922  0.623135  0.824557  1
  O  O38  1  0.548531  0.375562  0.596257  1
  O  O39  1  0.568542  0.874839  0.593760  1
  O  O40  1  0.667590  0.279925  0.227333  1
  O  O41  1  0.668598  0.466205  0.223364  1
  O  O42  1  0.679394  0.785015  0.211918  1
  O  O43  1  0.678291  0.969627  0.217256  1
  O  O44  1  0.842373  0.125117  0.479920  1
  O  O45  1  0.854206  0.625439  0.470104  1
  O  O46  1  0.848128  0.126519  0.060708  1
  O  O47  1  0.876681  0.625746  0.042565  1
  O  O48  1  0.935394  0.378036  0.729391  1
  O  O49  1  0.918783  0.873295  0.714835  1
