# generated using pymatgen
data_Li4V3P8O29
_symmetry_space_group_name_H-M   'P 1'
_cell_length_a   9.76575568
_cell_length_b   9.77176513
_cell_length_c   14.14337304
_cell_angle_alpha   90.17565646
_cell_angle_beta   90.50847333
_cell_angle_gamma   60.16056047
_symmetry_Int_Tables_number   1
_chemical_formula_structural   Li4V3P8O29
_chemical_formula_sum   'Li8 V6 P16 O58'
_cell_volume   1170.69901932
_cell_formula_units_Z   2
loop_
 _symmetry_equiv_pos_site_id
 _symmetry_equiv_pos_as_xyz
  1  'x, y, z'
loop_
 _atom_site_type_symbol
 _atom_site_label
 _atom_site_symmetry_multiplicity
 _atom_site_fract_x
 _atom_site_fract_y
 _atom_site_fract_z
 _atom_site_occupancy
  Li  Li0  1  0.916159  0.774300  0.058675  1
  Li  Li1  1  0.771271  0.323202  0.059785  1
  Li  Li2  1  0.310665  0.912479  0.063436  1
  Li  Li3  1  0.668629  0.233372  0.437189  1
  Li  Li4  1  0.333358  0.767979  0.556024  1
  Li  Li5  1  0.683162  0.088054  0.940159  1
  Li  Li6  1  0.096347  0.670320  0.441910  1
  Li  Li7  1  0.989485  0.043119  0.495680  1
  V  V8  1  0.566018  0.432713  0.247767  1
  V  V9  1  0.431946  0.565551  0.755046  1
  V  V10  1  0.566712  0.992089  0.742256  1
  V  V11  1  0.429830  0.003381  0.255238  1
  V  V12  1  0.000993  0.561074  0.253550  1
  V  V13  1  0.999714  0.433458  0.748132  1
  P  P14  1  0.911683  0.771299  0.840515  1
  P  P15  1  0.779101  0.915689  0.339773  1
  P  P16  1  0.916245  0.305015  0.343262  1
  P  P17  1  0.666993  0.667886  0.131809  1
  P  P18  1  0.665054  0.661821  0.629584  1
  P  P19  1  0.774096  0.317006  0.839237  1
  P  P20  1  0.683038  0.228372  0.657840  1
  P  P21  1  0.319317  0.912828  0.844914  1
  P  P22  1  0.679140  0.085006  0.156525  1
  P  P23  1  0.316698  0.769121  0.342280  1
  P  P24  1  0.226706  0.683432  0.160740  1
  P  P25  1  0.333188  0.335363  0.370564  1
  P  P26  1  0.336546  0.326497  0.868381  1
  P  P27  1  0.087529  0.687439  0.658456  1
  P  P28  1  0.218492  0.085423  0.661840  1
  P  P29  1  0.084022  0.228734  0.158956  1
  O  O30  1  0.014274  0.770046  0.568008  1
  O  O31  1  0.921138  0.741829  0.339127  1
  O  O32  1  0.750528  0.999100  0.065753  1
  O  O33  1  0.742524  0.917750  0.834109  1
  O  O34  1  0.905231  0.618278  0.819462  1
  O  O35  1  0.816760  0.667215  0.180588  1
  O  O36  1  0.920260  0.462530  0.330768  1
  O  O37  1  0.989338  0.246088  0.072967  1
  O  O38  1  0.917504  0.341662  0.834979  1
  O  O39  1  0.668973  0.811136  0.675072  1
  O  O40  1  0.622194  0.917335  0.333082  1
  O  O41  1  0.812238  0.515399  0.674530  1
  O  O42  1  0.682717  0.667430  0.026939  1
  O  O43  1  0.660948  0.671685  0.525016  1
  O  O44  1  0.672308  0.512493  0.167621  1
  O  O45  1  0.477952  0.904493  0.819981  1
  O  O46  1  0.516655  0.814093  0.170711  1
  O  O47  1  0.742037  0.341945  0.334888  1
  O  O48  1  0.793723  0.207733  0.748706  1
  O  O49  1  0.765997  0.214439  0.567451  1
  O  O50  1  0.760008  0.241287  0.927761  1
  O  O51  1  0.621078  0.478495  0.821776  1
  O  O52  1  0.511417  0.670220  0.669077  1
  O  O53  1  0.661929  0.251311  0.157726  1
  O  O54  1  0.472600  0.616135  0.329547  1
  O  O55  1  0.342518  0.912347  0.333064  1
  O  O56  1  0.800000  0.987693  0.240651  1
  O  O57  1  0.800462  0.006593  0.418345  1
  O  O58  1  0.205673  0.993433  0.581334  1
  O  O59  1  0.649006  0.089600  0.669111  1
  O  O60  1  0.529105  0.385579  0.672750  1
  O  O61  1  0.345289  0.742764  0.831326  1
  O  O62  1  0.488324  0.324192  0.331914  1
  O  O63  1  0.379535  0.522637  0.178111  1
  O  O64  1  0.233338  0.770313  0.077103  1
  O  O65  1  0.231067  0.776096  0.432269  1
  O  O66  1  0.201253  0.786271  0.255784  1
  O  O67  1  0.259683  0.658209  0.665413  1
  O  O68  1  0.483696  0.177586  0.827935  1
  O  O69  1  0.520361  0.095377  0.178926  1
  O  O70  1  0.342917  0.474214  0.821969  1
  O  O71  1  0.338343  0.335161  0.972771  1
  O  O72  1  0.320984  0.355338  0.475316  1
  O  O73  1  0.185877  0.492895  0.326147  1
  O  O74  1  0.380355  0.081234  0.669405  1
  O  O75  1  0.321675  0.195157  0.328039  1
  O  O76  1  0.081175  0.658366  0.160941  1
  O  O77  1  0.001415  0.792594  0.750506  1
  O  O78  1  0.990071  0.765737  0.931627  1
  O  O79  1  0.087045  0.530158  0.672993  1
  O  O80  1  0.185238  0.336882  0.821510  1
  O  O81  1  0.093984  0.381297  0.181282  1
  O  O82  1  0.251575  0.084298  0.160514  1
  O  O83  1  0.255336  0.984215  0.937472  1
  O  O84  1  0.200357  0.012216  0.760317  1
  O  O85  1  0.083961  0.258625  0.664568  1
  O  O86  1  0.993011  0.211426  0.429080  1
  O  O87  1  0.000014  0.204684  0.250237  1
