# generated using pymatgen
data_Li2Nb(PO4)2
_symmetry_space_group_name_H-M   'P 1'
_cell_length_a   7.77879195
_cell_length_b   12.61217542
_cell_length_c   6.44146363
_cell_angle_alpha   90.00000000
_cell_angle_beta   98.87343367
_cell_angle_gamma   90.00000000
_symmetry_Int_Tables_number   1
_chemical_formula_structural   Li2Nb(PO4)2
_chemical_formula_sum   'Li8 Nb4 P8 O32'
_cell_volume   624.39225362
_cell_formula_units_Z   4
loop_
 _symmetry_equiv_pos_site_id
 _symmetry_equiv_pos_as_xyz
  1  'x, y, z'
loop_
 _atom_site_type_symbol
 _atom_site_label
 _atom_site_symmetry_multiplicity
 _atom_site_fract_x
 _atom_site_fract_y
 _atom_site_fract_z
 _atom_site_occupancy
  Li  Li0  1  0.071249  0.771617  0.646834  1
  Li  Li1  1  0.071249  0.728383  0.146835  1
  Li  Li2  1  0.552982  0.377623  0.939653  1
  Li  Li3  1  0.447018  0.877623  0.560347  1
  Li  Li4  1  0.552982  0.122377  0.439653  1
  Li  Li5  1  0.447018  0.622377  0.060347  1
  Li  Li6  1  0.928751  0.271617  0.853166  1
  Li  Li7  1  0.928751  0.228383  0.353166  1
  Nb  Nb8  1  0.221968  0.083502  0.749785  1
  Nb  Nb9  1  0.221968  0.416498  0.249785  1
  Nb  Nb10  1  0.778032  0.583502  0.750215  1
  Nb  Nb11  1  0.778032  0.916498  0.250215  1
  P  P12  1  0.181702  0.474406  0.741562  1
  P  P13  1  0.181702  0.025594  0.241562  1
  P  P14  1  0.356704  0.645825  0.540376  1
  P  P15  1  0.356704  0.854175  0.040376  1
  P  P16  1  0.643296  0.145825  0.959624  1
  P  P17  1  0.643296  0.354175  0.459624  1
  P  P18  1  0.818298  0.974406  0.758438  1
  P  P19  1  0.818298  0.525594  0.258438  1
  O  O20  1  0.008561  0.965051  0.727267  1
  O  O21  1  0.008561  0.534949  0.227267  1
  O  O22  1  0.081785  0.192793  0.663460  1
  O  O23  1  0.081785  0.307207  0.163460  1
  O  O24  1  0.206068  0.593197  0.660825  1
  O  O25  1  0.308803  0.462369  0.951445  1
  O  O26  1  0.234224  0.398558  0.577935  1
  O  O27  1  0.284429  0.742894  0.997231  1
  O  O28  1  0.206068  0.906803  0.160825  1
  O  O29  1  0.308803  0.037631  0.451445  1
  O  O30  1  0.234224  0.101442  0.077935  1
  O  O31  1  0.284429  0.757106  0.497231  1
  O  O32  1  0.367013  0.921677  0.845638  1
  O  O33  1  0.367013  0.578323  0.345638  1
  O  O34  1  0.477241  0.146180  0.794137  1
  O  O35  1  0.477241  0.353820  0.294137  1
  O  O36  1  0.522759  0.646180  0.705863  1
  O  O37  1  0.522759  0.853820  0.205863  1
  O  O38  1  0.632987  0.421677  0.654362  1
  O  O39  1  0.632987  0.078323  0.154362  1
  O  O40  1  0.715571  0.242894  0.502769  1
  O  O41  1  0.765776  0.898558  0.922065  1
  O  O42  1  0.691197  0.962369  0.548555  1
  O  O43  1  0.793932  0.093197  0.839175  1
  O  O44  1  0.715571  0.257106  0.002769  1
  O  O45  1  0.765776  0.601442  0.422065  1
  O  O46  1  0.691197  0.537631  0.048555  1
  O  O47  1  0.793932  0.406803  0.339175  1
  O  O48  1  0.918215  0.692793  0.836540  1
  O  O49  1  0.918215  0.807207  0.336540  1
  O  O50  1  0.991439  0.465051  0.772733  1
  O  O51  1  0.991439  0.034949  0.272733  1
