# generated using pymatgen
data_Ca11YAl15Cr4SiO48
_symmetry_space_group_name_H-M   'P 1'
_cell_length_a   10.53558284
_cell_length_b   10.53558337
_cell_length_c   10.55715199
_cell_angle_alpha   109.48376554
_cell_angle_beta   109.38374030
_cell_angle_gamma   109.46339364
_symmetry_Int_Tables_number   1
_chemical_formula_structural   Ca11YAl15Cr4SiO48
_chemical_formula_sum   'Ca11 Y1 Al15 Cr4 Si1 O48'
_cell_volume   902.99336001
_cell_formula_units_Z   1
loop_
 _symmetry_equiv_pos_site_id
 _symmetry_equiv_pos_as_xyz
  1  'x, y, z'
loop_
 _atom_site_type_symbol
 _atom_site_label
 _atom_site_symmetry_multiplicity
 _atom_site_fract_x
 _atom_site_fract_y
 _atom_site_fract_z
 _atom_site_occupancy
  Ca  Ca0  1  0.252100  0.877174  0.628395  1
  Ca  Ca1  1  0.126892  0.248874  0.376418  1
  Ca  Ca2  1  0.372456  0.750473  0.123582  1
  Ca  Ca3  1  0.250322  0.375741  0.127851  1
  Ca  Ca4  1  0.622795  0.872795  0.750000  1
  Ca  Ca5  1  0.375242  0.125242  0.250000  1
  Ca  Ca6  1  0.627275  0.251062  0.877981  1
  Ca  Ca7  1  0.748779  0.623705  0.871605  1
  Ca  Ca8  1  0.873081  0.749295  0.622019  1
  Ca  Ca9  1  0.747890  0.122471  0.372149  1
  Ca  Ca10  1  0.877410  0.627410  0.250000  1
  Y  Y11  1  0.122501  0.372501  0.750000  1
  Al  Al12  1  0.998728  0.001464  0.499432  1
  Al  Al13  1  0.127546  0.748940  0.876822  1
  Al  Al14  1  0.249447  0.622514  0.371269  1
  Al  Al15  1  0.377604  0.627604  0.750000  1
  Al  Al16  1  0.247988  0.121696  0.870574  1
  Al  Al17  1  0.372118  0.250725  0.623178  1
  Al  Al18  1  0.500123  0.499996  0.500124  1
  Al  Al19  1  0.628255  0.750958  0.377311  1
  Al  Al20  1  0.622060  0.372060  0.250000  1
  Al  Al21  1  0.751246  0.878178  0.128731  1
  Al  Al22  1  0.751122  0.377414  0.629426  1
  Al  Al23  1  0.499872  -0.000001  0.999876  1
  Al  Al24  1  0.876897  0.126897  0.750000  1
  Al  Al25  1  0.873647  0.250944  0.122689  1
  Al  Al26  1  0.002031  0.499296  0.000568  1
  Cr  Cr27  1  0.502103  0.001532  0.504569  1
  Cr  Cr28  1  0.996963  0.997534  0.995431  1
  Cr  Cr29  1  0.501888  0.500538  0.001787  1
  Cr  Cr30  1  0.998752  0.500101  0.498213  1
  Si  Si31  1  0.123835  0.873835  0.250000  1
  O  O32  1  0.098141  0.983142  0.677710  1
  O  O33  1  0.017076  0.319329  0.898663  1
  O  O34  1  0.113732  0.593437  0.911714  1
  O  O35  1  0.075795  0.688315  0.677138  1
  O  O36  1  0.088471  0.890572  0.393415  1
  O  O37  1  0.101966  0.615106  0.424095  1
  O  O38  1  0.177895  0.485596  0.604789  1
  O  O39  1  0.415646  0.818870  0.802847  1
  O  O40  1  0.380807  0.573107  0.895211  1
  O  O41  1  0.303092  0.320697  0.919489  1
  O  O42  1  0.308486  0.917732  0.303861  1
  O  O43  1  0.012052  0.187829  0.114279  1
  O  O44  1  0.181724  0.202018  0.588286  1
  O  O45  1  0.197085  0.582156  0.180187  1
  O  O46  1  0.398741  0.822203  0.511899  1
  O  O47  1  0.318508  0.902244  0.014523  1
  O  O48  1  0.303944  0.485368  0.388582  1
  O  O49  1  0.113870  0.004625  0.196139  1
  O  O50  1  0.516023  0.612799  0.697153  1
  O  O51  1  0.402767  0.084836  0.888240  1
  O  O52  1  0.511176  0.398657  0.822862  1
  O  O53  1  0.387721  0.303985  0.485477  1
  O  O54  1  0.573550  0.897774  0.385721  1
  O  O55  1  0.188699  0.110781  0.011381  1
  O  O56  1  0.810305  0.886843  0.988101  1
  O  O57  1  0.423189  0.101943  0.614023  1
  O  O58  1  0.612224  0.696575  0.514444  1
  O  O59  1  0.489262  0.601551  0.177229  1
  O  O60  1  0.596786  0.915362  0.111418  1
  O  O61  1  0.483973  0.387170  0.303239  1
  O  O62  1  0.885159  0.986552  0.808244  1
  O  O63  1  0.696596  0.514527  0.611760  1
  O  O64  1  0.682131  0.097781  0.985556  1
  O  O65  1  0.599400  0.177318  0.488619  1
  O  O66  1  0.805432  0.420431  0.822290  1
  O  O67  1  0.819639  0.804168  0.414926  1
  O  O68  1  0.987920  0.809165  0.885977  1
  O  O69  1  0.678308  0.076915  0.691756  1
  O  O70  1  0.691012  0.677871  0.075905  1
  O  O71  1  0.613270  0.422575  0.101613  1
  O  O72  1  0.583931  0.180734  0.196761  1
  O  O73  1  0.820962  0.511657  0.398387  1
  O  O74  1  0.901209  0.383603  0.580511  1
  O  O75  1  0.920666  0.118414  0.601337  1
  O  O76  1  0.924322  0.312033  0.322771  1
  O  O77  1  0.889242  0.404713  0.085074  1
  O  O78  1  0.997157  0.695056  0.106585  1
  O  O79  1  0.901970  0.016899  0.319813  1
