# generated using pymatgen
data_Ba7Pb17O24
_symmetry_space_group_name_H-M   'P 1'
_cell_length_a   8.11174674
_cell_length_b   7.93425999
_cell_length_c   19.08901110
_cell_angle_alpha   90.00000000
_cell_angle_beta   90.00000000
_cell_angle_gamma   119.99843424
_symmetry_Int_Tables_number   1
_chemical_formula_structural   Ba7Pb17O24
_chemical_formula_sum   'Ba7 Pb17 O24'
_cell_volume   1064.00023613
_cell_formula_units_Z   1
loop_
 _symmetry_equiv_pos_site_id
 _symmetry_equiv_pos_as_xyz
  1  'x, y, z'
loop_
 _atom_site_type_symbol
 _atom_site_label
 _atom_site_symmetry_multiplicity
 _atom_site_fract_x
 _atom_site_fract_y
 _atom_site_fract_z
 _atom_site_occupancy
  Ba  Ba0  1  0.365304  0.698099  0.750000  1
  Ba  Ba1  1  0.332048  0.667682  0.083800  1
  Ba  Ba2  1  0.332048  0.667682  0.416200  1
  Ba  Ba3  1  0.666970  0.333389  0.250000  1
  Ba  Ba4  1  0.658432  0.325307  0.580928  1
  Ba  Ba5  1  0.658432  0.325307  0.919072  1
  Ba  Ba6  1  0.872666  0.206597  0.750000  1
  Pb  Pb7  1  0.161454  0.816191  0.250000  1
  Pb  Pb8  1  0.157035  0.808276  0.915547  1
  Pb  Pb9  1  0.157035  0.808276  0.584453  1
  Pb  Pb10  1  0.183434  0.343631  0.250000  1
  Pb  Pb11  1  0.178684  0.341893  0.579760  1
  Pb  Pb12  1  0.178684  0.341893  0.920240  1
  Pb  Pb13  1  0.648119  0.830940  0.250000  1
  Pb  Pb14  1  0.647327  0.833052  0.580395  1
  Pb  Pb15  1  0.647327  0.833052  0.919605  1
  Pb  Pb16  1  0.349240  0.180265  0.084911  1
  Pb  Pb17  1  0.349240  0.180265  0.415089  1
  Pb  Pb18  1  0.355607  0.186647  0.750000  1
  Pb  Pb19  1  0.839030  0.657040  0.083476  1
  Pb  Pb20  1  0.853643  0.664338  0.750000  1
  Pb  Pb21  1  0.839030  0.657040  0.416523  1
  Pb  Pb22  1  0.815542  0.164333  0.415625  1
  Pb  Pb23  1  0.815542  0.164333  0.084375  1
  O  O24  1  0.999301  0.601788  0.166436  1
  O  O25  1  0.993372  0.598095  0.500434  1
  O  O26  1  0.003404  0.587728  0.831056  1
  O  O27  1  0.993372  0.598095  0.999566  1
  O  O28  1  0.999301  0.601788  0.333564  1
  O  O29  1  0.003404  0.587728  0.668944  1
  O  O30  1  0.328992  0.663700  0.923234  1
  O  O31  1  0.328992  0.663700  0.576766  1
  O  O32  1  0.330891  0.666571  0.250000  1
  O  O33  1  0.373031  0.393104  0.668497  1
  O  O34  1  0.396171  0.390079  0.999787  1
  O  O35  1  0.396510  0.397755  0.166917  1
  O  O36  1  0.396171  0.390079  0.500213  1
  O  O37  1  0.396510  0.397755  0.333083  1
  O  O38  1  0.373031  0.393104  0.831503  1
  O  O39  1  0.665623  0.335068  0.084218  1
  O  O40  1  0.661785  0.351636  0.750000  1
  O  O41  1  0.665623  0.335068  0.415782  1
  O  O42  1  0.603514  0.001116  0.332430  1
  O  O43  1  0.598734  0.999363  0.003047  1
  O  O44  1  0.603514  0.001116  0.167570  1
  O  O45  1  0.614072  0.005337  0.662105  1
  O  O46  1  0.614072  0.005337  0.837895  1
  O  O47  1  0.598734  0.999363  0.496953  1
