# generated using pymatgen
data_LiNiPO4
_symmetry_space_group_name_H-M   'P 1'
_cell_length_a   7.55336348
_cell_length_b   7.55457720
_cell_length_c   9.60789705
_cell_angle_alpha   89.99604404
_cell_angle_beta   90.00198073
_cell_angle_gamma   120.00531049
_symmetry_Int_Tables_number   1
_chemical_formula_structural   LiNiPO4
_chemical_formula_sum   'Li6 Ni6 P6 O24'
_cell_volume   474.77328823
_cell_formula_units_Z   6
loop_
 _symmetry_equiv_pos_site_id
 _symmetry_equiv_pos_as_xyz
  1  'x, y, z'
loop_
 _atom_site_type_symbol
 _atom_site_label
 _atom_site_symmetry_multiplicity
 _atom_site_fract_x
 _atom_site_fract_y
 _atom_site_fract_z
 _atom_site_occupancy
  Li  Li0  1  0.069010  0.592077  0.479418  1
  Li  Li1  1  0.523011  0.930961  0.479406  1
  Li  Li2  1  0.407980  0.476897  0.479453  1
  Li  Li3  1  0.476989  0.407950  0.979406  1
  Li  Li4  1  0.592020  0.068916  0.979453  1
  Li  Li5  1  0.930990  0.523066  0.979418  1
  Ni  Ni6  1  0.233884  0.976667  0.257807  1
  Ni  Ni7  1  0.023245  0.257092  0.257771  1
  Ni  Ni8  1  0.257202  0.023328  0.757780  1
  Ni  Ni9  1  0.742798  0.766125  0.257780  1
  Ni  Ni10  1  0.766116  0.742783  0.757807  1
  Ni  Ni11  1  0.976755  0.233848  0.757771  1
  P  P12  1  0.333284  0.666648  0.195414  1
  P  P13  1  0.000006  0.000015  0.990981  1
  P  P14  1  -0.000006  0.000008  0.490981  1
  P  P15  1  0.333324  0.666676  0.781552  1
  P  P16  1  0.666716  0.333365  0.695414  1
  P  P17  1  0.666676  0.333352  0.281552  1
  O  O18  1  0.087474  0.866096  0.438947  1
  O  O19  1  0.201519  0.757259  0.138934  1
  O  O20  1  0.376468  0.876549  0.839937  1
  O  O21  1  0.123389  0.499912  0.839900  1
  O  O22  1  0.242641  0.444303  0.138923  1
  O  O23  1  0.333333  0.666668  0.355305  1
  O  O24  1  0.999993  0.999984  0.157440  1
  O  O25  1  0.000007  0.999991  0.657440  1
  O  O26  1  0.333363  0.666714  0.621481  1
  O  O27  1  0.133922  0.221404  0.438952  1
  O  O28  1  0.221425  0.133944  0.938944  1
  O  O29  1  0.555667  0.798403  0.138895  1
  O  O30  1  0.500077  0.623511  0.839928  1
  O  O31  1  0.778575  0.912519  0.438944  1
  O  O32  1  0.444333  0.242737  0.638895  1
  O  O33  1  0.499923  0.123435  0.339927  1
  O  O34  1  0.623532  0.500081  0.339937  1
  O  O35  1  0.798481  0.555740  0.638934  1
  O  O36  1  0.666667  0.333335  0.855305  1
  O  O37  1  0.666637  0.333351  0.121481  1
  O  O38  1  0.912526  0.778624  0.938948  1
  O  O39  1  0.757359  0.201662  0.638923  1
  O  O40  1  0.876611  0.376523  0.339900  1
  O  O41  1  0.866078  0.087484  0.938952  1
