# generated using pymatgen
data_Mn3(OF2)2
_symmetry_space_group_name_H-M   'P 1'
_cell_length_a   4.80538881
_cell_length_b   7.97406225
_cell_length_c   5.74930572
_cell_angle_alpha   92.89549293
_cell_angle_beta   91.46739253
_cell_angle_gamma   87.60078453
_symmetry_Int_Tables_number   1
_chemical_formula_structural   Mn3(OF2)2
_chemical_formula_sum   'Mn6 O4 F8'
_cell_volume   219.76953206
_cell_formula_units_Z   2
loop_
 _symmetry_equiv_pos_site_id
 _symmetry_equiv_pos_as_xyz
  1  'x, y, z'
loop_
 _atom_site_type_symbol
 _atom_site_label
 _atom_site_symmetry_multiplicity
 _atom_site_fract_x
 _atom_site_fract_y
 _atom_site_fract_z
 _atom_site_occupancy
  Mn  Mn0  1  0.496622  0.005013  0.504043  1
  Mn  Mn1  1  0.561559  0.662594  0.168183  1
  Mn  Mn2  1  0.489497  0.336461  0.829596  1
  Mn  Mn3  1  0.966969  0.677195  0.667254  1
  Mn  Mn4  1  0.007734  0.333737  0.331692  1
  Mn  Mn5  1  0.992170  0.984386  0.007121  1
  O  O6  1  0.805975  0.764469  0.955228  1
  O  O7  1  0.694561  0.782294  0.471444  1
  O  O8  1  0.693958  0.430558  0.117901  1
  O  O9  1  0.309047  0.229732  0.539085  1
  F  F10  1  0.797566  0.431735  0.624228  1
  F  F11  1  0.799133  0.099124  0.307099  1
  F  F12  1  0.700447  0.104223  0.806585  1
  F  F13  1  0.279744  0.568408  0.858291  1
  F  F14  1  0.320590  0.887593  0.195224  1
  F  F15  1  0.182316  0.577975  0.381380  1
  F  F16  1  0.195733  0.217491  0.038243  1
  F  F17  1  0.206375  0.907010  0.697404  1
