# generated using pymatgen
data_NaUHOF5
_symmetry_space_group_name_H-M   'P 1'
_cell_length_a   6.97895285
_cell_length_b   8.74821269
_cell_length_c   15.39392717
_cell_angle_alpha   90.00000000
_cell_angle_beta   90.00000000
_cell_angle_gamma   90.00000000
_symmetry_Int_Tables_number   1
_chemical_formula_structural   NaUHOF5
_chemical_formula_sum   'Na8 U8 H8 O8 F40'
_cell_volume   939.85103713
_cell_formula_units_Z   8
loop_
 _symmetry_equiv_pos_site_id
 _symmetry_equiv_pos_as_xyz
  1  'x, y, z'
loop_
 _atom_site_type_symbol
 _atom_site_label
 _atom_site_symmetry_multiplicity
 _atom_site_fract_x
 _atom_site_fract_y
 _atom_site_fract_z
 _atom_site_occupancy
  Na  Na0  1  0.297387  0.639625  0.685549  1
  Na  Na1  1  0.202613  0.860375  0.185549  1
  Na  Na2  1  0.797387  0.860375  0.314451  1
  Na  Na3  1  0.702613  0.639625  0.814451  1
  Na  Na4  1  0.702613  0.360375  0.314451  1
  Na  Na5  1  0.797387  0.139625  0.814451  1
  Na  Na6  1  0.202613  0.139625  0.685549  1
  Na  Na7  1  0.297387  0.360375  0.185549  1
  U  U8  1  0.161703  0.671013  0.957869  1
  U  U9  1  0.338297  0.828987  0.457869  1
  U  U10  1  0.661703  0.828987  0.042131  1
  U  U11  1  0.838297  0.671013  0.542131  1
  U  U12  1  0.838297  0.328987  0.042131  1
  U  U13  1  0.661703  0.171013  0.542131  1
  U  U14  1  0.338297  0.171013  0.957869  1
  U  U15  1  0.161703  0.328987  0.457869  1
  H  H16  1  0.559630  0.903546  0.707151  1
  H  H17  1  0.940370  0.596454  0.207151  1
  H  H18  1  0.059630  0.596454  0.292849  1
  H  H19  1  0.440370  0.903546  0.792849  1
  H  H20  1  0.440370  0.096454  0.292849  1
  H  H21  1  0.059630  0.403546  0.792849  1
  H  H22  1  0.940370  0.403546  0.707151  1
  H  H23  1  0.559630  0.096454  0.207151  1
  O  O24  1  0.500000  0.462934  0.750000  1
  O  O25  1  0.000000  0.037066  0.250000  1
  O  O26  1  0.500000  0.537066  0.250000  1
  O  O27  1  0.000000  0.962934  0.750000  1
  O  O28  1  0.500000  0.836646  0.750000  1
  O  O29  1  0.000000  0.663354  0.250000  1
  O  O30  1  0.500000  0.163354  0.250000  1
  O  O31  1  0.000000  0.336646  0.750000  1
  F  F32  1  0.153990  0.661323  0.822416  1
  F  F33  1  0.346010  0.838677  0.322416  1
  F  F34  1  0.653990  0.838677  0.177584  1
  F  F35  1  0.846010  0.661323  0.677584  1
  F  F36  1  0.846010  0.338677  0.177584  1
  F  F37  1  0.653990  0.161323  0.677584  1
  F  F38  1  0.346010  0.161323  0.822416  1
  F  F39  1  0.153990  0.338677  0.322416  1
  F  F40  1  0.985892  0.798312  0.071555  1
  F  F41  1  0.514108  0.701688  0.571555  1
  F  F42  1  0.485892  0.701688  0.928445  1
  F  F43  1  0.014108  0.798312  0.428445  1
  F  F44  1  0.014108  0.201688  0.928445  1
  F  F45  1  0.485892  0.298312  0.428445  1
  F  F46  1  0.514108  0.298312  0.071555  1
  F  F47  1  0.985892  0.201688  0.571555  1
  F  F48  1  0.359630  0.715279  0.076730  1
  F  F49  1  0.140370  0.784721  0.576730  1
  F  F50  1  0.859630  0.784721  0.923270  1
  F  F51  1  0.640370  0.715279  0.423270  1
  F  F52  1  0.640370  0.284721  0.923270  1
  F  F53  1  0.859630  0.215279  0.423270  1
  F  F54  1  0.140370  0.215279  0.076730  1
  F  F55  1  0.359630  0.284721  0.576730  1
  F  F56  1  0.917729  0.496168  0.926065  1
  F  F57  1  0.582271  0.003832  0.426065  1
  F  F58  1  0.417729  0.003832  0.073935  1
  F  F59  1  0.082271  0.496168  0.573935  1
  F  F60  1  0.082271  0.503832  0.073935  1
  F  F61  1  0.417729  0.996168  0.573935  1
  F  F62  1  0.582271  0.996168  0.926065  1
  F  F63  1  0.917729  0.503832  0.426065  1
  F  F64  1  0.211359  0.925606  0.935839  1
  F  F65  1  0.288641  0.574394  0.435839  1
  F  F66  1  0.711359  0.574394  0.064161  1
  F  F67  1  0.788641  0.925606  0.564161  1
  F  F68  1  0.788641  0.074394  0.064161  1
  F  F69  1  0.711359  0.425606  0.564161  1
  F  F70  1  0.288641  0.425606  0.935839  1
  F  F71  1  0.211359  0.074394  0.435839  1
