# generated using pymatgen
data_Mg5Ti13O30
_symmetry_space_group_name_H-M   'P 1'
_cell_length_a   5.25633805
_cell_length_b   10.67672215
_cell_length_c   10.10629826
_cell_angle_alpha   90.00000000
_cell_angle_beta   90.00000000
_cell_angle_gamma   96.19062654
_symmetry_Int_Tables_number   1
_chemical_formula_structural   Mg5Ti13O30
_chemical_formula_sum   'Mg5 Ti13 O30'
_cell_volume   563.86273103
_cell_formula_units_Z   1
loop_
 _symmetry_equiv_pos_site_id
 _symmetry_equiv_pos_as_xyz
  1  'x, y, z'
loop_
 _atom_site_type_symbol
 _atom_site_label
 _atom_site_symmetry_multiplicity
 _atom_site_fract_x
 _atom_site_fract_y
 _atom_site_fract_z
 _atom_site_occupancy
  Mg  Mg0  1  0.323094  0.934255  0.750000  1
  Mg  Mg1  1  0.340351  0.731478  0.250000  1
  Mg  Mg2  1  0.009420  0.399722  0.250000  1
  Mg  Mg3  1  0.991436  0.603609  0.750000  1
  Mg  Mg4  1  0.672778  0.064180  0.250000  1
  Ti  Ti5  1  0.227016  0.954447  0.433086  1
  Ti  Ti6  1  0.227016  0.954447  0.066914  1
  Ti  Ti7  1  0.442808  0.711219  0.932266  1
  Ti  Ti8  1  0.442808  0.711219  0.567734  1
  Ti  Ti9  1  0.107603  0.381054  0.938624  1
  Ti  Ti10  1  0.107603  0.381054  0.561376  1
  Ti  Ti11  1  0.890272  0.623358  0.432697  1
  Ti  Ti12  1  0.561774  0.286523  0.068082  1
  Ti  Ti13  1  0.890272  0.623358  0.067303  1
  Ti  Ti14  1  0.561774  0.286523  0.431918  1
  Ti  Ti15  1  0.658485  0.267891  0.750000  1
  Ti  Ti16  1  0.778001  0.042133  0.938042  1
  Ti  Ti17  1  0.778001  0.042133  0.561958  1
  O  O18  1  0.074834  0.984973  0.613382  1
  O  O19  1  0.074834  0.984973  0.886618  1
  O  O20  1  0.145835  0.770634  0.063031  1
  O  O21  1  0.145835  0.770634  0.436969  1
  O  O22  1  0.367114  0.926263  0.250000  1
  O  O23  1  0.033506  0.592699  0.250000  1
  O  O24  1  0.299196  0.740374  0.750000  1
  O  O25  1  0.522384  0.896835  0.934100  1
  O  O26  1  0.522384  0.896835  0.565900  1
  O  O27  1  0.188082  0.561193  0.566737  1
  O  O28  1  0.188082  0.561193  0.933263  1
  O  O29  1  0.590802  0.681963  0.386682  1
  O  O30  1  0.590802  0.681963  0.113318  1
  O  O31  1  0.259133  0.347489  0.389000  1
  O  O32  1  0.259133  0.347489  0.111000  1
  O  O33  1  0.742002  0.651164  0.613037  1
  O  O34  1  0.742002  0.651164  0.886963  1
  O  O35  1  0.414570  0.317158  0.619886  1
  O  O36  1  0.414570  0.317158  0.880114  1
  O  O37  1  0.479090  0.104548  0.064548  1
  O  O38  1  0.815974  0.436593  0.437990  1
  O  O39  1  0.815974  0.436593  0.062010  1
  O  O40  1  0.479090  0.104548  0.435452  1
  O  O41  1  0.702562  0.260293  0.250000  1
  O  O42  1  0.950191  0.402357  0.750000  1
  O  O43  1  0.625017  0.082689  0.750000  1
  O  O44  1  0.848425  0.229940  0.930723  1
  O  O45  1  0.848425  0.229940  0.569277  1
  O  O46  1  0.924819  0.015870  0.386605  1
  O  O47  1  0.924819  0.015870  0.113395  1
