# generated using pymatgen
data_KCa2P4H9O17
_symmetry_space_group_name_H-M   'P 1'
_cell_length_a   10.66315054
_cell_length_b   19.42820316
_cell_length_c   7.43948969
_cell_angle_alpha   90.00000000
_cell_angle_beta   90.71357963
_cell_angle_gamma   90.00000000
_symmetry_Int_Tables_number   1
_chemical_formula_structural   KCa2P4H9O17
_chemical_formula_sum   'K4 Ca8 P16 H36 O68'
_cell_volume   1541.08871665
_cell_formula_units_Z   4
loop_
 _symmetry_equiv_pos_site_id
 _symmetry_equiv_pos_as_xyz
  1  'x, y, z'
loop_
 _atom_site_type_symbol
 _atom_site_label
 _atom_site_symmetry_multiplicity
 _atom_site_fract_x
 _atom_site_fract_y
 _atom_site_fract_z
 _atom_site_occupancy
  K  K0  1  0.158448  0.602378  0.351705  1
  K  K1  1  0.658448  0.897622  0.851705  1
  K  K2  1  0.841552  0.397622  0.648295  1
  K  K3  1  0.341552  0.102378  0.148295  1
  Ca  Ca4  1  0.424479  0.745035  0.092227  1
  Ca  Ca5  1  0.924479  0.754965  0.592227  1
  Ca  Ca6  1  0.575521  0.254965  0.907773  1
  Ca  Ca7  1  0.075521  0.245035  0.407773  1
  Ca  Ca8  1  0.344358  0.769425  0.592187  1
  Ca  Ca9  1  0.844358  0.730575  0.092187  1
  Ca  Ca10  1  0.655642  0.230575  0.407813  1
  Ca  Ca11  1  0.155642  0.269425  0.907813  1
  P  P12  1  0.993677  0.598850  0.827369  1
  P  P13  1  0.493677  0.901150  0.327369  1
  P  P14  1  0.006322  0.401150  0.172631  1
  P  P15  1  0.506323  0.098850  0.672631  1
  P  P16  1  0.275827  0.614252  0.841026  1
  P  P17  1  0.775827  0.885748  0.341026  1
  P  P18  1  0.724173  0.385748  0.158974  1
  P  P19  1  0.224173  0.114252  0.658974  1
  P  P20  1  0.131278  0.775866  0.314800  1
  P  P21  1  0.631278  0.724134  0.814800  1
  P  P22  1  0.868722  0.224134  0.685200  1
  P  P23  1  0.368722  0.275866  0.185200  1
  P  P24  1  0.129119  0.823958  0.943555  1
  P  P25  1  0.629119  0.676042  0.443555  1
  P  P26  1  0.870881  0.176042  0.056445  1
  P  P27  1  0.370881  0.323958  0.556445  1
  H  H28  1  0.045536  0.496859  0.712996  1
  H  H29  1  0.545536  0.003141  0.212996  1
  H  H30  1  0.954464  0.503141  0.287004  1
  H  H31  1  0.454464  0.996859  0.787004  1
  H  H32  1  0.320886  0.503652  0.886343  1
  H  H33  1  0.820886  0.996348  0.386343  1
  H  H34  1  0.679114  0.496348  0.113657  1
  H  H35  1  0.179114  0.003652  0.613657  1
  H  H36  1  0.036527  0.923797  0.863312  1
  H  H37  1  0.536527  0.576203  0.363312  1
  H  H38  1  0.963473  0.076203  0.136688  1
  H  H39  1  0.463473  0.423797  0.636688  1
  H  H40  1  0.129074  0.908026  0.484911  1
  H  H41  1  0.629074  0.591974  0.984911  1
  H  H42  1  0.870926  0.091974  0.515089  1
  H  H43  1  0.370926  0.408026  0.015089  1
  H  H44  1  0.265175  0.931719  0.462739  1
  H  H45  1  0.765175  0.568281  0.962739  1
  H  H46  1  0.734825  0.068281  0.537261  1
  H  H47  1  0.234825  0.431719  0.037261  1
  H  H48  1  0.286417  0.950905  0.888984  1
  H  H49  1  0.786417  0.549095  0.388984  1
  H  H50  1  0.713583  0.049095  0.111016  1
  H  H51  1  0.213583  0.450905  0.611016  1
  H  H52  1  0.405465  0.922422  0.997462  1
  H  H53  1  0.905465  0.577578  0.497462  1
  H  H54  1  0.594535  0.077578  0.002538  1
  H  H55  1  0.094535  0.422422  0.502538  1
  H  H56  1  0.396304  0.498636  0.281014  1
  H  H57  1  0.896304  0.001364  0.781014  1
  H  H58  1  0.603696  0.501364  0.718986  1
  H  H59  1  0.103696  0.998636  0.218986  1
  H  H60  1  0.392223  0.570334  0.183125  1
  H  H61  1  0.892223  0.929666  0.683125  1
  H  H62  1  0.607777  0.429666  0.816875  1
  H  H63  1  0.107777  0.070334  0.316875  1
  O  O64  1  0.982551  0.636206  0.646807  1
  O  O65  1  0.482551  0.863794  0.146807  1
  O  O66  1  0.017449  0.363794  0.353193  1
  O  O67  1  0.517449  0.136206  0.853193  1
  O  O68  1  0.982324  0.518583  0.800455  1
  O  O69  1  0.482324  0.981417  0.300455  1
  O  O70  1  0.017676  0.481417  0.199545  1
  O  O71  1  0.517676  0.018583  0.699545  1
  O  O72  1  0.900999  0.620701  0.968975  1
  O  O73  1  0.400999  0.879299  0.468975  1
  O  O74  1  0.099001  0.379299  0.031025  1
  O  O75  1  0.599001  0.120701  0.531025  1
  O  O76  1  0.131550  0.611151  0.915507  1
  O  O77  1  0.631550  0.888849  0.415507  1
  O  O78  1  0.868450  0.388849  0.084493  1
  O  O79  1  0.368450  0.111151  0.584493  1
  O  O80  1  0.278926  0.659349  0.676742  1
  O  O81  1  0.778926  0.840651  0.176742  1
  O  O82  1  0.721074  0.340651  0.323258  1
  O  O83  1  0.221074  0.159349  0.823258  1
  O  O84  1  0.310549  0.538679  0.782507  1
  O  O85  1  0.810549  0.961321  0.282507  1
  O  O86  1  0.689451  0.461321  0.217493  1
  O  O87  1  0.189451  0.038679  0.717493  1
  O  O88  1  0.351505  0.634930  0.007089  1
  O  O89  1  0.851505  0.865070  0.507089  1
  O  O90  1  0.648495  0.365070  0.992911  1
  O  O91  1  0.148495  0.134930  0.492911  1
  O  O92  1  0.257309  0.739101  0.295273  1
  O  O93  1  0.757309  0.760899  0.795273  1
  O  O94  1  0.742691  0.260899  0.704727  1
  O  O95  1  0.242691  0.239101  0.204727  1
  O  O96  1  0.126041  0.812060  0.497929  1
  O  O97  1  0.626041  0.687940  0.997929  1
  O  O98  1  0.873959  0.187940  0.502071  1
  O  O99  1  0.373959  0.312060  0.002071  1
  O  O100  1  0.016996  0.728676  0.292167  1
  O  O101  1  0.516996  0.771324  0.792167  1
  O  O102  1  0.983004  0.271324  0.707833  1
  O  O103  1  0.483004  0.228676  0.207833  1
  O  O104  1  0.124093  0.834971  0.160888  1
  O  O105  1  0.624093  0.665029  0.660888  1
  O  O106  1  0.875907  0.165029  0.839112  1
  O  O107  1  0.375907  0.334971  0.339112  1
  O  O108  1  0.256334  0.794903  0.894959  1
  O  O109  1  0.756334  0.705097  0.394959  1
  O  O110  1  0.743666  0.205097  0.105041  1
  O  O111  1  0.243666  0.294903  0.605041  1
  O  O112  1  0.123511  0.901824  0.880247  1
  O  O113  1  0.623511  0.598176  0.380247  1
  O  O114  1  0.876489  0.098176  0.119753  1
  O  O115  1  0.376489  0.401824  0.619753  1
  O  O116  1  0.014432  0.783075  0.886666  1
  O  O117  1  0.514432  0.716925  0.386666  1
  O  O118  1  0.985568  0.216925  0.113334  1
  O  O119  1  0.485568  0.283075  0.613334  1
  O  O120  1  0.178000  0.950433  0.462371  1
  O  O121  1  0.678000  0.549567  0.962371  1
  O  O122  1  0.822000  0.049567  0.537629  1
  O  O123  1  0.322000  0.450433  0.037629  1
  O  O124  1  0.373050  0.961930  0.926017  1
  O  O125  1  0.873050  0.538070  0.426017  1
  O  O126  1  0.626950  0.038070  0.073983  1
  O  O127  1  0.126950  0.461930  0.573983  1
  O  O128  1  0.403487  0.548528  0.303056  1
  O  O129  1  0.903487  0.951472  0.803056  1
  O  O130  1  0.596513  0.451472  0.696944  1
  O  O131  1  0.096513  0.048528  0.196944  1
