# generated using pymatgen
data_Li2VCr(P2O7)2
_symmetry_space_group_name_H-M   'P 1'
_cell_length_a   12.75185779
_cell_length_b   9.54376055
_cell_length_c   7.01622488
_cell_angle_alpha   99.37664028
_cell_angle_beta   104.20500258
_cell_angle_gamma   99.52068354
_symmetry_Int_Tables_number   1
_chemical_formula_structural   Li2VCr(P2O7)2
_chemical_formula_sum   'Li6 V3 Cr3 P12 O42'
_cell_volume   797.65972675
_cell_formula_units_Z   3
loop_
 _symmetry_equiv_pos_site_id
 _symmetry_equiv_pos_as_xyz
  1  'x, y, z'
loop_
 _atom_site_type_symbol
 _atom_site_label
 _atom_site_symmetry_multiplicity
 _atom_site_fract_x
 _atom_site_fract_y
 _atom_site_fract_z
 _atom_site_occupancy
  Li  Li0  1  0.153536  0.516268  0.323437  1
  Li  Li1  1  0.104437  0.967453  0.676774  1
  Li  Li2  1  0.438117  0.301248  0.676534  1
  Li  Li3  1  0.820232  0.183266  0.323056  1
  Li  Li4  1  0.486658  0.849570  0.323617  1
  Li  Li5  1  0.771004  0.634096  0.676584  1
  V  V6  1  0.239099  0.738305  0.728968  1
  V  V7  1  0.905483  0.404916  0.729254  1
  V  V8  1  0.928143  0.927692  0.271200  1
  Cr  Cr9  1  0.262446  0.262008  0.272472  1
  Cr  Cr10  1  0.571418  0.071712  0.728065  1
  Cr  Cr11  1  0.595018  0.594743  0.272115  1
  P  P12  1  0.073623  0.253651  0.521179  1
  P  P13  1  0.168363  0.450805  0.915340  1
  P  P14  1  0.406720  0.586385  0.520889  1
  P  P15  1  0.143010  0.927787  0.085753  1
  P  P16  1  0.476127  0.260149  0.085417  1
  P  P17  1  0.833601  0.118622  0.914061  1
  P  P18  1  0.501937  0.784984  0.914355  1
  P  P19  1  0.306878  0.987399  0.477094  1
  P  P20  1  0.639531  0.319767  0.477048  1
  P  P21  1  0.739293  0.920128  0.522920  1
  P  P22  1  0.808399  0.593053  0.086024  1
  P  P23  1  0.973282  0.653228  0.478064  1
  O  O24  1  0.049777  0.086917  0.482431  1
  O  O25  1  0.056987  0.490274  0.920340  1
  O  O26  1  0.147581  0.299290  0.753680  1
  O  O27  1  0.155220  0.090129  0.084163  1
  O  O28  1  0.141564  0.319993  0.393339  1
  O  O29  1  0.302082  0.148556  0.490764  1
  O  O30  1  0.091929  0.629026  0.517674  1
  O  O31  1  0.243119  0.565378  0.853099  1
  O  O32  1  0.144579  0.841174  0.884503  1
  O  O33  1  0.479225  0.172965  0.883754  1
  O  O34  1  0.225515  0.418020  0.116822  1
  O  O35  1  0.374401  0.197862  0.145284  1
  O  O36  1  0.042132  0.865284  0.148793  1
  O  O37  1  0.383336  0.419783  0.481848  1
  O  O38  1  0.301152  0.645305  0.504864  1
  O  O39  1  0.573085  0.252619  0.606473  1
  O  O40  1  0.239780  0.919474  0.605748  1
  O  O41  1  0.390242  0.823684  0.919534  1
  O  O42  1  0.721689  0.156520  0.915853  1
  O  O43  1  0.480709  0.632451  0.753284  1
  O  O44  1  0.251169  0.903058  0.246434  1
  O  O45  1  0.584314  0.235969  0.245774  1
  O  O46  1  0.488397  0.422436  0.082614  1
  O  O47  1  0.474670  0.653097  0.393008  1
  O  O48  1  0.635133  0.481161  0.490517  1
  O  O49  1  0.758346  0.296346  0.516967  1
  O  O50  1  0.425418  0.963475  0.518405  1
  O  O51  1  0.908949  0.232294  0.851042  1
  O  O52  1  0.576840  0.900131  0.854052  1
  O  O53  1  0.811300  0.507511  0.884917  1
  O  O54  1  0.558733  0.751551  0.116099  1
  O  O55  1  0.890989  0.087944  0.115612  1
  O  O56  1  0.707293  0.531232  0.147379  1
  O  O57  1  0.715843  0.753643  0.481712  1
  O  O58  1  0.967986  0.312191  0.505726  1
  O  O59  1  0.633715  0.980091  0.509598  1
  O  O60  1  0.906011  0.584471  0.605910  1
  O  O61  1  0.814154  0.966030  0.753596  1
  O  O62  1  0.917367  0.569931  0.246556  1
  O  O63  1  0.820663  0.755592  0.082040  1
  O  O64  1  0.806987  0.986968  0.394354  1
  O  O65  1  0.969686  0.814099  0.495223  1
