# generated using pymatgen
data_FeOF
_symmetry_space_group_name_H-M   'P 1'
_cell_length_a   14.17184976
_cell_length_b   9.48212756
_cell_length_c   3.11084657
_cell_angle_alpha   90.00000000
_cell_angle_beta   90.00000000
_cell_angle_gamma   89.99234159
_symmetry_Int_Tables_number   1
_chemical_formula_structural   FeOF
_chemical_formula_sum   'Fe12 O12 F12'
_cell_volume   418.03334099
_cell_formula_units_Z   12
loop_
 _symmetry_equiv_pos_site_id
 _symmetry_equiv_pos_as_xyz
  1  'x, y, z'
loop_
 _atom_site_type_symbol
 _atom_site_label
 _atom_site_symmetry_multiplicity
 _atom_site_fract_x
 _atom_site_fract_y
 _atom_site_fract_z
 _atom_site_occupancy
  Fe  Fe0  1  0.007578  0.989865  0.000000  1
  Fe  Fe1  1  0.010750  0.494237  0.000000  1
  Fe  Fe2  1  0.149205  0.242395  0.500000  1
  Fe  Fe3  1  0.149635  0.744793  0.500000  1
  Fe  Fe4  1  0.341297  0.989738  0.000000  1
  Fe  Fe5  1  0.343390  0.493088  0.000000  1
  Fe  Fe6  1  0.487420  0.743948  0.500000  1
  Fe  Fe7  1  0.505622  0.274584  0.500000  1
  Fe  Fe8  1  0.679623  0.994676  0.000000  1
  Fe  Fe9  1  0.674187  0.486313  0.000000  1
  Fe  Fe10  1  0.820762  0.245457  0.500000  1
  Fe  Fe11  1  0.839699  0.774276  0.500000  1
  O  O12  1  0.063031  0.401779  0.500000  1
  O  O13  1  0.067424  0.904176  0.500000  1
  O  O14  1  0.101045  0.148012  0.000000  1
  O  O15  1  0.099418  0.651618  0.000000  1
  O  O16  1  0.394869  0.397518  0.500000  1
  O  O17  1  0.399020  0.906019  0.500000  1
  O  O18  1  0.433795  0.651132  0.000000  1
  O  O19  1  0.567328  0.352706  0.000000  1
  O  O20  1  0.736143  0.409230  0.500000  1
  O  O21  1  0.728963  0.899300  0.500000  1
  O  O22  1  0.766131  0.153874  0.000000  1
  O  O23  1  0.900892  0.852279  0.000000  1
  F  F24  1  0.230468  0.346308  0.000000  1
  F  F25  1  0.232763  0.849338  0.000000  1
  F  F26  1  0.271016  0.098313  0.500000  1
  F  F27  1  0.266510  0.598331  0.500000  1
  F  F28  1  0.434981  0.154230  0.000000  1
  F  F29  1  0.563218  0.848445  0.000000  1
  F  F30  1  0.596171  0.095123  0.500000  1
  F  F31  1  0.604877  0.605982  0.500000  1
  F  F32  1  0.769784  0.655509  0.000000  1
  F  F33  1  0.898385  0.347963  0.000000  1
  F  F34  1  0.933794  0.105134  0.500000  1
  F  F35  1  0.930808  0.594307  0.500000  1
