# generated using pymatgen
data_BaLa2Cl8
_symmetry_space_group_name_H-M   'P 1'
_cell_length_a   7.82799833
_cell_length_b   7.82799833
_cell_length_c   5.51976663
_cell_angle_alpha   82.71973668
_cell_angle_beta   97.28026332
_cell_angle_gamma   68.70573519
_symmetry_Int_Tables_number   1
_chemical_formula_structural   BaLa2Cl8
_chemical_formula_sum   'Ba1 La2 Cl8'
_cell_volume   307.09594958
_cell_formula_units_Z   1
loop_
 _symmetry_equiv_pos_site_id
 _symmetry_equiv_pos_as_xyz
  1  'x, y, z'
loop_
 _atom_site_type_symbol
 _atom_site_label
 _atom_site_symmetry_multiplicity
 _atom_site_fract_x
 _atom_site_fract_y
 _atom_site_fract_z
 _atom_site_occupancy
  Ba  Ba0  1  0.000000  0.000000  0.000000  1
  La  La1  1  0.680072  0.680072  0.500000  1
  La  La2  1  0.319928  0.319928  0.500000  1
  Cl  Cl3  1  0.058569  0.677417  0.574631  1
  Cl  Cl4  1  0.322583  0.941431  0.574631  1
  Cl  Cl5  1  0.381414  0.618586  0.199666  1
  Cl  Cl6  1  0.247306  0.247306  0.000000  1
  Cl  Cl7  1  0.752694  0.752694  0.000000  1
  Cl  Cl8  1  0.618586  0.381414  0.800334  1
  Cl  Cl9  1  0.677417  0.058569  0.425369  1
  Cl  Cl10  1  0.941431  0.322583  0.425369  1
