# generated using pymatgen
data_Li7Mn8(BO3)8
_symmetry_space_group_name_H-M   'P 1'
_cell_length_a   5.29524706
_cell_length_b   9.03900282
_cell_length_c   11.57748875
_cell_angle_alpha   67.25677786
_cell_angle_beta   79.08010982
_cell_angle_gamma   90.09522233
_symmetry_Int_Tables_number   1
_chemical_formula_structural   Li7Mn8(BO3)8
_chemical_formula_sum   'Li7 Mn8 B8 O24'
_cell_volume   500.08264506
_cell_formula_units_Z   1
loop_
 _symmetry_equiv_pos_site_id
 _symmetry_equiv_pos_as_xyz
  1  'x, y, z'
loop_
 _atom_site_type_symbol
 _atom_site_label
 _atom_site_symmetry_multiplicity
 _atom_site_fract_x
 _atom_site_fract_y
 _atom_site_fract_z
 _atom_site_occupancy
  Li  Li0  1  0.083928  0.933641  0.160806  1
  Li  Li1  1  0.141256  0.283386  0.421623  1
  Li  Li2  1  0.580157  0.434135  0.162603  1
  Li  Li3  1  0.382675  0.551237  0.903707  1
  Li  Li4  1  0.632754  0.789577  0.422616  1
  Li  Li5  1  0.819115  0.642111  0.666498  1
  Li  Li6  1  0.872077  0.041721  0.919674  1
  Mn  Mn7  1  0.098682  0.279353  0.125719  1
  Mn  Mn8  1  0.143523  0.639613  0.386990  1
  Mn  Mn9  1  0.332623  0.870675  0.628844  1
  Mn  Mn10  1  0.593235  0.772127  0.135380  1
  Mn  Mn11  1  0.383618  0.225724  0.869974  1
  Mn  Mn12  1  0.650853  0.151707  0.376820  1
  Mn  Mn13  1  0.853200  0.329492  0.635852  1
  Mn  Mn14  1  0.893457  0.719447  0.883990  1
  B  B15  1  0.110678  0.612687  0.123154  1
  B  B16  1  0.137566  0.987440  0.377045  1
  B  B17  1  0.356682  0.524552  0.626756  1
  B  B18  1  0.601675  0.110898  0.124550  1
  B  B19  1  0.389922  0.894643  0.873647  1
  B  B20  1  0.647357  0.483568  0.376165  1
  B  B21  1  0.869146  0.002975  0.620406  1
  B  B22  1  0.887814  0.389260  0.874736  1
  O  O23  1  0.008528  0.866910  0.361629  1
  O  O24  1  0.057947  0.142937  0.337581  1
  O  O25  1  0.190030  0.719493  0.171791  1
  O  O26  1  0.016394  0.133206  0.607690  1
  O  O27  1  0.273029  0.503644  0.099093  1
  O  O28  1  0.109456  0.534698  0.596555  1
  O  O29  1  0.359414  0.117978  0.093455  1
  O  O30  1  0.121179  0.382607  0.915413  1
  O  O31  1  0.359218  0.958154  0.432579  1
  O  O32  1  0.229458  0.006212  0.886415  1
  O  O33  1  0.505462  0.370462  0.355809  1
  O  O34  1  0.311967  0.785315  0.820944  1
  O  O35  1  0.558874  0.637648  0.348023  1
  O  O36  1  0.461564  0.378175  0.669495  1
  O  O37  1  0.494771  0.664558  0.610452  1
  O  O38  1  0.688275  0.223183  0.167823  1
  O  O39  1  0.757635  0.992684  0.112887  1
  O  O40  1  0.635879  0.019335  0.580593  1
  O  O41  1  0.865427  0.618728  0.092398  1
  O  O42  1  0.623706  0.876017  0.913760  1
  O  O43  1  0.878076  0.447243  0.418316  1
  O  O44  1  0.746712  0.521636  0.859947  1
  O  O45  1  0.799168  0.263663  0.846856  1
  O  O46  1  0.953546  0.846341  0.665968  1
