# generated using pymatgen
data_Bi2OF4
_symmetry_space_group_name_H-M   'P 1'
_cell_length_a   5.66670978
_cell_length_b   7.10502533
_cell_length_c   5.83137679
_cell_angle_alpha   78.88046276
_cell_angle_beta   90.00000000
_cell_angle_gamma   66.49795415
_symmetry_Int_Tables_number   1
_chemical_formula_structural   Bi2OF4
_chemical_formula_sum   'Bi4 O2 F8'
_cell_volume   210.49226612
_cell_formula_units_Z   2
loop_
 _symmetry_equiv_pos_site_id
 _symmetry_equiv_pos_as_xyz
  1  'x, y, z'
loop_
 _atom_site_type_symbol
 _atom_site_label
 _atom_site_symmetry_multiplicity
 _atom_site_fract_x
 _atom_site_fract_y
 _atom_site_fract_z
 _atom_site_occupancy
  Bi  Bi0  1  0.891274  0.788439  0.581506  1
  Bi  Bi1  1  0.320287  0.788439  0.081506  1
  Bi  Bi2  1  0.679713  0.211561  0.918494  1
  Bi  Bi3  1  0.108726  0.211561  0.418494  1
  O  O4  1  0.038781  0.000000  0.750000  1
  O  O5  1  0.961219  0.000000  0.250000  1
  F  F6  1  0.695610  0.842979  0.939571  1
  F  F7  1  0.461410  0.842979  0.439571  1
  F  F8  1  0.280794  0.571392  0.822828  1
  F  F9  1  0.147814  0.571392  0.322828  1
  F  F10  1  0.852186  0.428608  0.677172  1
  F  F11  1  0.719206  0.428608  0.177172  1
  F  F12  1  0.538590  0.157021  0.560429  1
  F  F13  1  0.304390  0.157021  0.060429  1
