# generated using pymatgen
data_Mn2Fe3Ni(PO4)6
_symmetry_space_group_name_H-M   'P 1'
_cell_length_a   8.58175549
_cell_length_b   8.58175510
_cell_length_c   8.58175530
_cell_angle_alpha   60.74851881
_cell_angle_beta   60.74852143
_cell_angle_gamma   60.74852334
_symmetry_Int_Tables_number   1
_chemical_formula_structural   Mn2Fe3Ni(PO4)6
_chemical_formula_sum   'Mn2 Fe3 Ni1 P6 O24'
_cell_volume   454.45077959
_cell_formula_units_Z   1
loop_
 _symmetry_equiv_pos_site_id
 _symmetry_equiv_pos_as_xyz
  1  'x, y, z'
loop_
 _atom_site_type_symbol
 _atom_site_label
 _atom_site_symmetry_multiplicity
 _atom_site_fract_x
 _atom_site_fract_y
 _atom_site_fract_z
 _atom_site_occupancy
  Mn  Mn0  1  0.999084  0.999084  0.999084  1
  Mn  Mn1  1  0.499659  0.499659  0.499659  1
  Fe  Fe2  1  0.145328  0.145328  0.145328  1
  Fe  Fe3  1  0.353806  0.353806  0.353806  1
  Fe  Fe4  1  0.645492  0.645492  0.645492  1
  Ni  Ni5  1  0.856565  0.856565  0.856565  1
  P  P6  1  0.045547  0.750087  0.454657  1
  P  P7  1  0.454657  0.045547  0.750087  1
  P  P8  1  0.750087  0.454657  0.045547  1
  P  P9  1  0.249628  0.545805  0.954019  1
  P  P10  1  0.545805  0.954019  0.249628  1
  P  P11  1  0.954019  0.249628  0.545805  1
  O  O12  1  0.108713  0.319225  0.503244  1
  O  O13  1  0.319225  0.503244  0.108713  1
  O  O14  1  0.059022  0.909703  0.256418  1
  O  O15  1  0.503244  0.108713  0.319225  1
  O  O16  1  0.012558  0.815049  0.607115  1
  O  O17  1  0.243586  0.590347  0.435971  1
  O  O18  1  0.256418  0.059022  0.909703  1
  O  O19  1  0.435971  0.243586  0.590347  1
  O  O20  1  0.180941  0.391126  0.995871  1
  O  O21  1  0.590347  0.435971  0.243586  1
  O  O22  1  0.091506  0.742761  0.941792  1
  O  O23  1  0.391126  0.995871  0.180941  1
  O  O24  1  0.607115  0.012558  0.815049  1
  O  O25  1  0.909703  0.256418  0.059022  1
  O  O26  1  0.409557  0.559212  0.757301  1
  O  O27  1  0.815049  0.607115  0.012558  1
  O  O28  1  0.559212  0.757301  0.409557  1
  O  O29  1  0.742761  0.941792  0.091506  1
  O  O30  1  0.757301  0.409557  0.559212  1
  O  O31  1  0.995871  0.180941  0.391126  1
  O  O32  1  0.495930  0.890169  0.683202  1
  O  O33  1  0.941792  0.091506  0.742761  1
  O  O34  1  0.683202  0.495930  0.890169  1
  O  O35  1  0.890169  0.683202  0.495930  1
