# generated using pymatgen
data_InFe11O16
_symmetry_space_group_name_H-M   'P 1'
_cell_length_a   6.10916985
_cell_length_b   10.51338446
_cell_length_c   10.51338446
_cell_angle_alpha   71.42184556
_cell_angle_beta   90.00000000
_cell_angle_gamma   90.00000000
_symmetry_Int_Tables_number   1
_chemical_formula_structural   InFe11O16
_chemical_formula_sum   'In2 Fe22 O32'
_cell_volume   640.06666927
_cell_formula_units_Z   2
loop_
 _symmetry_equiv_pos_site_id
 _symmetry_equiv_pos_as_xyz
  1  'x, y, z'
loop_
 _atom_site_type_symbol
 _atom_site_label
 _atom_site_symmetry_multiplicity
 _atom_site_fract_x
 _atom_site_fract_y
 _atom_site_fract_z
 _atom_site_occupancy
  In  In0  1  0.250000  0.936894  0.936894  1
  In  In1  1  0.750000  0.563106  0.563106  1
  Fe  Fe2  1  0.500000  0.750000  0.750000  1
  Fe  Fe3  1  0.000000  0.750000  0.750000  1
  Fe  Fe4  1  0.750000  0.437459  0.937372  1
  Fe  Fe5  1  0.750000  0.937372  0.437459  1
  Fe  Fe6  1  0.250000  0.498096  0.751454  1
  Fe  Fe7  1  0.250000  0.751454  0.498096  1
  Fe  Fe8  1  0.500000  0.250000  0.750000  1
  Fe  Fe9  1  0.000000  0.750000  0.250000  1
  Fe  Fe10  1  0.000000  0.250000  0.750000  1
  Fe  Fe11  1  0.500000  0.750000  0.250000  1
  Fe  Fe12  1  0.250000  0.435871  0.435871  1
  Fe  Fe13  1  0.750000  0.244547  0.497577  1
  Fe  Fe14  1  0.750000  0.497577  0.244547  1
  Fe  Fe15  1  0.750000  0.001904  0.748546  1
  Fe  Fe16  1  0.750000  0.748546  0.001904  1
  Fe  Fe17  1  0.250000  0.562628  0.062541  1
  Fe  Fe18  1  0.250000  0.062541  0.562628  1
  Fe  Fe19  1  0.000000  0.250000  0.250000  1
  Fe  Fe20  1  0.500000  0.250000  0.250000  1
  Fe  Fe21  1  0.250000  0.002423  0.255453  1
  Fe  Fe22  1  0.250000  0.255453  0.002423  1
  Fe  Fe23  1  0.750000  0.064129  0.064129  1
  O  O24  1  0.517315  0.865130  0.865130  1
  O  O25  1  0.982685  0.865130  0.865130  1
  O  O26  1  0.750000  0.631547  0.864858  1
  O  O27  1  0.750000  0.864858  0.631547  1
  O  O28  1  0.250000  0.635142  0.868453  1
  O  O29  1  0.250000  0.868453  0.635142  1
  O  O30  1  0.482685  0.634870  0.634870  1
  O  O31  1  0.017315  0.634870  0.634870  1
  O  O32  1  0.491048  0.368872  0.875945  1
  O  O33  1  0.008952  0.875945  0.368872  1
  O  O34  1  0.491048  0.875945  0.368872  1
  O  O35  1  0.008952  0.368872  0.875945  1
  O  O36  1  0.250000  0.146130  0.872982  1
  O  O37  1  0.250000  0.374011  0.629119  1
  O  O38  1  0.250000  0.629119  0.374011  1
  O  O39  1  0.250000  0.872982  0.146130  1
  O  O40  1  0.750000  0.353870  0.627018  1
  O  O41  1  0.750000  0.125989  0.870881  1
  O  O42  1  0.750000  0.627018  0.353870  1
  O  O43  1  0.750000  0.870881  0.125989  1
  O  O44  1  0.991048  0.131128  0.624055  1
  O  O45  1  0.991048  0.624055  0.131128  1
  O  O46  1  0.508952  0.131128  0.624055  1
  O  O47  1  0.508952  0.624055  0.131128  1
  O  O48  1  0.520125  0.371418  0.371418  1
  O  O49  1  0.979875  0.371418  0.371418  1
  O  O50  1  0.750000  0.378065  0.130347  1
  O  O51  1  0.750000  0.130347  0.378065  1
  O  O52  1  0.250000  0.121935  0.369653  1
  O  O53  1  0.250000  0.369653  0.121935  1
  O  O54  1  0.479875  0.128582  0.128582  1
  O  O55  1  0.020125  0.128582  0.128582  1
