# generated using pymatgen
data_Ta2Tl2P7HO24
_symmetry_space_group_name_H-M   'P 1'
_cell_length_a   5.24410476
_cell_length_b   18.76365080
_cell_length_c   10.93798550
_cell_angle_alpha   90.00000000
_cell_angle_beta   95.42317602
_cell_angle_gamma   90.00000000
_symmetry_Int_Tables_number   1
_chemical_formula_structural   Ta2Tl2P7HO24
_chemical_formula_sum   'Ta4 Tl4 P14 H2 O48'
_cell_volume   1071.46428288
_cell_formula_units_Z   2
loop_
 _symmetry_equiv_pos_site_id
 _symmetry_equiv_pos_as_xyz
  1  'x, y, z'
loop_
 _atom_site_type_symbol
 _atom_site_label
 _atom_site_symmetry_multiplicity
 _atom_site_fract_x
 _atom_site_fract_y
 _atom_site_fract_z
 _atom_site_occupancy
  Ta  Ta0  1  0.201322  0.023794  0.805165  1
  Ta  Ta1  1  0.201322  0.476206  0.805165  1
  Ta  Ta2  1  0.798678  0.976206  0.194835  1
  Ta  Ta3  1  0.798678  0.523794  0.194835  1
  Tl  Tl4  1  0.193719  0.750000  0.724474  1
  Tl  Tl5  1  0.249239  0.250000  0.016872  1
  Tl  Tl6  1  0.750761  0.750000  0.983128  1
  Tl  Tl7  1  0.806281  0.250000  0.275526  1
  P  P8  1  0.171733  0.125860  0.534512  1
  P  P9  1  0.171733  0.374140  0.534512  1
  P  P10  1  0.379929  0.250000  0.667522  1
  P  P11  1  0.265170  0.597930  0.044513  1
  P  P12  1  0.265170  0.902070  0.044513  1
  P  P13  1  0.324676  0.084384  0.297227  1
  P  P14  1  0.324676  0.415616  0.297227  1
  P  P15  1  0.675324  0.584384  0.702773  1
  P  P16  1  0.675324  0.915616  0.702773  1
  P  P17  1  0.734830  0.097930  0.955487  1
  P  P18  1  0.734830  0.402070  0.955487  1
  P  P19  1  0.620071  0.750000  0.332478  1
  P  P20  1  0.828267  0.874140  0.465488  1
  P  P21  1  0.828267  0.625860  0.465488  1
  H  H22  1  0.192526  0.750000  0.289626  1
  H  H23  1  0.807474  0.250000  0.710374  1
  O  O24  1  0.065653  0.658695  0.521904  1
  O  O25  1  0.065653  0.841305  0.521904  1
  O  O26  1  0.022479  0.592844  0.117757  1
  O  O27  1  0.022479  0.907156  0.117757  1
  O  O28  1  0.155789  0.250000  0.740488  1
  O  O29  1  0.151926  0.077724  0.647191  1
  O  O30  1  0.151926  0.422276  0.647191  1
  O  O31  1  0.250113  0.530237  0.958341  1
  O  O32  1  0.250113  0.969763  0.958341  1
  O  O33  1  0.098820  0.035088  0.248781  1
  O  O34  1  0.098820  0.464912  0.248781  1
  O  O35  1  0.286052  0.666161  0.977006  1
  O  O36  1  0.286052  0.833839  0.977006  1
  O  O37  1  0.325626  0.077731  0.445809  1
  O  O38  1  0.325626  0.422269  0.445809  1
  O  O39  1  0.301497  0.159573  0.254791  1
  O  O40  1  0.301497  0.340427  0.254791  1
  O  O41  1  0.393149  0.183562  0.576972  1
  O  O42  1  0.393149  0.316438  0.576972  1
  O  O43  1  0.359544  0.750000  0.252997  1
  O  O44  1  0.424906  0.545138  0.725561  1
  O  O45  1  0.424906  0.954862  0.725561  1
  O  O46  1  0.500116  0.083459  0.857864  1
  O  O47  1  0.500116  0.416541  0.857864  1
  O  O48  1  0.499884  0.583459  0.142136  1
  O  O49  1  0.499884  0.916541  0.142136  1
  O  O50  1  0.575094  0.045138  0.274439  1
  O  O51  1  0.575094  0.454862  0.274439  1
  O  O52  1  0.640456  0.250000  0.747003  1
  O  O53  1  0.606851  0.683562  0.423028  1
  O  O54  1  0.606851  0.816438  0.423028  1
  O  O55  1  0.698503  0.840427  0.745209  1
  O  O56  1  0.698503  0.659573  0.745209  1
  O  O57  1  0.674374  0.577731  0.554191  1
  O  O58  1  0.674374  0.922269  0.554191  1
  O  O59  1  0.713948  0.166161  0.022994  1
  O  O60  1  0.713948  0.333839  0.022994  1
  O  O61  1  0.901180  0.535088  0.751219  1
  O  O62  1  0.901180  0.964912  0.751219  1
  O  O63  1  0.749887  0.030237  0.041659  1
  O  O64  1  0.749887  0.469763  0.041659  1
  O  O65  1  0.848074  0.577724  0.352809  1
  O  O66  1  0.848074  0.922276  0.352809  1
  O  O67  1  0.844211  0.750000  0.259512  1
  O  O68  1  0.977521  0.092844  0.882243  1
  O  O69  1  0.977521  0.407156  0.882243  1
  O  O70  1  0.934347  0.341305  0.478096  1
  O  O71  1  0.934347  0.158695  0.478096  1
