# generated using pymatgen
data_Li5Fe2P2(CO7)2
_symmetry_space_group_name_H-M   'P 1'
_cell_length_a   9.41605832
_cell_length_b   10.11673633
_cell_length_c   6.50010610
_cell_angle_alpha   90.00000000
_cell_angle_beta   90.00000000
_cell_angle_gamma   63.02539619
_symmetry_Int_Tables_number   1
_chemical_formula_structural   Li5Fe2P2(CO7)2
_chemical_formula_sum   'Li10 Fe4 P4 C4 O28'
_cell_volume   551.83460408
_cell_formula_units_Z   2
loop_
 _symmetry_equiv_pos_site_id
 _symmetry_equiv_pos_as_xyz
  1  'x, y, z'
loop_
 _atom_site_type_symbol
 _atom_site_label
 _atom_site_symmetry_multiplicity
 _atom_site_fract_x
 _atom_site_fract_y
 _atom_site_fract_z
 _atom_site_occupancy
  Li  Li0  1  0.893606  0.440779  0.755063  1
  Li  Li1  1  0.911564  0.925122  0.752676  1
  Li  Li2  1  0.720070  0.273157  0.541032  1
  Li  Li3  1  0.730182  0.760222  0.513428  1
  Li  Li4  1  0.730432  0.756887  0.987921  1
  Li  Li5  1  0.269568  0.243113  0.487921  1
  Li  Li6  1  0.269818  0.239778  0.013428  1
  Li  Li7  1  0.279930  0.726843  0.041032  1
  Li  Li8  1  0.088436  0.074878  0.252676  1
  Li  Li9  1  0.106394  0.559221  0.255063  1
  Fe  Fe10  1  0.669472  0.070338  0.243375  1
  Fe  Fe11  1  0.668182  0.553763  0.247473  1
  Fe  Fe12  1  0.331818  0.446237  0.747473  1
  Fe  Fe13  1  0.330528  0.929662  0.743375  1
  P  P14  1  0.584045  0.063866  0.746994  1
  P  P15  1  0.585399  0.574853  0.747283  1
  P  P16  1  0.414601  0.425147  0.247283  1
  P  P17  1  0.415955  0.936134  0.246994  1
  C  C18  1  0.969539  0.366442  0.261408  1
  C  C19  1  0.954290  0.866803  0.242432  1
  C  C20  1  0.045711  0.133197  0.742432  1
  C  C21  1  0.030461  0.633558  0.761408  1
  O  O22  1  0.920087  0.007756  0.245778  1
  O  O23  1  0.933408  0.506570  0.247100  1
  O  O24  1  0.906673  0.237708  0.722523  1
  O  O25  1  0.855673  0.329340  0.281920  1
  O  O26  1  0.882928  0.736213  0.753527  1
  O  O27  1  0.828772  0.841369  0.257893  1
  O  O28  1  0.690312  0.046223  0.937836  1
  O  O29  1  0.694135  0.058037  0.563934  1
  O  O30  1  0.696350  0.562393  0.932616  1
  O  O31  1  0.681225  0.588356  0.560496  1
  O  O32  1  0.578750  0.286021  0.275446  1
  O  O33  1  0.558262  0.436917  0.721476  1
  O  O34  1  0.575908  0.795525  0.244687  1
  O  O35  1  0.549236  0.925440  0.737670  1
  O  O36  1  0.450764  0.074560  0.237670  1
  O  O37  1  0.424092  0.204475  0.744687  1
  O  O38  1  0.441738  0.563083  0.221476  1
  O  O39  1  0.421250  0.713979  0.775446  1
  O  O40  1  0.303650  0.437607  0.432616  1
  O  O41  1  0.318775  0.411644  0.060496  1
  O  O42  1  0.305865  0.941963  0.063934  1
  O  O43  1  0.309688  0.953777  0.437836  1
  O  O44  1  0.171228  0.158631  0.757893  1
  O  O45  1  0.117072  0.263787  0.253527  1
  O  O46  1  0.144327  0.670660  0.781920  1
  O  O47  1  0.093327  0.762292  0.222523  1
  O  O48  1  0.066592  0.493430  0.747100  1
  O  O49  1  0.079913  0.992244  0.745778  1
