# generated using pymatgen
data_Li4Nb3V3(SbO8)2
_symmetry_space_group_name_H-M   'P 1'
_cell_length_a   6.12979822
_cell_length_b   6.11528872
_cell_length_c   10.62909362
_cell_angle_alpha   89.99872721
_cell_angle_beta   90.41814740
_cell_angle_gamma   119.92067929
_symmetry_Int_Tables_number   1
_chemical_formula_structural   Li4Nb3V3(SbO8)2
_chemical_formula_sum   'Li4 Nb3 V3 Sb2 O16'
_cell_volume   345.31960110
_cell_formula_units_Z   1
loop_
 _symmetry_equiv_pos_site_id
 _symmetry_equiv_pos_as_xyz
  1  'x, y, z'
loop_
 _atom_site_type_symbol
 _atom_site_label
 _atom_site_symmetry_multiplicity
 _atom_site_fract_x
 _atom_site_fract_y
 _atom_site_fract_z
 _atom_site_occupancy
  Li  Li0  1  0.333173  0.666595  0.901729  1
  Li  Li1  1  0.007595  0.003825  0.992151  1
  Li  Li2  1  0.004619  0.002323  0.493959  1
  Li  Li3  1  0.678179  0.339092  0.392328  1
  Nb  Nb4  1  0.649701  0.824861  0.226338  1
  Nb  Nb5  1  0.813687  0.643770  0.721290  1
  Nb  Nb6  1  0.813689  0.169924  0.721292  1
  V  V7  1  0.166033  0.825872  0.215283  1
  V  V8  1  0.166032  0.340188  0.215289  1
  V  V9  1  0.339740  0.169878  0.710797  1
  Sb  Sb10  1  0.317867  0.658956  0.510546  1
  Sb  Sb11  1  0.660456  0.330241  0.016614  1
  O  O12  1  0.146209  0.828754  0.603551  1
  O  O13  1  0.026979  0.513502  0.315470  1
  O  O14  1  0.352513  0.676276  0.107321  1
  O  O15  1  0.989587  0.994801  0.312384  1
  O  O16  1  0.996151  0.998078  0.810855  1
  O  O17  1  0.146207  0.317476  0.603548  1
  O  O18  1  0.499929  0.984829  0.320060  1
  O  O19  1  0.499919  0.515109  0.320067  1
  O  O20  1  0.313573  0.156808  0.111964  1
  O  O21  1  0.689282  0.844651  0.602600  1
  O  O22  1  0.520195  0.510406  0.822564  1
  O  O23  1  0.520202  0.009801  0.822565  1
  O  O24  1  0.675402  0.337707  0.595693  1
  O  O25  1  0.845478  0.688834  0.104409  1
  O  O26  1  0.982110  0.491058  0.832755  1
  O  O27  1  0.845493  0.156689  0.104418  1
