# generated using pymatgen
data_Li3V2(O2F)2
_symmetry_space_group_name_H-M   'P 1'
_cell_length_a   5.99343893
_cell_length_b   5.96785656
_cell_length_c   14.88106640
_cell_angle_alpha   90.00000211
_cell_angle_beta   90.34456784
_cell_angle_gamma   119.85890022
_symmetry_Int_Tables_number   1
_chemical_formula_structural   Li3V2(O2F)2
_chemical_formula_sum   'Li12 V8 O16 F8'
_cell_volume   461.59855144
_cell_formula_units_Z   4
loop_
 _symmetry_equiv_pos_site_id
 _symmetry_equiv_pos_as_xyz
  1  'x, y, z'
loop_
 _atom_site_type_symbol
 _atom_site_label
 _atom_site_symmetry_multiplicity
 _atom_site_fract_x
 _atom_site_fract_y
 _atom_site_fract_z
 _atom_site_occupancy
  Li  Li0  1  0.178709  0.876404  0.169812  1
  Li  Li1  1  0.172034  0.839663  0.667194  1
  Li  Li2  1  0.993339  0.496669  0.046109  1
  Li  Li3  1  0.178709  0.302305  0.169812  1
  Li  Li4  1  0.172034  0.332372  0.667194  1
  Li  Li5  1  0.333893  0.666947  0.309521  1
  Li  Li6  1  0.675422  0.837711  0.159901  1
  Li  Li7  1  0.666921  0.833460  0.665919  1
  Li  Li8  1  0.516164  0.492903  0.037103  1
  Li  Li9  1  0.516164  0.023261  0.037103  1
  Li  Li10  1  0.802968  0.635518  0.288953  1
  Li  Li11  1  0.802968  0.167450  0.288953  1
  V  V12  1  0.991733  0.495866  0.504880  1
  V  V13  1  0.005324  0.002662  0.491115  1
  V  V14  1  0.333387  0.666694  0.836490  1
  V  V15  1  0.499577  0.497405  0.502533  1
  V  V16  1  0.340998  0.170499  0.833221  1
  V  V17  1  0.499577  0.002173  0.502533  1
  V  V18  1  0.835275  0.668301  0.830995  1
  V  V19  1  0.835275  0.166974  0.830995  1
  O  O20  1  0.177029  0.834808  0.898807  1
  O  O21  1  0.153626  0.818904  0.434702  1
  O  O22  1  0.009003  0.504502  0.760669  1
  O  O23  1  0.153626  0.334721  0.434702  1
  O  O24  1  0.177029  0.342220  0.898807  1
  O  O25  1  0.021476  0.010739  0.756431  1
  O  O26  1  0.332002  0.666001  0.577754  1
  O  O27  1  0.667271  0.833636  0.896401  1
  O  O28  1  0.665662  0.832831  0.434784  1
  O  O29  1  0.491316  0.505976  0.759170  1
  O  O30  1  0.315387  0.157693  0.572264  1
  O  O31  1  0.673099  0.336550  0.435466  1
  O  O32  1  0.646163  0.323081  0.899814  1
  O  O33  1  0.491316  0.985339  0.759170  1
  O  O34  1  0.849697  0.683132  0.572865  1
  O  O35  1  0.849697  0.166565  0.572865  1
  F  F36  1  0.011159  0.505579  0.257316  1
  F  F37  1  0.971826  0.985913  0.246553  1
  F  F38  1  0.345095  0.672547  0.076082  1
  F  F39  1  0.483188  0.515927  0.243827  1
  F  F40  1  0.332501  0.166250  0.084432  1
  F  F41  1  0.483188  0.967261  0.243827  1
  F  F42  1  0.841252  0.673704  0.088146  1
  F  F43  1  0.841252  0.167548  0.088146  1
