# generated using pymatgen
data_Ti17(NO4)6
_symmetry_space_group_name_H-M   'P 1'
_cell_length_a   10.39393972
_cell_length_b   11.48669815
_cell_length_c   10.02672100
_cell_angle_alpha   90.00000000
_cell_angle_beta   90.00000000
_cell_angle_gamma   68.37148067
_symmetry_Int_Tables_number   1
_chemical_formula_structural   Ti17(NO4)6
_chemical_formula_sum   'Ti34 N12 O48'
_cell_volume   1112.82594096
_cell_formula_units_Z   2
loop_
 _symmetry_equiv_pos_site_id
 _symmetry_equiv_pos_as_xyz
  1  'x, y, z'
loop_
 _atom_site_type_symbol
 _atom_site_label
 _atom_site_symmetry_multiplicity
 _atom_site_fract_x
 _atom_site_fract_y
 _atom_site_fract_z
 _atom_site_occupancy
  Ti  Ti0  1  0.802409  0.900414  0.750000  1
  Ti  Ti1  1  0.864312  0.878688  0.429258  1
  Ti  Ti2  1  0.864312  0.878688  0.070742  1
  Ti  Ti3  1  0.637894  0.787984  0.927911  1
  Ti  Ti4  1  0.695625  0.769219  0.250000  1
  Ti  Ti5  1  0.637894  0.787984  0.572089  1
  Ti  Ti6  1  0.356338  0.876663  0.076856  1
  Ti  Ti7  1  0.356338  0.876663  0.423144  1
  Ti  Ti8  1  0.301610  0.894722  0.750000  1
  Ti  Ti9  1  0.861882  0.546371  0.428096  1
  Ti  Ti10  1  0.136828  0.787725  0.942734  1
  Ti  Ti11  1  0.136828  0.787725  0.557266  1
  Ti  Ti12  1  0.861882  0.546371  0.071904  1
  Ti  Ti13  1  0.803772  0.565127  0.750000  1
  Ti  Ti14  1  0.638118  0.453629  0.571904  1
  Ti  Ti15  1  0.638118  0.453629  0.928096  1
  Ti  Ti16  1  0.356465  0.552558  0.076815  1
  Ti  Ti17  1  0.696228  0.434873  0.250000  1
  Ti  Ti18  1  0.356465  0.552558  0.423185  1
  Ti  Ti19  1  0.301572  0.570842  0.750000  1
  Ti  Ti20  1  0.862106  0.212016  0.427911  1
  Ti  Ti21  1  0.804375  0.230781  0.750000  1
  Ti  Ti22  1  0.143535  0.447442  0.923185  1
  Ti  Ti23  1  0.198428  0.429158  0.250000  1
  Ti  Ti24  1  0.862106  0.212016  0.072089  1
  Ti  Ti25  1  0.143535  0.447442  0.576815  1
  Ti  Ti26  1  0.363172  0.212275  0.057266  1
  Ti  Ti27  1  0.363172  0.212275  0.442734  1
  Ti  Ti28  1  0.697591  0.099586  0.250000  1
  Ti  Ti29  1  0.635688  0.121312  0.570742  1
  Ti  Ti30  1  0.635688  0.121312  0.929258  1
  Ti  Ti31  1  0.198390  0.105278  0.250000  1
  Ti  Ti32  1  0.143662  0.123337  0.923144  1
  Ti  Ti33  1  0.143662  0.123337  0.576856  1
  N  N34  1  0.766318  0.910211  0.250000  1
  N  N35  1  0.279795  0.921961  0.250000  1
  N  N36  1  0.731228  0.755573  0.750000  1
  N  N37  1  0.769182  0.577213  0.250000  1
  N  N38  1  0.227776  0.757378  0.750000  1
  N  N39  1  0.279994  0.558012  0.250000  1
  N  N40  1  0.730818  0.422787  0.750000  1
  N  N41  1  0.768772  0.244427  0.250000  1
  N  N42  1  0.220006  0.441988  0.750000  1
  N  N43  1  0.733682  0.089789  0.750000  1
  N  N44  1  0.272224  0.242622  0.250000  1
  N  N45  1  0.220205  0.078039  0.750000  1
  O  O46  1  0.950456  0.849545  0.878381  1
  O  O47  1  0.685213  0.938339  0.934298  1
  O  O48  1  0.950456  0.849545  0.621619  1
  O  O49  1  0.685213  0.938339  0.565702  1
  O  O50  1  0.548258  0.816598  0.381207  1
  O  O51  1  0.453346  0.850427  0.880207  1
  O  O52  1  0.190692  0.934676  0.938423  1
  O  O53  1  0.811682  0.729241  0.436552  1
  O  O54  1  0.453346  0.850427  0.619793  1
  O  O55  1  0.811682  0.729241  0.063448  1
  O  O56  1  0.548258  0.816598  0.118793  1
  O  O57  1  0.190692  0.934676  0.561577  1
  O  O58  1  0.686707  0.604254  0.936103  1
  O  O59  1  0.951154  0.515414  0.618847  1
  O  O60  1  0.951154  0.515414  0.881153  1
  O  O61  1  0.686707  0.604254  0.563897  1
  O  O62  1  0.044073  0.818429  0.110135  1
  O  O63  1  0.044073  0.818429  0.389865  1
  O  O64  1  0.324382  0.725168  0.052641  1
  O  O65  1  0.324382  0.725168  0.447359  1
  O  O66  1  0.453703  0.513429  0.880298  1
  O  O67  1  0.548846  0.484586  0.118847  1
  O  O68  1  0.190771  0.604832  0.938432  1
  O  O69  1  0.813293  0.395746  0.063897  1
  O  O70  1  0.813293  0.395746  0.436103  1
  O  O71  1  0.548846  0.484586  0.381153  1
  O  O72  1  0.453703  0.513429  0.619702  1
  O  O73  1  0.190771  0.604832  0.561568  1
  O  O74  1  0.951742  0.183402  0.881207  1
  O  O75  1  0.688318  0.270759  0.936552  1
  O  O76  1  0.309229  0.395168  0.061568  1
  O  O77  1  0.046297  0.486571  0.380298  1
  O  O78  1  0.309229  0.395168  0.438432  1
  O  O79  1  0.046297  0.486571  0.119702  1
  O  O80  1  0.951742  0.183402  0.618793  1
  O  O81  1  0.688318  0.270759  0.563448  1
  O  O82  1  0.549544  0.150455  0.121619  1
  O  O83  1  0.814787  0.061661  0.434298  1
  O  O84  1  0.549544  0.150455  0.378381  1
  O  O85  1  0.455927  0.181571  0.889865  1
  O  O86  1  0.814787  0.061661  0.065702  1
  O  O87  1  0.455927  0.181571  0.610135  1
  O  O88  1  0.175618  0.274832  0.552641  1
  O  O89  1  0.175618  0.274832  0.947359  1
  O  O90  1  0.309308  0.065324  0.438423  1
  O  O91  1  0.046654  0.149573  0.119793  1
  O  O92  1  0.046654  0.149573  0.380207  1
  O  O93  1  0.309308  0.065324  0.061577  1
