# generated using pymatgen
data_K2SnPCO7
_symmetry_space_group_name_H-M   'P 1'
_cell_length_a   9.92127909
_cell_length_b   7.06317541
_cell_length_c   5.82614458
_cell_angle_alpha   90.00000000
_cell_angle_beta   93.46513136
_cell_angle_gamma   90.00000000
_symmetry_Int_Tables_number   1
_chemical_formula_structural   K2SnPCO7
_chemical_formula_sum   'K4 Sn2 P2 C2 O14'
_cell_volume   407.52494516
_cell_formula_units_Z   2
loop_
 _symmetry_equiv_pos_site_id
 _symmetry_equiv_pos_as_xyz
  1  'x, y, z'
loop_
 _atom_site_type_symbol
 _atom_site_label
 _atom_site_symmetry_multiplicity
 _atom_site_fract_x
 _atom_site_fract_y
 _atom_site_fract_z
 _atom_site_occupancy
  K  K0  1  0.228470  0.014353  0.246889  1
  K  K1  1  0.228470  0.485647  0.246889  1
  K  K2  1  0.771530  0.514353  0.753111  1
  K  K3  1  0.771530  0.985647  0.753111  1
  Sn  Sn4  1  0.368381  0.750000  0.781094  1
  Sn  Sn5  1  0.631619  0.250000  0.218906  1
  P  P6  1  0.424357  0.250000  0.716690  1
  P  P7  1  0.575643  0.750000  0.283310  1
  C  C8  1  0.095551  0.750000  0.725384  1
  C  C9  1  0.904449  0.250000  0.274616  1
  O  O10  1  0.030694  0.250000  0.289799  1
  O  O11  1  0.166655  0.750000  0.926645  1
  O  O12  1  0.170754  0.750000  0.545077  1
  O  O13  1  0.343203  0.071642  0.787430  1
  O  O14  1  0.343203  0.428358  0.787430  1
  O  O15  1  0.430900  0.750000  0.158622  1
  O  O16  1  0.439129  0.250000  0.451191  1
  O  O17  1  0.560871  0.750000  0.548809  1
  O  O18  1  0.569100  0.250000  0.841378  1
  O  O19  1  0.656797  0.571642  0.212570  1
  O  O20  1  0.656797  0.928358  0.212570  1
  O  O21  1  0.829246  0.250000  0.454923  1
  O  O22  1  0.833345  0.250000  0.073355  1
  O  O23  1  0.969306  0.750000  0.710201  1
