# generated using pymatgen
data_LiV4(PO4)3
_symmetry_space_group_name_H-M   'P 1'
_cell_length_a   10.24352125
_cell_length_b   8.23057595
_cell_length_c   6.71189633
_cell_angle_alpha   65.93695215
_cell_angle_beta   90.00000000
_cell_angle_gamma   90.00000000
_symmetry_Int_Tables_number   1
_chemical_formula_structural   LiV4(PO4)3
_chemical_formula_sum   'Li2 V8 P6 O24'
_cell_volume   516.70398902
_cell_formula_units_Z   2
loop_
 _symmetry_equiv_pos_site_id
 _symmetry_equiv_pos_as_xyz
  1  'x, y, z'
loop_
 _atom_site_type_symbol
 _atom_site_label
 _atom_site_symmetry_multiplicity
 _atom_site_fract_x
 _atom_site_fract_y
 _atom_site_fract_z
 _atom_site_occupancy
  Li  Li0  1  0.247647  0.951437  0.024281  1
  Li  Li1  1  0.747647  0.048563  0.975719  1
  V  V2  1  0.059401  0.738921  0.630539  1
  V  V3  1  0.249874  0.411144  0.047986  1
  V  V4  1  0.249874  0.411144  0.540870  1
  V  V5  1  0.437473  0.732815  0.633592  1
  V  V6  1  0.559401  0.261079  0.369461  1
  V  V7  1  0.749874  0.588856  0.459130  1
  V  V8  1  0.749874  0.588856  0.952014  1
  V  V9  1  0.937473  0.267185  0.366408  1
  P  P10  1  0.037544  0.630357  0.184821  1
  P  P11  1  0.295583  0.044430  0.477785  1
  P  P12  1  0.463957  0.629933  0.185033  1
  P  P13  1  0.537544  0.369643  0.815179  1
  P  P14  1  0.795583  0.955570  0.522215  1
  P  P15  1  0.963957  0.370067  0.814967  1
  O  O16  1  0.075858  0.732844  0.319120  1
  O  O17  1  0.075858  0.732844  0.948036  1
  O  O18  1  0.111797  0.441858  0.279071  1
  O  O19  1  0.113425  0.432031  0.783984  1
  O  O20  1  0.249006  0.136376  0.236250  1
  O  O21  1  0.249006  0.136376  0.627374  1
  O  O22  1  0.247607  0.847833  0.576084  1
  O  O23  1  0.388172  0.432133  0.783933  1
  O  O24  1  0.388604  0.442270  0.278865  1
  O  O25  1  0.425876  0.732567  0.319327  1
  O  O26  1  0.425876  0.732567  0.948104  1
  O  O27  1  0.447792  0.023021  0.488490  1
  O  O28  1  0.575858  0.267156  0.051964  1
  O  O29  1  0.575858  0.267156  0.680880  1
  O  O30  1  0.611797  0.558142  0.720929  1
  O  O31  1  0.613425  0.567969  0.216016  1
  O  O32  1  0.747607  0.152167  0.423916  1
  O  O33  1  0.749006  0.863624  0.372626  1
  O  O34  1  0.749006  0.863624  0.763750  1
  O  O35  1  0.888172  0.567867  0.216067  1
  O  O36  1  0.888604  0.557730  0.721135  1
  O  O37  1  0.925876  0.267433  0.680673  1
  O  O38  1  0.925876  0.267433  0.051896  1
  O  O39  1  0.947792  0.976979  0.511510  1
