# generated using pymatgen
data_Li2Si2Ni3O8
_symmetry_space_group_name_H-M   'P 1'
_cell_length_a   5.00135203
_cell_length_b   8.69598005
_cell_length_c   13.29445707
_cell_angle_alpha   71.03707561
_cell_angle_beta   78.32952217
_cell_angle_gamma   90.25156348
_symmetry_Int_Tables_number   1
_chemical_formula_structural   Li2Si2Ni3O8
_chemical_formula_sum   'Li6 Si6 Ni9 O24'
_cell_volume   533.97722174
_cell_formula_units_Z   3
loop_
 _symmetry_equiv_pos_site_id
 _symmetry_equiv_pos_as_xyz
  1  'x, y, z'
loop_
 _atom_site_type_symbol
 _atom_site_label
 _atom_site_symmetry_multiplicity
 _atom_site_fract_x
 _atom_site_fract_y
 _atom_site_fract_z
 _atom_site_occupancy
  Li  Li0  1  0.435956  0.408184  0.231419  1
  Li  Li1  1  0.395925  0.054886  0.310059  1
  Li  Li2  1  0.266925  0.940071  0.533520  1
  Li  Li3  1  0.477306  0.762434  0.146794  1
  Li  Li4  1  0.727480  0.014670  0.641356  1
  Li  Li5  1  0.602800  0.872818  0.907701  1
  Si  Si6  1  0.019874  0.621022  0.065814  1
  Si  Si7  1  0.497204  0.141644  0.060586  1
  Si  Si8  1  0.192610  0.104326  0.747028  1
  Si  Si9  1  0.380294  0.662948  0.401662  1
  Si  Si10  1  0.839036  0.181722  0.402141  1
  Si  Si11  1  0.754840  0.643659  0.719357  1
  Ni  Ni12  1  0.019709  0.991993  0.998616  1
  Ni  Ni13  1  0.280079  0.275935  0.499921  1
  Ni  Ni14  1  0.192501  0.741085  0.813824  1
  Ni  Ni15  1  0.282967  0.485279  0.656908  1
  Ni  Ni16  1  0.939342  0.244825  0.157036  1
  Ni  Ni17  1  0.588281  0.511589  0.969893  1
  Ni  Ni18  1  0.684099  0.262908  0.807535  1
  Ni  Ni19  1  0.920837  0.557354  0.313871  1
  Ni  Ni20  1  0.851770  0.816721  0.468444  1
  O  O21  1  0.047136  0.035269  0.412738  1
  O  O22  1  0.045142  0.340945  0.389629  1
  O  O23  1  0.167044  0.586792  0.169650  1
  O  O24  1  0.071007  0.698900  0.381193  1
  O  O25  1  0.372416  0.981351  0.039590  1
  O  O26  1  0.065175  0.126697  0.639992  1
  O  O27  1  0.313452  0.190495  0.161520  1
  O  O28  1  0.373836  0.493270  0.505019  1
  O  O29  1  0.397762  0.953425  0.773151  1
  O  O30  1  0.493546  0.819691  0.429831  1
  O  O31  1  0.564445  0.635628  0.291679  1
  O  O32  1  0.378269  0.267232  0.735763  1
  O  O33  1  0.279611  0.653025  0.959188  1
  O  O34  1  0.422632  0.629863  0.726042  1
  O  O35  1  0.794329  0.096554  0.092854  1
  O  O36  1  0.581444  0.126977  0.510102  1
  O  O37  1  0.690870  0.227679  0.296613  1
  O  O38  1  0.810133  0.460827  0.082868  1
  O  O39  1  0.828240  0.774842  0.038901  1
  O  O40  1  0.539882  0.301163  0.947578  1
  O  O41  1  0.907607  0.801397  0.616872  1
  O  O42  1  0.804601  0.671213  0.833002  1
  O  O43  1  0.879311  0.473836  0.710580  1
  O  O44  1  0.919375  0.069756  0.851364  1
