# generated using pymatgen
data_Li3NiPCO7
_symmetry_space_group_name_H-M   'P 1'
_cell_length_a   8.35760077
_cell_length_b   9.93020409
_cell_length_c   6.39882949
_cell_angle_alpha   90.14115635
_cell_angle_beta   90.35578508
_cell_angle_gamma   85.34026033
_symmetry_Int_Tables_number   1
_chemical_formula_structural   Li3NiPCO7
_chemical_formula_sum   'Li12 Ni4 P4 C4 O28'
_cell_volume   529.28949891
_cell_formula_units_Z   4
loop_
 _symmetry_equiv_pos_site_id
 _symmetry_equiv_pos_as_xyz
  1  'x, y, z'
loop_
 _atom_site_type_symbol
 _atom_site_label
 _atom_site_symmetry_multiplicity
 _atom_site_fract_x
 _atom_site_fract_y
 _atom_site_fract_z
 _atom_site_occupancy
  Li  Li0  1  0.098357  0.386831  0.251580  1
  Li  Li1  1  0.100131  0.880428  0.255930  1
  Li  Li2  1  0.275033  0.108776  0.498064  1
  Li  Li3  1  0.274956  0.634170  0.009943  1
  Li  Li4  1  0.275079  0.635666  0.488605  1
  Li  Li5  1  0.342942  0.881846  0.744670  1
  Li  Li6  1  0.722134  0.380536  0.522142  1
  Li  Li7  1  0.721685  0.380511  0.978035  1
  Li  Li8  1  0.719129  0.872781  0.527554  1
  Li  Li9  1  0.720087  0.872673  0.973029  1
  Li  Li10  1  0.895262  0.111381  0.749617  1
  Li  Li11  1  0.908829  0.623108  0.748842  1
  Ni  Ni12  1  0.269112  0.115190  0.002059  1
  Ni  Ni13  1  0.334284  0.399955  0.749132  1
  Ni  Ni14  1  0.667521  0.102438  0.250450  1
  Ni  Ni15  1  0.666243  0.604427  0.249143  1
  P  P16  1  0.412326  0.359630  0.245596  1
  P  P17  1  0.414908  0.864144  0.252260  1
  P  P18  1  0.584780  0.143981  0.753555  1
  P  P19  1  0.587640  0.639403  0.749342  1
  C  C20  1  0.041189  0.349086  0.755629  1
  C  C21  1  0.039299  0.854854  0.754616  1
  C  C22  1  0.961130  0.147203  0.244738  1
  C  C23  1  0.959779  0.648312  0.249868  1
  O  O24  1  0.077248  0.472625  0.747994  1
  O  O25  1  0.110802  0.178520  0.232661  1
  O  O26  1  0.073577  0.979895  0.760075  1
  O  O27  1  0.162223  0.254989  0.763213  1
  O  O28  1  0.107935  0.678094  0.250422  1
  O  O29  1  0.150201  0.756429  0.753438  1
  O  O30  1  0.306428  0.414958  0.060662  1
  O  O31  1  0.308204  0.405460  0.436433  1
  O  O32  1  0.312131  0.916313  0.059824  1
  O  O33  1  0.310613  0.911810  0.440314  1
  O  O34  1  0.417855  0.087904  0.756795  1
  O  O35  1  0.433101  0.200071  0.231400  1
  O  O36  1  0.418110  0.586609  0.747666  1
  O  O37  1  0.437586  0.706399  0.245016  1
  O  O38  1  0.563509  0.301650  0.752453  1
  O  O39  1  0.580985  0.411331  0.250119  1
  O  O40  1  0.568461  0.794806  0.750200  1
  O  O41  1  0.583986  0.916766  0.251736  1
  O  O42  1  0.693515  0.092728  0.938951  1
  O  O43  1  0.684497  0.090591  0.563020  1
  O  O44  1  0.691604  0.584542  0.561460  1
  O  O45  1  0.692171  0.583977  0.937480  1
  O  O46  1  0.847595  0.243221  0.254575  1
  O  O47  1  0.895884  0.315284  0.751988  1
  O  O48  1  0.843296  0.743491  0.249443  1
  O  O49  1  0.925849  0.023666  0.249602  1
  O  O50  1  0.888806  0.826347  0.748700  1
  O  O51  1  0.921994  0.524196  0.249966  1
