# generated using pymatgen
data_Li4V2(SiO4)3
_symmetry_space_group_name_H-M   'P 1'
_cell_length_a   8.92950981
_cell_length_b   8.92950981
_cell_length_c   8.47640702
_cell_angle_alpha   58.16797205
_cell_angle_beta   121.83202795
_cell_angle_gamma   119.99416442
_symmetry_Int_Tables_number   1
_chemical_formula_structural   Li4V2(SiO4)3
_chemical_formula_sum   'Li8 V4 Si6 O24'
_cell_volume   464.27117888
_cell_formula_units_Z   2
loop_
 _symmetry_equiv_pos_site_id
 _symmetry_equiv_pos_as_xyz
  1  'x, y, z'
loop_
 _atom_site_type_symbol
 _atom_site_label
 _atom_site_symmetry_multiplicity
 _atom_site_fract_x
 _atom_site_fract_y
 _atom_site_fract_z
 _atom_site_occupancy
  Li  Li0  1  0.250449  0.835198  0.751023  1
  Li  Li1  1  0.164802  0.749551  0.251023  1
  Li  Li2  1  0.000000  0.500000  0.000000  1
  Li  Li3  1  0.664583  0.664583  0.750000  1
  Li  Li4  1  0.335417  0.335417  0.250000  1
  Li  Li5  1  0.835198  0.250449  0.748977  1
  Li  Li6  1  0.500000  0.000000  0.500000  1
  Li  Li7  1  0.749551  0.164802  0.248977  1
  V  V8  1  0.639159  0.861047  0.916954  1
  V  V9  1  0.138953  0.360841  0.416954  1
  V  V10  1  0.861047  0.639159  0.583046  1
  V  V11  1  0.360841  0.138953  0.083046  1
  Si  Si12  1  0.249932  0.539340  0.749767  1
  Si  Si13  1  0.960762  0.960762  0.750000  1
  Si  Si14  1  0.460660  0.750068  0.249767  1
  Si  Si15  1  0.539340  0.249932  0.750233  1
  Si  Si16  1  0.039238  0.039238  0.250000  1
  Si  Si17  1  0.750068  0.460660  0.250233  1
  O  O18  1  0.132423  0.990744  0.952533  1
  O  O19  1  0.009256  0.867577  0.452533  1
  O  O20  1  0.088539  0.559033  0.772108  1
  O  O21  1  0.411499  0.742593  0.727966  1
  O  O22  1  0.310933  0.367635  0.952533  1
  O  O23  1  0.189045  0.509520  0.547274  1
  O  O24  1  0.757449  0.941051  0.727827  1
  O  O25  1  0.440967  0.911461  0.272108  1
  O  O26  1  0.257407  0.588501  0.227966  1
  O  O27  1  0.632365  0.689067  0.452533  1
  O  O28  1  0.490480  0.810955  0.047274  1
  O  O29  1  0.941051  0.757449  0.772173  1
  O  O30  1  0.058949  0.242551  0.227827  1
  O  O31  1  0.509520  0.189045  0.952726  1
  O  O32  1  0.367635  0.310933  0.547467  1
  O  O33  1  0.742593  0.411499  0.772034  1
  O  O34  1  0.559033  0.088539  0.727892  1
  O  O35  1  0.242551  0.058949  0.272173  1
  O  O36  1  0.810955  0.490480  0.452726  1
  O  O37  1  0.689067  0.632365  0.047467  1
  O  O38  1  0.588501  0.257407  0.272034  1
  O  O39  1  0.911461  0.440967  0.227892  1
  O  O40  1  0.990744  0.132423  0.547467  1
  O  O41  1  0.867577  0.009256  0.047467  1
