# generated using pymatgen
data_H4CS(NO)3
_symmetry_space_group_name_H-M   'P 1'
_cell_length_a   6.90575652
_cell_length_b   6.90575652
_cell_length_c   11.81135593
_cell_angle_alpha   81.17482360
_cell_angle_beta   98.82517640
_cell_angle_gamma   106.85146915
_symmetry_Int_Tables_number   1
_chemical_formula_structural   H4CS(NO)3
_chemical_formula_sum   'H16 C4 S4 N12 O12'
_cell_volume   529.16126733
_cell_formula_units_Z   4
loop_
 _symmetry_equiv_pos_site_id
 _symmetry_equiv_pos_as_xyz
  1  'x, y, z'
loop_
 _atom_site_type_symbol
 _atom_site_label
 _atom_site_symmetry_multiplicity
 _atom_site_fract_x
 _atom_site_fract_y
 _atom_site_fract_z
 _atom_site_occupancy
  H  H0  1  0.029080  0.708574  0.793679  1
  H  H1  1  0.708574  0.029080  0.706321  1
  H  H2  1  0.970920  0.291426  0.206321  1
  H  H3  1  0.291426  0.970920  0.293679  1
  H  H4  1  0.155947  0.746923  0.932868  1
  H  H5  1  0.746923  0.155947  0.567132  1
  H  H6  1  0.844053  0.253077  0.067132  1
  H  H7  1  0.253077  0.844053  0.432868  1
  H  H8  1  0.036980  0.241711  0.917267  1
  H  H9  1  0.241711  0.036980  0.582733  1
  H  H10  1  0.963020  0.758289  0.082733  1
  H  H11  1  0.758289  0.963020  0.417267  1
  H  H12  1  0.254021  0.299950  0.546442  1
  H  H13  1  0.299950  0.254021  0.953558  1
  H  H14  1  0.745979  0.700050  0.453558  1
  H  H15  1  0.700050  0.745979  0.046442  1
  C  C16  1  0.150021  0.279931  0.084443  1
  C  C17  1  0.279931  0.150021  0.415558  1
  C  C18  1  0.849979  0.720069  0.915558  1
  C  C19  1  0.720069  0.849979  0.584442  1
  S  S20  1  0.386681  0.320681  0.176005  1
  S  S21  1  0.320681  0.386681  0.323995  1
  S  S22  1  0.613319  0.679319  0.823995  1
  S  S23  1  0.679319  0.613319  0.676005  1
  N  N24  1  0.979350  0.277965  0.121740  1
  N  N25  1  0.277965  0.979350  0.378260  1
  N  N26  1  0.020650  0.722036  0.878260  1
  N  N27  1  0.722036  0.020650  0.621740  1
  N  N28  1  0.163785  0.256469  0.977191  1
  N  N29  1  0.256469  0.163785  0.522809  1
  N  N30  1  0.836215  0.743531  0.022809  1
  N  N31  1  0.743531  0.836215  0.477191  1
  N  N32  1  0.590688  0.179166  0.876809  1
  N  N33  1  0.179166  0.590688  0.623191  1
  N  N34  1  0.409312  0.820834  0.123191  1
  N  N35  1  0.820834  0.409312  0.376809  1
  O  O36  1  0.426384  0.137182  0.812514  1
  O  O37  1  0.137182  0.426384  0.687486  1
  O  O38  1  0.573616  0.862818  0.187486  1
  O  O39  1  0.862818  0.573616  0.312514  1
  O  O40  1  0.756932  0.174837  0.843490  1
  O  O41  1  0.174837  0.756932  0.656510  1
  O  O42  1  0.243068  0.825163  0.156510  1
  O  O43  1  0.825163  0.243068  0.343490  1
  O  O44  1  0.595726  0.230657  0.977164  1
  O  O45  1  0.230657  0.595726  0.522836  1
  O  O46  1  0.404274  0.769343  0.022836  1
  O  O47  1  0.769343  0.404274  0.477164  1
