# generated using pymatgen
data_V5(BO5)2
_symmetry_space_group_name_H-M   'P 1'
_cell_length_a   9.44161104
_cell_length_b   12.40402236
_cell_length_c   3.12255801
_cell_angle_alpha   90.00002628
_cell_angle_beta   90.00003857
_cell_angle_gamma   90.00337158
_symmetry_Int_Tables_number   1
_chemical_formula_structural   V5(BO5)2
_chemical_formula_sum   'V10 B4 O20'
_cell_volume   365.69511595
_cell_formula_units_Z   2
loop_
 _symmetry_equiv_pos_site_id
 _symmetry_equiv_pos_as_xyz
  1  'x, y, z'
loop_
 _atom_site_type_symbol
 _atom_site_label
 _atom_site_symmetry_multiplicity
 _atom_site_fract_x
 _atom_site_fract_y
 _atom_site_fract_z
 _atom_site_occupancy
  V  V0  1  1.000000  0.999994  0.000004  1
  V  V1  1  0.015867  0.291175  0.000003  1
  V  V2  1  0.254636  0.111083  0.500000  1
  V  V3  1  0.245316  0.611078  0.499999  1
  V  V4  1  0.484112  0.791167  0.999999  1
  V  V5  1  0.500008  0.500008  0.999998  1
  V  V6  1  0.515876  0.208821  0.000003  1
  V  V7  1  0.754654  0.388922  0.499999  1
  V  V8  1  0.745337  0.888922  0.500002  1
  V  V9  1  0.984116  0.708836  0.999999  1
  B  B10  1  0.214635  0.856185  0.499999  1
  B  B11  1  0.285392  0.356175  0.499999  1
  B  B12  1  0.714641  0.643825  0.499999  1
  B  B13  1  0.785374  0.143811  0.500001  1
  O  O14  1  0.112847  0.148268  0.999999  1
  O  O15  1  0.120811  0.591169  0.999998  1
  O  O16  1  0.139745  0.344995  0.499999  1
  O  O17  1  0.151841  0.957019  0.500001  1
  O  O18  1  0.130389  0.763536  0.499999  1
  O  O19  1  0.369620  0.263527  0.500001  1
  O  O20  1  0.348181  0.457016  0.499998  1
  O  O21  1  0.360272  0.845006  0.500000  1
  O  O22  1  0.379133  0.091179  1.000000  1
  O  O23  1  0.387115  0.648277  0.999999  1
  O  O24  1  0.612873  0.351724  0.999998  1
  O  O25  1  0.620842  0.908824  0.000003  1
  O  O26  1  0.639744  0.154983  0.500000  1
  O  O27  1  0.651856  0.542982  0.499998  1
  O  O28  1  0.630400  0.736468  0.500000  1
  O  O29  1  0.869620  0.236473  0.500001  1
  O  O30  1  0.848176  0.042983  0.500003  1
  O  O31  1  0.860274  0.655013  0.499999  1
  O  O32  1  0.879154  0.408826  0.999999  1
  O  O33  1  0.887144  0.851729  0.000000  1
