# generated using pymatgen
data_Li4V3Sb5O16
_symmetry_space_group_name_H-M   'P 1'
_cell_length_a   6.22209009
_cell_length_b   6.50643455
_cell_length_c   10.37564522
_cell_angle_alpha   88.65863059
_cell_angle_beta   90.03913925
_cell_angle_gamma   120.63555510
_symmetry_Int_Tables_number   1
_chemical_formula_structural   Li4V3Sb5O16
_chemical_formula_sum   'Li4 V3 Sb5 O16'
_cell_volume   361.28659019
_cell_formula_units_Z   1
loop_
 _symmetry_equiv_pos_site_id
 _symmetry_equiv_pos_as_xyz
  1  'x, y, z'
loop_
 _atom_site_type_symbol
 _atom_site_label
 _atom_site_symmetry_multiplicity
 _atom_site_fract_x
 _atom_site_fract_y
 _atom_site_fract_z
 _atom_site_occupancy
  Li  Li0  1  0.323828  0.662402  0.880081  1
  Li  Li1  1  0.987840  0.988735  0.993983  1
  Li  Li2  1  -0.000015  0.991716  0.500807  1
  Li  Li3  1  0.664053  0.347986  0.402288  1
  V  V4  1  0.668441  0.839352  0.219772  1
  V  V5  1  0.835404  0.661156  0.717720  1
  V  V6  1  0.837813  0.177464  0.712686  1
  Sb  Sb7  1  0.162542  0.831310  0.216212  1
  Sb  Sb8  1  0.365998  0.677301  0.505732  1
  Sb  Sb9  1  0.179536  0.355023  0.219024  1
  Sb  Sb10  1  0.335352  0.173994  0.715971  1
  Sb  Sb11  1  0.664451  0.296712  0.992175  1
  O  O12  1  0.161724  0.869417  0.617949  1
  O  O13  1  0.008522  0.512224  0.317454  1
  O  O14  1  0.327346  0.684973  0.109611  1
  O  O15  1  0.001720  0.971727  0.323885  1
  O  O16  1  0.003848  0.010136  0.813991  1
  O  O17  1  0.161988  0.300155  0.598376  1
  O  O18  1  0.479669  0.969436  0.323139  1
  O  O19  1  0.507289  0.558328  0.354576  1
  O  O20  1  0.313854  0.103230  0.083858  1
  O  O21  1  0.695771  0.851045  0.608264  1
  O  O22  1  0.502937  0.479115  0.814270  1
  O  O23  1  0.516045  0.043306  0.833169  1
  O  O24  1  0.657841  0.326921  0.609173  1
  O  O25  1  0.843470  0.711953  0.118291  1
  O  O26  1  0.971945  0.477373  0.811596  1
  O  O27  1  0.820786  0.127813  0.093787  1
