# generated using pymatgen
data_Li4Ti3Cr3(SnO8)2
_symmetry_space_group_name_H-M   'P 1'
_cell_length_a   5.96602855
_cell_length_b   5.97359861
_cell_length_c   9.81762288
_cell_angle_alpha   90.00466779
_cell_angle_beta   89.91166568
_cell_angle_gamma   120.04776640
_symmetry_Int_Tables_number   1
_chemical_formula_structural   Li4Ti3Cr3(SnO8)2
_chemical_formula_sum   'Li4 Ti3 Cr3 Sn2 O16'
_cell_volume   302.86455447
_cell_formula_units_Z   1
loop_
 _symmetry_equiv_pos_site_id
 _symmetry_equiv_pos_as_xyz
  1  'x, y, z'
loop_
 _atom_site_type_symbol
 _atom_site_label
 _atom_site_symmetry_multiplicity
 _atom_site_fract_x
 _atom_site_fract_y
 _atom_site_fract_z
 _atom_site_occupancy
  Li  Li0  1  0.330774  0.665400  0.892885  1
  Li  Li1  1  0.998179  0.999101  0.992442  1
  Li  Li2  1  0.998178  0.999098  0.494088  1
  Li  Li3  1  0.667035  0.333529  0.396734  1
  Ti  Ti4  1  0.340581  0.170305  0.715305  1
  Ti  Ti5  1  0.169540  0.829314  0.215229  1
  Ti  Ti6  1  0.169539  0.340255  0.215229  1
  Cr  Cr7  1  0.659541  0.829769  0.213649  1
  Cr  Cr8  1  0.829806  0.661332  0.714296  1
  Cr  Cr9  1  0.829811  0.168512  0.714281  1
  Sn  Sn10  1  0.339373  0.669705  0.493759  1
  Sn  Sn11  1  0.672070  0.336042  0.988412  1
  O  O12  1  0.166940  0.844256  0.601714  1
  O  O13  1  0.036995  0.518518  0.339747  1
  O  O14  1  0.326916  0.663479  0.105048  1
  O  O15  1  0.998335  0.999169  0.309026  1
  O  O16  1  0.004665  0.002352  0.808835  1
  O  O17  1  0.166937  0.322692  0.601710  1
  O  O18  1  0.478411  0.964818  0.337402  1
  O  O19  1  0.478412  0.513619  0.337408  1
  O  O20  1  0.326676  0.163331  0.101699  1
  O  O21  1  0.682098  0.841054  0.599309  1
  O  O22  1  0.510603  0.477614  0.837400  1
  O  O23  1  0.510599  0.033011  0.837396  1
  O  O24  1  0.656748  0.328380  0.606606  1
  O  O25  1  0.843258  0.679035  0.100716  1
  O  O26  1  0.964731  0.482380  0.836802  1
  O  O27  1  0.843250  0.164226  0.100712  1
