# generated using pymatgen
data_Y2O3
_symmetry_space_group_name_H-M   'P 1'
_cell_length_a   9.35969399
_cell_length_b   3.42010750
_cell_length_c   9.20334610
_cell_angle_alpha   90.00000000
_cell_angle_beta   106.58594072
_cell_angle_gamma   90.00000000
_symmetry_Int_Tables_number   1
_chemical_formula_structural   Y2O3
_chemical_formula_sum   'Y8 O12'
_cell_volume   282.35184819
_cell_formula_units_Z   4
loop_
 _symmetry_equiv_pos_site_id
 _symmetry_equiv_pos_as_xyz
  1  'x, y, z'
loop_
 _atom_site_type_symbol
 _atom_site_label
 _atom_site_symmetry_multiplicity
 _atom_site_fract_x
 _atom_site_fract_y
 _atom_site_fract_z
 _atom_site_occupancy
  Y  Y0  1  0.011809  0.250000  0.180292  1
  Y  Y1  1  0.184001  0.250000  0.548547  1
  Y  Y2  1  0.329089  0.250000  0.939136  1
  Y  Y3  1  0.413015  0.750000  0.334142  1
  Y  Y4  1  0.586985  0.250000  0.665858  1
  Y  Y5  1  0.670911  0.750000  0.060864  1
  Y  Y6  1  0.815999  0.750000  0.451453  1
  Y  Y7  1  0.988191  0.750000  0.819708  1
  O  O8  1  0.100511  0.250000  0.963752  1
  O  O9  1  0.045517  0.750000  0.394330  1
  O  O10  1  0.221888  0.750000  0.764445  1
  O  O11  1  0.254838  0.250000  0.310009  1
  O  O12  1  0.403914  0.750000  0.578979  1
  O  O13  1  0.567132  0.250000  0.905455  1
  O  O14  1  0.432868  0.750000  0.094545  1
  O  O15  1  0.596086  0.250000  0.421021  1
  O  O16  1  0.745162  0.750000  0.689991  1
  O  O17  1  0.778112  0.250000  0.235555  1
  O  O18  1  0.954483  0.250000  0.605670  1
  O  O19  1  0.899489  0.750000  0.036248  1
