# generated using pymatgen
data_Li3Mn4SnO8
_symmetry_space_group_name_H-M   'P 1'
_cell_length_a   6.24523005
_cell_length_b   6.24523035
_cell_length_c   6.18016555
_cell_angle_alpha   90.81686257
_cell_angle_beta   60.31748140
_cell_angle_gamma   60.27368979
_symmetry_Int_Tables_number   1
_chemical_formula_structural   Li3Mn4SnO8
_chemical_formula_sum   'Li3 Mn4 Sn1 O8'
_cell_volume   170.73433353
_cell_formula_units_Z   1
loop_
 _symmetry_equiv_pos_site_id
 _symmetry_equiv_pos_as_xyz
  1  'x, y, z'
loop_
 _atom_site_type_symbol
 _atom_site_label
 _atom_site_symmetry_multiplicity
 _atom_site_fract_x
 _atom_site_fract_y
 _atom_site_fract_z
 _atom_site_occupancy
  Li  Li0  1  0.000000  0.000000  0.500000  1
  Li  Li1  1  0.500000  0.000000  0.500000  1
  Li  Li2  1  0.500000  0.500000  0.500000  1
  Mn  Mn3  1  0.000000  0.500000  0.500000  1
  Mn  Mn4  1  0.000000  0.000000  0.000000  1
  Mn  Mn5  1  0.500000  0.000000  0.000000  1
  Mn  Mn6  1  0.000000  0.500000  0.000000  1
  Sn  Sn7  1  0.500000  0.500000  0.000000  1
  O  O8  1  0.490360  0.260053  0.769692  1
  O  O9  1  0.981283  0.254306  0.753619  1
  O  O10  1  0.500686  0.734902  0.753619  1
  O  O11  1  0.983955  0.750827  0.766872  1
  O  O12  1  0.016045  0.249173  0.233128  1
  O  O13  1  0.499314  0.265098  0.246381  1
  O  O14  1  0.018717  0.745694  0.246381  1
  O  O15  1  0.509640  0.739947  0.230308  1
