# generated using pymatgen
data_Ni3OF5
_symmetry_space_group_name_H-M   'P 1'
_cell_length_a   4.69570447
_cell_length_b   14.08702610
_cell_length_c   3.09385671
_cell_angle_alpha   90.00000000
_cell_angle_beta   90.00000000
_cell_angle_gamma   90.00000000
_symmetry_Int_Tables_number   1
_chemical_formula_structural   Ni3OF5
_chemical_formula_sum   'Ni6 O2 F10'
_cell_volume   204.65401593
_cell_formula_units_Z   2
loop_
 _symmetry_equiv_pos_site_id
 _symmetry_equiv_pos_as_xyz
  1  'x, y, z'
loop_
 _atom_site_type_symbol
 _atom_site_label
 _atom_site_symmetry_multiplicity
 _atom_site_fract_x
 _atom_site_fract_y
 _atom_site_fract_z
 _atom_site_occupancy
  Ni  Ni0  1  0.013249  0.002704  0.000000  1
  Ni  Ni1  1  0.988648  0.333885  0.000000  1
  Ni  Ni2  1  0.015206  0.662763  0.000000  1
  Ni  Ni3  1  0.484794  0.162763  0.500000  1
  Ni  Ni4  1  0.486751  0.502704  0.500000  1
  Ni  Ni5  1  0.511352  0.833885  0.500000  1
  O  O6  1  0.198496  0.600692  0.500000  1
  O  O7  1  0.301504  0.100692  0.000000  1
  F  F8  1  0.192597  0.269384  0.500000  1
  F  F9  1  0.198919  0.933210  0.500000  1
  F  F10  1  0.307403  0.769384  0.000000  1
  F  F11  1  0.301081  0.433210  0.000000  1
  F  F12  1  0.691761  0.230272  0.000000  1
  F  F13  1  0.696646  0.565159  0.000000  1
  F  F14  1  0.703777  0.901932  0.000000  1
  F  F15  1  0.803354  0.065159  0.500000  1
  F  F16  1  0.796223  0.401932  0.500000  1
  F  F17  1  0.808239  0.730272  0.500000  1
