# generated using pymatgen
data_Na3VO4
_symmetry_space_group_name_H-M   'P 1'
_cell_length_a   9.22198732
_cell_length_b   10.70486960
_cell_length_c   9.77206756
_cell_angle_alpha   90.00000000
_cell_angle_beta   90.00000000
_cell_angle_gamma   90.00000000
_symmetry_Int_Tables_number   1
_chemical_formula_structural   Na3VO4
_chemical_formula_sum   'Na24 V8 O32'
_cell_volume   964.70018752
_cell_formula_units_Z   8
loop_
 _symmetry_equiv_pos_site_id
 _symmetry_equiv_pos_as_xyz
  1  'x, y, z'
loop_
 _atom_site_type_symbol
 _atom_site_label
 _atom_site_symmetry_multiplicity
 _atom_site_fract_x
 _atom_site_fract_y
 _atom_site_fract_z
 _atom_site_occupancy
  Na  Na0  1  0.038578  0.598324  0.622689  1
  Na  Na1  1  0.038578  0.901676  0.122689  1
  Na  Na2  1  0.115145  0.140141  0.540391  1
  Na  Na3  1  0.115145  0.359859  0.040391  1
  Na  Na4  1  0.221965  0.623998  0.233525  1
  Na  Na5  1  0.221965  0.876002  0.733525  1
  Na  Na6  1  0.278035  0.123998  0.233525  1
  Na  Na7  1  0.278035  0.376002  0.733525  1
  Na  Na8  1  0.384855  0.859859  0.040391  1
  Na  Na9  1  0.384855  0.640141  0.540391  1
  Na  Na10  1  0.461422  0.098324  0.622689  1
  Na  Na11  1  0.461422  0.401676  0.122689  1
  Na  Na12  1  0.538578  0.598324  0.877311  1
  Na  Na13  1  0.538578  0.901676  0.377311  1
  Na  Na14  1  0.615145  0.359859  0.459609  1
  Na  Na15  1  0.615145  0.140141  0.959609  1
  Na  Na16  1  0.721965  0.623998  0.266475  1
  Na  Na17  1  0.721965  0.876002  0.766475  1
  Na  Na18  1  0.778035  0.123998  0.266475  1
  Na  Na19  1  0.778035  0.376002  0.766475  1
  Na  Na20  1  0.884855  0.640141  0.959609  1
  Na  Na21  1  0.884855  0.859859  0.459609  1
  Na  Na22  1  0.961422  0.098324  0.877311  1
  Na  Na23  1  0.961422  0.401676  0.377311  1
  V  V24  1  0.208708  0.880288  0.403685  1
  V  V25  1  0.208708  0.619712  0.903685  1
  V  V26  1  0.291292  0.119712  0.903685  1
  V  V27  1  0.291292  0.380288  0.403685  1
  V  V28  1  0.708708  0.880288  0.096315  1
  V  V29  1  0.708708  0.619712  0.596315  1
  V  V30  1  0.791292  0.119712  0.596315  1
  V  V31  1  0.791292  0.380288  0.096315  1
  O  O32  1  0.086332  0.994850  0.348662  1
  O  O33  1  0.086332  0.505150  0.848662  1
  O  O34  1  0.119469  0.746893  0.975408  1
  O  O35  1  0.119469  0.753107  0.475408  1
  O  O36  1  0.176958  0.054095  0.024656  1
  O  O37  1  0.176958  0.445905  0.524656  1
  O  O38  1  0.188734  0.170983  0.764574  1
  O  O39  1  0.188734  0.329017  0.264574  1
  O  O40  1  0.311266  0.829017  0.264574  1
  O  O41  1  0.311266  0.670983  0.764574  1
  O  O42  1  0.323042  0.554095  0.024656  1
  O  O43  1  0.323042  0.945905  0.524656  1
  O  O44  1  0.380531  0.246893  0.975408  1
  O  O45  1  0.380531  0.253107  0.475408  1
  O  O46  1  0.413668  0.494850  0.348662  1
  O  O47  1  0.413668  0.005150  0.848662  1
  O  O48  1  0.586332  0.505150  0.651338  1
  O  O49  1  0.586332  0.994850  0.151338  1
  O  O50  1  0.619469  0.746893  0.524592  1
  O  O51  1  0.619469  0.753107  0.024592  1
  O  O52  1  0.676958  0.054095  0.475344  1
  O  O53  1  0.676958  0.445905  0.975344  1
  O  O54  1  0.688734  0.329017  0.235426  1
  O  O55  1  0.688734  0.170983  0.735426  1
  O  O56  1  0.811266  0.670983  0.735426  1
  O  O57  1  0.811266  0.829017  0.235426  1
  O  O58  1  0.823042  0.945905  0.975344  1
  O  O59  1  0.823042  0.554095  0.475344  1
  O  O60  1  0.880531  0.246893  0.524592  1
  O  O61  1  0.880531  0.253107  0.024592  1
  O  O62  1  0.913668  0.005150  0.651338  1
  O  O63  1  0.913668  0.494850  0.151338  1
