# generated using pymatgen
data_Na8Fe5O14
_symmetry_space_group_name_H-M   'P 1'
_cell_length_a   10.57407925
_cell_length_b   8.40779474
_cell_length_c   8.64457601
_cell_angle_alpha   112.83971768
_cell_angle_beta   103.94215387
_cell_angle_gamma   102.39367786
_symmetry_Int_Tables_number   1
_chemical_formula_structural   Na8Fe5O14
_chemical_formula_sum   'Na16 Fe10 O28'
_cell_volume   645.33518321
_cell_formula_units_Z   2
loop_
 _symmetry_equiv_pos_site_id
 _symmetry_equiv_pos_as_xyz
  1  'x, y, z'
loop_
 _atom_site_type_symbol
 _atom_site_label
 _atom_site_symmetry_multiplicity
 _atom_site_fract_x
 _atom_site_fract_y
 _atom_site_fract_z
 _atom_site_occupancy
  Na  Na0  1  0.016139  0.447421  0.672825  1
  Na  Na1  1  0.000000  0.000000  0.000000  1
  Na  Na2  1  0.173473  0.177115  0.664042  1
  Na  Na3  1  0.165653  0.303642  0.373548  1
  Na  Na4  1  0.107477  0.372850  0.012310  1
  Na  Na5  1  0.294725  0.712128  0.418301  1
  Na  Na6  1  0.381993  0.109061  0.476595  1
  Na  Na7  1  0.435200  0.562461  0.126643  1
  Na  Na8  1  0.500000  0.500000  0.500000  1
  Na  Na9  1  0.564800  0.437539  0.873357  1
  Na  Na10  1  0.618007  0.890939  0.523405  1
  Na  Na11  1  0.705275  0.287872  0.581699  1
  Na  Na12  1  0.892523  0.627150  0.987690  1
  Na  Na13  1  0.834347  0.696358  0.626452  1
  Na  Na14  1  0.826527  0.822885  0.335958  1
  Na  Na15  1  0.983861  0.552579  0.327175  1
  Fe  Fe16  1  0.161200  0.858487  0.730282  1
  Fe  Fe17  1  0.217044  0.785611  0.070560  1
  Fe  Fe18  1  0.348732  0.627734  0.775924  1
  Fe  Fe19  1  0.332622  0.178987  0.110471  1
  Fe  Fe20  1  0.471148  0.036265  0.827991  1
  Fe  Fe21  1  0.528852  0.963735  0.172009  1
  Fe  Fe22  1  0.667378  0.821013  0.889529  1
  Fe  Fe23  1  0.651268  0.372266  0.224076  1
  Fe  Fe24  1  0.782956  0.214389  0.929440  1
  Fe  Fe25  1  0.838800  0.141513  0.269718  1
  O  O26  1  0.012551  0.830052  0.558458  1
  O  O27  1  0.064935  0.753674  0.856240  1
  O  O28  1  0.188355  0.627376  0.603120  1
  O  O29  1  0.241086  0.563562  0.911864  1
  O  O30  1  0.117671  0.682333  0.171050  1
  O  O31  1  0.176078  0.103278  0.898197  1
  O  O32  1  0.297589  0.976279  0.651503  1
  O  O33  1  0.349426  0.921044  0.954762  1
  O  O34  1  0.351638  0.398126  0.643531  1
  O  O35  1  0.227013  0.041257  0.198009  1
  O  O36  1  0.308270  0.393708  0.233904  1
  O  O37  1  0.530576  0.725138  0.985273  1
  O  O38  1  0.485391  0.780978  0.705616  1
  O  O39  1  0.406276  0.849898  0.259421  1
  O  O40  1  0.593724  0.150102  0.740579  1
  O  O41  1  0.514609  0.219022  0.294384  1
  O  O42  1  0.469424  0.274862  0.014727  1
  O  O43  1  0.691730  0.606292  0.766096  1
  O  O44  1  0.772987  0.958743  0.801991  1
  O  O45  1  0.648362  0.601874  0.356469  1
  O  O46  1  0.650574  0.078956  0.045238  1
  O  O47  1  0.702411  0.023721  0.348497  1
  O  O48  1  0.823922  0.896722  0.101803  1
  O  O49  1  0.882329  0.317667  0.828950  1
  O  O50  1  0.758914  0.436438  0.088136  1
  O  O51  1  0.811645  0.372624  0.396880  1
  O  O52  1  0.935065  0.246326  0.143760  1
  O  O53  1  0.987449  0.169948  0.441542  1
