# generated using pymatgen
data_V3OF11
_symmetry_space_group_name_H-M   'P 1'
_cell_length_a   5.46178286
_cell_length_b   5.25948528
_cell_length_c   14.73845403
_cell_angle_alpha   89.99922285
_cell_angle_beta   100.27553101
_cell_angle_gamma   90.20436909
_symmetry_Int_Tables_number   1
_chemical_formula_structural   V3OF11
_chemical_formula_sum   'V6 O2 F22'
_cell_volume   416.58610242
_cell_formula_units_Z   2
loop_
 _symmetry_equiv_pos_site_id
 _symmetry_equiv_pos_as_xyz
  1  'x, y, z'
loop_
 _atom_site_type_symbol
 _atom_site_label
 _atom_site_symmetry_multiplicity
 _atom_site_fract_x
 _atom_site_fract_y
 _atom_site_fract_z
 _atom_site_occupancy
  V  V0  1  0.040969  0.975188  0.003254  1
  V  V1  1  0.166667  0.500000  0.333333  1
  V  V2  1  0.292364  0.024812  0.663413  1
  V  V3  1  0.511279  0.491566  0.999172  1
  V  V4  1  0.666667  0.000000  0.333333  1
  V  V5  1  0.822055  0.508434  0.667495  1
  O  O6  1  0.041133  0.203506  0.643773  1
  O  O7  1  0.292200  0.796494  0.022893  1
  F  F8  1  0.195390  0.287515  0.975745  1
  F  F9  1  0.137943  0.712485  0.690922  1
  F  F10  1  0.030021  0.094030  0.114978  1
  F  F11  1  0.208719  0.411826  0.450801  1
  F  F12  1  0.392792  0.073284  0.783102  1
  F  F13  1  0.124614  0.588174  0.215866  1
  F  F14  1  0.303312  0.905970  0.551688  1
  F  F15  1  0.449636  0.587724  0.882218  1
  F  F16  1  0.355465  0.197001  0.308093  1
  F  F17  1  0.522545  0.291163  0.641926  1
  F  F18  1  0.692909  0.206081  0.975910  1
  F  F19  1  0.478068  0.696707  0.358176  1
  F  F20  1  0.640424  0.793919  0.690757  1
  F  F21  1  0.536731  0.422863  0.118037  1
  F  F22  1  0.707421  0.087317  0.450905  1
  F  F23  1  0.883697  0.412276  0.784448  1
  F  F24  1  0.625912  0.912683  0.215762  1
  F  F25  1  0.796602  0.577137  0.548629  1
  F  F26  1  0.940541  0.926716  0.883565  1
  F  F27  1  0.855265  0.303293  0.308490  1
  F  F28  1  0.810788  0.708837  0.024741  1
  F  F29  1  0.977869  0.802999  0.358574  1
