# generated using pymatgen
data_Li3CoPCO7
_symmetry_space_group_name_H-M   'P 1'
_cell_length_a   8.37991848
_cell_length_b   5.08395387
_cell_length_c   6.51859800
_cell_angle_alpha   90.00000000
_cell_angle_beta   90.00000000
_cell_angle_gamma   88.08211956
_symmetry_Int_Tables_number   1
_chemical_formula_structural   Li3CoPCO7
_chemical_formula_sum   'Li6 Co2 P2 C2 O14'
_cell_volume   277.55703745
_cell_formula_units_Z   2
loop_
 _symmetry_equiv_pos_site_id
 _symmetry_equiv_pos_as_xyz
  1  'x, y, z'
loop_
 _atom_site_type_symbol
 _atom_site_label
 _atom_site_symmetry_multiplicity
 _atom_site_fract_x
 _atom_site_fract_y
 _atom_site_fract_z
 _atom_site_occupancy
  Li  Li0  1  0.995975  0.026178  0.511154  1
  Li  Li1  1  0.179857  0.437082  0.200343  1
  Li  Li2  1  0.523588  0.443701  0.409374  1
  Li  Li3  1  0.476412  0.556299  0.909374  1
  Li  Li4  1  0.820143  0.562918  0.700343  1
  Li  Li5  1  0.004025  0.973822  0.011154  1
  Co  Co6  1  0.279311  0.040628  0.738567  1
  Co  Co7  1  0.720689  0.959372  0.238567  1
  P  P8  1  0.335688  0.959999  0.246246  1
  P  P9  1  0.664312  0.040001  0.746246  1
  C  C10  1  0.134400  0.521229  0.743718  1
  C  C11  1  0.865600  0.478771  0.243718  1
  O  O12  1  0.024346  0.352268  0.717292  1
  O  O13  1  0.095728  0.769790  0.764153  1
  O  O14  1  0.237240  0.085959  0.065455  1
  O  O15  1  0.230847  0.024255  0.437885  1
  O  O16  1  0.283353  0.443791  0.753495  1
  O  O17  1  0.365965  0.660485  0.213574  1
  O  O18  1  0.496421  0.099792  0.273344  1
  O  O19  1  0.503579  0.900208  0.773344  1
  O  O20  1  0.634035  0.339515  0.713574  1
  O  O21  1  0.716647  0.556209  0.253495  1
  O  O22  1  0.769153  0.975744  0.937885  1
  O  O23  1  0.762760  0.914041  0.565455  1
  O  O24  1  0.904272  0.230210  0.264153  1
  O  O25  1  0.975654  0.647732  0.217292  1
