# generated using pymatgen
data_SiH10(O2F3)2
_symmetry_space_group_name_H-M   'P 1'
_cell_length_a   6.04522267
_cell_length_b   10.04661181
_cell_length_c   6.56503612
_cell_angle_alpha   90.00000000
_cell_angle_beta   105.15406948
_cell_angle_gamma   90.00000000
_symmetry_Int_Tables_number   1
_chemical_formula_structural   SiH10(O2F3)2
_chemical_formula_sum   'Si2 H20 O8 F12'
_cell_volume   384.85596330
_cell_formula_units_Z   2
loop_
 _symmetry_equiv_pos_site_id
 _symmetry_equiv_pos_as_xyz
  1  'x, y, z'
loop_
 _atom_site_type_symbol
 _atom_site_label
 _atom_site_symmetry_multiplicity
 _atom_site_fract_x
 _atom_site_fract_y
 _atom_site_fract_z
 _atom_site_occupancy
  Si  Si0  1  0.000000  0.500000  0.500000  1
  Si  Si1  1  0.000000  0.000000  0.000000  1
  H  H2  1  0.207013  0.378144  0.919696  1
  H  H3  1  0.792987  0.878144  0.580304  1
  H  H4  1  0.792987  0.621856  0.080304  1
  H  H5  1  0.207013  0.121856  0.419696  1
  H  H6  1  0.170689  0.381416  0.156601  1
  H  H7  1  0.829311  0.881416  0.343399  1
  H  H8  1  0.829311  0.618584  0.843399  1
  H  H9  1  0.170689  0.118584  0.656601  1
  H  H10  1  0.426084  0.308795  0.134501  1
  H  H11  1  0.573916  0.808795  0.365499  1
  H  H12  1  0.573916  0.691205  0.865499  1
  H  H13  1  0.426084  0.191205  0.634501  1
  H  H14  1  0.734447  0.263237  0.240108  1
  H  H15  1  0.265553  0.763237  0.259892  1
  H  H16  1  0.265553  0.736763  0.759892  1
  H  H17  1  0.734447  0.236763  0.740108  1
  H  H18  1  0.576087  0.139811  0.140888  1
  H  H19  1  0.423913  0.639811  0.359112  1
  H  H20  1  0.423913  0.860189  0.859112  1
  H  H21  1  0.576087  0.360189  0.640888  1
  O  O22  1  0.287028  0.386084  0.073560  1
  O  O23  1  0.712972  0.886084  0.426440  1
  O  O24  1  0.712972  0.613916  0.926440  1
  O  O25  1  0.287028  0.113916  0.573560  1
  O  O26  1  0.581885  0.223298  0.221302  1
  O  O27  1  0.418115  0.723298  0.278698  1
  O  O28  1  0.418115  0.776702  0.778698  1
  O  O29  1  0.581885  0.276702  0.721302  1
  F  F30  1  0.050714  0.371343  0.679804  1
  F  F31  1  0.949286  0.871343  0.820196  1
  F  F32  1  0.949286  0.628657  0.320196  1
  F  F33  1  0.050714  0.128657  0.179804  1
  F  F34  1  0.284728  0.511752  0.521099  1
  F  F35  1  0.715272  0.011752  0.978901  1
  F  F36  1  0.715272  0.488248  0.478901  1
  F  F37  1  0.284728  0.988248  0.021099  1
  F  F38  1  0.027746  0.613693  0.705577  1
  F  F39  1  0.972254  0.113693  0.794423  1
  F  F40  1  0.972254  0.386307  0.294423  1
  F  F41  1  0.027746  0.886307  0.205577  1
