# generated using pymatgen
data_AgH3CN3O4
_symmetry_space_group_name_H-M   'P 1'
_cell_length_a   6.71829857
_cell_length_b   16.84743415
_cell_length_c   10.53489003
_cell_angle_alpha   90.00000000
_cell_angle_beta   106.87948080
_cell_angle_gamma   90.00000000
_symmetry_Int_Tables_number   1
_chemical_formula_structural   AgH3CN3O4
_chemical_formula_sum   'Ag8 H24 C8 N24 O32'
_cell_volume   1141.03149301
_cell_formula_units_Z   8
loop_
 _symmetry_equiv_pos_site_id
 _symmetry_equiv_pos_as_xyz
  1  'x, y, z'
loop_
 _atom_site_type_symbol
 _atom_site_label
 _atom_site_symmetry_multiplicity
 _atom_site_fract_x
 _atom_site_fract_y
 _atom_site_fract_z
 _atom_site_occupancy
  Ag  Ag0  1  0.846401  0.814707  0.772675  1
  Ag  Ag1  1  0.346401  0.685293  0.272675  1
  Ag  Ag2  1  0.153599  0.185293  0.227325  1
  Ag  Ag3  1  0.653599  0.314707  0.727325  1
  Ag  Ag4  1  0.931394  0.972808  0.325877  1
  Ag  Ag5  1  0.431394  0.527192  0.825877  1
  Ag  Ag6  1  0.068606  0.027192  0.674123  1
  Ag  Ag7  1  0.568606  0.472808  0.174123  1
  H  H8  1  0.749199  0.088141  0.117860  1
  H  H9  1  0.249199  0.411859  0.617860  1
  H  H10  1  0.250801  0.911859  0.882140  1
  H  H11  1  0.750801  0.588141  0.382140  1
  H  H12  1  0.682322  0.187813  0.106225  1
  H  H13  1  0.182322  0.312187  0.606225  1
  H  H14  1  0.317678  0.812187  0.893775  1
  H  H15  1  0.817678  0.687813  0.393775  1
  H  H16  1  0.597675  0.191661  0.421313  1
  H  H17  1  0.097675  0.308339  0.921313  1
  H  H18  1  0.402325  0.808339  0.578687  1
  H  H19  1  0.902325  0.691661  0.078687  1
  H  H20  1  0.605733  0.247695  0.285071  1
  H  H21  1  0.105733  0.252305  0.785071  1
  H  H22  1  0.394267  0.752305  0.714929  1
  H  H23  1  0.894267  0.747695  0.214929  1
  H  H24  1  0.333851  0.954666  0.153547  1
  H  H25  1  0.833851  0.545334  0.653547  1
  H  H26  1  0.666149  0.045334  0.846453  1
  H  H27  1  0.166149  0.454666  0.346454  1
  H  H28  1  0.419624  0.854871  0.143168  1
  H  H29  1  0.919624  0.645129  0.643168  1
  H  H30  1  0.580376  0.145129  0.856832  1
  H  H31  1  0.080376  0.354871  0.356832  1
  C  C32  1  0.678651  0.129594  0.278519  1
  C  C33  1  0.178651  0.370406  0.778519  1
  C  C34  1  0.321349  0.870406  0.721481  1
  C  C35  1  0.821349  0.629594  0.221481  1
  C  C36  1  0.323018  0.881072  0.304818  1
  C  C37  1  0.823018  0.618928  0.804818  1
  C  C38  1  0.676982  0.118928  0.695182  1
  C  C39  1  0.176982  0.381072  0.195182  1
  N  N40  1  0.739890  0.140011  0.166388  1
  N  N41  1  0.239890  0.359989  0.666388  1
  N  N42  1  0.260110  0.859989  0.833612  1
  N  N43  1  0.760110  0.640011  0.333612  1
  N  N44  1  0.591602  0.192902  0.323272  1
  N  N45  1  0.091602  0.307098  0.823272  1
  N  N46  1  0.408398  0.807098  0.676728  1
  N  N47  1  0.908398  0.692902  0.176728  1
  N  N48  1  0.237964  0.940606  0.361341  1
  N  N49  1  0.737964  0.559394  0.861341  1
  N  N50  1  0.762036  0.059394  0.638659  1
  N  N51  1  0.262036  0.440606  0.138659  1
  N  N52  1  0.370833  0.898917  0.193190  1
  N  N53  1  0.870833  0.601083  0.693190  1
  N  N54  1  0.629167  0.101083  0.806810  1
  N  N55  1  0.129167  0.398917  0.306810  1
  N  N56  1  0.812594  0.920123  0.002024  1
  N  N57  1  0.312594  0.579877  0.502024  1
  N  N58  1  0.187406  0.079877  0.997976  1
  N  N59  1  0.687406  0.420123  0.497976  1
  N  N60  1  0.850535  0.825944  0.482471  1
  N  N61  1  0.350535  0.674056  0.982471  1
  N  N62  1  0.149465  0.174056  0.517529  1
  N  N63  1  0.649465  0.325944  0.017529  1
  O  O64  1  0.885831  0.854157  0.045817  1
  O  O65  1  0.385831  0.645843  0.545817  1
  O  O66  1  0.114169  0.145843  0.954183  1
  O  O67  1  0.614169  0.354157  0.454183  1
  O  O68  1  0.762679  0.934513  0.877325  1
  O  O69  1  0.262679  0.565487  0.377325  1
  O  O70  1  0.237321  0.065487  0.122675  1
  O  O71  1  0.737321  0.434513  0.622675  1
  O  O72  1  0.784935  0.975132  0.079299  1
  O  O73  1  0.284935  0.524868  0.579299  1
  O  O74  1  0.215065  0.024868  0.920701  1
  O  O75  1  0.715065  0.475132  0.420701  1
  O  O76  1  0.859459  0.830644  0.363510  1
  O  O77  1  0.359459  0.669356  0.863510  1
  O  O78  1  0.140541  0.169356  0.636490  1
  O  O79  1  0.640541  0.330644  0.136490  1
  O  O80  1  0.817581  0.886716  0.542895  1
  O  O81  1  0.317581  0.613284  0.042895  1
  O  O82  1  0.182419  0.113284  0.457105  1
  O  O83  1  0.682419  0.386716  0.957105  1
  O  O84  1  0.875440  0.758604  0.540213  1
  O  O85  1  0.375440  0.741396  0.040213  1
  O  O86  1  0.124560  0.241396  0.459787  1
  O  O87  1  0.624560  0.258604  0.959787  1
  O  O88  1  0.701515  0.063901  0.338693  1
  O  O89  1  0.201515  0.436099  0.838693  1
  O  O90  1  0.298485  0.936099  0.661307  1
  O  O91  1  0.798485  0.563901  0.161307  1
  O  O92  1  0.351571  0.813870  0.362928  1
  O  O93  1  0.851571  0.686130  0.862928  1
  O  O94  1  0.648429  0.186130  0.637072  1
  O  O95  1  0.148429  0.313870  0.137072  1
