# generated using pymatgen
data_CuH20S2(NO7)2
_symmetry_space_group_name_H-M   'P 1'
_cell_length_a   9.45567335
_cell_length_b   12.74891088
_cell_length_c   6.10171314
_cell_angle_alpha   90.00000000
_cell_angle_beta   107.21362447
_cell_angle_gamma   90.00000000
_symmetry_Int_Tables_number   1
_chemical_formula_structural   CuH20S2(NO7)2
_chemical_formula_sum   'Cu2 H40 S4 N4 O28'
_cell_volume   702.61156173
_cell_formula_units_Z   2
loop_
 _symmetry_equiv_pos_site_id
 _symmetry_equiv_pos_as_xyz
  1  'x, y, z'
loop_
 _atom_site_type_symbol
 _atom_site_label
 _atom_site_symmetry_multiplicity
 _atom_site_fract_x
 _atom_site_fract_y
 _atom_site_fract_z
 _atom_site_occupancy
  Cu  Cu0  1  0.500000  0.500000  0.000000  1
  Cu  Cu1  1  0.000000  0.000000  0.000000  1
  H  H2  1  0.541426  0.153395  0.229226  1
  H  H3  1  0.958574  0.653395  0.770774  1
  H  H4  1  0.458574  0.846605  0.770774  1
  H  H5  1  0.041426  0.346605  0.229226  1
  H  H6  1  0.704304  0.195732  0.420824  1
  H  H7  1  0.795696  0.695732  0.579176  1
  H  H8  1  0.295696  0.804268  0.579176  1
  H  H9  1  0.204304  0.304268  0.420824  1
  H  H10  1  0.583537  0.123004  0.513846  1
  H  H11  1  0.916463  0.623004  0.486154  1
  H  H12  1  0.416463  0.876996  0.486154  1
  H  H13  1  0.083537  0.376996  0.513846  1
  H  H14  1  0.678830  0.067339  0.350909  1
  H  H15  1  0.821170  0.567339  0.649091  1
  H  H16  1  0.321170  0.932661  0.649091  1
  H  H17  1  0.178830  0.432661  0.350909  1
  H  H18  1  0.695439  0.407591  0.329197  1
  H  H19  1  0.804561  0.907591  0.670803  1
  H  H20  1  0.304561  0.592409  0.670803  1
  H  H21  1  0.195439  0.092409  0.329197  1
  H  H22  1  0.733181  0.375080  0.097109  1
  H  H23  1  0.766819  0.875080  0.902891  1
  H  H24  1  0.266819  0.624920  0.902891  1
  H  H25  1  0.233181  0.124920  0.097109  1
  H  H26  1  0.215924  0.397931  0.952341  1
  H  H27  1  0.284076  0.897931  0.047659  1
  H  H28  1  0.784076  0.602069  0.047659  1
  H  H29  1  0.715924  0.102069  0.952341  1
  H  H30  1  0.342665  0.313911  0.026505  1
  H  H31  1  0.157335  0.813911  0.973495  1
  H  H32  1  0.657335  0.686089  0.973495  1
  H  H33  1  0.842665  0.186089  0.026505  1
  H  H34  1  0.414567  0.561547  0.332716  1
  H  H35  1  0.085433  0.061547  0.667284  1
  H  H36  1  0.585433  0.438453  0.667284  1
  H  H37  1  0.914567  0.938453  0.332716  1
  H  H38  1  0.543572  0.640364  0.315914  1
  H  H39  1  0.956428  0.140364  0.684086  1
  H  H40  1  0.456428  0.359636  0.684086  1
  H  H41  1  0.043572  0.859636  0.315914  1
  S  S42  1  0.886590  0.356239  0.748679  1
  S  S43  1  0.613410  0.856239  0.251321  1
  S  S44  1  0.113410  0.643761  0.251321  1
  S  S45  1  0.386590  0.143761  0.748679  1
  N  N46  1  0.626637  0.135981  0.377477  1
  N  N47  1  0.873363  0.635981  0.622523  1
  N  N48  1  0.373363  0.864019  0.622523  1
  N  N49  1  0.126637  0.364019  0.377477  1
  O  O50  1  0.879386  0.260471  0.605625  1
  O  O51  1  0.620614  0.760471  0.394375  1
  O  O52  1  0.120614  0.739529  0.394375  1
  O  O53  1  0.379386  0.239529  0.605625  1
  O  O54  1  0.028112  0.412824  0.773970  1
  O  O55  1  0.471888  0.912824  0.226030  1
  O  O56  1  0.971888  0.587176  0.226030  1
  O  O57  1  0.528112  0.087176  0.773970  1
  O  O58  1  0.759879  0.426767  0.627846  1
  O  O59  1  0.740121  0.926767  0.372154  1
  O  O60  1  0.240121  0.573233  0.372154  1
  O  O61  1  0.259879  0.073233  0.627846  1
  O  O62  1  0.873178  0.327358  0.980197  1
  O  O63  1  0.626822  0.827358  0.019803  1
  O  O64  1  0.126822  0.672642  0.019803  1
  O  O65  1  0.373178  0.172642  0.980197  1
  O  O66  1  0.651405  0.390560  0.163748  1
  O  O67  1  0.848595  0.890560  0.836252  1
  O  O68  1  0.348595  0.609440  0.836252  1
  O  O69  1  0.151405  0.109440  0.163748  1
  O  O70  1  0.318273  0.387473  0.050806  1
  O  O71  1  0.181727  0.887473  0.949194  1
  O  O72  1  0.681727  0.612527  0.949194  1
  O  O73  1  0.818273  0.112527  0.050806  1
  O  O74  1  0.511010  0.565418  0.298634  1
  O  O75  1  0.988990  0.065418  0.701366  1
  O  O76  1  0.488990  0.434582  0.701366  1
  O  O77  1  0.011010  0.934582  0.298634  1
