# generated using pymatgen
data_Na2LiMnPCO7
_symmetry_space_group_name_H-M   'P 1'
_cell_length_a   8.85903187
_cell_length_b   6.82335446
_cell_length_c   10.22184600
_cell_angle_alpha   90.01371987
_cell_angle_beta   88.95911708
_cell_angle_gamma   89.66357069
_symmetry_Int_Tables_number   1
_chemical_formula_structural   Na2LiMnPCO7
_chemical_formula_sum   'Na8 Li4 Mn4 P4 C4 O28'
_cell_volume   617.78071603
_cell_formula_units_Z   4
loop_
 _symmetry_equiv_pos_site_id
 _symmetry_equiv_pos_as_xyz
  1  'x, y, z'
loop_
 _atom_site_type_symbol
 _atom_site_label
 _atom_site_symmetry_multiplicity
 _atom_site_fract_x
 _atom_site_fract_y
 _atom_site_fract_z
 _atom_site_occupancy
  Na  Na0  1  0.083839  0.250752  0.378394  1
  Na  Na1  1  0.255701  0.000271  0.626009  1
  Na  Na2  1  0.256041  0.499337  0.625921  1
  Na  Na3  1  0.258144  0.000392  0.123733  1
  Na  Na4  1  0.258174  0.500160  0.122991  1
  Na  Na5  1  0.745484  0.500646  0.874460  1
  Na  Na6  1  0.743114  0.502131  0.376363  1
  Na  Na7  1  0.744159  0.998640  0.375606  1
  Li  Li8  1  0.080559  0.240961  0.875337  1
  Li  Li9  1  0.732334  0.979470  0.882484  1
  Li  Li10  1  0.909683  0.758135  0.628144  1
  Li  Li11  1  0.907794  0.754195  0.122425  1
  Mn  Mn12  1  0.358768  0.749816  0.885918  1
  Mn  Mn13  1  0.363653  0.750561  0.389218  1
  Mn  Mn14  1  0.643035  0.247712  0.614778  1
  Mn  Mn15  1  0.644177  0.246353  0.107856  1
  P  P16  1  0.406719  0.245610  0.851616  1
  P  P17  1  0.411750  0.250362  0.353298  1
  P  P18  1  0.597741  0.753578  0.649794  1
  P  P19  1  0.596281  0.748956  0.142985  1
  C  C20  1  0.044922  0.759037  0.867582  1
  C  C21  1  0.052441  0.750313  0.365161  1
  C  C22  1  0.941665  0.248182  0.641023  1
  C  C23  1  0.948739  0.249375  0.127955  1
  O  O24  1  0.085904  0.250981  0.661062  1
  O  O25  1  0.091696  0.251490  0.149281  1
  O  O26  1  0.086030  0.751874  0.988655  1
  O  O27  1  0.089429  0.751459  0.487824  1
  O  O28  1  0.146240  0.748776  0.773275  1
  O  O29  1  0.156939  0.751325  0.273691  1
  O  O30  1  0.305756  0.068237  0.891895  1
  O  O31  1  0.318026  0.432742  0.895080  1
  O  O32  1  0.318759  0.067577  0.395838  1
  O  O33  1  0.317885  0.434252  0.395056  1
  O  O34  1  0.426519  0.247962  0.699591  1
  O  O35  1  0.437370  0.749182  0.590005  1
  O  O36  1  0.431179  0.249137  0.200980  1
  O  O37  1  0.436182  0.750348  0.083290  1
  O  O38  1  0.567857  0.233001  0.910174  1
  O  O39  1  0.577222  0.767365  0.802195  1
  O  O40  1  0.571128  0.251242  0.413639  1
  O  O41  1  0.575369  0.754306  0.294904  1
  O  O42  1  0.692693  0.568027  0.614074  1
  O  O43  1  0.693331  0.930162  0.601595  1
  O  O44  1  0.690869  0.564841  0.103708  1
  O  O45  1  0.693492  0.927218  0.096875  1
  O  O46  1  0.848951  0.243535  0.740901  1
  O  O47  1  0.853089  0.246118  0.227055  1
  O  O48  1  0.888196  0.249881  0.523617  1
  O  O49  1  0.899046  0.250014  0.009265  1
  O  O50  1  0.903595  0.775672  0.836708  1
  O  O51  1  0.912334  0.748333  0.330719  1
