# generated using pymatgen
data_NaMgH4SO6F
_symmetry_space_group_name_H-M   'P 1'
_cell_length_a   7.27248081
_cell_length_b   7.26465703
_cell_length_c   5.75266196
_cell_angle_alpha   90.00000000
_cell_angle_beta   112.44569171
_cell_angle_gamma   90.00000000
_symmetry_Int_Tables_number   1
_chemical_formula_structural   NaMgH4SO6F
_chemical_formula_sum   'Na2 Mg2 H8 S2 O12 F2'
_cell_volume   280.90028680
_cell_formula_units_Z   2
loop_
 _symmetry_equiv_pos_site_id
 _symmetry_equiv_pos_as_xyz
  1  'x, y, z'
loop_
 _atom_site_type_symbol
 _atom_site_label
 _atom_site_symmetry_multiplicity
 _atom_site_fract_x
 _atom_site_fract_y
 _atom_site_fract_z
 _atom_site_occupancy
  Na  Na0  1  0.198981  0.250000  0.635383  1
  Na  Na1  1  0.801019  0.750000  0.364617  1
  Mg  Mg2  1  0.000000  0.000000  0.000000  1
  Mg  Mg3  1  0.000000  0.500000  0.000000  1
  H  H4  1  0.301274  0.568346  0.428793  1
  H  H5  1  0.301274  0.931654  0.428793  1
  H  H6  1  0.366610  0.095391  0.294625  1
  H  H7  1  0.366610  0.404609  0.294625  1
  H  H8  1  0.633390  0.595391  0.705375  1
  H  H9  1  0.633390  0.904609  0.705375  1
  H  H10  1  0.698726  0.068346  0.571207  1
  H  H11  1  0.698726  0.431654  0.571207  1
  S  S12  1  0.308996  0.750000  0.854579  1
  S  S13  1  0.691004  0.250000  0.145421  1
  O  O14  1  0.178779  0.582750  0.803005  1
  O  O15  1  0.178779  0.917250  0.803005  1
  O  O16  1  0.253171  0.045404  0.328373  1
  O  O17  1  0.253171  0.454596  0.328373  1
  O  O18  1  0.408067  0.750000  0.663912  1
  O  O19  1  0.540690  0.250000  0.889364  1
  O  O20  1  0.459310  0.750000  0.110636  1
  O  O21  1  0.591933  0.250000  0.336088  1
  O  O22  1  0.746829  0.954596  0.671627  1
  O  O23  1  0.746829  0.545404  0.671627  1
  O  O24  1  0.821221  0.082750  0.196995  1
  O  O25  1  0.821221  0.417250  0.196995  1
  F  F26  1  0.021225  0.250000  0.882233  1
  F  F27  1  0.978775  0.750000  0.117767  1
