# generated using pymatgen
data_Sn2Ge2O7
_symmetry_space_group_name_H-M   'P 1'
_cell_length_a   13.26423952
_cell_length_b   6.97796255
_cell_length_c   6.90785531
_cell_angle_alpha   98.46967625
_cell_angle_beta   84.63336010
_cell_angle_gamma   99.08351738
_symmetry_Int_Tables_number   1
_chemical_formula_structural   Sn2Ge2O7
_chemical_formula_sum   'Sn8 Ge8 O28'
_cell_volume   622.85048618
_cell_formula_units_Z   4
loop_
 _symmetry_equiv_pos_site_id
 _symmetry_equiv_pos_as_xyz
  1  'x, y, z'
loop_
 _atom_site_type_symbol
 _atom_site_label
 _atom_site_symmetry_multiplicity
 _atom_site_fract_x
 _atom_site_fract_y
 _atom_site_fract_z
 _atom_site_occupancy
  Sn  Sn0  1  0.131760  0.774932  0.418207  1
  Sn  Sn1  1  0.137198  0.330891  0.062767  1
  Sn  Sn2  1  0.359677  0.771003  0.655835  1
  Sn  Sn3  1  0.345563  0.106069  0.131866  1
  Sn  Sn4  1  0.654437  0.893931  0.868134  1
  Sn  Sn5  1  0.640323  0.228997  0.344165  1
  Sn  Sn6  1  0.862802  0.669109  0.937233  1
  Sn  Sn7  1  0.868240  0.225068  0.581793  1
  Ge  Ge8  1  0.126561  0.806330  0.922806  1
  Ge  Ge9  1  0.196015  0.316736  0.549872  1
  Ge  Ge10  1  0.370774  0.623291  0.139184  1
  Ge  Ge11  1  0.423405  0.280398  0.639959  1
  Ge  Ge12  1  0.576595  0.719602  0.360041  1
  Ge  Ge13  1  0.629226  0.376709  0.860816  1
  Ge  Ge14  1  0.803985  0.683264  0.450128  1
  Ge  Ge15  1  0.873439  0.193670  0.077194  1
  O  O16  1  0.996166  0.204290  0.150312  1
  O  O17  1  0.137538  0.638375  0.087494  1
  O  O18  1  0.117073  0.306230  0.767304  1
  O  O19  1  0.144327  0.435650  0.378383  1
  O  O20  1  0.202242  0.743241  0.699879  1
  O  O21  1  0.182035  0.042750  0.032605  1
  O  O22  1  0.235793  0.101430  0.424930  1
  O  O23  1  0.330308  0.444283  0.614468  1
  O  O24  1  0.318885  0.754667  0.360766  1
  O  O25  1  0.298142  0.391223  0.065863  1
  O  O26  1  0.371026  0.069715  0.745350  1
  O  O27  1  0.371749  0.775533  0.956102  1
  O  O28  1  0.488683  0.230910  0.408874  1
  O  O29  1  0.492715  0.574586  0.190734  1
  O  O30  1  0.507285  0.425414  0.809266  1
  O  O31  1  0.511317  0.769090  0.591126  1
  O  O32  1  0.628251  0.224467  0.043898  1
  O  O33  1  0.628974  0.930285  0.254649  1
  O  O34  1  0.701858  0.608777  0.934137  1
  O  O35  1  0.681115  0.245333  0.639234  1
  O  O36  1  0.669692  0.555716  0.385532  1
  O  O37  1  0.764207  0.898570  0.575071  1
  O  O38  1  0.817965  0.957250  0.967395  1
  O  O39  1  0.797758  0.256759  0.300121  1
  O  O40  1  0.855673  0.564350  0.621617  1
  O  O41  1  0.882927  0.693770  0.232697  1
  O  O42  1  0.862462  0.361625  0.912506  1
  O  O43  1  0.003834  0.795710  0.849688  1
