# generated using pymatgen
data_Na3CuBAsO7
_symmetry_space_group_name_H-M   'P 1'
_cell_length_a   9.17156649
_cell_length_b   6.60593540
_cell_length_c   5.28431067
_cell_angle_alpha   90.00000000
_cell_angle_beta   88.63157711
_cell_angle_gamma   90.00000000
_symmetry_Int_Tables_number   1
_chemical_formula_structural   Na3CuBAsO7
_chemical_formula_sum   'Na6 Cu2 B2 As2 O14'
_cell_volume   320.06803730
_cell_formula_units_Z   2
loop_
 _symmetry_equiv_pos_site_id
 _symmetry_equiv_pos_as_xyz
  1  'x, y, z'
loop_
 _atom_site_type_symbol
 _atom_site_label
 _atom_site_symmetry_multiplicity
 _atom_site_fract_x
 _atom_site_fract_y
 _atom_site_fract_z
 _atom_site_occupancy
  Na  Na0  1  0.079014  0.250000  0.758915  1
  Na  Na1  1  0.250951  0.999654  0.245314  1
  Na  Na2  1  0.250951  0.500346  0.245314  1
  Na  Na3  1  0.749049  0.499654  0.754686  1
  Na  Na4  1  0.749049  0.000346  0.754686  1
  Na  Na5  1  0.920986  0.750000  0.241085  1
  Cu  Cu6  1  0.334171  0.750000  0.778874  1
  Cu  Cu7  1  0.665829  0.250000  0.221126  1
  B  B8  1  0.061719  0.750000  0.733816  1
  B  B9  1  0.938281  0.250000  0.266184  1
  As  As10  1  0.423864  0.250000  0.701153  1
  As  As11  1  0.576136  0.750000  0.298847  1
  O  O12  1  0.084273  0.250000  0.289516  1
  O  O13  1  0.130550  0.750000  0.965289  1
  O  O14  1  0.158654  0.750000  0.527458  1
  O  O15  1  0.308430  0.051316  0.785184  1
  O  O16  1  0.308430  0.448684  0.785184  1
  O  O17  1  0.454730  0.250000  0.375742  1
  O  O18  1  0.413963  0.750000  0.151388  1
  O  O19  1  0.586037  0.250000  0.848612  1
  O  O20  1  0.545270  0.750000  0.624258  1
  O  O21  1  0.691570  0.551316  0.214816  1
  O  O22  1  0.691570  0.948684  0.214816  1
  O  O23  1  0.841346  0.250000  0.472542  1
  O  O24  1  0.869450  0.250000  0.034711  1
  O  O25  1  0.915728  0.750000  0.710484  1
