# generated using pymatgen
data_Sm2Se2O
_symmetry_space_group_name_H-M   'P 1'
_cell_length_a   8.78017692
_cell_length_b   7.25456705
_cell_length_c   7.26727542
_cell_angle_alpha   90.00000000
_cell_angle_beta   99.91765489
_cell_angle_gamma   90.00000000
_symmetry_Int_Tables_number   1
_chemical_formula_structural   Sm2Se2O
_chemical_formula_sum   'Sm8 Se8 O4'
_cell_volume   455.98172696
_cell_formula_units_Z   4
loop_
 _symmetry_equiv_pos_site_id
 _symmetry_equiv_pos_as_xyz
  1  'x, y, z'
loop_
 _atom_site_type_symbol
 _atom_site_label
 _atom_site_symmetry_multiplicity
 _atom_site_fract_x
 _atom_site_fract_y
 _atom_site_fract_z
 _atom_site_occupancy
  Sm  Sm0  1  0.144369  0.550758  0.754059  1
  Sm  Sm1  1  0.144369  0.949242  0.254059  1
  Sm  Sm2  1  0.427220  0.148503  0.672328  1
  Sm  Sm3  1  0.427220  0.351497  0.172328  1
  Sm  Sm4  1  0.572780  0.648503  0.827672  1
  Sm  Sm5  1  0.572780  0.851497  0.327672  1
  Sm  Sm6  1  0.855631  0.050758  0.745941  1
  Sm  Sm7  1  0.855631  0.449242  0.245941  1
  Se  Se8  1  0.076562  0.221885  0.529766  1
  Se  Se9  1  0.076562  0.278115  0.029766  1
  Se  Se10  1  0.319648  0.872093  0.929082  1
  Se  Se11  1  0.319648  0.627907  0.429082  1
  Se  Se12  1  0.680352  0.372093  0.570918  1
  Se  Se13  1  0.680352  0.127907  0.070918  1
  Se  Se14  1  0.923438  0.721885  0.970234  1
  Se  Se15  1  0.923438  0.778115  0.470234  1
  O  O16  1  0.386313  0.414242  0.851072  1
  O  O17  1  0.386313  0.085758  0.351072  1
  O  O18  1  0.613687  0.914242  0.648928  1
  O  O19  1  0.613687  0.585758  0.148928  1
