# generated using pymatgen
data_Mn12O7F17
_symmetry_space_group_name_H-M   'P 1'
_cell_length_a   5.34716579
_cell_length_b   5.39899325
_cell_length_c   15.22232261
_cell_angle_alpha   95.36893177
_cell_angle_beta   89.99975805
_cell_angle_gamma   87.17671515
_symmetry_Int_Tables_number   1
_chemical_formula_structural   Mn12O7F17
_chemical_formula_sum   'Mn12 O7 F17'
_cell_volume   436.99423667
_cell_formula_units_Z   1
loop_
 _symmetry_equiv_pos_site_id
 _symmetry_equiv_pos_as_xyz
  1  'x, y, z'
loop_
 _atom_site_type_symbol
 _atom_site_label
 _atom_site_symmetry_multiplicity
 _atom_site_fract_x
 _atom_site_fract_y
 _atom_site_fract_z
 _atom_site_occupancy
  Mn  Mn0  1  0.998212  0.957028  0.990020  1
  Mn  Mn1  1  0.017847  0.402428  0.178162  1
  Mn  Mn2  1  0.991202  0.894526  0.329857  1
  Mn  Mn3  1  0.954773  0.461953  0.510728  1
  Mn  Mn4  1  0.000862  0.941207  0.667759  1
  Mn  Mn5  1  0.108232  0.498389  0.834636  1
  Mn  Mn6  1  0.504557  0.075798  0.163892  1
  Mn  Mn7  1  0.504816  0.518478  0.012549  1
  Mn  Mn8  1  0.432680  0.542355  0.665293  1
  Mn  Mn9  1  0.494124  0.104990  0.501846  1
  Mn  Mn10  1  0.494409  0.540070  0.323768  1
  Mn  Mn11  1  0.471656  0.944826  0.840587  1
  O  O12  1  0.222580  0.757339  0.756020  1
  O  O13  1  0.326933  0.334943  0.110017  1
  O  O14  1  0.168516  0.608987  0.268896  1
  O  O15  1  0.168704  0.669650  0.594047  1
  O  O16  1  0.289783  0.704561  0.919567  1
  O  O17  1  0.634919  0.362940  0.574481  1
  O  O18  1  0.699485  0.319103  0.234467  1
  F  F19  1  0.188600  0.113270  0.257304  1
  F  F20  1  0.260766  0.851450  0.096623  1
  F  F21  1  0.161167  0.164409  0.577852  1
  F  F22  1  0.340325  0.860015  0.414960  1
  F  F23  1  0.151935  0.216825  0.909093  1
  F  F24  1  0.430612  0.278930  0.757846  1
  F  F25  1  0.318305  0.358398  0.430319  1
  F  F26  1  0.641167  0.181145  0.927807  1
  F  F27  1  0.735637  0.810509  0.074223  1
  F  F28  1  0.809099  0.634539  0.399185  1
  F  F29  1  0.700080  0.773302  0.729698  1
  F  F30  1  0.825193  0.148164  0.418989  1
  F  F31  1  0.848955  0.297908  0.069204  1
  F  F32  1  0.941059  0.266687  0.746736  1
  F  F33  1  0.704386  0.871682  0.564792  1
  F  F34  1  0.796824  0.694489  0.898401  1
  F  F35  1  0.661604  0.838708  0.250375  1
