# generated using pymatgen
data_Na2SnPCO7
_symmetry_space_group_name_H-M   'P 1'
_cell_length_a   9.14400730
_cell_length_b   5.57687347
_cell_length_c   6.91496491
_cell_angle_alpha   90.00000000
_cell_angle_beta   90.00000000
_cell_angle_gamma   86.59731044
_symmetry_Int_Tables_number   1
_chemical_formula_structural   Na2SnPCO7
_chemical_formula_sum   'Na4 Sn2 P2 C2 O14'
_cell_volume   352.00677120
_cell_formula_units_Z   2
loop_
 _symmetry_equiv_pos_site_id
 _symmetry_equiv_pos_as_xyz
  1  'x, y, z'
loop_
 _atom_site_type_symbol
 _atom_site_label
 _atom_site_symmetry_multiplicity
 _atom_site_fract_x
 _atom_site_fract_y
 _atom_site_fract_z
 _atom_site_occupancy
  Na  Na0  1  0.083432  0.776323  0.258198  1
  Na  Na1  1  0.273194  0.260023  0.034333  1
  Na  Na2  1  0.726806  0.739977  0.534333  1
  Na  Na3  1  0.916568  0.223677  0.758198  1
  Sn  Sn4  1  0.340984  0.783663  0.738649  1
  Sn  Sn5  1  0.659016  0.216337  0.238649  1
  P  P6  1  0.418502  0.725046  0.247153  1
  P  P7  1  0.581498  0.274954  0.747153  1
  C  C8  1  0.051269  0.688241  0.751910  1
  C  C9  1  0.948731  0.311759  0.251910  1
  O  O10  1  0.092735  0.911074  0.739016  1
  O  O11  1  0.081265  0.361779  0.229454  1
  O  O12  1  0.155674  0.520350  0.785127  1
  O  O13  1  0.314292  0.779793  0.423669  1
  O  O14  1  0.323751  0.823993  0.072284  1
  O  O15  1  0.433979  0.155760  0.770285  1
  O  O16  1  0.449056  0.448501  0.221911  1
  O  O17  1  0.550944  0.551499  0.721911  1
  O  O18  1  0.566021  0.844240  0.270285  1
  O  O19  1  0.676249  0.176007  0.572284  1
  O  O20  1  0.685708  0.220207  0.923669  1
  O  O21  1  0.844326  0.479650  0.285127  1
  O  O22  1  0.918735  0.638221  0.729453  1
  O  O23  1  0.907265  0.088926  0.239016  1
