# generated using pymatgen
data_NaBi5O8
_symmetry_space_group_name_H-M   'P 1'
_cell_length_a   10.10668235
_cell_length_b   7.77174988
_cell_length_c   7.52857375
_cell_angle_alpha   81.30096336
_cell_angle_beta   106.27492519
_cell_angle_gamma   108.46066231
_symmetry_Int_Tables_number   1
_chemical_formula_structural   NaBi5O8
_chemical_formula_sum   'Na2 Bi10 O16'
_cell_volume   537.16711295
_cell_formula_units_Z   2
loop_
 _symmetry_equiv_pos_site_id
 _symmetry_equiv_pos_as_xyz
  1  'x, y, z'
loop_
 _atom_site_type_symbol
 _atom_site_label
 _atom_site_symmetry_multiplicity
 _atom_site_fract_x
 _atom_site_fract_y
 _atom_site_fract_z
 _atom_site_occupancy
  Na  Na0  1  0.026437  0.416111  0.741522  1
  Na  Na1  1  0.973563  0.583889  0.258478  1
  Bi  Bi2  1  0.034640  0.936767  0.752339  1
  Bi  Bi3  1  0.281397  0.825559  0.548640  1
  Bi  Bi4  1  0.321056  0.398482  0.543271  1
  Bi  Bi5  1  0.340918  0.753347  0.122514  1
  Bi  Bi6  1  0.343133  0.303015  0.048578  1
  Bi  Bi7  1  0.656867  0.696985  0.951422  1
  Bi  Bi8  1  0.659082  0.246653  0.877486  1
  Bi  Bi9  1  0.678944  0.601518  0.456729  1
  Bi  Bi10  1  0.718603  0.174441  0.451360  1
  Bi  Bi11  1  0.965360  0.063233  0.247661  1
  O  O12  1  0.088829  0.913956  0.500700  1
  O  O13  1  0.213833  0.809258  0.842650  1
  O  O14  1  0.168263  0.203972  0.807805  1
  O  O15  1  0.167788  0.548793  0.535588  1
  O  O16  1  0.207750  0.842456  0.236955  1
  O  O17  1  0.224854  0.466350  0.099224  1
  O  O18  1  0.434882  0.465360  0.828270  1
  O  O19  1  0.445730  0.659990  0.451578  1
  O  O20  1  0.554270  0.340010  0.548422  1
  O  O21  1  0.565118  0.534640  0.171730  1
  O  O22  1  0.775146  0.533650  0.900776  1
  O  O23  1  0.792250  0.157544  0.763045  1
  O  O24  1  0.832212  0.451207  0.464412  1
  O  O25  1  0.831737  0.796028  0.192195  1
  O  O26  1  0.786167  0.190742  0.157350  1
  O  O27  1  0.911171  0.086044  0.499300  1
