# generated using pymatgen
data_LiCoSiO4
_symmetry_space_group_name_H-M   'P 1'
_cell_length_a   5.21172333
_cell_length_b   6.56179016
_cell_length_c   10.45364064
_cell_angle_alpha   90.00416802
_cell_angle_beta   90.00000000
_cell_angle_gamma   90.00000000
_symmetry_Int_Tables_number   1
_chemical_formula_structural   LiCoSiO4
_chemical_formula_sum   'Li4 Co4 Si4 O16'
_cell_volume   357.49605697
_cell_formula_units_Z   4
loop_
 _symmetry_equiv_pos_site_id
 _symmetry_equiv_pos_as_xyz
  1  'x, y, z'
loop_
 _atom_site_type_symbol
 _atom_site_label
 _atom_site_symmetry_multiplicity
 _atom_site_fract_x
 _atom_site_fract_y
 _atom_site_fract_z
 _atom_site_occupancy
  Li  Li0  1  0.792045  0.880589  0.086588  1
  Li  Li1  1  0.292139  0.380622  0.413413  1
  Li  Li2  1  0.707955  0.880589  0.586588  1
  Li  Li3  1  0.207861  0.380622  0.913413  1
  Co  Co4  1  0.676505  0.364819  0.089179  1
  Co  Co5  1  0.176511  0.864821  0.410805  1
  Co  Co6  1  0.823495  0.364819  0.589179  1
  Co  Co7  1  0.323489  0.864821  0.910806  1
  Si  Si8  1  0.176655  0.615655  0.157671  1
  Si  Si9  1  0.676651  0.115650  0.342325  1
  Si  Si10  1  0.323345  0.615655  0.657671  1
  Si  Si11  1  0.823349  0.115650  0.842325  1
  O  O12  1  0.248826  0.829122  0.083285  1
  O  O13  1  0.323095  0.420252  0.091439  1
  O  O14  1  0.863997  0.592572  0.136730  1
  O  O15  1  0.742648  0.132549  0.188810  1
  O  O16  1  0.242652  0.632580  0.311181  1
  O  O17  1  0.364028  0.092561  0.363310  1
  O  O18  1  0.823103  0.920309  0.408577  1
  O  O19  1  0.748680  0.329078  0.416690  1
  O  O20  1  0.251174  0.829122  0.583285  1
  O  O21  1  0.176905  0.420252  0.591439  1
  O  O22  1  0.636003  0.592572  0.636730  1
  O  O23  1  0.757352  0.132549  0.688810  1
  O  O24  1  0.257348  0.632580  0.811181  1
  O  O25  1  0.135972  0.092561  0.863310  1
  O  O26  1  0.676897  0.920309  0.908577  1
  O  O27  1  0.751320  0.329078  0.916690  1
