# generated using pymatgen
data_Li3V3P8O29
_symmetry_space_group_name_H-M   'P 1'
_cell_length_a   9.78464986
_cell_length_b   9.78554214
_cell_length_c   14.04408050
_cell_angle_alpha   90.05475764
_cell_angle_beta   90.06457367
_cell_angle_gamma   59.85820421
_symmetry_Int_Tables_number   1
_chemical_formula_structural   Li3V3P8O29
_chemical_formula_sum   'Li6 V6 P16 O58'
_cell_volume   1162.87087937
_cell_formula_units_Z   2
loop_
 _symmetry_equiv_pos_site_id
 _symmetry_equiv_pos_as_xyz
  1  'x, y, z'
loop_
 _atom_site_type_symbol
 _atom_site_label
 _atom_site_symmetry_multiplicity
 _atom_site_fract_x
 _atom_site_fract_y
 _atom_site_fract_z
 _atom_site_occupancy
  Li  Li0  1  0.224901  0.689257  0.941522  1
  Li  Li1  1  0.310654  0.778647  0.555613  1
  Li  Li2  1  0.688535  0.225220  0.441492  1
  Li  Li3  1  0.778435  0.311396  0.055624  1
  Li  Li4  1  0.773436  0.906348  0.558059  1
  Li  Li5  1  0.905939  0.773678  0.057835  1
  V  V6  1  0.002002  0.562566  0.256640  1
  V  V7  1  0.429242  0.001139  0.246405  1
  V  V8  1  0.435705  0.566159  0.749483  1
  V  V9  1  0.565848  0.435694  0.249533  1
  V  V10  1  0.562560  0.002120  0.756745  1
  V  V11  1  0.001327  0.429148  0.746276  1
  P  P12  1  0.083633  0.231738  0.158310  1
  P  P13  1  0.231829  0.083623  0.658280  1
  P  P14  1  0.086344  0.683820  0.657559  1
  P  P15  1  0.337868  0.329290  0.370709  1
  P  P16  1  0.329359  0.338175  0.870725  1
  P  P17  1  0.227023  0.681670  0.158796  1
  P  P18  1  0.316688  0.772863  0.340462  1
  P  P19  1  0.683840  0.086362  0.157607  1
  P  P20  1  0.311817  0.916000  0.845164  1
  P  P21  1  0.681661  0.227030  0.658877  1
  P  P22  1  0.773035  0.316697  0.840358  1
  P  P23  1  0.669204  0.666442  0.129617  1
  P  P24  1  0.666272  0.669332  0.629529  1
  P  P25  1  0.916022  0.311717  0.345314  1
  P  P26  1  0.766346  0.913841  0.341126  1
  P  P27  1  0.913878  0.766165  0.841067  1
  O  O28  1  0.999092  0.238562  0.434392  1
  O  O29  1  0.088551  0.254361  0.664340  1
  O  O30  1  0.208810  0.999058  0.750970  1
  O  O31  1  0.238391  0.999180  0.934323  1
  O  O32  1  0.092402  0.384231  0.178633  1
  O  O33  1  0.254321  0.088283  0.164520  1
  O  O34  1  0.184266  0.337377  0.824267  1
  O  O35  1  0.095112  0.522971  0.674736  1
  O  O36  1  0.998298  0.757118  0.932025  1
  O  O37  1  0.080238  0.660913  0.163258  1
  O  O38  1  0.337509  0.184140  0.324065  1
  O  O39  1  0.187027  0.479543  0.327027  1
  O  O40  1  0.384350  0.092267  0.678708  1
  O  O41  1  0.343607  0.329470  0.476085  1
  O  O42  1  0.330030  0.344219  0.976096  1
  O  O43  1  0.523131  0.094774  0.174731  1
  O  O44  1  0.329773  0.489880  0.828563  1
  O  O45  1  0.479674  0.186982  0.827237  1
  O  O46  1  0.255957  0.661080  0.659175  1
  O  O47  1  0.207145  0.790623  0.249915  1
  O  O48  1  0.241088  0.749462  0.067640  1
  O  O49  1  0.249515  0.757688  0.431344  1
  O  O50  1  0.380518  0.519952  0.180457  1
  O  O51  1  0.489563  0.330128  0.328844  1
  O  O52  1  0.660587  0.080457  0.663569  1
  O  O53  1  0.337530  0.744379  0.837537  1
  O  O54  1  0.520178  0.380738  0.680409  1
  O  O55  1  0.242531  0.994038  0.571236  1
  O  O56  1  0.757144  0.998284  0.432104  1
  O  O57  1  0.479017  0.618263  0.319521  1
  O  O58  1  0.660877  0.256057  0.159127  1
  O  O59  1  0.786808  0.008258  0.253941  1
  O  O60  1  0.341616  0.915848  0.332085  1
  O  O61  1  0.513149  0.670568  0.671649  1
  O  O62  1  0.618469  0.479031  0.819436  1
  O  O63  1  0.758143  0.249721  0.931342  1
  O  O64  1  0.749382  0.240540  0.567567  1
  O  O65  1  0.790965  0.206874  0.749902  1
  O  O66  1  0.744314  0.337514  0.337547  1
  O  O67  1  0.520678  0.814245  0.174254  1
  O  O68  1  0.476438  0.904392  0.823802  1
  O  O69  1  0.669734  0.513587  0.171364  1
  O  O70  1  0.661283  0.669330  0.523791  1
  O  O71  1  0.669867  0.662232  0.023869  1
  O  O72  1  0.615164  0.906162  0.322448  1
  O  O73  1  0.814196  0.520672  0.674086  1
  O  O74  1  0.667925  0.818198  0.670475  1
  O  O75  1  0.916030  0.341615  0.831762  1
  O  O76  1  0.998859  0.208902  0.250986  1
  O  O77  1  0.994163  0.242371  0.071279  1
  O  O78  1  0.904647  0.476263  0.323860  1
  O  O79  1  0.818156  0.667571  0.170955  1
  O  O80  1  0.745287  0.911666  0.834727  1
  O  O81  1  0.906316  0.614975  0.822356  1
  O  O82  1  0.769990  0.992675  0.072914  1
  O  O83  1  0.911951  0.745335  0.334664  1
  O  O84  1  0.992711  0.769930  0.572817  1
  O  O85  1  0.007920  0.786885  0.753788  1
