# generated using pymatgen
data_Li4Nb2Cr3Ni3O16
_symmetry_space_group_name_H-M   'P 1'
_cell_length_a   5.93095738
_cell_length_b   5.93158050
_cell_length_c   9.63992883
_cell_angle_alpha   90.22362118
_cell_angle_beta   90.14975198
_cell_angle_gamma   119.76086797
_symmetry_Int_Tables_number   1
_chemical_formula_structural   Li4Nb2Cr3Ni3O16
_chemical_formula_sum   'Li4 Nb2 Cr3 Ni3 O16'
_cell_volume   294.39598279
_cell_formula_units_Z   1
loop_
 _symmetry_equiv_pos_site_id
 _symmetry_equiv_pos_as_xyz
  1  'x, y, z'
loop_
 _atom_site_type_symbol
 _atom_site_label
 _atom_site_symmetry_multiplicity
 _atom_site_fract_x
 _atom_site_fract_y
 _atom_site_fract_z
 _atom_site_occupancy
  Li  Li0  1  0.321615  0.661154  0.898990  1
  Li  Li1  1  0.006055  0.002200  0.989889  1
  Li  Li2  1  0.002423  0.999687  0.494592  1
  Li  Li3  1  0.667376  0.336623  0.399627  1
  Nb  Nb4  1  0.335880  0.662473  0.500104  1
  Nb  Nb5  1  0.682832  0.342016  0.994688  1
  Cr  Cr6  1  0.185055  0.838531  0.220523  1
  Cr  Cr7  1  0.175671  0.342188  0.216262  1
  Cr  Cr8  1  0.348264  0.172213  0.725460  1
  Ni  Ni9  1  0.662364  0.829968  0.211452  1
  Ni  Ni10  1  0.827326  0.658714  0.712049  1
  Ni  Ni11  1  0.827017  0.168254  0.712152  1
  O  O12  1  0.177135  0.840878  0.592373  1
  O  O13  1  0.038601  0.522716  0.339660  1
  O  O14  1  0.309675  0.662027  0.107110  1
  O  O15  1  0.015279  0.001110  0.304799  1
  O  O16  1  0.016465  0.008114  0.799054  1
  O  O17  1  0.174681  0.333570  0.593285  1
  O  O18  1  0.471717  0.964512  0.338343  1
  O  O19  1  0.476066  0.516431  0.340118  1
  O  O20  1  0.335949  0.166537  0.098692  1
  O  O21  1  0.671462  0.836673  0.588225  1
  O  O22  1  0.498552  0.465877  0.846354  1
  O  O23  1  0.498718  0.032179  0.845291  1
  O  O24  1  0.635056  0.317863  0.608116  1
  O  O25  1  0.843680  0.673478  0.093015  1
  O  O26  1  0.954434  0.476905  0.845183  1
  O  O27  1  0.840649  0.167405  0.092437  1
