# generated using pymatgen
data_Li3MnFe2(BO3)3
_symmetry_space_group_name_H-M   'P 1'
_cell_length_a   8.25993020
_cell_length_b   14.28893815
_cell_length_c   3.15082488
_cell_angle_alpha   90.00000000
_cell_angle_beta   90.00000000
_cell_angle_gamma   90.01503384
_symmetry_Int_Tables_number   1
_chemical_formula_structural   Li3MnFe2(BO3)3
_chemical_formula_sum   'Li6 Mn2 Fe4 B6 O18'
_cell_volume   371.87808415
_cell_formula_units_Z   2
loop_
 _symmetry_equiv_pos_site_id
 _symmetry_equiv_pos_as_xyz
  1  'x, y, z'
loop_
 _atom_site_type_symbol
 _atom_site_label
 _atom_site_symmetry_multiplicity
 _atom_site_fract_x
 _atom_site_fract_y
 _atom_site_fract_z
 _atom_site_occupancy
  Li  Li0  1  0.291796  0.991170  0.500000  1
  Li  Li1  1  0.339984  0.357628  0.500000  1
  Li  Li2  1  0.364727  0.650828  0.500000  1
  Li  Li3  1  0.793996  0.491494  0.500000  1
  Li  Li4  1  0.840966  0.858173  0.500000  1
  Li  Li5  1  0.866578  0.150397  0.500000  1
  Mn  Mn6  1  0.674165  0.314007  0.000000  1
  Mn  Mn7  1  0.691449  0.680052  0.000000  1
  Fe  Fe8  1  0.139049  0.503719  0.000000  1
  Fe  Fe9  1  0.176123  0.815154  0.000000  1
  Fe  Fe10  1  0.188800  0.180127  0.000000  1
  Fe  Fe11  1  0.635736  0.004073  0.000000  1
  B  B12  1  0.002357  0.666749  0.500000  1
  B  B13  1  0.999621  0.000103  0.000000  1
  B  B14  1  0.002220  0.333104  0.500000  1
  B  B15  1  0.497740  0.165400  0.500000  1
  B  B16  1  0.498936  0.500611  0.000000  1
  B  B17  1  0.498842  0.834786  0.500000  1
  O  O18  1  0.013629  0.430336  0.500000  1
  O  O19  1  0.018919  0.763787  0.500000  1
  O  O20  1  0.138257  0.609175  0.500000  1
  O  O21  1  0.141682  0.278622  0.500000  1
  O  O22  1  0.151111  0.957427  0.000000  1
  O  O23  1  0.343748  0.125874  0.500000  1
  O  O24  1  0.347542  0.791558  0.500000  1
  O  O25  1  0.361793  0.443769  0.000000  1
  O  O26  1  0.481592  0.597433  0.000000  1
  O  O27  1  0.510106  0.931942  0.500000  1
  O  O28  1  0.514130  0.262620  0.500000  1
  O  O29  1  0.635499  0.109015  0.500000  1
  O  O30  1  0.638599  0.780912  0.500000  1
  O  O31  1  0.652924  0.460545  0.000000  1
  O  O32  1  0.848727  0.626368  0.500000  1
  O  O33  1  0.851376  0.290260  0.500000  1
  O  O34  1  0.859743  0.945460  0.000000  1
  O  O35  1  0.987541  0.097327  0.000000  1
