# generated using pymatgen
data_Li2CoP2O7
_symmetry_space_group_name_H-M   'P 1'
_cell_length_a   6.11550752
_cell_length_b   8.06199847
_cell_length_c   8.06199847
_cell_angle_alpha   73.57579180
_cell_angle_beta   112.28908350
_cell_angle_gamma   67.71091650
_symmetry_Int_Tables_number   1
_chemical_formula_structural   Li2CoP2O7
_chemical_formula_sum   'Li4 Co2 P4 O14'
_cell_volume   295.04865154
_cell_formula_units_Z   2
loop_
 _symmetry_equiv_pos_site_id
 _symmetry_equiv_pos_as_xyz
  1  'x, y, z'
loop_
 _atom_site_type_symbol
 _atom_site_label
 _atom_site_symmetry_multiplicity
 _atom_site_fract_x
 _atom_site_fract_y
 _atom_site_fract_z
 _atom_site_occupancy
  Li  Li0  1  0.000000  0.231148  0.231148  1
  Li  Li1  1  0.500000  0.268852  0.268852  1
  Li  Li2  1  0.500000  0.731148  0.731148  1
  Li  Li3  1  0.000000  0.768852  0.768852  1
  Co  Co4  1  0.000000  0.000000  0.000000  1
  Co  Co5  1  0.500000  0.500000  0.500000  1
  P  P6  1  0.592735  0.638385  0.138385  1
  P  P7  1  0.407265  0.138385  0.638385  1
  P  P8  1  0.592735  0.861615  0.361615  1
  P  P9  1  0.407265  0.361615  0.861615  1
  O  O10  1  0.277321  0.033912  0.192211  1
  O  O11  1  0.722679  0.192211  0.033912  1
  O  O12  1  0.238971  0.053387  0.553387  1
  O  O13  1  0.761029  0.553387  0.053387  1
  O  O14  1  0.619023  0.466088  0.307789  1
  O  O15  1  0.380977  0.307789  0.466088  1
  O  O16  1  0.281255  0.250000  0.750000  1
  O  O17  1  0.718745  0.750000  0.250000  1
  O  O18  1  0.619023  0.692211  0.533912  1
  O  O19  1  0.380977  0.533912  0.692211  1
  O  O20  1  0.238971  0.446613  0.946613  1
  O  O21  1  0.761029  0.946613  0.446613  1
  O  O22  1  0.722679  0.966088  0.807789  1
  O  O23  1  0.277321  0.807789  0.966088  1
