# generated using pymatgen
data_SrTaNO2
_symmetry_space_group_name_H-M   'P 1'
_cell_length_a   5.80719314
_cell_length_b   7.05208380
_cell_length_c   7.05208380
_cell_angle_alpha   109.93683129
_cell_angle_beta   89.96230964
_cell_angle_gamma   90.03769036
_symmetry_Int_Tables_number   1
_chemical_formula_structural   SrTaNO2
_chemical_formula_sum   'Sr4 Ta4 N4 O8'
_cell_volume   271.49438355
_cell_formula_units_Z   4
loop_
 _symmetry_equiv_pos_site_id
 _symmetry_equiv_pos_as_xyz
  1  'x, y, z'
loop_
 _atom_site_type_symbol
 _atom_site_label
 _atom_site_symmetry_multiplicity
 _atom_site_fract_x
 _atom_site_fract_y
 _atom_site_fract_z
 _atom_site_occupancy
  Sr  Sr0  1  0.499996  0.252563  0.252557  1
  Sr  Sr1  1  0.499996  0.747443  0.747437  1
  Sr  Sr2  1  0.999986  0.000004  0.499999  1
  Sr  Sr3  1  0.999986  0.500001  0.999996  1
  Ta  Ta4  1  0.526846  0.248432  0.751568  1
  Ta  Ta5  1  0.473138  0.751568  0.248432  1
  Ta  Ta6  1  0.999999  0.000003  0.999997  1
  Ta  Ta7  1  0.999992  0.500004  0.499996  1
  N  N8  1  0.765453  0.367264  0.632736  1
  N  N9  1  0.726798  0.112910  0.887090  1
  N  N10  1  0.273197  0.887104  0.112896  1
  N  N11  1  0.234526  0.632745  0.367255  1
  O  O12  1  0.780936  0.863183  0.136817  1
  O  O13  1  0.738151  0.615683  0.384317  1
  O  O14  1  0.499990  0.500003  0.999994  1
  O  O15  1  0.499990  0.000006  0.499997  1
  O  O16  1  0.261828  0.384325  0.615675  1
  O  O17  1  0.219049  0.136827  0.863173  1
  O  O18  1  0.999992  0.750165  0.750153  1
  O  O19  1  0.999992  0.249847  0.249835  1
