# generated using pymatgen
data_Li7Mn8(BO3)8
_symmetry_space_group_name_H-M   'P 1'
_cell_length_a   5.27275681
_cell_length_b   9.07944378
_cell_length_c   10.45344470
_cell_angle_alpha   91.34893564
_cell_angle_beta   91.36445503
_cell_angle_gamma   89.55787660
_symmetry_Int_Tables_number   1
_chemical_formula_structural   Li7Mn8(BO3)8
_chemical_formula_sum   'Li7 Mn8 B8 O24'
_cell_volume   500.15169610
_cell_formula_units_Z   1
loop_
 _symmetry_equiv_pos_site_id
 _symmetry_equiv_pos_as_xyz
  1  'x, y, z'
loop_
 _atom_site_type_symbol
 _atom_site_label
 _atom_site_symmetry_multiplicity
 _atom_site_fract_x
 _atom_site_fract_y
 _atom_site_fract_z
 _atom_site_occupancy
  Li  Li0  1  0.076195  0.083872  0.094777  1
  Li  Li1  1  0.391128  0.422988  0.826047  1
  Li  Li2  1  0.446295  0.410792  0.338846  1
  Li  Li3  1  0.568900  0.580421  0.083354  1
  Li  Li4  1  0.592141  0.571379  0.586513  1
  Li  Li5  1  0.892293  0.927740  0.835713  1
  Li  Li6  1  0.950207  0.914946  0.332262  1
  Mn  Mn7  1  0.080861  0.769498  0.616140  1
  Mn  Mn8  1  0.079479  0.414837  0.120041  1
  Mn  Mn9  1  0.394002  0.082435  0.866091  1
  Mn  Mn10  1  0.434374  0.747514  0.368229  1
  Mn  Mn11  1  0.598965  0.225746  0.620068  1
  Mn  Mn12  1  0.585558  0.914362  0.117745  1
  Mn  Mn13  1  0.906445  0.595957  0.867317  1
  Mn  Mn14  1  0.943751  0.249352  0.377588  1
  B  B15  1  0.075739  0.427897  0.625140  1
  B  B16  1  0.087760  0.748144  0.124938  1
  B  B17  1  0.406151  0.751327  0.876839  1
  B  B18  1  0.436455  0.075892  0.373669  1
  B  B19  1  0.572093  0.918230  0.627247  1
  B  B20  1  0.587858  0.248994  0.126774  1
  B  B21  1  0.904083  0.249418  0.870780  1
  B  B22  1  0.931616  0.581727  0.377058  1
  O  O23  1  0.008798  0.114588  0.897047  1
  O  O24  1  0.035540  0.377843  0.903395  1
  O  O25  1  0.043831  0.718576  0.404849  1
  O  O26  1  0.081904  0.462995  0.336478  1
  O  O27  1  0.155500  0.773270  0.837768  1
  O  O28  1  0.180549  0.073122  0.360174  1
  O  O29  1  0.336561  0.417739  0.635534  1
  O  O30  1  0.346813  0.731199  0.156415  1
  O  O31  1  0.413494  0.041497  0.654770  1
  O  O32  1  0.463601  0.787223  0.581056  1
  O  O33  1  0.452627  0.128253  0.077533  1
  O  O34  1  0.469824  0.384461  0.142925  1
  O  O35  1  0.510293  0.611370  0.888543  1
  O  O36  1  0.556694  0.874494  0.907381  1
  O  O37  1  0.558248  0.204629  0.425692  1
  O  O38  1  0.587386  0.957807  0.333760  1
  O  O39  1  0.655009  0.258179  0.814715  1
  O  O40  1  0.673094  0.565181  0.392224  1
  O  O41  1  0.825095  0.932424  0.649344  1
  O  O42  1  0.843629  0.234398  0.163549  1
  O  O43  1  0.931908  0.308559  0.578860  1
  O  O44  1  0.942356  0.555950  0.660059  1
  O  O45  1  0.944272  0.626731  0.082656  1
  O  O46  1  0.975533  0.884793  0.138068  1
