# generated using pymatgen
data_Li24Ti7Cr5O36
_symmetry_space_group_name_H-M   'P 1'
_cell_length_a   5.05806005
_cell_length_b   13.44988311
_cell_length_c   9.79891306
_cell_angle_alpha   97.14326759
_cell_angle_beta   94.61965030
_cell_angle_gamma   100.58667477
_symmetry_Int_Tables_number   1
_chemical_formula_structural   Li24Ti7Cr5O36
_chemical_formula_sum   'Li24 Ti7 Cr5 O36'
_cell_volume   646.52684133
_cell_formula_units_Z   1
loop_
 _symmetry_equiv_pos_site_id
 _symmetry_equiv_pos_as_xyz
  1  'x, y, z'
loop_
 _atom_site_type_symbol
 _atom_site_label
 _atom_site_symmetry_multiplicity
 _atom_site_fract_x
 _atom_site_fract_y
 _atom_site_fract_z
 _atom_site_occupancy
  Li  Li0  1  0.842211  0.164645  0.999716  1
  Li  Li1  1  0.947344  0.387579  0.999893  1
  Li  Li2  1  0.999498  0.748506  0.250614  1
  Li  Li3  1  0.667961  0.084084  0.249531  1
  Li  Li4  1  0.955871  0.888118  0.501420  1
  Li  Li5  1  0.616256  0.221459  0.500341  1
  Li  Li6  1  0.834458  0.666181  0.500167  1
  Li  Li7  1  0.504779  0.000195  0.499475  1
  Li  Li8  1  0.712492  0.447173  0.500759  1
  Li  Li9  1  0.669756  0.583682  0.750453  1
  Li  Li10  1  0.509182  0.498279  0.998928  1
  Li  Li11  1  0.710221  0.946038  0.997984  1
  Li  Li12  1  0.378914  0.281309  0.999922  1
  Li  Li13  1  0.620989  0.720373  0.998031  1
  Li  Li14  1  0.285259  0.055491  0.001214  1
  Li  Li15  1  0.334958  0.415943  0.249848  1
  Li  Li16  1  0.280519  0.552642  0.499029  1
  Li  Li17  1  0.177152  0.331147  0.500380  1
  Li  Li18  1  0.379870  0.778855  0.499377  1
  Li  Li19  1  0.042330  0.113205  0.499532  1
  Li  Li20  1  0.333283  0.916928  0.750268  1
  Li  Li21  1  0.164456  0.832381  0.000973  1
  Li  Li22  1  0.999216  0.248749  0.749423  1
  Li  Li23  1  0.044992  0.613162  0.001907  1
  Ti  Ti24  1  0.774641  0.306670  0.250080  1
  Ti  Ti25  1  0.434655  0.139086  0.743907  1
  Ti  Ti26  1  0.552831  0.860697  0.250514  1
  Ti  Ti27  1  0.445434  0.638977  0.253053  1
  Ti  Ti28  1  0.225400  0.694379  0.751385  1
  Ti  Ti29  1  0.113050  0.472856  0.753693  1
  Ti  Ti30  1  0.104254  0.973361  0.246267  1
  Cr  Cr31  1  0.879870  0.026332  0.749382  1
  Cr  Cr32  1  0.893436  0.526334  0.249565  1
  Cr  Cr33  1  0.784006  0.807864  0.751632  1
  Cr  Cr34  1  0.561498  0.359741  0.749812  1
  Cr  Cr35  1  0.225967  0.194043  0.250438  1
  O  O36  1  0.994182  0.070773  0.136207  1
  O  O37  1  0.933406  0.214456  0.363467  1
  O  O38  1  0.003128  0.571460  0.636675  1
  O  O39  1  0.847987  0.355580  0.637781  1
  O  O40  1  0.733600  0.119166  0.633520  1
  O  O41  1  0.663550  0.403590  0.136589  1
  O  O42  1  0.932793  0.714786  0.866598  1
  O  O43  1  0.812106  0.477337  0.863379  1
  O  O44  1  0.604048  0.048212  0.865051  1
  O  O45  1  0.858618  0.857049  0.136598  1
  O  O46  1  0.739393  0.616825  0.136401  1
  O  O47  1  0.515031  0.189609  0.137154  1
  O  O48  1  0.664895  0.264844  0.862171  1
  O  O49  1  0.809437  0.977242  0.363541  1
  O  O50  1  0.598600  0.546525  0.364051  1
  O  O51  1  0.478819  0.311089  0.363944  1
  O  O52  1  0.667788  0.761761  0.363799  1
  O  O53  1  0.335253  0.099014  0.361535  1
  O  O54  1  0.668158  0.909160  0.639303  1
  O  O55  1  0.326983  0.236916  0.635688  1
  O  O56  1  0.528171  0.692658  0.638535  1
  O  O57  1  0.405546  0.450361  0.636388  1
  O  O58  1  0.186302  0.022487  0.637609  1
  O  O59  1  0.333240  0.737535  0.136522  1
  O  O60  1  0.480831  0.811438  0.861455  1
  O  O61  1  0.264811  0.379862  0.863828  1
  O  O62  1  0.138537  0.140790  0.861854  1
  O  O63  1  0.403692  0.952059  0.133751  1
  O  O64  1  0.182144  0.522000  0.138217  1
  O  O65  1  0.072560  0.284006  0.135956  1
  O  O66  1  0.334756  0.595455  0.865232  1
  O  O67  1  0.265361  0.882805  0.366344  1
  O  O68  1  0.145484  0.643936  0.363681  1
  O  O69  1  0.000945  0.431374  0.362663  1
  O  O70  1  0.064036  0.786443  0.635100  1
  O  O71  1  0.998800  0.924935  0.860495  1
