# generated using pymatgen
data_Li4Co(SiO3)3
_symmetry_space_group_name_H-M   'P 1'
_cell_length_a   6.28626328
_cell_length_b   10.08281616
_cell_length_c   6.28626328
_cell_angle_alpha   88.90126243
_cell_angle_beta   72.46749783
_cell_angle_gamma   91.09873757
_symmetry_Int_Tables_number   1
_chemical_formula_structural   Li4Co(SiO3)3
_chemical_formula_sum   'Li8 Co2 Si6 O18'
_cell_volume   379.73451653
_cell_formula_units_Z   2
loop_
 _symmetry_equiv_pos_site_id
 _symmetry_equiv_pos_as_xyz
  1  'x, y, z'
loop_
 _atom_site_type_symbol
 _atom_site_label
 _atom_site_symmetry_multiplicity
 _atom_site_fract_x
 _atom_site_fract_y
 _atom_site_fract_z
 _atom_site_occupancy
  Li  Li0  1  0.379598  0.205223  0.807593  1
  Li  Li1  1  0.181931  0.792751  0.463886  1
  Li  Li2  1  0.549897  0.500000  0.549897  1
  Li  Li3  1  0.993277  0.500000  0.993277  1
  Li  Li4  1  0.633373  0.000000  0.633373  1
  Li  Li5  1  0.996002  0.000000  0.996002  1
  Li  Li6  1  0.463886  0.207249  0.181931  1
  Li  Li7  1  0.807593  0.794777  0.379598  1
  Co  Co8  1  0.815374  0.256276  0.830527  1
  Co  Co9  1  0.830527  0.743724  0.815374  1
  Si  Si10  1  0.336464  0.750243  0.886169  1
  Si  Si11  1  0.068376  0.495521  0.480003  1
  Si  Si12  1  0.133702  0.055172  0.509956  1
  Si  Si13  1  0.509956  0.944828  0.133702  1
  Si  Si14  1  0.480003  0.504479  0.068376  1
  Si  Si15  1  0.886169  0.249757  0.336464  1
  O  O16  1  0.136556  0.794847  0.796581  1
  O  O17  1  0.311153  0.586321  0.948191  1
  O  O18  1  0.117827  0.121109  0.745392  1
  O  O19  1  0.030420  0.412432  0.710840  1
  O  O20  1  0.505589  0.059823  0.952732  1
  O  O21  1  0.495256  0.357448  0.967564  1
  O  O22  1  0.126020  0.177698  0.325371  1
  O  O23  1  0.574290  0.781960  0.697671  1
  O  O24  1  0.348566  0.500000  0.348566  1
  O  O25  1  0.395516  0.000000  0.395516  1
  O  O26  1  0.697671  0.218040  0.574290  1
  O  O27  1  0.325371  0.822302  0.126020  1
  O  O28  1  0.967564  0.642552  0.495256  1
  O  O29  1  0.952732  0.940177  0.505589  1
  O  O30  1  0.710840  0.587568  0.030420  1
  O  O31  1  0.745392  0.878891  0.117827  1
  O  O32  1  0.948191  0.413679  0.311153  1
  O  O33  1  0.796581  0.205153  0.136556  1
