# generated using pymatgen
data_LiMnPCO7
_symmetry_space_group_name_H-M   'P 1'
_cell_length_a   8.34594032
_cell_length_b   10.22515521
_cell_length_c   6.23686941
_cell_angle_alpha   90.28515172
_cell_angle_beta   89.03086411
_cell_angle_gamma   85.76761398
_symmetry_Int_Tables_number   1
_chemical_formula_structural   LiMnPCO7
_chemical_formula_sum   'Li4 Mn4 P4 C4 O28'
_cell_volume   530.70755231
_cell_formula_units_Z   4
loop_
 _symmetry_equiv_pos_site_id
 _symmetry_equiv_pos_as_xyz
  1  'x, y, z'
loop_
 _atom_site_type_symbol
 _atom_site_label
 _atom_site_symmetry_multiplicity
 _atom_site_fract_x
 _atom_site_fract_y
 _atom_site_fract_z
 _atom_site_occupancy
  Li  Li0  1  0.258771  0.123905  0.032758  1
  Li  Li1  1  0.260009  0.624256  0.471183  1
  Li  Li2  1  0.742190  0.377408  0.528370  1
  Li  Li3  1  0.739635  0.877068  0.528130  1
  Mn  Mn4  1  0.329382  0.396731  0.750028  1
  Mn  Mn5  1  0.329603  0.896632  0.748214  1
  Mn  Mn6  1  0.670242  0.103098  0.246933  1
  Mn  Mn7  1  0.670953  0.602667  0.244267  1
  P  P8  1  0.426300  0.362007  0.250143  1
  P  P9  1  0.425985  0.861670  0.253927  1
  P  P10  1  0.574595  0.138115  0.752394  1
  P  P11  1  0.574104  0.637665  0.742741  1
  C  C12  1  0.049229  0.354875  0.749690  1
  C  C13  1  0.049500  0.855126  0.744724  1
  C  C14  1  0.949955  0.145290  0.254026  1
  C  C15  1  0.950228  0.644879  0.258310  1
  O  O16  1  0.104013  0.472515  0.746938  1
  O  O17  1  0.091733  0.169857  0.241342  1
  O  O18  1  0.104228  0.972063  0.765044  1
  O  O19  1  0.171164  0.264232  0.769178  1
  O  O20  1  0.091848  0.668874  0.273166  1
  O  O21  1  0.171712  0.763670  0.739711  1
  O  O22  1  0.327423  0.404689  0.054128  1
  O  O23  1  0.312000  0.405543  0.440936  1
  O  O24  1  0.324793  0.904451  0.058264  1
  O  O25  1  0.313023  0.904291  0.444665  1
  O  O26  1  0.414945  0.071681  0.773735  1
  O  O27  1  0.465276  0.210603  0.244838  1
  O  O28  1  0.414398  0.571260  0.728241  1
  O  O29  1  0.465762  0.710424  0.263956  1
  O  O30  1  0.534728  0.288446  0.725607  1
  O  O31  1  0.585766  0.428481  0.266133  1
  O  O32  1  0.535159  0.788727  0.723995  1
  O  O33  1  0.585673  0.928351  0.259844  1
  O  O34  1  0.685142  0.107142  0.943214  1
  O  O35  1  0.677259  0.083921  0.557654  1
  O  O36  1  0.689376  0.589356  0.554791  1
  O  O37  1  0.671703  0.600464  0.941184  1
  O  O38  1  0.827210  0.235898  0.273155  1
  O  O39  1  0.907958  0.330550  0.732846  1
  O  O40  1  0.827564  0.736002  0.259525  1
  O  O41  1  0.895560  0.027658  0.245304  1
  O  O42  1  0.907604  0.831933  0.729241  1
  O  O43  1  0.896295  0.527523  0.239899  1
