# generated using pymatgen
data_NaV6O15
_symmetry_space_group_name_H-M   'P 1'
_cell_length_a   10.27724274
_cell_length_b   8.03549034
_cell_length_c   7.30390940
_cell_angle_alpha   76.85934257
_cell_angle_beta   90.00068693
_cell_angle_gamma   109.21909285
_symmetry_Int_Tables_number   1
_chemical_formula_structural   NaV6O15
_chemical_formula_sum   'Na2 V12 O30'
_cell_volume   552.80615861
_cell_formula_units_Z   2
loop_
 _symmetry_equiv_pos_site_id
 _symmetry_equiv_pos_as_xyz
  1  'x, y, z'
loop_
 _atom_site_type_symbol
 _atom_site_label
 _atom_site_symmetry_multiplicity
 _atom_site_fract_x
 _atom_site_fract_y
 _atom_site_fract_z
 _atom_site_occupancy
  Na  Na0  1  0.395367  0.009253  0.997785  1
  Na  Na1  1  0.604633  0.990747  0.502215  1
  V  V2  1  0.898162  0.326202  0.168784  1
  V  V3  1  0.897927  0.325952  0.668134  1
  V  V4  1  0.881916  0.766181  0.058421  1
  V  V5  1  0.884530  0.768327  0.557884  1
  V  V6  1  0.591653  0.427073  0.643113  1
  V  V7  1  0.591296  0.427279  0.143386  1
  V  V8  1  0.408347  0.572927  0.856887  1
  V  V9  1  0.408704  0.572721  0.356614  1
  V  V10  1  0.115470  0.231673  0.942116  1
  V  V11  1  0.118084  0.233819  0.441579  1
  V  V12  1  0.102073  0.674048  0.831866  1
  V  V13  1  0.101838  0.673798  0.331216  1
  O  O14  1  0.945318  0.372785  0.407202  1
  O  O15  1  0.945502  0.369604  0.907224  1
  O  O16  1  0.778823  0.126956  0.711545  1
  O  O17  1  0.778815  0.127297  0.225056  1
  O  O18  1  0.925419  0.733051  0.816862  1
  O  O19  1  0.925453  0.733208  0.316531  1
  O  O20  1  0.778730  0.475431  0.131072  1
  O  O21  1  0.778596  0.474354  0.631393  1
  O  O22  1  0.728715  0.783999  0.053939  1
  O  O23  1  0.728503  0.783099  0.554351  1
  O  O24  1  0.530773  0.206160  0.198735  1
  O  O25  1  0.530611  0.205915  0.698488  1
  O  O26  1  0.574638  0.488840  0.877732  1
  O  O27  1  0.575465  0.489923  0.377615  1
  O  O28  1  0.425362  0.511160  0.622268  1
  O  O29  1  0.424535  0.510077  0.122385  1
  O  O30  1  0.469389  0.794085  0.801512  1
  O  O31  1  0.469227  0.793840  0.301265  1
  O  O32  1  0.271285  0.216001  0.446061  1
  O  O33  1  0.271498  0.216901  0.945649  1
  O  O34  1  0.221404  0.525646  0.868607  1
  O  O35  1  0.221270  0.524569  0.368928  1
  O  O36  1  0.074581  0.266949  0.683138  1
  O  O37  1  0.074547  0.266792  0.183469  1
  O  O38  1  0.000674  0.000563  0.999825  1
  O  O39  1  0.999326  0.999437  0.500175  1
  O  O40  1  0.221177  0.873044  0.788455  1
  O  O41  1  0.221185  0.872703  0.274944  1
  O  O42  1  0.054682  0.627215  0.092798  1
  O  O43  1  0.054498  0.630396  0.592776  1
