# generated using pymatgen
data_Tl2(PbO3)3
_symmetry_space_group_name_H-M   'P 1'
_cell_length_a   3.83861025
_cell_length_b   3.83861025
_cell_length_c   14.18591031
_cell_angle_alpha   97.77576992
_cell_angle_beta   97.77576992
_cell_angle_gamma   90.00000000
_symmetry_Int_Tables_number   1
_chemical_formula_structural   Tl2(PbO3)3
_chemical_formula_sum   'Tl2 Pb3 O9'
_cell_volume   205.16640127
_cell_formula_units_Z   1
loop_
 _symmetry_equiv_pos_site_id
 _symmetry_equiv_pos_as_xyz
  1  'x, y, z'
loop_
 _atom_site_type_symbol
 _atom_site_label
 _atom_site_symmetry_multiplicity
 _atom_site_fract_x
 _atom_site_fract_y
 _atom_site_fract_z
 _atom_site_occupancy
  Tl  Tl0  1  0.996571  0.996571  0.993141  1
  Tl  Tl1  1  0.603429  0.603429  0.206859  1
  Pb  Pb2  1  0.200220  0.200220  0.400441  1
  Pb  Pb3  1  0.800000  0.800000  0.600000  1
  Pb  Pb4  1  0.399780  0.399780  0.799559  1
  O  O5  1  0.050000  0.550000  0.100000  1
  O  O6  1  0.160747  0.660747  0.321496  1
  O  O7  1  0.638714  0.138714  0.277429  1
  O  O8  1  0.260626  0.760626  0.521251  1
  O  O9  1  0.739576  0.239576  0.479151  1
  O  O10  1  0.360424  0.860424  0.720849  1
  O  O11  1  0.839374  0.339374  0.678749  1
  O  O12  1  0.461286  0.961286  0.922571  1
  O  O13  1  0.939253  0.439253  0.878504  1
