# generated using pymatgen
data_Sr2Ti6N2O11
_symmetry_space_group_name_H-M   'P 1'
_cell_length_a   3.83407292
_cell_length_b   7.85381968
_cell_length_c   9.31133657
_cell_angle_alpha   82.47574919
_cell_angle_beta   89.96948929
_cell_angle_gamma   75.81715099
_symmetry_Int_Tables_number   1
_chemical_formula_structural   Sr2Ti6N2O11
_chemical_formula_sum   'Sr2 Ti6 N2 O11'
_cell_volume   269.35171158
_cell_formula_units_Z   1
loop_
 _symmetry_equiv_pos_site_id
 _symmetry_equiv_pos_as_xyz
  1  'x, y, z'
loop_
 _atom_site_type_symbol
 _atom_site_label
 _atom_site_symmetry_multiplicity
 _atom_site_fract_x
 _atom_site_fract_y
 _atom_site_fract_z
 _atom_site_occupancy
  Sr  Sr0  1  0.546119  0.907154  0.780199  1
  Sr  Sr1  1  0.452614  0.100499  0.230605  1
  Ti  Ti2  1  0.117760  0.770188  0.091410  1
  Ti  Ti3  1  0.169332  0.665492  0.437052  1
  Ti  Ti4  1  0.239369  0.529277  0.765045  1
  Ti  Ti5  1  0.757442  0.490466  0.223154  1
  Ti  Ti6  1  0.841535  0.325011  0.557157  1
  Ti  Ti7  1  0.885744  0.233026  0.911150  1
  N  N8  1  0.646681  0.713082  0.109607  1
  N  N9  1  0.002578  0.003367  0.998876  1
  O  O10  1  0.071348  0.860581  0.299273  1
  O  O11  1  0.125621  0.746084  0.614348  1
  O  O12  1  0.164736  0.678213  0.899235  1
  O  O13  1  0.706101  0.594880  0.428070  1
  O  O14  1  0.758616  0.487313  0.751500  1
  O  O15  1  0.249876  0.507063  0.255052  1
  O  O16  1  0.303349  0.401431  0.569475  1
  O  O17  1  0.358829  0.284746  0.879407  1
  O  O18  1  0.839570  0.324230  0.094034  1
  O  O19  1  0.888119  0.235527  0.389303  1
  O  O20  1  0.931269  0.136187  0.703538  1
