# generated using pymatgen
data_Li2NdPCO7
_symmetry_space_group_name_H-M   'P 1'
_cell_length_a   9.28413445
_cell_length_b   6.91864847
_cell_length_c   4.99301511
_cell_angle_alpha   90.00000000
_cell_angle_beta   86.84874523
_cell_angle_gamma   90.00000000
_symmetry_Int_Tables_number   1
_chemical_formula_structural   Li2NdPCO7
_chemical_formula_sum   'Li4 Nd2 P2 C2 O14'
_cell_volume   320.23468585
_cell_formula_units_Z   2
loop_
 _symmetry_equiv_pos_site_id
 _symmetry_equiv_pos_as_xyz
  1  'x, y, z'
loop_
 _atom_site_type_symbol
 _atom_site_label
 _atom_site_symmetry_multiplicity
 _atom_site_fract_x
 _atom_site_fract_y
 _atom_site_fract_z
 _atom_site_occupancy
  Li  Li0  1  0.196531  0.473542  0.207977  1
  Li  Li1  1  0.196531  0.026458  0.207977  1
  Li  Li2  1  0.803469  0.526458  0.792023  1
  Li  Li3  1  0.803469  0.973542  0.792023  1
  Nd  Nd4  1  0.375463  0.750000  0.743326  1
  Nd  Nd5  1  0.624537  0.250000  0.256674  1
  P  P6  1  0.397404  0.250000  0.740657  1
  P  P7  1  0.602596  0.750000  0.259343  1
  C  C8  1  0.068493  0.750000  0.740675  1
  C  C9  1  0.931507  0.250000  0.259325  1
  O  O10  1  0.067850  0.250000  0.277252  1
  O  O11  1  0.130084  0.750000  0.970124  1
  O  O12  1  0.156942  0.750000  0.522934  1
  O  O13  1  0.334972  0.068225  0.884165  1
  O  O14  1  0.334972  0.431775  0.884165  1
  O  O15  1  0.433460  0.750000  0.242953  1
  O  O16  1  0.371757  0.250000  0.436459  1
  O  O17  1  0.628243  0.750000  0.563541  1
  O  O18  1  0.566540  0.250000  0.757047  1
  O  O19  1  0.665028  0.568225  0.115835  1
  O  O20  1  0.665028  0.931775  0.115835  1
  O  O21  1  0.843058  0.250000  0.477066  1
  O  O22  1  0.869916  0.250000  0.029876  1
  O  O23  1  0.932150  0.750000  0.722748  1
