# generated using pymatgen
data_NbCu3(PO4)4
_symmetry_space_group_name_H-M   'P 1'
_cell_length_a   5.00566503
_cell_length_b   9.89929248
_cell_length_c   6.04011295
_cell_angle_alpha   90.00000000
_cell_angle_beta   90.00000000
_cell_angle_gamma   88.75950686
_symmetry_Int_Tables_number   1
_chemical_formula_structural   NbCu3(PO4)4
_chemical_formula_sum   'Nb1 Cu3 P4 O16'
_cell_volume   299.23280543
_cell_formula_units_Z   1
loop_
 _symmetry_equiv_pos_site_id
 _symmetry_equiv_pos_as_xyz
  1  'x, y, z'
loop_
 _atom_site_type_symbol
 _atom_site_label
 _atom_site_symmetry_multiplicity
 _atom_site_fract_x
 _atom_site_fract_y
 _atom_site_fract_z
 _atom_site_occupancy
  Nb  Nb0  1  0.967888  0.281221  0.250000  1
  Cu  Cu1  1  0.051090  0.722509  0.750000  1
  Cu  Cu2  1  0.394843  0.202984  0.750000  1
  Cu  Cu3  1  0.588876  0.784279  0.250000  1
  P  P4  1  0.088566  0.612605  0.250000  1
  P  P5  1  0.403858  0.091114  0.250000  1
  P  P6  1  0.577993  0.898286  0.750000  1
  P  P7  1  0.933455  0.406173  0.750000  1
  O  O8  1  0.144674  0.449399  0.250000  1
  O  O9  1  0.227880  0.669360  0.045051  1
  O  O10  1  0.227880  0.669360  0.454949  1
  O  O11  1  0.234330  0.378136  0.750000  1
  O  O12  1  0.275001  0.881513  0.750000  1
  O  O13  1  0.244774  0.167546  0.057791  1
  O  O14  1  0.244774  0.167546  0.442209  1
  O  O15  1  0.361496  0.941703  0.250000  1
  O  O16  1  0.629943  0.052506  0.750000  1
  O  O17  1  0.732779  0.828415  0.552539  1
  O  O18  1  0.732779  0.828415  0.947461  1
  O  O19  1  0.696469  0.133262  0.250000  1
  O  O20  1  0.782386  0.618705  0.250000  1
  O  O21  1  0.804885  0.330946  0.541692  1
  O  O22  1  0.804885  0.330946  0.958308  1
  O  O23  1  0.848499  0.553073  0.750000  1
