# generated using pymatgen
data_LiFeSiO4
_symmetry_space_group_name_H-M   'P 1'
_cell_length_a   6.09566323
_cell_length_b   11.23924565
_cell_length_c   5.06284131
_cell_angle_alpha   90.00000000
_cell_angle_beta   90.00000000
_cell_angle_gamma   90.00000000
_symmetry_Int_Tables_number   1
_chemical_formula_structural   LiFeSiO4
_chemical_formula_sum   'Li4 Fe4 Si4 O16'
_cell_volume   346.85858161
_cell_formula_units_Z   4
loop_
 _symmetry_equiv_pos_site_id
 _symmetry_equiv_pos_as_xyz
  1  'x, y, z'
loop_
 _atom_site_type_symbol
 _atom_site_label
 _atom_site_symmetry_multiplicity
 _atom_site_fract_x
 _atom_site_fract_y
 _atom_site_fract_z
 _atom_site_occupancy
  Li  Li0  1  0.500087  0.921426  0.330738  1
  Li  Li1  1  0.500087  0.421426  0.169262  1
  Li  Li2  1  0.000087  0.578574  0.830738  1
  Li  Li3  1  0.000087  0.078574  0.669262  1
  Fe  Fe4  1  0.248070  0.330486  0.670185  1
  Fe  Fe5  1  0.248070  0.830486  0.829815  1
  Fe  Fe6  1  0.748070  0.669514  0.329815  1
  Fe  Fe7  1  0.748070  0.169514  0.170185  1
  Si  Si8  1  0.250900  0.667440  0.331839  1
  Si  Si9  1  0.250900  0.167440  0.168161  1
  Si  Si10  1  0.750900  0.332560  0.668161  1
  Si  Si11  1  0.750900  0.832560  0.831839  1
  O  O12  1  0.024592  0.103903  0.281943  1
  O  O13  1  0.024592  0.603903  0.218057  1
  O  O14  1  0.230980  0.181305  0.845050  1
  O  O15  1  0.271243  0.301707  0.300926  1
  O  O16  1  0.271243  0.801707  0.199074  1
  O  O17  1  0.230980  0.681305  0.654950  1
  O  O18  1  0.473950  0.089466  0.237477  1
  O  O19  1  0.473950  0.589466  0.262523  1
  O  O20  1  0.524592  0.896097  0.718057  1
  O  O21  1  0.524592  0.396097  0.781943  1
  O  O22  1  0.771243  0.198293  0.800926  1
  O  O23  1  0.730980  0.318695  0.345050  1
  O  O24  1  0.771243  0.698293  0.699074  1
  O  O25  1  0.730980  0.818695  0.154950  1
  O  O26  1  0.973950  0.410534  0.737477  1
  O  O27  1  0.973950  0.910534  0.762523  1
