# generated using pymatgen
data_Li4TiV4Cr4O18
_symmetry_space_group_name_H-M   'P 1'
_cell_length_a   8.96347052
_cell_length_b   24.95622807
_cell_length_c   2.97613369
_cell_angle_alpha   90.00000000
_cell_angle_beta   90.00000000
_cell_angle_gamma   90.00000000
_symmetry_Int_Tables_number   1
_chemical_formula_structural   Li4TiV4Cr4O18
_chemical_formula_sum   'Li8 Ti2 V8 Cr8 O36'
_cell_volume   665.74448354
_cell_formula_units_Z   2
loop_
 _symmetry_equiv_pos_site_id
 _symmetry_equiv_pos_as_xyz
  1  'x, y, z'
loop_
 _atom_site_type_symbol
 _atom_site_label
 _atom_site_symmetry_multiplicity
 _atom_site_fract_x
 _atom_site_fract_y
 _atom_site_fract_z
 _atom_site_occupancy
  Li  Li0  1  0.183734  0.993682  0.000000  1
  Li  Li1  1  0.205503  0.190168  0.000000  1
  Li  Li2  1  0.294497  0.690168  0.000000  1
  Li  Li3  1  0.316266  0.493682  0.000000  1
  Li  Li4  1  0.684814  0.509592  0.000000  1
  Li  Li5  1  0.709232  0.312973  0.000000  1
  Li  Li6  1  0.790768  0.812973  0.000000  1
  Li  Li7  1  0.815186  0.009592  0.000000  1
  Ti  Ti8  1  0.494072  0.397518  0.000000  1
  Ti  Ti9  1  0.005928  0.897518  0.000000  1
  V  V10  1  0.000886  0.499898  0.000000  1
  V  V11  1  0.996855  0.102939  0.000000  1
  V  V12  1  0.145643  0.802827  0.500000  1
  V  V13  1  0.354357  0.302827  0.500000  1
  V  V14  1  0.503145  0.602939  0.000000  1
  V  V15  1  0.499114  0.999898  0.000000  1
  V  V16  1  0.643005  0.696108  0.500000  1
  V  V17  1  0.856995  0.196108  0.500000  1
  Cr  Cr18  1  0.017895  0.309905  0.000000  1
  Cr  Cr19  1  0.148740  0.586762  0.500000  1
  Cr  Cr20  1  0.351260  0.086762  0.500000  1
  Cr  Cr21  1  0.482105  0.809905  0.000000  1
  Cr  Cr22  1  0.516546  0.188930  0.000000  1
  Cr  Cr23  1  0.647356  0.913797  0.500000  1
  Cr  Cr24  1  0.852644  0.413797  0.500000  1
  Cr  Cr25  1  0.983454  0.688930  0.000000  1
  O  O26  1  0.001261  0.424275  0.000000  1
  O  O27  1  0.001633  0.576578  0.000000  1
  O  O28  1  0.059366  0.941907  0.500000  1
  O  O29  1  0.047537  0.160115  0.500000  1
  O  O30  1  0.117459  0.665171  0.500000  1
  O  O31  1  0.089774  0.756592  0.000000  1
  O  O32  1  0.151434  0.505180  0.500000  1
  O  O33  1  0.151792  0.284764  0.500000  1
  O  O34  1  0.187432  0.854109  0.000000  1
  O  O35  1  0.201141  0.086251  0.000000  1
  O  O36  1  0.298859  0.586251  0.000000  1
  O  O37  1  0.312568  0.354109  0.000000  1
  O  O38  1  0.348208  0.784764  0.500000  1
  O  O39  1  0.348566  0.005180  0.500000  1
  O  O40  1  0.410226  0.256592  0.000000  1
  O  O41  1  0.382541  0.165171  0.500000  1
  O  O42  1  0.452463  0.660115  0.500000  1
  O  O43  1  0.440634  0.441907  0.500000  1
  O  O44  1  0.498367  0.076578  0.000000  1
  O  O45  1  0.498739  0.924275  0.000000  1
  O  O46  1  0.558045  0.557298  0.500000  1
  O  O47  1  0.545993  0.340224  0.500000  1
  O  O48  1  0.614175  0.835160  0.500000  1
  O  O49  1  0.592135  0.742982  0.000000  1
  O  O50  1  0.649159  0.995492  0.500000  1
  O  O51  1  0.652897  0.211794  0.500000  1
  O  O52  1  0.681925  0.643733  0.000000  1
  O  O53  1  0.703528  0.413274  0.000000  1
  O  O54  1  0.796472  0.913274  0.000000  1
  O  O55  1  0.818075  0.143733  0.000000  1
  O  O56  1  0.847103  0.711794  0.500000  1
  O  O57  1  0.850841  0.495492  0.500000  1
  O  O58  1  0.907865  0.242982  0.000000  1
  O  O59  1  0.885825  0.335160  0.500000  1
  O  O60  1  0.954007  0.840224  0.500000  1
  O  O61  1  0.941955  0.057298  0.500000  1
