# generated using pymatgen
data_V6O7F5
_symmetry_space_group_name_H-M   'P 1'
_cell_length_a   4.75405277
_cell_length_b   4.75405277
_cell_length_c   9.14497528
_cell_angle_alpha   90.00000000
_cell_angle_beta   90.00000000
_cell_angle_gamma   94.28702500
_symmetry_Int_Tables_number   1
_chemical_formula_structural   V6O7F5
_chemical_formula_sum   'V6 O7 F5'
_cell_volume   206.10745986
_cell_formula_units_Z   1
loop_
 _symmetry_equiv_pos_site_id
 _symmetry_equiv_pos_as_xyz
  1  'x, y, z'
loop_
 _atom_site_type_symbol
 _atom_site_label
 _atom_site_symmetry_multiplicity
 _atom_site_fract_x
 _atom_site_fract_y
 _atom_site_fract_z
 _atom_site_occupancy
  V  V0  1  0.010256  0.989744  0.007404  1
  V  V1  1  0.010256  0.989744  0.325929  1
  V  V2  1  0.000598  0.999402  0.666667  1
  V  V3  1  0.468989  0.531011  0.166667  1
  V  V4  1  0.503189  0.496811  0.834461  1
  V  V5  1  0.503189  0.496811  0.498872  1
  O  O6  1  0.198318  0.801682  0.166667  1
  O  O7  1  0.299677  0.306020  0.005784  1
  O  O8  1  0.299677  0.306020  0.327549  1
  O  O9  1  0.302330  0.297248  0.666667  1
  O  O10  1  0.693980  0.700323  0.005784  1
  O  O11  1  0.693980  0.700323  0.327549  1
  O  O12  1  0.702752  0.697670  0.666667  1
  F  F13  1  0.199015  0.800985  0.500065  1
  F  F14  1  0.199015  0.800985  0.833268  1
  F  F15  1  0.801759  0.198241  0.166667  1
  F  F16  1  0.806511  0.193489  0.835980  1
  F  F17  1  0.806511  0.193489  0.497354  1
