# generated using pymatgen
data_LiMnSiO4
_symmetry_space_group_name_H-M   'P 1'
_cell_length_a   5.88643470
_cell_length_b   5.88643470
_cell_length_c   5.88643470
_cell_angle_alpha   55.10634566
_cell_angle_beta   95.19398943
_cell_angle_gamma   121.22988376
_symmetry_Int_Tables_number   1
_chemical_formula_structural   LiMnSiO4
_chemical_formula_sum   'Li2 Mn2 Si2 O8'
_cell_volume   136.73971523
_cell_formula_units_Z   2
loop_
 _symmetry_equiv_pos_site_id
 _symmetry_equiv_pos_as_xyz
  1  'x, y, z'
loop_
 _atom_site_type_symbol
 _atom_site_label
 _atom_site_symmetry_multiplicity
 _atom_site_fract_x
 _atom_site_fract_y
 _atom_site_fract_z
 _atom_site_occupancy
  Li  Li0  1  0.992877  0.000000  0.007123  1
  Li  Li1  1  0.257123  0.500000  0.242877  1
  Mn  Mn2  1  0.625000  0.250000  0.625000  1
  Mn  Mn3  1  0.125000  0.750000  0.625000  1
  Si  Si4  1  0.625000  0.250000  0.125000  1
  Si  Si5  1  0.625000  0.750000  0.625000  1
  O  O6  1  0.836578  0.208547  0.371969  1
  O  O7  1  0.837354  0.736325  0.426321  1
  O  O8  1  0.412646  0.236325  0.351028  1
  O  O9  1  0.837354  0.263675  0.898972  1
  O  O10  1  0.413422  0.291453  0.878031  1
  O  O11  1  0.830517  0.708547  0.878031  1
  O  O12  1  0.419483  0.791453  0.371969  1
  O  O13  1  0.412646  0.763675  0.823679  1
