# generated using pymatgen
data_Li3FeBO5
_symmetry_space_group_name_H-M   'P 1'
_cell_length_a   4.81128084
_cell_length_b   4.78895096
_cell_length_c   16.33509301
_cell_angle_alpha   90.00000000
_cell_angle_beta   90.00000000
_cell_angle_gamma   90.00000000
_symmetry_Int_Tables_number   1
_chemical_formula_structural   Li3FeBO5
_chemical_formula_sum   'Li12 Fe4 B4 O20'
_cell_volume   376.37668198
_cell_formula_units_Z   4
loop_
 _symmetry_equiv_pos_site_id
 _symmetry_equiv_pos_as_xyz
  1  'x, y, z'
loop_
 _atom_site_type_symbol
 _atom_site_label
 _atom_site_symmetry_multiplicity
 _atom_site_fract_x
 _atom_site_fract_y
 _atom_site_fract_z
 _atom_site_occupancy
  Li  Li0  1  0.008072  0.686230  0.611552  1
  Li  Li1  1  0.008072  0.186230  0.888448  1
  Li  Li2  1  0.503356  0.316270  0.007902  1
  Li  Li3  1  0.503356  0.816270  0.492098  1
  Li  Li4  1  0.495239  0.330106  0.793128  1
  Li  Li5  1  0.495239  0.830106  0.706872  1
  Li  Li6  1  0.508072  0.313770  0.388448  1
  Li  Li7  1  0.508072  0.813770  0.111552  1
  Li  Li8  1  0.003356  0.683730  0.992098  1
  Li  Li9  1  0.003356  0.183730  0.507902  1
  Li  Li10  1  0.995239  0.169894  0.293128  1
  Li  Li11  1  0.995239  0.669894  0.206872  1
  Fe  Fe12  1  0.010157  0.181433  0.104637  1
  Fe  Fe13  1  0.010157  0.681433  0.395363  1
  Fe  Fe14  1  0.510157  0.318567  0.604637  1
  Fe  Fe15  1  0.510157  0.818567  0.895363  1
  B  B16  1  0.996005  0.180387  0.707381  1
  B  B17  1  0.996005  0.680387  0.792619  1
  B  B18  1  0.496005  0.319613  0.207381  1
  B  B19  1  0.496005  0.819613  0.292619  1
  O  O20  1  0.089129  0.380050  0.774587  1
  O  O21  1  0.089129  0.880050  0.725413  1
  O  O22  1  0.094438  0.324848  0.397743  1
  O  O23  1  0.094438  0.824848  0.102257  1
  O  O24  1  0.088239  0.283248  0.003439  1
  O  O25  1  0.088239  0.783248  0.496561  1
  O  O26  1  0.188832  0.317385  0.199479  1
  O  O27  1  0.188832  0.817385  0.300521  1
  O  O28  1  0.121534  0.262437  0.627454  1
  O  O29  1  0.121534  0.762436  0.872546  1
  O  O30  1  0.589129  0.619950  0.225413  1
  O  O31  1  0.589129  0.119950  0.274588  1
  O  O32  1  0.594438  0.175152  0.897743  1
  O  O33  1  0.594438  0.675152  0.602257  1
  O  O34  1  0.588239  0.216752  0.503439  1
  O  O35  1  0.588239  0.716752  0.996561  1
  O  O36  1  0.688832  0.182615  0.699479  1
  O  O37  1  0.688832  0.682615  0.800521  1
  O  O38  1  0.621534  0.237564  0.127454  1
  O  O39  1  0.621534  0.737564  0.372546  1
