# generated using pymatgen
data_Li2FeP2O7
_symmetry_space_group_name_H-M   'P 1'
_cell_length_a   5.07384367
_cell_length_b   5.43573436
_cell_length_c   11.76977558
_cell_angle_alpha   86.28685848
_cell_angle_beta   102.44753090
_cell_angle_gamma   62.17893133
_symmetry_Int_Tables_number   1
_chemical_formula_structural   Li2FeP2O7
_chemical_formula_sum   'Li4 Fe2 P4 O14'
_cell_volume   275.15399340
_cell_formula_units_Z   2
loop_
 _symmetry_equiv_pos_site_id
 _symmetry_equiv_pos_as_xyz
  1  'x, y, z'
loop_
 _atom_site_type_symbol
 _atom_site_label
 _atom_site_symmetry_multiplicity
 _atom_site_fract_x
 _atom_site_fract_y
 _atom_site_fract_z
 _atom_site_occupancy
  Li  Li0  1  0.221397  0.885078  0.359834  1
  Li  Li1  1  0.746640  0.614922  0.140166  1
  Li  Li2  1  0.253360  0.385078  0.859834  1
  Li  Li3  1  0.778603  0.114922  0.640166  1
  Fe  Fe4  1  0.000000  0.500000  0.500000  1
  Fe  Fe5  1  0.000000  0.000000  0.000000  1
  P  P6  1  0.463511  0.803356  0.624073  1
  P  P7  1  0.642792  0.696644  0.875927  1
  P  P8  1  0.357208  0.303356  0.124073  1
  P  P9  1  0.536489  0.196644  0.375927  1
  O  O10  1  0.772804  0.895522  0.854922  1
  O  O11  1  0.462399  0.761843  0.968007  1
  O  O12  1  0.615380  0.884633  0.393321  1
  O  O13  1  0.383585  0.750000  0.750000  1
  O  O14  1  0.256233  0.738157  0.531993  1
  O  O15  1  0.813403  0.604478  0.645078  1
  O  O16  1  0.106692  0.615367  0.106679  1
  O  O17  1  0.893308  0.384633  0.893321  1
  O  O18  1  0.186597  0.395522  0.354923  1
  O  O19  1  0.743767  0.261843  0.468007  1
  O  O20  1  0.616415  0.250000  0.250000  1
  O  O21  1  0.384620  0.115367  0.606679  1
  O  O22  1  0.537601  0.238157  0.031993  1
  O  O23  1  0.227196  0.104478  0.145077  1
