# generated using pymatgen
data_Dy2CO5
_symmetry_space_group_name_H-M   'P 1'
_cell_length_a   3.89773316
_cell_length_b   3.86420226
_cell_length_c   15.23165008
_cell_angle_alpha   90.00079293
_cell_angle_beta   89.99967701
_cell_angle_gamma   120.28688572
_symmetry_Int_Tables_number   1
_chemical_formula_structural   Dy2CO5
_chemical_formula_sum   'Dy4 C2 O10'
_cell_volume   198.10105383
_cell_formula_units_Z   2
loop_
 _symmetry_equiv_pos_site_id
 _symmetry_equiv_pos_as_xyz
  1  'x, y, z'
loop_
 _atom_site_type_symbol
 _atom_site_label
 _atom_site_symmetry_multiplicity
 _atom_site_fract_x
 _atom_site_fract_y
 _atom_site_fract_z
 _atom_site_occupancy
  Dy  Dy0  1  0.328761  0.664280  0.092948  1
  Dy  Dy1  1  0.328765  0.664244  0.407052  1
  Dy  Dy2  1  0.664528  0.335794  0.592948  1
  Dy  Dy3  1  0.664533  0.335775  0.907052  1
  C  C4  1  0.830112  0.915131  0.250000  1
  C  C5  1  0.914980  0.084876  0.750000  1
  O  O6  1  0.331205  0.667175  0.557278  1
  O  O7  1  0.009221  0.004167  0.325860  1
  O  O8  1  0.009222  0.004175  0.174140  1
  O  O9  1  0.005075  0.995859  0.674139  1
  O  O10  1  0.005071  0.995853  0.825859  1
  O  O11  1  0.331217  0.667178  0.942723  1
  O  O12  1  0.449777  0.726376  0.250000  1
  O  O13  1  0.664053  0.332874  0.057278  1
  O  O14  1  0.664054  0.332854  0.442723  1
  O  O15  1  0.723357  0.273588  0.750001  1
