# generated using pymatgen
data_NaMnPCO7
_symmetry_space_group_name_H-M   'P 1'
_cell_length_a   8.15845433
_cell_length_b   8.14249363
_cell_length_c   10.75754886
_cell_angle_alpha   69.33964130
_cell_angle_beta   108.69585510
_cell_angle_gamma   79.90960130
_symmetry_Int_Tables_number   1
_chemical_formula_structural   NaMnPCO7
_chemical_formula_sum   'Na4 Mn4 P4 C4 O28'
_cell_volume   598.93938762
_cell_formula_units_Z   4
loop_
 _symmetry_equiv_pos_site_id
 _symmetry_equiv_pos_as_xyz
  1  'x, y, z'
loop_
 _atom_site_type_symbol
 _atom_site_label
 _atom_site_symmetry_multiplicity
 _atom_site_fract_x
 _atom_site_fract_y
 _atom_site_fract_z
 _atom_site_occupancy
  Na  Na0  1  0.023267  0.019001  0.757277  1
  Na  Na1  1  0.727577  0.723789  0.756933  1
  Na  Na2  1  0.482982  0.488463  0.236444  1
  Na  Na3  1  0.981660  0.985817  0.237318  1
  Mn  Mn4  1  0.589101  0.160710  0.655873  1
  Mn  Mn5  1  0.101387  0.648327  0.659396  1
  Mn  Mn6  1  0.911513  0.351969  0.343138  1
  Mn  Mn7  1  0.410657  0.851668  0.342880  1
  P  P8  1  0.770249  0.482980  0.565326  1
  P  P9  1  0.268265  0.980327  0.565583  1
  P  P10  1  0.736215  0.019706  0.436043  1
  P  P11  1  0.231996  0.523815  0.433254  1
  C  C12  1  0.692420  0.049528  0.916911  1
  C  C13  1  0.194274  0.548251  0.919847  1
  C  C14  1  0.801778  0.444487  0.083352  1
  C  C15  1  0.307289  0.951707  0.082537  1
  O  O16  1  0.253557  0.996514  0.950925  1
  O  O17  1  0.746188  0.487004  0.951858  1
  O  O18  1  0.274492  0.465982  0.859921  1
  O  O19  1  0.772542  0.968540  0.853505  1
  O  O20  1  0.547987  0.193395  0.816143  1
  O  O21  1  0.047659  0.694717  0.815023  1
  O  O22  1  0.943917  0.498390  0.666849  1
  O  O23  1  0.759412  0.297733  0.667402  1
  O  O24  1  0.450261  0.991665  0.661094  1
  O  O25  1  0.253250  0.803450  0.673188  1
  O  O26  1  0.731174  0.022028  0.578012  1
  O  O27  1  0.102034  0.148343  0.522391  1
  O  O28  1  0.602750  0.649504  0.522192  1
  O  O29  1  0.221745  0.531225  0.570426  1
  O  O30  1  0.776941  0.475514  0.426295  1
  O  O31  1  0.906311  0.857471  0.477924  1
  O  O32  1  0.403175  0.360338  0.476732  1
  O  O33  1  0.271232  0.968619  0.426928  1
  O  O34  1  0.557411  0.008860  0.337547  1
  O  O35  1  0.745420  0.205627  0.334185  1
  O  O36  1  0.057698  0.508555  0.331962  1
  O  O37  1  0.245670  0.705599  0.328708  1
  O  O38  1  0.949256  0.302211  0.185922  1
  O  O39  1  0.453914  0.808081  0.185268  1
  O  O40  1  0.725240  0.531168  0.143723  1
  O  O41  1  0.228541  0.035218  0.143667  1
  O  O42  1  0.746446  0.998390  0.049276  1
  O  O43  1  0.243049  0.503214  0.050826  1
