# generated using pymatgen
data_Li2Mn(CO3)2
_symmetry_space_group_name_H-M   'P 1'
_cell_length_a   5.23552341
_cell_length_b   6.76775794
_cell_length_c   7.80311909
_cell_angle_alpha   90.00041448
_cell_angle_beta   89.99976171
_cell_angle_gamma   110.63811155
_symmetry_Int_Tables_number   1
_chemical_formula_structural   Li2Mn(CO3)2
_chemical_formula_sum   'Li4 Mn2 C4 O12'
_cell_volume   258.74259942
_cell_formula_units_Z   2
loop_
 _symmetry_equiv_pos_site_id
 _symmetry_equiv_pos_as_xyz
  1  'x, y, z'
loop_
 _atom_site_type_symbol
 _atom_site_label
 _atom_site_symmetry_multiplicity
 _atom_site_fract_x
 _atom_site_fract_y
 _atom_site_fract_z
 _atom_site_occupancy
  Li  Li0  1  0.856875  0.253617  0.583262  1
  Li  Li1  1  0.643132  0.246387  0.083268  1
  Li  Li2  1  0.356871  0.753615  0.916740  1
  Li  Li3  1  0.143125  0.746384  0.416744  1
  Mn  Mn4  1  0.999991  0.999994  0.999995  1
  Mn  Mn5  1  0.499985  0.499993  0.500000  1
  C  C6  1  0.309992  0.135461  0.730247  1
  C  C7  1  0.190015  0.364541  0.230242  1
  C  C8  1  0.809987  0.635460  0.769755  1
  C  C9  1  0.690011  0.864539  0.269757  1
  O  O10  1  0.410043  0.082895  0.870103  1
  O  O11  1  0.457393  0.192283  0.594286  1
  O  O12  1  0.057174  0.125585  0.733397  1
  O  O13  1  0.442838  0.374420  0.233396  1
  O  O14  1  0.042626  0.307727  0.094283  1
  O  O15  1  0.910031  0.582897  0.629894  1
  O  O16  1  0.089964  0.417103  0.370103  1
  O  O17  1  0.957382  0.692275  0.905712  1
  O  O18  1  0.557164  0.625582  0.766606  1
  O  O19  1  0.942831  0.874417  0.266607  1
  O  O20  1  0.542609  0.807721  0.405714  1
  O  O21  1  0.589968  0.917108  0.129895  1
