# generated using pymatgen
data_SrCoBiRuO6
_symmetry_space_group_name_H-M   'P 1'
_cell_length_a   5.69495372
_cell_length_b   5.65158437
_cell_length_c   7.87881373
_cell_angle_alpha   90.00000000
_cell_angle_beta   90.51650174
_cell_angle_gamma   90.00000000
_symmetry_Int_Tables_number   1
_chemical_formula_structural   SrCoBiRuO6
_chemical_formula_sum   'Sr2 Co2 Bi2 Ru2 O12'
_cell_volume   253.57334569
_cell_formula_units_Z   2
loop_
 _symmetry_equiv_pos_site_id
 _symmetry_equiv_pos_as_xyz
  1  'x, y, z'
loop_
 _atom_site_type_symbol
 _atom_site_label
 _atom_site_symmetry_multiplicity
 _atom_site_fract_x
 _atom_site_fract_y
 _atom_site_fract_z
 _atom_site_occupancy
  Sr  Sr0  1  0.001029  0.023974  0.250404  1
  Sr  Sr1  1  0.501029  0.476026  0.750404  1
  Co  Co2  1  0.497232  0.002676  0.000490  1
  Co  Co3  1  0.997232  0.497324  0.500490  1
  Bi  Bi4  1  0.465249  0.538866  0.249057  1
  Bi  Bi5  1  0.965249  0.961134  0.749057  1
  Ru  Ru6  1  0.500570  0.002546  0.499589  1
  Ru  Ru7  1  0.000570  0.497454  0.999589  1
  O  O8  1  0.072079  0.519239  0.756928  1
  O  O9  1  0.234311  0.755781  0.051302  1
  O  O10  1  0.248311  0.765418  0.450801  1
  O  O11  1  0.276877  0.287861  0.049256  1
  O  O12  1  0.291934  0.278868  0.450923  1
  O  O13  1  0.412407  0.011655  0.741251  1
  O  O14  1  0.572079  0.980761  0.256928  1
  O  O15  1  0.734311  0.744219  0.551302  1
  O  O16  1  0.748311  0.734582  0.950801  1
  O  O17  1  0.791934  0.221132  0.950923  1
  O  O18  1  0.776877  0.212139  0.549256  1
  O  O19  1  0.912407  0.488345  0.241251  1
