# generated using pymatgen
data_Li2MnV(PO4)3
_symmetry_space_group_name_H-M   'P 1'
_cell_length_a   8.98271135
_cell_length_b   8.59002747
_cell_length_c   8.27672094
_cell_angle_alpha   59.38711966
_cell_angle_beta   63.77067366
_cell_angle_gamma   92.28126129
_symmetry_Int_Tables_number   1
_chemical_formula_structural   Li2MnV(PO4)3
_chemical_formula_sum   'Li4 Mn2 V2 P6 O24'
_cell_volume   463.11532578
_cell_formula_units_Z   2
loop_
 _symmetry_equiv_pos_site_id
 _symmetry_equiv_pos_as_xyz
  1  'x, y, z'
loop_
 _atom_site_type_symbol
 _atom_site_label
 _atom_site_symmetry_multiplicity
 _atom_site_fract_x
 _atom_site_fract_y
 _atom_site_fract_z
 _atom_site_occupancy
  Li  Li0  1  0.141276  0.739508  0.178582  1
  Li  Li1  1  0.371982  0.206769  0.363835  1
  Li  Li2  1  0.861623  0.927636  0.403180  1
  Li  Li3  1  0.864711  0.261993  0.815273  1
  Mn  Mn4  1  0.050393  0.352456  0.298784  1
  Mn  Mn5  1  0.953490  0.646191  0.702657  1
  V  V6  1  0.564605  0.849354  0.298932  1
  V  V7  1  0.439318  0.145554  0.706374  1
  P  P8  1  0.254843  0.035000  0.211049  1
  P  P9  1  0.248766  0.454445  0.506202  1
  P  P10  1  0.249607  0.747222  0.786041  1
  P  P11  1  0.754930  0.249168  0.210377  1
  P  P12  1  0.757467  0.543947  0.492686  1
  P  P13  1  0.748661  0.971160  0.781621  1
  O  O14  1  0.089677  0.841862  0.370672  1
  O  O15  1  0.281193  0.110426  0.983091  1
  O  O16  1  0.215931  0.172160  0.276491  1
  O  O17  1  0.214664  0.494812  0.320860  1
  O  O18  1  0.089084  0.432995  0.700554  1
  O  O19  1  0.113765  0.786384  0.717600  1
  O  O20  1  0.422223  0.997869  0.207612  1
  O  O21  1  0.297305  0.266202  0.585042  1
  O  O22  1  0.412666  0.619569  0.395634  1
  O  O23  1  0.200171  0.538665  0.975219  1
  O  O24  1  0.272384  0.885593  0.848646  1
  O  O25  1  0.431571  0.804100  0.578443  1
  O  O26  1  0.570675  0.192372  0.408786  1
  O  O27  1  0.737828  0.111932  0.144613  1
  O  O28  1  0.806355  0.458928  0.023168  1
  O  O29  1  0.589663  0.381766  0.603326  1
  O  O30  1  0.725627  0.741155  0.396729  1
  O  O31  1  0.576414  0.008096  0.790655  1
  O  O32  1  0.891005  0.206397  0.280687  1
  O  O33  1  0.917373  0.558983  0.302383  1
  O  O34  1  0.793049  0.503888  0.677094  1
  O  O35  1  0.793631  0.842253  0.706816  1
  O  O36  1  0.710334  0.887696  0.017889  1
  O  O37  1  0.897818  0.171444  0.628089  1
