# generated using pymatgen
data_Li3V2(O2F)2
_symmetry_space_group_name_H-M   'P 1'
_cell_length_a   5.95862852
_cell_length_b   5.21634787
_cell_length_c   14.93876468
_cell_angle_alpha   90.76523054
_cell_angle_beta   90.75004028
_cell_angle_gamma   90.96686174
_symmetry_Int_Tables_number   1
_chemical_formula_structural   Li3V2(O2F)2
_chemical_formula_sum   'Li12 V8 O16 F8'
_cell_volume   464.18216151
_cell_formula_units_Z   4
loop_
 _symmetry_equiv_pos_site_id
 _symmetry_equiv_pos_as_xyz
  1  'x, y, z'
loop_
 _atom_site_type_symbol
 _atom_site_label
 _atom_site_symmetry_multiplicity
 _atom_site_fract_x
 _atom_site_fract_y
 _atom_site_fract_z
 _atom_site_occupancy
  Li  Li0  1  0.023312  0.316554  0.171611  1
  Li  Li1  1  0.000112  0.339972  0.668320  1
  Li  Li2  1  0.004640  0.686775  0.308811  1
  Li  Li3  1  0.254705  0.845942  0.667010  1
  Li  Li4  1  0.243202  0.872459  0.172199  1
  Li  Li5  1  0.249544  0.491656  0.043695  1
  Li  Li6  1  0.495258  0.026649  0.033121  1
  Li  Li7  1  0.491933  0.622669  0.291768  1
  Li  Li8  1  0.759458  0.851757  0.155493  1
  Li  Li9  1  0.743415  0.844967  0.666679  1
  Li  Li10  1  0.751660  0.483206  0.038158  1
  Li  Li11  1  0.725529  0.160483  0.291302  1
  V  V12  1  0.999040  0.003199  0.498780  1
  V  V13  1  0.000678  0.670916  0.837704  1
  V  V14  1  0.252520  0.500065  0.502685  1
  V  V15  1  0.254385  0.175212  0.831412  1
  V  V16  1  0.498370  -0.000320  0.496742  1
  V  V17  1  0.500459  0.661077  0.827728  1
  V  V18  1  0.749058  0.498475  0.505619  1
  V  V19  1  0.751866  0.164805  0.831495  1
  O  O20  1  0.978674  0.338420  0.438470  1
  O  O21  1  0.007302  0.342180  0.897680  1
  O  O22  1  0.013203  0.004057  0.757577  1
  O  O23  1  0.003141  0.671342  0.578071  1
  O  O24  1  0.244031  0.825717  0.434435  1
  O  O25  1  0.243161  0.833900  0.894657  1
  O  O26  1  0.237781  0.496028  0.759583  1
  O  O27  1  0.230462  0.154990  0.572674  1
  O  O28  1  0.503842  0.338159  0.437013  1
  O  O29  1  0.483680  0.318435  0.899526  1
  O  O30  1  0.498002  0.995898  0.757802  1
  O  O31  1  0.521150  0.676359  0.574241  1
  O  O32  1  0.770870  0.826587  0.434491  1
  O  O33  1  0.749900  0.832123  0.895755  1
  O  O34  1  0.770203  0.510581  0.760489  1
  O  O35  1  0.757756  0.166661  0.572947  1
  F  F36  1  0.980527  0.997815  0.243868  1
  F  F37  1  0.996124  0.640223  0.092515  1
  F  F38  1  0.225680  0.530002  0.245379  1
  F  F39  1  0.247242  0.162582  0.086764  1
  F  F40  1  0.514686  0.945059  0.244105  1
  F  F41  1  0.506499  0.686448  0.069204  1
  F  F42  1  0.764625  0.494015  0.261734  1
  F  F43  1  0.752316  0.162567  0.084023  1
