# generated using pymatgen
data_FeP2H24C8S4NClO4
_symmetry_space_group_name_H-M   'P 1'
_cell_length_a   7.36081786
_cell_length_b   8.79614652
_cell_length_c   16.85196533
_cell_angle_alpha   84.24253576
_cell_angle_beta   85.52724527
_cell_angle_gamma   90.41190914
_symmetry_Int_Tables_number   1
_chemical_formula_structural   FeP2H24C8S4NClO4
_chemical_formula_sum   'Fe2 P4 H48 C16 S8 N2 Cl2 O8'
_cell_volume   1082.17707135
_cell_formula_units_Z   2
loop_
 _symmetry_equiv_pos_site_id
 _symmetry_equiv_pos_as_xyz
  1  'x, y, z'
loop_
 _atom_site_type_symbol
 _atom_site_label
 _atom_site_symmetry_multiplicity
 _atom_site_fract_x
 _atom_site_fract_y
 _atom_site_fract_z
 _atom_site_occupancy
  Fe  Fe0  1  0.748946  0.168892  0.756642  1
  Fe  Fe1  1  0.251054  0.831108  0.243358  1
  P  P2  1  0.813584  0.323926  0.905805  1
  P  P3  1  0.186416  0.676074  0.094195  1
  P  P4  1  0.734064  0.226848  0.573504  1
  P  P5  1  0.265936  0.773152  0.426496  1
  H  H6  1  0.612003  0.082004  0.060076  1
  H  H7  1  0.387997  0.917996  0.939924  1
  H  H8  1  0.681989  0.043250  0.959819  1
  H  H9  1  0.318011  0.956750  0.040181  1
  H  H10  1  0.839485  0.019718  0.036457  1
  H  H11  1  0.160515  0.980282  0.963543  1
  H  H12  1  0.831728  0.698363  0.966403  1
  H  H13  1  0.168272  0.301637  0.033597  1
  H  H14  1  0.728928  0.539780  0.028807  1
  H  H15  1  0.271072  0.460220  0.971193  1
  H  H16  1  0.630158  0.609076  0.937728  1
  H  H17  1  0.369842  0.390924  0.062272  1
  H  H18  1  0.624870  0.537828  0.568401  1
  H  H19  1  0.375130  0.462172  0.431599  1
  H  H20  1  0.868809  0.548462  0.548658  1
  H  H21  1  0.131191  0.451538  0.451342  1
  H  H22  1  0.724209  0.596544  0.469141  1
  H  H23  1  0.275791  0.403456  0.530859  1
  H  H24  1  0.855711  0.913170  0.575392  1
  H  H25  1  0.144289  0.086830  0.424608  1
  H  H26  1  0.735187  0.873032  0.490771  1
  H  H27  1  0.264813  0.126968  0.509229  1
  H  H28  1  0.610312  0.911679  0.582558  1
  H  H29  1  0.389688  0.088321  0.417442  1
  H  H30  1  0.617553  0.483667  0.281387  1
  H  H31  1  0.382447  0.516333  0.718613  1
  H  H32  1  0.495177  0.305322  0.283720  1
  H  H33  1  0.504823  0.694678  0.716280  1
  H  H34  1  0.619961  0.345914  0.367629  1
  H  H35  1  0.380039  0.654086  0.632371  1
  H  H36  1  0.951579  0.485649  0.269905  1
  H  H37  1  0.048421  0.514351  0.730095  1
  H  H38  1  0.942611  0.350368  0.357763  1
  H  H39  1  0.057390  0.649632  0.642237  1
  H  H40  1  0.070992  0.308195  0.266967  1
  H  H41  1  0.929008  0.691805  0.733033  1
  H  H42  1  0.776466  0.105120  0.358182  1
  H  H43  1  0.223534  0.894880  0.641818  1
  H  H44  1  0.902502  0.071254  0.266031  1
  H  H45  1  0.097498  0.928746  0.733969  1
  H  H46  1  0.656393  0.071219  0.272591  1
  H  H47  1  0.343607  0.928781  0.727409  1
  H  H48  1  0.908250  0.257652  0.151814  1
  H  H49  1  0.091750  0.742348  0.848186  1
  H  H50  1  0.792454  0.434904  0.157286  1
  H  H51  1  0.207546  0.565096  0.842714  1
  H  H52  1  0.662561  0.259802  0.158512  1
  H  H53  1  0.337439  0.740198  0.841488  1
  C  C54  1  0.726169  0.087652  0.013925  1
  C  C55  1  0.273831  0.912348  0.986075  1
  C  C56  1  0.757631  0.589919  0.966908  1
  C  C57  1  0.242369  0.410081  0.033092  1
  C  C58  1  0.739328  0.522061  0.524342  1
  C  C59  1  0.260672  0.477939  0.475658  1
  C  C60  1  0.734067  0.938513  0.542748  1
  C  C61  1  0.265933  0.061487  0.457252  1
  C  C62  1  0.616023  0.361508  0.302502  1
  C  C63  1  0.383977  0.638492  0.697498  1
  C  C64  1  0.950000  0.363995  0.292198  1
  C  C65  1  0.050000  0.636005  0.707802  1
  C  C66  1  0.779593  0.121475  0.292692  1
  C  C67  1  0.220407  0.878525  0.707308  1
  C  C68  1  0.785945  0.312311  0.176548  1
  C  C69  1  0.214055  0.687689  0.823452  1
  S  S70  1  0.578832  0.321056  0.852295  1
  S  S71  1  0.421168  0.678944  0.147705  1
  S  S72  1  0.015768  0.232389  0.842140  1
  S  S73  1  0.984232  0.767611  0.157860  1
  S  S74  1  0.958503  0.222894  0.633555  1
  S  S75  1  0.041497  0.777106  0.366445  1
  S  S76  1  0.509998  0.222136  0.647645  1
  S  S77  1  0.490002  0.777864  0.352355  1
  N  N78  1  0.783030  0.289914  0.266140  1
  N  N79  1  0.216970  0.710086  0.733860  1
  Cl  Cl80  1  0.699333  0.906701  0.793066  1
  Cl  Cl81  1  0.300667  0.093299  0.206934  1
  O  O82  1  0.785539  0.246135  0.997249  1
  O  O83  1  0.214461  0.753865  0.002751  1
  O  O84  1  0.876305  0.492134  0.922061  1
  O  O85  1  0.123695  0.507866  0.077939  1
  O  O86  1  0.739142  0.366936  0.502925  1
  O  O87  1  0.260858  0.633064  0.497075  1
  O  O88  1  0.736162  0.097935  0.511367  1
  O  O89  1  0.263838  0.902065  0.488633  1
