# generated using pymatgen
data_InH10N2Cl5O
_symmetry_space_group_name_H-M   'P 1'
_cell_length_a   14.06326512
_cell_length_b   10.25436812
_cell_length_c   7.24004619
_cell_angle_alpha   90.00000000
_cell_angle_beta   90.00000000
_cell_angle_gamma   90.00000000
_symmetry_Int_Tables_number   1
_chemical_formula_structural   InH10N2Cl5O
_chemical_formula_sum   'In4 H40 N8 Cl20 O4'
_cell_volume   1044.08631902
_cell_formula_units_Z   4
loop_
 _symmetry_equiv_pos_site_id
 _symmetry_equiv_pos_as_xyz
  1  'x, y, z'
loop_
 _atom_site_type_symbol
 _atom_site_label
 _atom_site_symmetry_multiplicity
 _atom_site_fract_x
 _atom_site_fract_y
 _atom_site_fract_z
 _atom_site_occupancy
  In  In0  1  0.114983  0.250000  0.191074  1
  In  In1  1  0.385017  0.750000  0.691074  1
  In  In2  1  0.614983  0.250000  0.308926  1
  In  In3  1  0.885017  0.750000  0.808926  1
  H  H4  1  0.036670  0.671565  0.069549  1
  H  H5  1  0.036670  0.828435  0.069549  1
  H  H6  1  0.075340  0.530166  0.669694  1
  H  H7  1  0.075340  0.969834  0.669694  1
  H  H8  1  0.141352  0.106052  0.640451  1
  H  H9  1  0.141352  0.393948  0.640451  1
  H  H10  1  0.176615  0.536929  0.547611  1
  H  H11  1  0.176615  0.963071  0.547611  1
  H  H12  1  0.181235  0.983962  0.776774  1
  H  H13  1  0.181235  0.516038  0.776774  1
  H  H14  1  0.318765  0.016038  0.276774  1
  H  H15  1  0.318765  0.483962  0.276774  1
  H  H16  1  0.323385  0.036929  0.047611  1
  H  H17  1  0.323385  0.463071  0.047611  1
  H  H18  1  0.358648  0.606052  0.140451  1
  H  H19  1  0.358648  0.893948  0.140451  1
  H  H20  1  0.424660  0.030166  0.169694  1
  H  H21  1  0.424660  0.469834  0.169694  1
  H  H22  1  0.463330  0.171565  0.569549  1
  H  H23  1  0.463330  0.328435  0.569549  1
  H  H24  1  0.536670  0.671565  0.430451  1
  H  H25  1  0.536670  0.828435  0.430451  1
  H  H26  1  0.575340  0.530166  0.830306  1
  H  H27  1  0.575340  0.969834  0.830306  1
  H  H28  1  0.641352  0.106052  0.859549  1
  H  H29  1  0.641352  0.393948  0.859549  1
  H  H30  1  0.676615  0.536929  0.952389  1
  H  H31  1  0.676615  0.963071  0.952389  1
  H  H32  1  0.681235  0.516038  0.723226  1
  H  H33  1  0.681235  0.983962  0.723226  1
  H  H34  1  0.818765  0.016038  0.223226  1
  H  H35  1  0.818765  0.483962  0.223226  1
  H  H36  1  0.823385  0.036929  0.452389  1
  H  H37  1  0.823385  0.463071  0.452389  1
  H  H38  1  0.858648  0.606052  0.359549  1
  H  H39  1  0.858648  0.893948  0.359549  1
  H  H40  1  0.924660  0.030166  0.330306  1
  H  H41  1  0.924660  0.469834  0.330306  1
  H  H42  1  0.963330  0.171565  0.930451  1
  H  H43  1  0.963330  0.328435  0.930451  1
  N  N44  1  0.143627  0.005870  0.659028  1
  N  N45  1  0.143627  0.494130  0.659028  1
  N  N46  1  0.356373  0.505870  0.159028  1
  N  N47  1  0.356373  0.994130  0.159028  1
  N  N48  1  0.643627  0.005870  0.840972  1
  N  N49  1  0.643627  0.494130  0.840972  1
  N  N50  1  0.856373  0.505870  0.340972  1
  N  N51  1  0.856373  0.994130  0.340972  1
  Cl  Cl52  1  0.002794  0.250000  0.463928  1
  Cl  Cl53  1  0.103806  0.001439  0.182343  1
  Cl  Cl54  1  0.103806  0.498561  0.182343  1
  Cl  Cl55  1  0.226025  0.250000  0.919029  1
  Cl  Cl56  1  0.245120  0.750000  0.908106  1
  Cl  Cl57  1  0.254880  0.250000  0.408106  1
  Cl  Cl58  1  0.273975  0.750000  0.419029  1
  Cl  Cl59  1  0.396194  0.501439  0.682343  1
  Cl  Cl60  1  0.396194  0.998561  0.682343  1
  Cl  Cl61  1  0.497206  0.750000  0.963928  1
  Cl  Cl62  1  0.502794  0.250000  0.036072  1
  Cl  Cl63  1  0.603806  0.001439  0.317657  1
  Cl  Cl64  1  0.603806  0.498561  0.317657  1
  Cl  Cl65  1  0.726025  0.250000  0.580971  1
  Cl  Cl66  1  0.745120  0.750000  0.591894  1
  Cl  Cl67  1  0.754880  0.250000  0.091894  1
  Cl  Cl68  1  0.773975  0.750000  0.080971  1
  Cl  Cl69  1  0.896194  0.501439  0.817657  1
  Cl  Cl70  1  0.896194  0.998561  0.817657  1
  Cl  Cl71  1  0.997206  0.750000  0.536072  1
  O  O72  1  0.009567  0.750000  0.010474  1
  O  O73  1  0.490433  0.250000  0.510474  1
  O  O74  1  0.509567  0.750000  0.489526  1
  O  O75  1  0.990433  0.250000  0.989526  1
