# generated using pymatgen
data_Ca4Y2Al7Cr2SiO24
_symmetry_space_group_name_H-M   'P 1'
_cell_length_a   10.55798343
_cell_length_b   10.51509466
_cell_length_c   10.53389334
_cell_angle_alpha   109.21564263
_cell_angle_beta   109.74901507
_cell_angle_gamma   109.46362442
_symmetry_Int_Tables_number   1
_chemical_formula_structural   Ca4Y2Al7Cr2SiO24
_chemical_formula_sum   'Ca8 Y4 Al14 Cr4 Si2 O48'
_cell_volume   900.06885540
_cell_formula_units_Z   2
loop_
 _symmetry_equiv_pos_site_id
 _symmetry_equiv_pos_as_xyz
  1  'x, y, z'
loop_
 _atom_site_type_symbol
 _atom_site_label
 _atom_site_symmetry_multiplicity
 _atom_site_fract_x
 _atom_site_fract_y
 _atom_site_fract_z
 _atom_site_occupancy
  Ca  Ca0  1  0.374525  0.752774  0.127204  1
  Ca  Ca1  1  0.245529  0.370080  0.122875  1
  Ca  Ca2  1  0.752980  0.627464  0.877598  1
  Ca  Ca3  1  0.627372  0.249729  0.873955  1
  Ca  Ca4  1  0.372438  0.120826  0.247951  1
  Ca  Ca5  1  0.880103  0.752933  0.624387  1
  Ca  Ca6  1  0.747014  0.121898  0.376437  1
  Ca  Ca7  1  0.877782  0.628218  0.255564  1
  Y  Y8  1  0.252561  0.878526  0.623458  1
  Y  Y9  1  0.119306  0.371673  0.743745  1
  Y  Y10  1  0.117916  0.246206  0.373257  1
  Y  Y11  1  0.630581  0.880234  0.753742  1
  Al  Al12  1  0.244770  0.120439  0.874443  1
  Al  Al13  1  0.248765  0.627038  0.377017  1
  Al  Al14  1  0.371882  0.623152  0.746237  1
  Al  Al15  1  0.000936  0.999845  0.998431  1
  Al  Al16  1  0.372329  0.245803  0.626094  1
  Al  Al17  1  0.629150  0.756468  0.375695  1
  Al  Al18  1  0.501644  0.001342  0.501585  1
  Al  Al19  1  0.751024  0.369913  0.622790  1
  Al  Al20  1  0.630448  0.377697  0.254812  1
  Al  Al21  1  0.754051  0.879990  0.124155  1
  Al  Al22  1  0.874127  0.122777  0.748466  1
  Al  Al23  1  0.997042  0.496462  0.497663  1
  Al  Al24  1  0.877059  0.249147  0.125155  1
  Al  Al25  1  0.996966  0.000593  0.498993  1
  Cr  Cr26  1  0.999807  0.501059  0.002035  1
  Cr  Cr27  1  0.501972  0.499384  0.498662  1
  Cr  Cr28  1  0.501401  0.500351  0.002047  1
  Cr  Cr29  1  0.501801  0.001355  0.001265  1
  Si  Si30  1  0.125008  0.750813  0.873800  1
  Si  Si31  1  0.126629  0.876746  0.252803  1
  O  O32  1  0.105537  0.982887  0.674922  1
  O  O33  1  0.115157  0.606102  0.911177  1
  O  O34  1  0.017403  0.321708  0.896548  1
  O  O35  1  0.091380  0.701601  0.694318  1
  O  O36  1  0.088794  0.888847  0.395849  1
  O  O37  1  0.104773  0.622887  0.429856  1
  O  O38  1  0.179487  0.478646  0.597566  1
  O  O39  1  0.419604  0.819205  0.797263  1
  O  O40  1  0.302345  0.318727  0.914199  1
  O  O41  1  0.380721  0.577346  0.897368  1
  O  O42  1  0.305996  0.913107  0.302282  1
  O  O43  1  0.017801  0.193030  0.120786  1
  O  O44  1  0.179129  0.200638  0.579873  1
  O  O45  1  0.195121  0.580526  0.180049  1
  O  O46  1  0.402416  0.819942  0.520791  1
  O  O47  1  0.303263  0.482841  0.386536  1
  O  O48  1  0.306141  0.891129  0.006546  1
  O  O49  1  0.112159  0.007332  0.201611  1
  O  O50  1  0.397631  0.076720  0.882119  1
  O  O51  1  0.515683  0.618155  0.694080  1
  O  O52  1  0.513038  0.403447  0.821733  1
  O  O53  1  0.382263  0.307508  0.486437  1
  O  O54  1  0.574593  0.897843  0.381838  1
  O  O55  1  0.194905  0.115021  0.016649  1
  O  O56  1  0.802055  0.881272  0.978353  1
  O  O57  1  0.415842  0.096470  0.617641  1
  O  O58  1  0.610271  0.694937  0.514135  1
  O  O59  1  0.487791  0.596264  0.177769  1
  O  O60  1  0.488449  0.389811  0.309462  1
  O  O61  1  0.595617  0.915901  0.108758  1
  O  O62  1  0.881750  0.981154  0.803264  1
  O  O63  1  0.682545  0.097315  0.980655  1
  O  O64  1  0.688206  0.510316  0.611066  1
  O  O65  1  0.595078  0.179906  0.484751  1
  O  O66  1  0.807822  0.425414  0.822276  1
  O  O67  1  0.820677  0.805943  0.418565  1
  O  O68  1  0.680259  0.077519  0.697357  1
  O  O69  1  0.995223  0.800754  0.886719  1
  O  O70  1  0.611098  0.418331  0.098658  1
  O  O71  1  0.690542  0.679821  0.079898  1
  O  O72  1  0.576615  0.179545  0.192194  1
  O  O73  1  0.821467  0.515969  0.404892  1
  O  O74  1  0.905483  0.385246  0.585345  1
  O  O75  1  0.926382  0.119930  0.605082  1
  O  O76  1  0.923952  0.305387  0.320251  1
  O  O77  1  0.993658  0.695821  0.110062  1
  O  O78  1  0.886220  0.401464  0.081385  1
  O  O79  1  0.902741  0.019381  0.318741  1
