# generated using pymatgen
data_Li32Ti3Cr13O48
_symmetry_space_group_name_H-M   'P 1'
_cell_length_a   5.06137839
_cell_length_b   8.73376139
_cell_length_c   19.55836583
_cell_angle_alpha   98.25294296
_cell_angle_beta   94.97986860
_cell_angle_gamma   89.90476799
_symmetry_Int_Tables_number   1
_chemical_formula_structural   Li32Ti3Cr13O48
_chemical_formula_sum   'Li32 Ti3 Cr13 O48'
_cell_volume   852.34063910
_cell_formula_units_Z   1
loop_
 _symmetry_equiv_pos_site_id
 _symmetry_equiv_pos_as_xyz
  1  'x, y, z'
loop_
 _atom_site_type_symbol
 _atom_site_label
 _atom_site_symmetry_multiplicity
 _atom_site_fract_x
 _atom_site_fract_y
 _atom_site_fract_z
 _atom_site_occupancy
  Li  Li0  1  0.984289  0.168399  0.249388  1
  Li  Li1  1  0.874142  0.374133  0.374829  1
  Li  Li2  1  0.749744  0.252121  0.000608  1
  Li  Li3  1  0.742922  0.921135  0.000699  1
  Li  Li4  1  0.991345  0.169330  0.749919  1
  Li  Li5  1  0.752187  0.577321  0.500154  1
  Li  Li6  1  0.872410  0.375396  0.876074  1
  Li  Li7  1  0.749818  0.249894  0.499836  1
  Li  Li8  1  0.747376  0.922688  0.499448  1
  Li  Li9  1  0.626772  0.125406  0.124798  1
  Li  Li10  1  0.757700  0.578600  0.999981  1
  Li  Li11  1  0.510345  0.331142  0.249736  1
  Li  Li12  1  0.626202  0.126335  0.625242  1
  Li  Li13  1  0.501768  0.000144  0.249714  1
  Li  Li14  1  0.493963  0.669659  0.249296  1
  Li  Li15  1  0.516639  0.334212  0.750734  1
  Li  Li16  1  0.372738  0.875371  0.375588  1
  Li  Li17  1  0.500097  0.000157  0.750141  1
  Li  Li18  1  0.255313  0.749000  0.999307  1
  Li  Li19  1  0.482906  0.665671  0.749321  1
  Li  Li20  1  0.243618  0.420142  0.999752  1
  Li  Li21  1  0.373971  0.873991  0.874901  1
  Li  Li22  1  0.255453  0.078583  0.499092  1
  Li  Li23  1  0.250048  0.749599  0.499858  1
  Li  Li24  1  0.123194  0.624222  0.125046  1
  Li  Li25  1  0.244743  0.421772  0.500695  1
  Li  Li26  1  0.009681  0.832325  0.250493  1
  Li  Li27  1  0.253040  0.077929  0.000204  1
  Li  Li28  1  0.127485  0.624366  0.623916  1
  Li  Li29  1  0.001183  0.498036  0.250138  1
  Li  Li30  1  0.008644  0.830704  0.750431  1
  Li  Li31  1  0.000025  0.500290  0.750014  1
  Ti  Ti32  1  0.868319  0.711201  0.873061  1
  Ti  Ti33  1  0.369138  0.211426  0.372980  1
  Ti  Ti34  1  0.131284  0.288570  0.627129  1
  Cr  Cr35  1  0.879435  0.703264  0.375959  1
  Cr  Cr36  1  0.869389  0.038084  0.374367  1
  Cr  Cr37  1  0.880203  0.047707  0.876023  1
  Cr  Cr38  1  0.629213  0.796667  0.125837  1
  Cr  Cr39  1  0.620109  0.461392  0.125366  1
  Cr  Cr40  1  0.620554  0.797084  0.623788  1
  Cr  Cr41  1  0.630917  0.461888  0.625114  1
  Cr  Cr42  1  0.379733  0.547953  0.375239  1
  Cr  Cr43  1  0.368843  0.537844  0.875096  1
  Cr  Cr44  1  0.380342  0.202839  0.876524  1
  Cr  Cr45  1  0.122676  0.952865  0.124284  1
  Cr  Cr46  1  0.129715  0.288434  0.124542  1
  Cr  Cr47  1  0.120441  0.952225  0.624434  1
  O  O48  1  0.964040  0.100956  0.068460  1
  O  O49  1  0.933887  0.786868  0.068719  1
  O  O50  1  0.925911  0.427279  0.068626  1
  O  O51  1  0.965481  0.103772  0.568954  1
  O  O52  1  0.816382  0.963688  0.181308  1
  O  O53  1  0.824077  0.323279  0.181388  1
  O  O54  1  0.935416  0.787847  0.568566  1
  O  O55  1  0.919420  0.428964  0.567614  1
  O  O56  1  0.785310  0.649451  0.181702  1
  O  O57  1  0.715639  0.858844  0.319832  1
  O  O58  1  0.813813  0.958874  0.681308  1
  O  O59  1  0.827269  0.321015  0.684074  1
  O  O60  1  0.687076  0.541088  0.318675  1
  O  O61  1  0.672817  0.178770  0.315799  1
  O  O62  1  0.782175  0.641186  0.679888  1
  O  O63  1  0.712318  0.860400  0.818476  1
  O  O64  1  0.468761  0.604351  0.069424  1
  O  O65  1  0.564801  0.712282  0.431239  1
  O  O66  1  0.580157  0.070809  0.432104  1
  O  O67  1  0.674143  0.533017  0.819068  1
  O  O68  1  0.686760  0.174393  0.818265  1
  O  O69  1  0.433070  0.922339  0.067775  1
  O  O70  1  0.416227  0.283307  0.068760  1
  O  O71  1  0.534895  0.396234  0.430981  1
  O  O72  1  0.462029  0.611775  0.568568  1
  O  O73  1  0.568218  0.712344  0.931171  1
  O  O74  1  0.566449  0.074191  0.933081  1
  O  O75  1  0.317680  0.827195  0.182243  1
  O  O76  1  0.333557  0.466661  0.181322  1
  O  O77  1  0.433836  0.925490  0.567288  1
  O  O78  1  0.431941  0.287387  0.569069  1
  O  O79  1  0.537134  0.387943  0.931678  1
  O  O80  1  0.280538  0.145085  0.180626  1
  O  O81  1  0.213090  0.360505  0.318138  1
  O  O82  1  0.313347  0.825535  0.682077  1
  O  O83  1  0.325762  0.467120  0.681136  1
  O  O84  1  0.186673  0.674613  0.317612  1
  O  O85  1  0.173547  0.032720  0.318545  1
  O  O86  1  0.287728  0.139763  0.681871  1
  O  O87  1  0.217719  0.358911  0.820298  1
  O  O88  1  0.066318  0.574699  0.432464  1
  O  O89  1  0.068161  0.212604  0.430788  1
  O  O90  1  0.172607  0.679106  0.816205  1
  O  O91  1  0.186092  0.041288  0.818966  1
  O  O92  1  0.037609  0.888511  0.431111  1
  O  O93  1  0.080814  0.571243  0.932707  1
  O  O94  1  0.064340  0.212559  0.931565  1
  O  O95  1  0.034894  0.896222  0.931371  1
