# generated using pymatgen
data_LiCu2(PO3)5
_symmetry_space_group_name_H-M   'P 1'
_cell_length_a   12.17235897
_cell_length_b   8.92785738
_cell_length_c   5.62101247
_cell_angle_alpha   90.00000000
_cell_angle_beta   90.52352100
_cell_angle_gamma   90.00000000
_symmetry_Int_Tables_number   1
_chemical_formula_structural   LiCu2(PO3)5
_chemical_formula_sum   'Li2 Cu4 P10 O30'
_cell_volume   610.82726644
_cell_formula_units_Z   2
loop_
 _symmetry_equiv_pos_site_id
 _symmetry_equiv_pos_as_xyz
  1  'x, y, z'
loop_
 _atom_site_type_symbol
 _atom_site_label
 _atom_site_symmetry_multiplicity
 _atom_site_fract_x
 _atom_site_fract_y
 _atom_site_fract_z
 _atom_site_occupancy
  Li  Li0  1  0.462507  0.010831  0.556829  1
  Li  Li1  1  0.962507  0.989169  0.056829  1
  Cu  Cu2  1  0.069050  0.697214  0.208024  1
  Cu  Cu3  1  0.436863  0.703924  0.306404  1
  Cu  Cu4  1  0.569050  0.302786  0.708024  1
  Cu  Cu5  1  0.936863  0.296076  0.806404  1
  P  P6  1  0.085407  0.174918  0.407201  1
  P  P7  1  0.144264  0.467210  0.603057  1
  P  P8  1  0.249766  0.947856  0.252131  1
  P  P9  1  0.357730  0.467976  0.899253  1
  P  P10  1  0.413048  0.169940  0.086527  1
  P  P11  1  0.585407  0.825082  0.907201  1
  P  P12  1  0.644264  0.532790  0.103057  1
  P  P13  1  0.749766  0.052144  0.752131  1
  P  P14  1  0.857730  0.532024  0.399253  1
  P  P15  1  0.913048  0.830060  0.586527  1
  O  O16  1  0.027860  0.163705  0.172879  1
  O  O17  1  0.027202  0.149353  0.638723  1
  O  O18  1  0.045486  0.456043  0.766265  1
  O  O19  1  0.143519  0.337185  0.407183  1
  O  O20  1  0.169330  0.854803  0.110368  1
  O  O21  1  0.163944  0.612678  0.476220  1
  O  O22  1  0.190229  0.061983  0.429285  1
  O  O23  1  0.251843  0.420060  0.747219  1
  O  O24  1  0.307145  0.059169  0.066496  1
  O  O25  1  0.337507  0.611199  0.028585  1
  O  O26  1  0.335674  0.868086  0.404345  1
  O  O27  1  0.357910  0.333991  0.088888  1
  O  O28  1  0.457074  0.457596  0.736533  1
  O  O29  1  0.468090  0.145750  0.849247  1
  O  O30  1  0.472952  0.156999  0.317337  1
  O  O31  1  0.527860  0.836295  0.672879  1
  O  O32  1  0.527202  0.850647  0.138723  1
  O  O33  1  0.545486  0.543957  0.266265  1
  O  O34  1  0.643519  0.662815  0.907183  1
  O  O35  1  0.669330  0.145197  0.610368  1
  O  O36  1  0.663944  0.387322  0.976220  1
  O  O37  1  0.690229  0.938017  0.929285  1
  O  O38  1  0.751843  0.579940  0.247219  1
  O  O39  1  0.807145  0.940831  0.566496  1
  O  O40  1  0.837507  0.388801  0.528585  1
  O  O41  1  0.835674  0.131914  0.904345  1
  O  O42  1  0.857910  0.666009  0.588888  1
  O  O43  1  0.957075  0.542404  0.236533  1
  O  O44  1  0.968090  0.854250  0.349247  1
  O  O45  1  0.972952  0.843001  0.817337  1
