# generated using pymatgen
data_Cr3H24C8(NO5)2
_symmetry_space_group_name_H-M   'P 1'
_cell_length_a   11.61453809
_cell_length_b   8.66782876
_cell_length_c   20.56256303
_cell_angle_alpha   90.00000000
_cell_angle_beta   104.04268914
_cell_angle_gamma   90.00000000
_symmetry_Int_Tables_number   1
_chemical_formula_structural   Cr3H24C8(NO5)2
_chemical_formula_sum   'Cr12 H96 C32 N8 O40'
_cell_volume   2008.22710919
_cell_formula_units_Z   4
loop_
 _symmetry_equiv_pos_site_id
 _symmetry_equiv_pos_as_xyz
  1  'x, y, z'
loop_
 _atom_site_type_symbol
 _atom_site_label
 _atom_site_symmetry_multiplicity
 _atom_site_fract_x
 _atom_site_fract_y
 _atom_site_fract_z
 _atom_site_occupancy
  Cr  Cr0  1  0.703411  0.264795  0.340293  1
  Cr  Cr1  1  0.203411  0.235205  0.840293  1
  Cr  Cr2  1  0.296589  0.735205  0.659707  1
  Cr  Cr3  1  0.796589  0.764795  0.159707  1
  Cr  Cr4  1  0.563988  0.235636  0.462085  1
  Cr  Cr5  1  0.063988  0.264364  0.962085  1
  Cr  Cr6  1  0.436012  0.764364  0.537915  1
  Cr  Cr7  1  0.936012  0.735636  0.037915  1
  Cr  Cr8  1  0.259685  0.261901  0.420564  1
  Cr  Cr9  1  0.759685  0.238099  0.920564  1
  Cr  Cr10  1  0.740315  0.738099  0.579436  1
  Cr  Cr11  1  0.240315  0.761901  0.079436  1
  H  H12  1  0.463000  0.976825  0.316647  1
  H  H13  1  0.963000  0.523175  0.816647  1
  H  H14  1  0.537000  0.023175  0.683353  1
  H  H15  1  0.037000  0.476825  0.183353  1
  H  H16  1  0.367896  0.862620  0.353943  1
  H  H17  1  0.867896  0.637380  0.853943  1
  H  H18  1  0.632104  0.137380  0.646057  1
  H  H19  1  0.132104  0.362620  0.146057  1
  H  H20  1  0.338042  0.879020  0.263710  1
  H  H21  1  0.838042  0.620980  0.763710  1
  H  H22  1  0.661958  0.120980  0.736290  1
  H  H23  1  0.161958  0.379020  0.236290  1
  H  H24  1  0.032864  0.249873  0.297098  1
  H  H25  1  0.532864  0.250127  0.797098  1
  H  H26  1  0.967136  0.750127  0.702902  1
  H  H27  1  0.467136  0.749873  0.202902  1
  H  H28  1  0.907873  0.139876  0.251221  1
  H  H29  1  0.407873  0.360124  0.751221  1
  H  H30  1  0.092127  0.860124  0.748779  1
  H  H31  1  0.592127  0.639876  0.248779  1
  H  H32  1  0.906050  0.347026  0.245798  1
  H  H33  1  0.406050  0.152974  0.745798  1
  H  H34  1  0.093950  0.652974  0.754202  1
  H  H35  1  0.593950  0.847026  0.254202  1
  H  H36  1  0.343158  0.591977  0.254632  1
  H  H37  1  0.843158  0.908023  0.754632  1
  H  H38  1  0.656842  0.408023  0.745368  1
  H  H39  1  0.156842  0.091977  0.245368  1
  H  H40  1  0.364840  0.589632  0.344593  1
  H  H41  1  0.864840  0.910368  0.844593  1
  H  H42  1  0.635160  0.410368  0.655407  1
  H  H43  1  0.135160  0.089632  0.155407  1
  H  H44  1  0.467046  0.490665  0.306464  1
  H  H45  1  0.967046  0.009335  0.806464  1
  H  H46  1  0.532954  0.509335  0.693536  1
  H  H47  1  0.032954  0.990665  0.193536  1
  H  H48  1  0.632543  0.835027  0.374886  1
  H  H49  1  0.132543  0.664973  0.874886  1
  H  H50  1  0.367457  0.164973  0.625114  1
  H  H51  1  0.867457  0.335027  0.125114  1
  H  H52  1  0.636200  0.627117  0.369052  1
  H  H53  1  0.136200  0.872883  0.869052  1
  H  H54  1  0.363800  0.372883  0.630948  1
  H  H55  1  0.863800  0.127117  0.130948  1
  H  H56  1  0.540947  0.719104  0.414175  1
  H  H57  1  0.040947  0.780896  0.914175  1
  H  H58  1  0.459053  0.280896  0.585825  1
  H  H59  1  0.959053  0.219104  0.085825  1
  H  H60  1  0.986250  0.994126  0.399270  1
  H  H61  1  0.486250  0.505874  0.899270  1
  H  H62  1  0.013750  0.005874  0.600730  1
  H  H63  1  0.513750  0.494126  0.100730  1
  H  H64  1  0.873398  0.887149  0.426305  1
  H  H65  1  0.373398  0.612851  0.926305  1
  H  H66  1  0.126602  0.112851  0.573695  1
  H  H67  1  0.626602  0.387149  0.073695  1
  H  H68  1  0.872893  0.896326  0.338566  1
  H  H69  1  0.372893  0.603674  0.838566  1
  H  H70  1  0.127107  0.103674  0.661434  1
  H  H71  1  0.627107  0.396326  0.161434  1
  H  H72  1  0.871155  0.604548  0.418599  1
  H  H73  1  0.371155  0.895452  0.918599  1
  H  H74  1  0.128845  0.395452  0.581401  1
  H  H75  1  0.628845  0.104548  0.081401  1
  H  H76  1  0.984151  0.507092  0.387809  1
  H  H77  1  0.484151  0.992908  0.887809  1
  H  H78  1  0.015849  0.492908  0.612191  1
  H  H79  1  0.515849  0.007092  0.112191  1
  H  H80  1  0.872679  0.617417  0.331295  1
  H  H81  1  0.372679  0.882583  0.831295  1
  H  H82  1  0.127321  0.382583  0.668705  1
  H  H83  1  0.627321  0.117417  0.168705  1
  H  H84  1  0.027036  0.770517  0.299085  1
  H  H85  1  0.527036  0.729483  0.799085  1
  H  H86  1  0.972964  0.229483  0.700915  1
  H  H87  1  0.472964  0.270517  0.200915  1
  H  H88  1  0.134587  0.649919  0.354279  1
  H  H89  1  0.634587  0.850081  0.854279  1
  H  H90  1  0.865413  0.350081  0.645721  1
  H  H91  1  0.365413  0.149919  0.145721  1
  H  H92  1  0.143015  0.857474  0.363219  1
  H  H93  1  0.643015  0.642526  0.863219  1
  H  H94  1  0.856985  0.142526  0.636781  1
  H  H95  1  0.356985  0.357474  0.136781  1
  H  H96  1  0.979997  0.268240  0.497496  1
  H  H97  1  0.479997  0.231760  0.997496  1
  H  H98  1  0.020003  0.731760  0.502504  1
  H  H99  1  0.520003  0.768240  0.002504  1
  H  H100  1  0.862363  0.359076  0.527015  1
  H  H101  1  0.362363  0.140924  0.027015  1
  H  H102  1  0.137637  0.640924  0.472985  1
  H  H103  1  0.637637  0.859076  0.972985  1
  H  H104  1  0.867564  0.153384  0.520784  1
  H  H105  1  0.367564  0.346616  0.020784  1
  H  H106  1  0.132436  0.846616  0.479216  1
  H  H107  1  0.632436  0.653384  0.979216  1
  C  C108  1  0.406972  0.873635  0.310703  1
  C  C109  1  0.906972  0.626365  0.810703  1
  C  C110  1  0.593028  0.126365  0.689297  1
  C  C111  1  0.093028  0.373635  0.189297  1
  C  C112  1  0.961840  0.243636  0.251106  1
  C  C113  1  0.461840  0.256364  0.751106  1
  C  C114  1  0.038160  0.756364  0.748894  1
  C  C115  1  0.538160  0.743636  0.248894  1
  C  C116  1  0.408727  0.591193  0.303066  1
  C  C117  1  0.908727  0.908807  0.803066  1
  C  C118  1  0.591273  0.408807  0.696934  1
  C  C119  1  0.091273  0.091193  0.196934  1
  C  C120  1  0.581036  0.728354  0.371398  1
  C  C121  1  0.081036  0.771646  0.871398  1
  C  C122  1  0.418964  0.271646  0.628602  1
  C  C123  1  0.918964  0.228354  0.128602  1
  C  C124  1  0.928407  0.892674  0.389935  1
  C  C125  1  0.428407  0.607326  0.889935  1
  C  C126  1  0.071593  0.107326  0.610065  1
  C  C127  1  0.571593  0.392674  0.110065  1
  C  C128  1  0.927209  0.609304  0.382756  1
  C  C129  1  0.427209  0.890696  0.882756  1
  C  C130  1  0.072791  0.390696  0.617244  1
  C  C131  1  0.572791  0.109304  0.117244  1
  C  C132  1  0.083815  0.757732  0.349836  1
  C  C133  1  0.583815  0.742268  0.849836  1
  C  C134  1  0.916185  0.242268  0.650164  1
  C  C135  1  0.416185  0.257732  0.150164  1
  C  C136  1  0.920960  0.258602  0.531520  1
  C  C137  1  0.420960  0.241398  0.031520  1
  C  C138  1  0.079040  0.741398  0.468480  1
  C  C139  1  0.579040  0.758602  0.968480  1
  N  N140  1  0.483418  0.734421  0.308199  1
  N  N141  1  0.983418  0.765579  0.808199  1
  N  N142  1  0.516582  0.265579  0.691801  1
  N  N143  1  0.016582  0.234421  0.191801  1
  N  N144  1  0.995408  0.249740  0.602258  1
  N  N145  1  0.495408  0.250260  0.102258  1
  N  N146  1  0.004592  0.750260  0.397742  1
  N  N147  1  0.504592  0.749740  0.897742  1
  O  O148  1  0.843534  0.240518  0.375346  1
  O  O149  1  0.343534  0.259482  0.875346  1
  O  O150  1  0.156466  0.759482  0.624654  1
  O  O151  1  0.656466  0.740518  0.124654  1
  O  O152  1  0.684909  0.401401  0.284101  1
  O  O153  1  0.184909  0.098599  0.784101  1
  O  O154  1  0.315091  0.598599  0.715899  1
  O  O155  1  0.815091  0.901401  0.215899  1
  O  O156  1  0.628318  0.329022  0.404336  1
  O  O157  1  0.128318  0.170978  0.904336  1
  O  O158  1  0.371682  0.670978  0.595664  1
  O  O159  1  0.871682  0.829022  0.095664  1
  O  O160  1  0.636624  0.278082  0.537221  1
  O  O161  1  0.136624  0.221918  0.037221  1
  O  O162  1  0.363376  0.721918  0.462779  1
  O  O163  1  0.863376  0.778082  0.962779  1
  O  O164  1  0.206010  0.403502  0.369909  1
  O  O165  1  0.706010  0.096498  0.869909  1
  O  O166  1  0.793990  0.596498  0.630091  1
  O  O167  1  0.293990  0.903502  0.130091  1
  O  O168  1  0.418750  0.297288  0.451066  1
  O  O169  1  0.918750  0.202712  0.951066  1
  O  O170  1  0.581250  0.702712  0.548934  1
  O  O171  1  0.081250  0.797288  0.048934  1
  O  O172  1  0.233043  0.099638  0.380092  1
  O  O173  1  0.733043  0.400362  0.880092  1
  O  O174  1  0.766957  0.900362  0.619908  1
  O  O175  1  0.266957  0.599638  0.119908  1
  O  O176  1  0.644555  0.105015  0.306235  1
  O  O177  1  0.144555  0.394985  0.806235  1
  O  O178  1  0.355445  0.894985  0.693765  1
  O  O179  1  0.855445  0.605015  0.193765  1
  O  O180  1  0.569984  0.053777  0.450887  1
  O  O181  1  0.069984  0.446223  0.950887  1
  O  O182  1  0.430016  0.946223  0.549113  1
  O  O183  1  0.930016  0.553777  0.049113  1
  O  O184  1  0.201018  0.262035  0.484978  1
  O  O185  1  0.701018  0.237965  0.984978  1
  O  O186  1  0.798982  0.737965  0.515022  1
  O  O187  1  0.298982  0.762035  0.015022  1
