# generated using pymatgen
data_Na3Zr3Fe(PO4)6
_symmetry_space_group_name_H-M   'P 1'
_cell_length_a   9.26446466
_cell_length_b   9.25113646
_cell_length_c   18.55955492
_cell_angle_alpha   57.40647619
_cell_angle_beta   57.43125717
_cell_angle_gamma   57.30888348
_symmetry_Int_Tables_number   1
_chemical_formula_structural   Na3Zr3Fe(PO4)6
_chemical_formula_sum   'Na6 Zr6 Fe2 P12 O48'
_cell_volume   1057.01637925
_cell_formula_units_Z   2
loop_
 _symmetry_equiv_pos_site_id
 _symmetry_equiv_pos_as_xyz
  1  'x, y, z'
loop_
 _atom_site_type_symbol
 _atom_site_label
 _atom_site_symmetry_multiplicity
 _atom_site_fract_x
 _atom_site_fract_y
 _atom_site_fract_z
 _atom_site_occupancy
  Na  Na0  1  0.976885  0.005843  0.011620  1
  Na  Na1  1  0.002415  0.026554  0.489840  1
  Na  Na2  1  0.500240  0.500111  0.249872  1
  Na  Na3  1  0.497606  0.494498  0.750715  1
  Na  Na4  1  0.268464  0.916700  0.819570  1
  Na  Na5  1  0.913939  0.643961  0.634309  1
  Zr  Zr6  1  0.149502  0.149131  0.069211  1
  Zr  Zr7  1  0.353986  0.355058  0.175915  1
  Zr  Zr8  1  0.144526  0.142202  0.575748  1
  Zr  Zr9  1  0.646542  0.644497  0.324175  1
  Zr  Zr10  1  0.851929  0.853650  0.426834  1
  Zr  Zr11  1  0.848522  0.855412  0.925617  1
  Fe  Fe12  1  0.357473  0.353398  0.676379  1
  Fe  Fe13  1  0.651839  0.642634  0.828902  1
  P  P14  1  0.040657  0.751462  0.229091  1
  P  P15  1  0.457473  0.042143  0.375051  1
  P  P16  1  0.749175  0.460361  0.017943  1
  P  P17  1  0.252100  0.534853  0.483639  1
  P  P18  1  0.541079  0.957782  0.125086  1
  P  P19  1  0.042335  0.740589  0.730586  1
  P  P20  1  0.960254  0.249106  0.269331  1
  P  P21  1  0.458723  0.042049  0.870536  1
  P  P22  1  0.743162  0.457737  0.523784  1
  P  P23  1  0.256546  0.544658  0.976172  1
  P  P24  1  0.540443  0.963417  0.628161  1
  P  P25  1  0.961293  0.257959  0.769663  1
  O  O26  1  0.123306  0.280951  0.253905  1
  O  O27  1  0.281269  0.510042  0.060596  1
  O  O28  1  0.064475  0.919572  0.140883  1
  O  O29  1  0.509142  0.121992  0.140698  1
  O  O30  1  0.217994  0.583146  0.217569  1
  O  O31  1  0.006461  0.783424  0.311401  1
  O  O32  1  0.281024  0.065750  0.459042  1
  O  O33  1  0.434863  0.218803  0.291003  1
  O  O34  1  0.582153  0.436000  0.106658  1
  O  O35  1  0.220190  0.372976  0.497154  1
  O  O36  1  0.078861  0.711709  0.471684  1
  O  O37  1  0.377751  0.992646  0.108065  1
  O  O38  1  0.621013  0.008539  0.391911  1
  O  O39  1  0.134154  0.271320  0.754768  1
  O  O40  1  0.917373  0.283080  0.030965  1
  O  O41  1  0.781741  0.623287  0.002949  1
  O  O42  1  0.417584  0.562881  0.394598  1
  O  O43  1  0.269314  0.508480  0.567876  1
  O  O44  1  0.564126  0.781393  0.209120  1
  O  O45  1  0.065212  0.912908  0.642949  1
  O  O46  1  0.718177  0.933746  0.041016  1
  O  O47  1  0.505366  0.131764  0.640378  1
  O  O48  1  0.217301  0.572994  0.718421  1
  O  O49  1  0.994918  0.216784  0.187358  1
  O  O50  1  0.009362  0.777912  0.811606  1
  O  O51  1  0.782859  0.417221  0.281639  1
  O  O52  1  0.491823  0.878348  0.358682  1
  O  O53  1  0.283658  0.065457  0.956523  1
  O  O54  1  0.935725  0.081447  0.358313  1
  O  O55  1  0.435070  0.217957  0.787462  1
  O  O56  1  0.718282  0.493018  0.438940  1
  O  O57  1  0.574505  0.436596  0.610338  1
  O  O58  1  0.220912  0.381793  0.993307  1
  O  O59  1  0.088914  0.725615  0.961819  1
  O  O60  1  0.877525  0.718727  0.245574  1
  O  O61  1  0.377563  0.992087  0.611613  1
  O  O62  1  0.622585  0.006951  0.888494  1
  O  O63  1  0.914923  0.282048  0.534204  1
  O  O64  1  0.779570  0.621724  0.506177  1
  O  O65  1  0.422906  0.573328  0.887811  1
  O  O66  1  0.562130  0.786873  0.713506  1
  O  O67  1  0.722305  0.927314  0.545917  1
  O  O68  1  0.990461  0.225312  0.687977  1
  O  O69  1  0.788948  0.432166  0.777274  1
  O  O70  1  0.488717  0.873382  0.858815  1
  O  O71  1  0.935962  0.085441  0.857044  1
  O  O72  1  0.718499  0.491822  0.936488  1
  O  O73  1  0.873409  0.716628  0.746170  1
