# generated using pymatgen
data_Be4Si2H2O9
_symmetry_space_group_name_H-M   'P 1'
_cell_length_a   8.86139546
_cell_length_b   8.86139546
_cell_length_c   4.61009657
_cell_angle_alpha   90.00000000
_cell_angle_beta   90.00000000
_cell_angle_gamma   59.42808078
_symmetry_Int_Tables_number   1
_chemical_formula_structural   Be4Si2H2O9
_chemical_formula_sum   'Be8 Si4 H4 O18'
_cell_volume   311.68297164
_cell_formula_units_Z   2
loop_
 _symmetry_equiv_pos_site_id
 _symmetry_equiv_pos_as_xyz
  1  'x, y, z'
loop_
 _atom_site_type_symbol
 _atom_site_label
 _atom_site_symmetry_multiplicity
 _atom_site_fract_x
 _atom_site_fract_y
 _atom_site_fract_z
 _atom_site_occupancy
  Be  Be0  1  0.879762  0.224961  0.005134  1
  Be  Be1  1  0.224961  0.879762  0.005134  1
  Be  Be2  1  0.120238  0.775039  0.505134  1
  Be  Be3  1  0.775039  0.120238  0.505134  1
  Be  Be4  1  0.894132  0.545398  0.001848  1
  Be  Be5  1  0.545398  0.894132  0.001848  1
  Be  Be6  1  0.105868  0.454602  0.501848  1
  Be  Be7  1  0.454602  0.105868  0.501848  1
  Si  Si8  1  0.210569  0.560845  0.002165  1
  Si  Si9  1  0.560845  0.210569  0.002165  1
  Si  Si10  1  0.789431  0.439155  0.502165  1
  Si  Si11  1  0.439155  0.789431  0.502165  1
  H  H12  1  0.863184  0.863184  0.318690  1
  H  H13  1  0.136816  0.136816  0.818690  1
  H  H14  1  0.801878  0.801878  0.808077  1
  H  H15  1  0.198122  0.198122  0.308077  1
  O  O16  1  0.164498  0.586724  0.350401  1
  O  O17  1  0.586724  0.164498  0.350401  1
  O  O18  1  0.835502  0.413276  0.850401  1
  O  O19  1  0.413276  0.835502  0.850401  1
  O  O20  1  0.166806  0.747707  0.854258  1
  O  O21  1  0.747707  0.166806  0.854258  1
  O  O22  1  0.833194  0.252293  0.354258  1
  O  O23  1  0.252293  0.833194  0.354258  1
  O  O24  1  0.082587  0.498531  0.850602  1
  O  O25  1  0.498531  0.082587  0.850602  1
  O  O26  1  0.917413  0.501469  0.350602  1
  O  O27  1  0.501469  0.917413  0.350602  1
  O  O28  1  0.584372  0.584372  0.439854  1
  O  O29  1  0.415628  0.415628  0.939854  1
  O  O30  1  0.913115  0.913115  0.449575  1
  O  O31  1  0.086885  0.086885  0.949575  1
  O  O32  1  0.753387  0.753387  0.942789  1
  O  O33  1  0.246613  0.246613  0.442789  1
