# generated using pymatgen
data_Cr8Bi4O29
_symmetry_space_group_name_H-M   'P 1'
_cell_length_a   13.36490326
_cell_length_b   18.75398027
_cell_length_c   5.06886813
_cell_angle_alpha   93.40194825
_cell_angle_beta   89.08052368
_cell_angle_gamma   84.44659333
_symmetry_Int_Tables_number   1
_chemical_formula_structural   Cr8Bi4O29
_chemical_formula_sum   'Cr16 Bi8 O58'
_cell_volume   1261.99206208
_cell_formula_units_Z   2
loop_
 _symmetry_equiv_pos_site_id
 _symmetry_equiv_pos_as_xyz
  1  'x, y, z'
loop_
 _atom_site_type_symbol
 _atom_site_label
 _atom_site_symmetry_multiplicity
 _atom_site_fract_x
 _atom_site_fract_y
 _atom_site_fract_z
 _atom_site_occupancy
  Cr  Cr0  1  0.110718  0.541630  0.783955  1
  Cr  Cr1  1  0.889282  0.458370  0.216045  1
  Cr  Cr2  1  0.887546  0.952006  0.736566  1
  Cr  Cr3  1  0.112454  0.047994  0.263434  1
  Cr  Cr4  1  0.608625  0.043398  0.799036  1
  Cr  Cr5  1  0.391375  0.956602  0.200964  1
  Cr  Cr6  1  0.388902  0.454179  0.724972  1
  Cr  Cr7  1  0.611098  0.545821  0.275028  1
  Cr  Cr8  1  0.617745  0.755607  0.700997  1
  Cr  Cr9  1  0.382255  0.244393  0.299003  1
  Cr  Cr10  1  0.120498  0.256915  0.678567  1
  Cr  Cr11  1  0.879502  0.743085  0.321433  1
  Cr  Cr12  1  0.878173  0.233238  0.830081  1
  Cr  Cr13  1  0.121827  0.766762  0.169919  1
  Cr  Cr14  1  0.378737  0.731891  0.705446  1
  Cr  Cr15  1  0.621263  0.268109  0.294554  1
  Bi  Bi16  1  0.806816  0.596895  0.775542  1
  Bi  Bi17  1  0.193184  0.403105  0.224458  1
  Bi  Bi18  1  0.305397  0.098101  0.763014  1
  Bi  Bi19  1  0.694603  0.901899  0.236986  1
  Bi  Bi20  1  0.301955  0.591158  0.269529  1
  Bi  Bi21  1  0.698045  0.408842  0.730471  1
  Bi  Bi22  1  0.796124  0.089870  0.312963  1
  Bi  Bi23  1  0.203876  0.910130  0.687037  1
  O  O24  1  0.681496  0.523473  0.552686  1
  O  O25  1  0.318504  0.476527  0.447314  1
  O  O26  1  0.501348  0.417948  0.632943  1
  O  O27  1  0.498652  0.582052  0.367057  1
  O  O28  1  0.329093  0.399551  0.903060  1
  O  O29  1  0.670906  0.600449  0.096940  1
  O  O30  1  0.822581  0.898880  0.909897  1
  O  O31  1  0.177419  0.101120  0.090103  1
  O  O32  1  0.321718  0.970880  0.917782  1
  O  O33  1  0.678282  0.029120  0.082218  1
  O  O34  1  0.110557  0.462429  0.620809  1
  O  O35  1  0.889443  0.537571  0.379191  1
  O  O36  1  0.815689  0.472982  0.935722  1
  O  O37  1  0.184311  0.527018  0.064278  1
  O  O38  1  0.608963  0.964530  0.635351  1
  O  O39  1  0.391037  0.035470  0.364649  1
  O  O40  1  0.818317  0.976171  0.453818  1
  O  O41  1  0.181683  0.023829  0.546182  1
  O  O42  1  0.662967  0.098430  0.609925  1
  O  O43  1  0.337033  0.901570  0.390075  1
  O  O44  1  0.999395  0.913214  0.651082  1
  O  O45  1  0.000605  0.086786  0.348918  1
  O  O46  1  0.897566  0.026011  0.918059  1
  O  O47  1  0.102434  0.973989  0.081941  1
  O  O48  1  0.398095  0.528868  0.910950  1
  O  O49  1  0.601905  0.471132  0.089050  1
  O  O50  1  0.163194  0.597079  0.596677  1
  O  O51  1  0.836806  0.402921  0.403322  1
  O  O52  1  0.691202  0.682037  0.598990  1
  O  O53  1  0.308798  0.317963  0.401010  1
  O  O54  1  0.195383  0.182522  0.587072  1
  O  O55  1  0.804617  0.817478  0.412928  1
  O  O56  1  0.995526  0.573874  0.870011  1
  O  O57  1  0.004474  0.426126  0.129989  1
  O  O58  1  0.493548  0.077916  0.875405  1
  O  O59  1  0.506452  0.922084  0.124595  1
  O  O60  1  0.311073  0.806522  0.824089  1
  O  O61  1  0.688927  0.193478  0.175911  1
  O  O62  1  0.822347  0.316759  0.830183  1
  O  O63  1  0.177653  0.683241  0.169817  1
  O  O64  1  0.597242  0.807777  0.458169  1
  O  O65  1  0.402758  0.192223  0.541831  1
  O  O66  1  0.503888  0.729253  0.820410  1
  O  O67  1  0.496111  0.270747  0.179590  1
  O  O68  1  0.093430  0.303158  0.421245  1
  O  O69  1  0.906570  0.696842  0.578755  1
  O  O70  1  0.670687  0.799578  0.941126  1
  O  O71  1  0.329313  0.200422  0.058874  1
  O  O72  1  0.172283  0.308770  0.900000  1
  O  O73  1  0.827717  0.691230  0.100000  1
  O  O74  1  0.015630  0.228226  0.824658  1
  O  O75  1  0.984370  0.771774  0.175342  1
  O  O76  1  0.329489  0.660817  0.803366  1
  O  O77  1  0.670511  0.339183  0.196634  1
  O  O78  1  0.834721  0.155165  0.731334  1
  O  O79  1  0.165279  0.844835  0.268666  1
  O  O80  1  0.623172  0.273190  0.614314  1
  O  O81  1  0.376828  0.726810  0.385686  1
