# generated using pymatgen
data_LiMnCo3O8
_symmetry_space_group_name_H-M   'P 1'
_cell_length_a   5.95000399
_cell_length_b   5.67341305
_cell_length_c   5.67341326
_cell_angle_alpha   59.78818918
_cell_angle_beta   62.35878880
_cell_angle_gamma   90.56003908
_symmetry_Int_Tables_number   1
_chemical_formula_structural   LiMnCo3O8
_chemical_formula_sum   'Li1 Mn1 Co3 O8'
_cell_volume   139.01750618
_cell_formula_units_Z   1
loop_
 _symmetry_equiv_pos_site_id
 _symmetry_equiv_pos_as_xyz
  1  'x, y, z'
loop_
 _atom_site_type_symbol
 _atom_site_label
 _atom_site_symmetry_multiplicity
 _atom_site_fract_x
 _atom_site_fract_y
 _atom_site_fract_z
 _atom_site_occupancy
  Li  Li0  1  0.500000  0.000000  0.500000  1
  Mn  Mn1  1  0.000000  0.000000  0.000000  1
  Co  Co2  1  0.000000  0.500000  0.000000  1
  Co  Co3  1  0.000000  0.500000  0.500000  1
  Co  Co4  1  0.000000  0.000000  0.500000  1
  O  O5  1  0.196906  0.732258  0.030422  1
  O  O6  1  0.192452  0.235682  0.043229  1
  O  O7  1  0.194208  0.736013  0.541806  1
  O  O8  1  0.196906  0.227328  0.535353  1
  O  O9  1  0.803094  0.772673  0.464647  1
  O  O10  1  0.805792  0.263987  0.458194  1
  O  O11  1  0.807548  0.764318  0.956771  1
  O  O12  1  0.803094  0.267742  0.969578  1
