# generated using pymatgen
data_Li2Ni3BiO8
_symmetry_space_group_name_H-M   'P 1'
_cell_length_a   8.44027485
_cell_length_b   8.44107394
_cell_length_c   8.44098967
_cell_angle_alpha   89.99863833
_cell_angle_beta   90.00287145
_cell_angle_gamma   90.00349431
_symmetry_Int_Tables_number   1
_chemical_formula_structural   Li2Ni3BiO8
_chemical_formula_sum   'Li8 Ni12 Bi4 O32'
_cell_volume   601.37817295
_cell_formula_units_Z   4
loop_
 _symmetry_equiv_pos_site_id
 _symmetry_equiv_pos_as_xyz
  1  'x, y, z'
loop_
 _atom_site_type_symbol
 _atom_site_label
 _atom_site_symmetry_multiplicity
 _atom_site_fract_x
 _atom_site_fract_y
 _atom_site_fract_z
 _atom_site_occupancy
  Li  Li0  1  0.999674  -0.000247  -0.000228  1
  Li  Li1  1  0.250310  0.250227  0.250306  1
  Li  Li2  1  0.249779  0.749667  0.750273  1
  Li  Li3  1  0.500253  0.000354  0.499719  1
  Li  Li4  1  0.499640  0.500392  0.000358  1
  Li  Li5  1  0.750324  0.249658  0.749625  1
  Li  Li6  1  0.749750  0.750248  0.249675  1
  Li  Li7  1  0.000293  0.499734  0.500310  1
  Ni  Ni8  1  0.115391  0.134521  0.625004  1
  Ni  Ni9  1  0.124974  0.384537  0.865524  1
  Ni  Ni10  1  0.134607  0.625040  0.115464  1
  Ni  Ni11  1  0.365411  0.374998  0.615466  1
  Ni  Ni12  1  0.374936  0.615494  0.365396  1
  Ni  Ni13  1  0.384541  0.865446  0.124969  1
  Ni  Ni14  1  0.615511  0.365450  0.374972  1
  Ni  Ni15  1  0.624962  0.115438  0.134550  1
  Ni  Ni16  1  0.634538  0.874981  0.884501  1
  Ni  Ni17  1  0.865467  0.124953  0.384576  1
  Ni  Ni18  1  0.875003  0.884581  0.634553  1
  Ni  Ni19  1  0.884587  0.634593  0.875000  1
  Bi  Bi20  1  0.125065  0.874928  0.375044  1
  Bi  Bi21  1  0.374932  0.125066  0.875043  1
  Bi  Bi22  1  0.625089  0.625059  0.624961  1
  Bi  Bi23  1  0.874934  0.374952  0.124966  1
  O  O24  1  0.094756  0.127193  0.382769  1
  O  O25  1  0.117276  0.905216  0.627301  1
  O  O26  1  0.114837  0.614793  0.885235  1
  O  O27  1  0.122675  0.155225  0.867320  1
  O  O28  1  0.127233  0.382720  0.094835  1
  O  O29  1  0.135161  0.364737  0.635248  1
  O  O30  1  0.132733  0.622732  0.344765  1
  O  O31  1  0.155254  0.867298  0.122764  1
  O  O32  1  0.344673  0.132762  0.622807  1
  O  O33  1  0.367222  0.377277  0.844842  1
  O  O34  1  0.364684  0.635276  0.135204  1
  O  O35  1  0.372811  0.617252  0.594698  1
  O  O36  1  0.377303  0.844755  0.367242  1
  O  O37  1  0.385254  0.385260  0.385210  1
  O  O38  1  0.382766  0.094714  0.127257  1
  O  O39  1  0.405215  0.872783  0.882703  1
  O  O40  1  0.594794  0.372799  0.617294  1
  O  O41  1  0.617274  0.594787  0.372715  1
  O  O42  1  0.614762  0.885157  0.114746  1
  O  O43  1  0.622705  0.344762  0.132697  1
  O  O44  1  0.627223  0.117255  0.905234  1
  O  O45  1  0.635265  0.135242  0.364791  1
  O  O46  1  0.632743  0.877291  0.655182  1
  O  O47  1  0.655268  0.632734  0.877227  1
  O  O48  1  0.844799  0.367256  0.377229  1
  O  O49  1  0.867220  0.122745  0.155313  1
  O  O50  1  0.864775  0.864852  0.864769  1
  O  O51  1  0.872770  0.882692  0.405257  1
  O  O52  1  0.877315  0.655323  0.632772  1
  O  O53  1  0.885231  0.114731  0.614741  1
  O  O54  1  0.882706  0.405221  0.872728  1
  O  O55  1  0.905326  0.627230  0.117214  1
