# generated using pymatgen
data_Li11V6O5F19
_symmetry_space_group_name_H-M   'P 1'
_cell_length_a   5.13056402
_cell_length_b   5.46044414
_cell_length_c   16.20455721
_cell_angle_alpha   81.01879209
_cell_angle_beta   90.06980347
_cell_angle_gamma   88.52744528
_symmetry_Int_Tables_number   1
_chemical_formula_structural   Li11V6O5F19
_chemical_formula_sum   'Li11 V6 O5 F19'
_cell_volume   448.25296337
_cell_formula_units_Z   1
loop_
 _symmetry_equiv_pos_site_id
 _symmetry_equiv_pos_as_xyz
  1  'x, y, z'
loop_
 _atom_site_type_symbol
 _atom_site_label
 _atom_site_symmetry_multiplicity
 _atom_site_fract_x
 _atom_site_fract_y
 _atom_site_fract_z
 _atom_site_occupancy
  Li  Li0  1  0.508976  0.240420  0.441327  1
  Li  Li1  1  0.997505  0.398000  0.100703  1
  Li  Li2  1  0.485745  0.280234  0.204624  1
  Li  Li3  1  0.011758  0.090965  0.771222  1
  Li  Li4  1  0.509501  0.118162  0.890337  1
  Li  Li5  1  0.998710  0.249178  0.568553  1
  Li  Li6  1  0.997786  0.715709  0.443675  1
  Li  Li7  1  0.498397  0.856566  0.113578  1
  Li  Li8  1  0.989395  0.580201  0.899478  1
  Li  Li9  1  0.498948  0.549439  0.778026  1
  Li  Li10  1  0.508032  0.795614  0.558195  1
  V  V11  1  0.012617  0.351317  0.333593  1
  V  V12  1  0.501216  0.168218  0.665157  1
  V  V13  1  0.481729  0.817353  0.335908  1
  V  V14  1  0.495585  0.491122  0.998029  1
  V  V15  1  0.995446  0.992085  0.998968  1
  V  V16  1  0.999625  0.666930  0.666515  1
  O  O17  1  0.194252  0.352911  0.693393  1
  O  O18  1  0.305506  0.517259  0.370455  1
  O  O19  1  0.190756  0.677579  0.027835  1
  O  O20  1  0.796980  0.305268  0.964821  1
  O  O21  1  0.800342  0.976531  0.634071  1
  F  F22  1  0.175315  0.008935  0.378447  1
  F  F23  1  0.310852  0.165065  0.046464  1
  F  F24  1  0.673457  0.176181  0.310508  1
  F  F25  1  0.355783  0.150551  0.549203  1
  F  F26  1  0.127505  0.358959  0.218316  1
  F  F27  1  0.648395  0.190022  0.779528  1
  F  F28  1  0.148435  0.005468  0.881931  1
  F  F29  1  0.862936  0.346990  0.451118  1
  F  F30  1  0.635190  0.501471  0.115764  1
  F  F31  1  0.689168  0.492730  0.617408  1
  F  F32  1  0.817577  0.670872  0.302331  1
  F  F33  1  0.149658  0.682631  0.550512  1
  F  F34  1  0.857241  0.655726  0.782534  1
  F  F35  1  0.345492  0.474043  0.883400  1
  F  F36  1  0.397069  0.918956  0.220052  1
  F  F37  1  0.841046  0.994240  0.109049  1
  F  F38  1  0.639863  0.847800  0.446611  1
  F  F39  1  0.316691  0.839305  0.711681  1
  F  F40  1  0.685409  0.815815  0.950412  1
