# generated using pymatgen
data_K3SnPCO7
_symmetry_space_group_name_H-M   'P 1'
_cell_length_a   10.14945530
_cell_length_b   7.55177196
_cell_length_c   5.68874653
_cell_angle_alpha   90.00000000
_cell_angle_beta   91.87719737
_cell_angle_gamma   90.00000000
_symmetry_Int_Tables_number   1
_chemical_formula_structural   K3SnPCO7
_chemical_formula_sum   'K6 Sn2 P2 C2 O14'
_cell_volume   435.78778328
_cell_formula_units_Z   2
loop_
 _symmetry_equiv_pos_site_id
 _symmetry_equiv_pos_as_xyz
  1  'x, y, z'
loop_
 _atom_site_type_symbol
 _atom_site_label
 _atom_site_symmetry_multiplicity
 _atom_site_fract_x
 _atom_site_fract_y
 _atom_site_fract_z
 _atom_site_occupancy
  K  K0  1  0.083682  0.250000  0.763618  1
  K  K1  1  0.257471  0.002277  0.256540  1
  K  K2  1  0.257471  0.497723  0.256540  1
  K  K3  1  0.742529  0.502277  0.743460  1
  K  K4  1  0.742529  0.997723  0.743460  1
  K  K5  1  0.916318  0.750000  0.236382  1
  Sn  Sn6  1  0.372656  0.750000  0.773556  1
  Sn  Sn7  1  0.627344  0.250000  0.226444  1
  P  P8  1  0.411146  0.250000  0.708284  1
  P  P9  1  0.588854  0.750000  0.291716  1
  C  C10  1  0.066637  0.750000  0.737941  1
  C  C11  1  0.933363  0.250000  0.262059  1
  O  O12  1  0.061810  0.250000  0.269329  1
  O  O13  1  0.131076  0.750000  0.941110  1
  O  O14  1  0.131299  0.750000  0.543338  1
  O  O15  1  0.332045  0.082275  0.780961  1
  O  O16  1  0.332045  0.417725  0.780961  1
  O  O17  1  0.424258  0.250000  0.434693  1
  O  O18  1  0.446665  0.750000  0.173103  1
  O  O19  1  0.553335  0.250000  0.826897  1
  O  O20  1  0.575742  0.750000  0.565307  1
  O  O21  1  0.667955  0.582275  0.219039  1
  O  O22  1  0.667955  0.917725  0.219039  1
  O  O23  1  0.868701  0.250000  0.456662  1
  O  O24  1  0.868924  0.250000  0.058890  1
  O  O25  1  0.938190  0.750000  0.730671  1
