# generated using pymatgen
data_VP(H2O3)2
_symmetry_space_group_name_H-M   'P 1'
_cell_length_a   5.33993038
_cell_length_b   9.98106731
_cell_length_c   8.83480920
_cell_angle_alpha   89.99999234
_cell_angle_beta   91.60168324
_cell_angle_gamma   89.99999992
_symmetry_Int_Tables_number   1
_chemical_formula_structural   VP(H2O3)2
_chemical_formula_sum   'V4 P4 H16 O24'
_cell_volume   470.69549275
_cell_formula_units_Z   4
loop_
 _symmetry_equiv_pos_site_id
 _symmetry_equiv_pos_as_xyz
  1  'x, y, z'
loop_
 _atom_site_type_symbol
 _atom_site_label
 _atom_site_symmetry_multiplicity
 _atom_site_fract_x
 _atom_site_fract_y
 _atom_site_fract_z
 _atom_site_occupancy
  V  V0  1  0.092158  0.823448  0.197351  1
  V  V1  1  0.592165  0.676555  0.697359  1
  V  V2  1  0.907842  0.176552  0.802649  1
  V  V3  1  0.407835  0.323445  0.302641  1
  P  P4  1  0.590911  0.643814  0.319916  1
  P  P5  1  0.090911  0.856186  0.819916  1
  P  P6  1  0.409089  0.356186  0.680084  1
  P  P7  1  0.909089  0.143814  0.180084  1
  H  H8  1  0.341435  0.038902  0.224401  1
  H  H9  1  0.841434  0.461098  0.724401  1
  H  H10  1  0.658565  0.961098  0.775599  1
  H  H11  1  0.158566  0.538902  0.275599  1
  H  H12  1  0.571725  0.943422  0.168629  1
  H  H13  1  0.071725  0.556578  0.668629  1
  H  H14  1  0.428275  0.056578  0.831371  1
  H  H15  1  0.928275  0.443422  0.331371  1
  H  H16  1  0.210162  0.842127  0.500624  1
  H  H17  1  0.710162  0.657873  0.000624  1
  H  H18  1  0.789838  0.157873  0.499376  1
  H  H19  1  0.289838  0.342127  0.999376  1
  H  H20  1  0.915364  0.835441  0.475636  1
  H  H21  1  0.415364  0.664559  0.975636  1
  H  H22  1  0.084636  0.164559  0.524364  1
  H  H23  1  0.584636  0.335441  0.024364  1
  O  O24  1  0.327649  0.665547  0.241693  1
  O  O25  1  0.827649  0.834453  0.741694  1
  O  O26  1  0.672351  0.334453  0.758307  1
  O  O27  1  0.172351  0.165547  0.258306  1
  O  O28  1  0.611486  0.719292  0.472567  1
  O  O29  1  0.111486  0.780708  0.972567  1
  O  O30  1  0.388514  0.280708  0.527433  1
  O  O31  1  0.888514  0.219292  0.027433  1
  O  O32  1  0.793830  0.697479  0.213406  1
  O  O33  1  0.293830  0.802521  0.713406  1
  O  O34  1  0.206170  0.302521  0.786594  1
  O  O35  1  0.706170  0.197479  0.286594  1
  O  O36  1  0.627655  0.489972  0.342223  1
  O  O37  1  0.127655  0.010028  0.842222  1
  O  O38  1  0.372345  0.510028  0.657777  1
  O  O39  1  0.872345  0.989972  0.157778  1
  O  O40  1  0.390171  0.945633  0.192925  1
  O  O41  1  0.890170  0.554367  0.692925  1
  O  O42  1  0.609829  0.054367  0.807075  1
  O  O43  1  0.109830  0.445633  0.307075  1
  O  O44  1  0.072795  0.862083  0.427403  1
  O  O45  1  0.572795  0.637917  0.927402  1
  O  O46  1  0.927205  0.137917  0.572597  1
  O  O47  1  0.427205  0.362083  0.072598  1
