# generated using pymatgen
data_Li2MnFe(BO3)2
_symmetry_space_group_name_H-M   'P 1'
_cell_length_a   11.14710187
_cell_length_b   5.22156491
_cell_length_c   5.15604817
_cell_angle_alpha   60.98910999
_cell_angle_beta   87.88518790
_cell_angle_gamma   75.68948917
_symmetry_Int_Tables_number   1
_chemical_formula_structural   Li2MnFe(BO3)2
_chemical_formula_sum   'Li4 Mn2 Fe2 B4 O12'
_cell_volume   253.08808080
_cell_formula_units_Z   2
loop_
 _symmetry_equiv_pos_site_id
 _symmetry_equiv_pos_as_xyz
  1  'x, y, z'
loop_
 _atom_site_type_symbol
 _atom_site_label
 _atom_site_symmetry_multiplicity
 _atom_site_fract_x
 _atom_site_fract_y
 _atom_site_fract_z
 _atom_site_occupancy
  Li  Li0  1  0.161479  0.378608  0.394069  1
  Li  Li1  1  0.333438  0.633216  0.097287  1
  Li  Li2  1  0.666562  0.366783  0.902713  1
  Li  Li3  1  0.838521  0.621392  0.605931  1
  Mn  Mn4  1  0.383691  0.253812  0.776152  1
  Mn  Mn5  1  0.616309  0.746188  0.223848  1
  Fe  Fe6  1  0.114864  0.747824  0.718649  1
  Fe  Fe7  1  0.885136  0.252176  0.281351  1
  B  B8  1  0.127710  0.081373  0.056565  1
  B  B9  1  0.367040  0.927607  0.439225  1
  B  B10  1  0.632960  0.072393  0.560775  1
  B  B11  1  0.872290  0.918627  0.943435  1
  O  O12  1  0.154079  0.320358  0.799002  1
  O  O13  1  0.087828  0.128072  0.295104  1
  O  O14  1  0.145870  0.800086  0.080113  1
  O  O15  1  0.338603  0.695923  0.696293  1
  O  O16  1  0.348337  0.214976  0.403537  1
  O  O17  1  0.411597  0.870988  0.208636  1
  O  O18  1  0.588403  0.129012  0.791364  1
  O  O19  1  0.651663  0.785024  0.596463  1
  O  O20  1  0.661397  0.304077  0.303707  1
  O  O21  1  0.854130  0.199914  0.919887  1
  O  O22  1  0.912172  0.871928  0.704896  1
  O  O23  1  0.845921  0.679642  0.200998  1
