# generated using pymatgen
data_Li3Co2(GeO4)2
_symmetry_space_group_name_H-M   'P 1'
_cell_length_a   6.32182503
_cell_length_b   5.61055920
_cell_length_c   5.14048089
_cell_angle_alpha   89.37235821
_cell_angle_beta   89.93617059
_cell_angle_gamma   89.74859104
_symmetry_Int_Tables_number   1
_chemical_formula_structural   Li3Co2(GeO4)2
_chemical_formula_sum   'Li3 Co2 Ge2 O8'
_cell_volume   182.31478285
_cell_formula_units_Z   1
loop_
 _symmetry_equiv_pos_site_id
 _symmetry_equiv_pos_as_xyz
  1  'x, y, z'
loop_
 _atom_site_type_symbol
 _atom_site_label
 _atom_site_symmetry_multiplicity
 _atom_site_fract_x
 _atom_site_fract_y
 _atom_site_fract_z
 _atom_site_occupancy
  Li  Li0  1  0.248707  0.338667  0.991709  1
  Li  Li1  1  0.749769  0.335600  0.993311  1
  Li  Li2  1  0.751125  0.666121  0.499855  1
  Co  Co3  1  0.003955  0.832473  0.003096  1
  Co  Co4  1  0.498224  0.166740  0.491264  1
  Ge  Ge5  1  0.998309  0.159351  0.497522  1
  Ge  Ge6  1  0.500738  0.835727  0.003422  1
  O  O7  1  0.998476  0.156108  0.846410  1
  O  O8  1  0.978155  0.868688  0.373246  1
  O  O9  1  0.234271  0.292733  0.378905  1
  O  O10  1  0.268066  0.680492  0.920658  1
  O  O11  1  0.500175  0.136165  0.871663  1
  O  O12  1  0.521629  0.859356  0.346950  1
  O  O13  1  0.733593  0.681022  0.891872  1
  O  O14  1  0.765109  0.324599  0.395367  1
