# generated using pymatgen
data_Ba6Yb6Al13Si11N29O13
_symmetry_space_group_name_H-M   'P 1'
_cell_length_a   6.36134744
_cell_length_b   6.27812711
_cell_length_c   29.54334832
_cell_angle_alpha   89.74600797
_cell_angle_beta   90.08530724
_cell_angle_gamma   119.81238440
_symmetry_Int_Tables_number   1
_chemical_formula_structural   Ba6Yb6Al13Si11N29O13
_chemical_formula_sum   'Ba6 Yb6 Al13 Si11 N29 O13'
_cell_volume   1023.72451333
_cell_formula_units_Z   1
loop_
 _symmetry_equiv_pos_site_id
 _symmetry_equiv_pos_as_xyz
  1  'x, y, z'
loop_
 _atom_site_type_symbol
 _atom_site_label
 _atom_site_symmetry_multiplicity
 _atom_site_fract_x
 _atom_site_fract_y
 _atom_site_fract_z
 _atom_site_occupancy
  Yb  Yb0  1  0.395017  0.637969  0.242808  1
  Yb  Yb1  1  0.390226  0.757360  0.903101  1
  Yb  Yb2  1  0.346049  0.693106  0.571920  1
  Yb  Yb3  1  0.664264  0.283229  0.090633  1
  Yb  Yb4  1  0.660448  0.322316  0.440914  1
  Yb  Yb5  1  0.682627  0.357444  0.761767  1
  Ba  Ba6  1  0.341408  0.639012  0.036987  1
  Ba  Ba7  1  0.317771  0.672915  0.709937  1
  Ba  Ba8  1  0.328112  0.648739  0.388464  1
  Ba  Ba9  1  0.670698  0.349589  0.552860  1
  Ba  Ba10  1  0.675318  0.379226  0.879439  1
  Ba  Ba11  1  0.704226  0.321750  0.218661  1
  Al  Al12  1  0.140279  0.823884  0.810700  1
  Al  Al13  1  0.126307  0.794846  0.483237  1
  Al  Al14  1  0.005852  -0.014232  0.068323  1
  Al  Al15  1  0.186476  0.321460  0.484050  1
  Al  Al16  1  0.312449  0.205392  0.642351  1
  Al  Al17  1  0.343070  0.174681  0.318736  1
  Al  Al18  1  0.335861  0.189013  0.977927  1
  Al  Al19  1  0.849217  0.658542  0.318448  1
  Al  Al20  1  0.864563  0.689325  0.645381  1
  Al  Al21  1  0.844850  0.691681  0.975695  1
  Al  Al22  1  0.821098  0.127009  0.315731  1
  Al  Al23  1  0.782702  0.135181  0.647537  1
  Al  Al24  1  0.813628  0.166966  -0.017150  1
  Si  Si25  1  0.162707  0.784879  0.147475  1
  Si  Si26  1  0.040144  0.019380  0.231755  1
  Si  Si27  1  -0.013522  0.984818  0.404383  1
  Si  Si28  1  0.991906  -0.003077  0.566531  1
  Si  Si29  1  -0.021027  0.012331  0.732406  1
  Si  Si30  1  0.988727  0.016359  0.895535  1
  Si  Si31  1  0.190675  0.358754  0.809007  1
  Si  Si32  1  0.222234  0.330174  0.147595  1
  Si  Si33  1  0.643727  0.883080  0.807677  1
  Si  Si34  1  0.655474  0.858515  0.480195  1
  Si  Si35  1  0.636786  0.827234  0.143907  1
  N  N36  1  0.045230  -0.000709  0.171937  1
  N  N37  1  0.253434  0.045855  0.920332  1
  N  N38  1  0.289122  0.223992  0.258341  1
  N  N39  1  0.233689  0.271139  0.583453  1
  N  N40  1  0.538887  0.525165  0.656232  1
  N  N41  1  0.513240  0.523105  0.966336  1
  N  N42  1  0.523571  0.531247  0.162287  1
  N  N43  1  0.500157  0.564379  0.818468  1
  N  N44  1  0.516397  0.547025  0.487966  1
  N  N45  1  0.738035  -0.017748  0.423812  1
  N  N46  1  0.726259  0.943004  0.091989  1
  N  N47  1  0.732324  0.003565  0.754155  1
  N  N48  1  0.462258  0.952735  0.162201  1
  N  N49  1  0.456738  0.963158  0.495103  1
  N  N50  1  0.462526  -0.006865  0.826543  1
  N  N51  1  0.025260  0.774563  0.918998  1
  N  N52  1  0.818141  0.750120  0.258123  1
  N  N53  1  0.029505  0.767365  0.589857  1
  N  N54  1  0.056302  0.473508  0.159053  1
  N  N55  1  0.015932  0.487178  0.814649  1
  N  N56  1  0.007324  0.468330  0.491641  1
  N  N57  1  0.797705  0.083336  0.922271  1
  N  N58  1  0.771992  0.979422  0.256182  1
  N  N59  1  0.746618  -0.001313  0.590149  1
  N  N60  1  -0.009146  0.024130  0.835375  1
  N  N61  1  0.007645  0.021043  0.006127  1
  N  N62  1  0.008398  -0.008418  0.343709  1
  N  N63  1  0.971462  -0.020025  0.505229  1
  N  N64  1  0.000399  0.025006  0.674404  1
  O  O65  1  0.068546  0.761455  0.093944  1
  O  O66  1  0.001511  0.740465  0.420872  1
  O  O67  1  0.007708  0.782929  0.753367  1
  O  O68  1  0.975828  0.458752  0.311709  1
  O  O69  1  0.917388  0.446573  0.667023  1
  O  O70  1  0.928919  0.479591  0.001166  1
  O  O71  1  0.257573  0.258004  0.094097  1
  O  O72  1  0.236998  0.221331  0.424445  1
  O  O73  1  0.226800  0.253660  0.757277  1
  O  O74  1  0.505419  0.012266  0.325809  1
  O  O75  1  0.467150  0.039066  0.655736  1
  O  O76  1  0.514169  0.078505  0.007441  1
  O  O77  1  0.552240  0.475263  0.338468  1
