# generated using pymatgen
data_Li4Fe3Co3(CuO8)2
_symmetry_space_group_name_H-M   'P 1'
_cell_length_a   5.80333848
_cell_length_b   5.78023631
_cell_length_c   9.55011385
_cell_angle_alpha   90.21783268
_cell_angle_beta   90.32702937
_cell_angle_gamma   119.90065793
_symmetry_Int_Tables_number   1
_chemical_formula_structural   Li4Fe3Co3(CuO8)2
_chemical_formula_sum   'Li4 Fe3 Co3 Cu2 O16'
_cell_volume   277.70053040
_cell_formula_units_Z   1
loop_
 _symmetry_equiv_pos_site_id
 _symmetry_equiv_pos_as_xyz
  1  'x, y, z'
loop_
 _atom_site_type_symbol
 _atom_site_label
 _atom_site_symmetry_multiplicity
 _atom_site_fract_x
 _atom_site_fract_y
 _atom_site_fract_z
 _atom_site_occupancy
  Li  Li0  1  0.324307  0.660630  0.899029  1
  Li  Li1  1  0.016197  0.007942  0.996934  1
  Li  Li2  1  0.020969  0.010995  0.494938  1
  Li  Li3  1  0.654338  0.327416  0.396217  1
  Fe  Fe4  1  0.660627  0.828575  0.213701  1
  Fe  Fe5  1  0.827211  0.662153  0.713359  1
  Fe  Fe6  1  0.829596  0.169086  0.712271  1
  Co  Co7  1  0.167345  0.829483  0.212142  1
  Co  Co8  1  0.167996  0.336383  0.212697  1
  Co  Co9  1  0.339457  0.170489  0.712114  1
  Cu  Cu10  1  0.338056  0.672528  0.486954  1
  Cu  Cu11  1  0.675482  0.334971  0.989372  1
  O  O12  1  0.173851  0.846420  0.606091  1
  O  O13  1  0.033979  0.517607  0.324887  1
  O  O14  1  0.322030  0.658624  0.107093  1
  O  O15  1  0.009528  0.004492  0.308907  1
  O  O16  1  0.012499  0.008346  0.809704  1
  O  O17  1  0.177701  0.331891  0.606329  1
  O  O18  1  0.463112  0.959598  0.335319  1
  O  O19  1  0.463693  0.505251  0.336185  1
  O  O20  1  0.322585  0.159606  0.112828  1
  O  O21  1  0.677696  0.842175  0.597825  1
  O  O22  1  0.505123  0.469424  0.837615  1
  O  O23  1  0.502291  0.033846  0.835517  1
  O  O24  1  0.657299  0.329579  0.602213  1
  O  O25  1  0.850824  0.677798  0.102887  1
  O  O26  1  0.956785  0.475741  0.840396  1
  O  O27  1  0.849419  0.169250  0.104316  1
