# generated using pymatgen
data_Li4Ti3V2Ni3O16
_symmetry_space_group_name_H-M   'P 1'
_cell_length_a   5.92573168
_cell_length_b   5.89765334
_cell_length_c   9.57950912
_cell_angle_alpha   89.99991081
_cell_angle_beta   90.07639889
_cell_angle_gamma   119.84321555
_symmetry_Int_Tables_number   1
_chemical_formula_structural   Li4Ti3V2Ni3O16
_chemical_formula_sum   'Li4 Ti3 V2 Ni3 O16'
_cell_volume   290.38792850
_cell_formula_units_Z   1
loop_
 _symmetry_equiv_pos_site_id
 _symmetry_equiv_pos_as_xyz
  1  'x, y, z'
loop_
 _atom_site_type_symbol
 _atom_site_label
 _atom_site_symmetry_multiplicity
 _atom_site_fract_x
 _atom_site_fract_y
 _atom_site_fract_z
 _atom_site_occupancy
  Li  Li0  1  0.335080  0.667553  0.902723  1
  Li  Li1  1  0.987822  0.993915  0.984963  1
  Li  Li2  1  0.997044  0.998531  0.495953  1
  Li  Li3  1  0.672232  0.336128  0.405332  1
  Ti  Ti4  1  0.195664  0.846415  0.222457  1
  Ti  Ti5  1  0.195676  0.349271  0.222452  1
  Ti  Ti6  1  0.363977  0.182006  0.736407  1
  V  V7  1  0.331810  0.665915  0.502405  1
  V  V8  1  0.710981  0.355500  0.986478  1
  Ni  Ni9  1  0.658381  0.829208  0.208227  1
  Ni  Ni10  1  0.825562  0.658057  0.708092  1
  Ni  Ni11  1  0.825559  0.167524  0.708090  1
  O  O12  1  0.177600  0.822519  0.585839  1
  O  O13  1  0.039768  0.519895  0.337020  1
  O  O14  1  0.309332  0.654679  0.104118  1
  O  O15  1  0.002056  0.001040  0.304003  1
  O  O16  1  0.011991  0.006006  0.794166  1
  O  O17  1  0.177601  0.355096  0.585838  1
  O  O18  1  0.471642  0.962171  0.343763  1
  O  O19  1  0.471646  0.509496  0.343761  1
  O  O20  1  0.329210  0.164616  0.101001  1
  O  O21  1  0.644130  0.822074  0.582670  1
  O  O22  1  0.509732  0.474306  0.852410  1
  O  O23  1  0.509730  0.035454  0.852411  1
  O  O24  1  0.641421  0.320723  0.605424  1
  O  O25  1  0.823994  0.648461  0.088356  1
  O  O26  1  0.956362  0.478190  0.855124  1
  O  O27  1  0.823998  0.175554  0.088355  1
