# generated using pymatgen
data_Li6V3P8O29
_symmetry_space_group_name_H-M   'P 1'
_cell_length_a   9.75485729
_cell_length_b   9.81012675
_cell_length_c   13.97359197
_cell_angle_alpha   90.16284684
_cell_angle_beta   90.45481328
_cell_angle_gamma   60.18363522
_symmetry_Int_Tables_number   1
_chemical_formula_structural   Li6V3P8O29
_chemical_formula_sum   'Li12 V6 P16 O58'
_cell_volume   1160.16792587
_cell_formula_units_Z   2
loop_
 _symmetry_equiv_pos_site_id
 _symmetry_equiv_pos_as_xyz
  1  'x, y, z'
loop_
 _atom_site_type_symbol
 _atom_site_label
 _atom_site_symmetry_multiplicity
 _atom_site_fract_x
 _atom_site_fract_y
 _atom_site_fract_z
 _atom_site_occupancy
  Li  Li0  1  0.761165  0.905007  0.556098  1
  Li  Li1  1  0.901100  0.337334  0.558892  1
  Li  Li2  1  0.677047  0.662122  0.889414  1
  Li  Li3  1  0.764346  0.329059  0.066878  1
  Li  Li4  1  0.328167  0.907193  0.063624  1
  Li  Li5  1  0.329305  0.764038  0.557781  1
  Li  Li6  1  0.666874  0.099193  0.943276  1
  Li  Li7  1  0.233330  0.666983  0.945527  1
  Li  Li8  1  0.097535  0.663272  0.434020  1
  Li  Li9  1  0.233635  0.103095  0.438589  1
  Li  Li10  1  0.996566  0.002226  0.011340  1
  Li  Li11  1  0.942814  0.042453  0.485847  1
  V  V12  1  0.565240  0.432674  0.254160  1
  V  V13  1  0.438058  0.561258  0.746972  1
  V  V14  1  0.566545  0.000071  0.748204  1
  V  V15  1  0.435352  0.001206  0.251518  1
  V  V16  1  0.997656  0.562471  0.242403  1
  V  V17  1  0.005296  0.434096  0.754131  1
  P  P18  1  0.914227  0.780457  0.839579  1
  P  P19  1  0.779976  0.911301  0.340196  1
  P  P20  1  0.915392  0.312954  0.343636  1
  P  P21  1  0.662404  0.665214  0.129840  1
  P  P22  1  0.668887  0.665698  0.630061  1
  P  P23  1  0.775991  0.314666  0.845276  1
  P  P24  1  0.695024  0.222266  0.658553  1
  P  P25  1  0.316945  0.905319  0.845576  1
  P  P26  1  0.688355  0.088608  0.156904  1
  P  P27  1  0.313453  0.774439  0.342933  1
  P  P28  1  0.225224  0.687682  0.158598  1
  P  P29  1  0.329370  0.335264  0.367528  1
  P  P30  1  0.338810  0.334295  0.870937  1
  P  P31  1  0.082306  0.687768  0.652391  1
  P  P32  1  0.224003  0.084058  0.660577  1
  P  P33  1  0.084467  0.217906  0.159230  1
  O  O34  1  0.996927  0.771758  0.561740  1
  O  O35  1  0.919607  0.743172  0.336446  1
  O  O36  1  0.777692  0.014283  0.066489  1
  O  O37  1  0.741715  0.922619  0.840910  1
  O  O38  1  0.899970  0.629300  0.832943  1
  O  O39  1  0.809374  0.669485  0.173265  1
  O  O40  1  0.921310  0.464330  0.333217  1
  O  O41  1  0.992737  0.198965  0.078388  1
  O  O42  1  0.919322  0.337758  0.841537  1
  O  O43  1  0.678417  0.812070  0.668878  1
  O  O44  1  0.620125  0.914059  0.328190  1
  O  O45  1  0.813282  0.514065  0.674218  1
  O  O46  1  0.660914  0.666184  0.021749  1
  O  O47  1  0.668079  0.663287  0.523531  1
  O  O48  1  0.675332  0.509829  0.167114  1
  O  O49  1  0.481036  0.891667  0.829703  1
  O  O50  1  0.510635  0.810179  0.168989  1
  O  O51  1  0.744751  0.344388  0.337934  1
  O  O52  1  0.788765  0.200514  0.758694  1
  O  O53  1  0.803093  0.207838  0.578642  1
  O  O54  1  0.766870  0.235981  0.935826  1
  O  O55  1  0.626561  0.479352  0.829205  1
  O  O56  1  0.513109  0.675992  0.671445  1
  O  O57  1  0.661051  0.258034  0.163160  1
  O  O58  1  0.470025  0.622690  0.331703  1
  O  O59  1  0.336907  0.919770  0.343755  1
  O  O60  1  0.798722  0.999853  0.248855  1
  O  O61  1  0.786585  0.991165  0.431033  1
  O  O62  1  0.230687  0.996237  0.570233  1
  O  O63  1  0.662782  0.082363  0.657151  1
  O  O64  1  0.540455  0.380840  0.663881  1
  O  O65  1  0.338299  0.738359  0.840322  1
  O  O66  1  0.480316  0.324865  0.324122  1
  O  O67  1  0.385026  0.536294  0.171344  1
  O  O68  1  0.220910  0.779975  0.069945  1
  O  O69  1  0.221803  0.776951  0.431014  1
  O  O70  1  0.203595  0.798339  0.250360  1
  O  O71  1  0.249629  0.666803  0.656408  1
  O  O72  1  0.488483  0.186369  0.832415  1
  O  O73  1  0.533824  0.085545  0.168400  1
  O  O74  1  0.335112  0.483881  0.824126  1
  O  O75  1  0.336000  0.347827  0.976579  1
  O  O76  1  0.321229  0.337212  0.474556  1
  O  O77  1  0.184177  0.487413  0.323659  1
  O  O78  1  0.381851  0.085401  0.676557  1
  O  O79  1  0.318628  0.188749  0.328379  1
  O  O80  1  0.088948  0.654694  0.157697  1
  O  O81  1  0.985526  0.801840  0.740695  1
  O  O82  1  0.009391  0.789446  0.920828  1
  O  O83  1  0.084821  0.531912  0.668137  1
  O  O84  1  0.189798  0.335891  0.824397  1
  O  O85  1  0.083763  0.373992  0.164346  1
  O  O86  1  0.257250  0.078441  0.160676  1
  O  O87  1  0.234533  0.985260  0.935645  1
  O  O88  1  0.206205  0.997795  0.753288  1
  O  O89  1  0.083479  0.251783  0.659577  1
  O  O90  1  0.995193  0.222003  0.435146  1
  O  O91  1  0.010714  0.195313  0.257810  1
