# generated using pymatgen
data_Li5Mn2P2(CO7)2
_symmetry_space_group_name_H-M   'P 1'
_cell_length_a   16.94274004
_cell_length_b   5.09316945
_cell_length_c   6.50145615
_cell_angle_alpha   90.00000000
_cell_angle_beta   90.00000000
_cell_angle_gamma   85.48217333
_symmetry_Int_Tables_number   1
_chemical_formula_structural   Li5Mn2P2(CO7)2
_chemical_formula_sum   'Li10 Mn4 P4 C4 O28'
_cell_volume   559.28207702
_cell_formula_units_Z   2
loop_
 _symmetry_equiv_pos_site_id
 _symmetry_equiv_pos_as_xyz
  1  'x, y, z'
loop_
 _atom_site_type_symbol
 _atom_site_label
 _atom_site_symmetry_multiplicity
 _atom_site_fract_x
 _atom_site_fract_y
 _atom_site_fract_z
 _atom_site_occupancy
  Li  Li0  1  0.131932  0.252207  0.028297  1
  Li  Li1  1  0.131932  0.252207  0.471703  1
  Li  Li2  1  0.368068  0.747793  0.528297  1
  Li  Li3  1  0.368068  0.747793  0.971703  1
  Li  Li4  1  0.549054  0.759909  0.250000  1
  Li  Li5  1  0.624755  0.249680  0.001432  1
  Li  Li6  1  0.624755  0.249680  0.498568  1
  Li  Li7  1  0.875245  0.750320  0.998568  1
  Li  Li8  1  0.875245  0.750320  0.501432  1
  Li  Li9  1  0.950946  0.240091  0.750000  1
  Mn  Mn10  1  0.171685  0.794038  0.750000  1
  Mn  Mn11  1  0.328315  0.205962  0.250000  1
  Mn  Mn12  1  0.670192  0.775561  0.750000  1
  Mn  Mn13  1  0.829808  0.224439  0.250000  1
  P  P14  1  0.208172  0.726995  0.250000  1
  P  P15  1  0.291828  0.273005  0.750000  1
  P  P16  1  0.708980  0.721429  0.250000  1
  P  P17  1  0.791020  0.278571  0.750000  1
  C  C18  1  0.018194  0.711696  0.750000  1
  C  C19  1  0.481806  0.288304  0.250000  1
  C  C20  1  0.523244  0.698923  0.750000  1
  C  C21  1  0.976756  0.301077  0.250000  1
  O  O22  1  0.032200  0.955842  0.750000  1
  O  O23  1  0.050409  0.321868  0.250000  1
  O  O24  1  0.077758  0.531960  0.750000  1
  O  O25  1  0.162510  0.840822  0.059972  1
  O  O26  1  0.162510  0.840822  0.440028  1
  O  O27  1  0.204947  0.190271  0.750000  1
  O  O28  1  0.212501  0.418744  0.250000  1
  O  O29  1  0.287499  0.581256  0.750000  1
  O  O30  1  0.295053  0.809729  0.250000  1
  O  O31  1  0.337490  0.159178  0.940028  1
  O  O32  1  0.337490  0.159178  0.559972  1
  O  O33  1  0.422242  0.468040  0.250000  1
  O  O34  1  0.449591  0.678132  0.750000  1
  O  O35  1  0.467800  0.044158  0.250000  1
  O  O36  1  0.553078  0.929317  0.750000  1
  O  O37  1  0.553977  0.363372  0.250000  1
  O  O38  1  0.576335  0.495937  0.750000  1
  O  O39  1  0.656990  0.820542  0.064785  1
  O  O40  1  0.656990  0.820542  0.435215  1
  O  O41  1  0.708097  0.175007  0.750000  1
  O  O42  1  0.718793  0.413307  0.250000  1
  O  O43  1  0.781207  0.586693  0.750000  1
  O  O44  1  0.791903  0.824993  0.250000  1
  O  O45  1  0.843010  0.179458  0.935215  1
  O  O46  1  0.843010  0.179458  0.564785  1
  O  O47  1  0.923665  0.504063  0.250000  1
  O  O48  1  0.946023  0.636628  0.750000  1
  O  O49  1  0.946922  0.070683  0.250000  1
