# generated using pymatgen
data_Hf2N2O
_symmetry_space_group_name_H-M   'P 1'
_cell_length_a   8.71845661
_cell_length_b   8.75085227
_cell_length_c   8.72425409
_cell_angle_alpha   109.36892464
_cell_angle_beta   109.48997427
_cell_angle_gamma   109.57823139
_symmetry_Int_Tables_number   1
_chemical_formula_structural   Hf2N2O
_chemical_formula_sum   'Hf16 N16 O8'
_cell_volume   512.23521645
_cell_formula_units_Z   8
loop_
 _symmetry_equiv_pos_site_id
 _symmetry_equiv_pos_as_xyz
  1  'x, y, z'
loop_
 _atom_site_type_symbol
 _atom_site_label
 _atom_site_symmetry_multiplicity
 _atom_site_fract_x
 _atom_site_fract_y
 _atom_site_fract_z
 _atom_site_occupancy
  Hf  Hf0  1  0.970345  0.244101  0.212944  1
  Hf  Hf1  1  0.011700  0.501032  0.001158  1
  Hf  Hf2  1  0.712287  0.470320  0.249542  1
  Hf  Hf3  1  0.787304  0.032189  0.754117  1
  Hf  Hf4  1  0.742503  0.786621  0.036857  1
  Hf  Hf5  1  0.757431  0.295270  0.538043  1
  Hf  Hf6  1  0.496585  0.990645  0.986527  1
  Hf  Hf7  1  0.535860  0.749888  0.284198  1
  Hf  Hf8  1  0.458875  0.252318  0.725138  1
  Hf  Hf9  1  0.502107  0.512077  0.513873  1
  Hf  Hf10  1  0.240448  0.210187  0.954026  1
  Hf  Hf11  1  0.257018  0.715547  0.467629  1
  Hf  Hf12  1  0.214968  0.963596  0.256314  1
  Hf  Hf13  1  0.285495  0.536030  0.750146  1
  Hf  Hf14  1  0.009203  0.997098  0.499086  1
  Hf  Hf15  1  0.031046  0.744840  0.776045  1
  N  N16  1  0.770899  0.725420  0.264159  1
  N  N17  1  0.725037  0.991869  0.953717  1
  N  N18  1  0.769016  0.539161  0.528508  1
  N  N19  1  0.048962  0.279844  0.014815  1
  N  N20  1  0.012816  0.043099  0.270604  1
  N  N21  1  0.489715  0.766756  0.037290  1
  N  N22  1  0.228182  0.456537  0.465406  1
  N  N23  1  0.266817  0.733397  0.223177  1
  N  N24  1  0.513654  0.241461  0.970998  1
  N  N25  1  0.224048  0.272161  0.738585  1
  N  N26  1  0.536782  0.772528  0.543604  1
  N  N27  1  0.552749  0.534596  0.774445  1
  N  N28  1  0.258386  0.776275  0.727767  1
  N  N29  1  0.241985  0.968642  0.512655  1
  N  N30  1  0.029138  0.484975  0.761730  1
  N  N31  1  0.986317  0.954106  0.729473  1
  O  O32  1  0.756405  0.036124  0.484027  1
  O  O33  1  0.744566  0.227100  0.278092  1
  O  O34  1  0.274401  0.012768  0.051350  1
  O  O35  1  0.957590  0.505513  0.233762  1
  O  O36  1  0.958654  0.730128  0.990725  1
  O  O37  1  0.465974  0.223864  0.449514  1
  O  O38  1  0.723355  0.257438  0.763544  1
  O  O39  1  0.451378  0.464483  0.226412  1
