# generated using pymatgen
data_LiAg2F4
_symmetry_space_group_name_H-M   'P 1'
_cell_length_a   5.83477766
_cell_length_b   7.34706674
_cell_length_c   5.83477731
_cell_angle_alpha   66.60410617
_cell_angle_beta   89.99999762
_cell_angle_gamma   113.39589265
_symmetry_Int_Tables_number   1
_chemical_formula_structural   LiAg2F4
_chemical_formula_sum   'Li2 Ag4 F8'
_cell_volume   206.96523032
_cell_formula_units_Z   2
loop_
 _symmetry_equiv_pos_site_id
 _symmetry_equiv_pos_as_xyz
  1  'x, y, z'
loop_
 _atom_site_type_symbol
 _atom_site_label
 _atom_site_symmetry_multiplicity
 _atom_site_fract_x
 _atom_site_fract_y
 _atom_site_fract_z
 _atom_site_occupancy
  Li  Li0  1  0.375000  0.250000  0.875000  1
  Li  Li1  1  0.625000  0.750000  0.125000  1
  Ag  Ag2  1  0.000000  0.500000  0.000000  1
  Ag  Ag3  1  0.000000  0.500000  0.500000  1
  Ag  Ag4  1  0.000000  0.000000  0.500000  1
  Ag  Ag5  1  0.500000  0.000000  0.500000  1
  F  F6  1  0.067934  0.204227  0.088266  1
  F  F7  1  0.363708  0.795773  0.292493  1
  F  F8  1  0.207507  0.295773  0.567934  1
  F  F9  1  0.411734  0.704227  0.863708  1
  F  F10  1  0.588266  0.295773  0.136292  1
  F  F11  1  0.792493  0.704227  0.432066  1
  F  F12  1  0.636292  0.204227  0.707507  1
  F  F13  1  0.932066  0.795773  0.911734  1
