# generated using pymatgen
data_Mn2OF2
_symmetry_space_group_name_H-M   'P 1'
_cell_length_a   5.49509853
_cell_length_b   5.85937838
_cell_length_c   5.86205759
_cell_angle_alpha   120.01512925
_cell_angle_beta   57.76522729
_cell_angle_gamma   117.09729520
_symmetry_Int_Tables_number   1
_chemical_formula_structural   Mn2OF2
_chemical_formula_sum   'Mn4 O2 F4'
_cell_volume   133.57750342
_cell_formula_units_Z   2
loop_
 _symmetry_equiv_pos_site_id
 _symmetry_equiv_pos_as_xyz
  1  'x, y, z'
loop_
 _atom_site_type_symbol
 _atom_site_label
 _atom_site_symmetry_multiplicity
 _atom_site_fract_x
 _atom_site_fract_y
 _atom_site_fract_z
 _atom_site_occupancy
  Mn  Mn0  1  0.153873  0.416524  0.192356  1
  Mn  Mn1  1  0.653873  0.916524  0.570295  1
  Mn  Mn2  1  0.363034  0.059390  0.337072  1
  Mn  Mn3  1  0.863034  0.559390  0.859284  1
  O  O4  1  0.037210  0.242953  0.480896  1
  O  O5  1  0.537210  0.742954  0.224848  1
  F  F6  1  0.273995  0.794868  0.925357  1
  F  F7  1  0.773995  0.294868  0.095516  1
  F  F8  1  0.421888  0.236263  0.751346  1
  F  F9  1  0.921888  0.736263  0.563029  1
