# generated using pymatgen
data_Ti19O30
_symmetry_space_group_name_H-M   'P 1'
_cell_length_a   5.10187038
_cell_length_b   5.52589989
_cell_length_c   21.46312555
_cell_angle_alpha   94.29103128
_cell_angle_beta   96.87841521
_cell_angle_gamma   117.51931770
_symmetry_Int_Tables_number   1
_chemical_formula_structural   Ti19O30
_chemical_formula_sum   'Ti19 O30'
_cell_volume   526.91790240
_cell_formula_units_Z   1
loop_
 _symmetry_equiv_pos_site_id
 _symmetry_equiv_pos_as_xyz
  1  'x, y, z'
loop_
 _atom_site_type_symbol
 _atom_site_label
 _atom_site_symmetry_multiplicity
 _atom_site_fract_x
 _atom_site_fract_y
 _atom_site_fract_z
 _atom_site_occupancy
  Ti  Ti0  1  0.598942  0.110519  0.064858  1
  Ti  Ti1  1  0.973485  0.791955  0.162466  1
  Ti  Ti2  1  0.784498  0.200403  0.368461  1
  Ti  Ti3  1  0.815078  0.099152  0.530866  1
  Ti  Ti4  1  0.986321  0.301925  0.669941  1
  Ti  Ti5  1  0.612329  0.001016  0.228552  1
  Ti  Ti6  1  0.382980  0.501064  0.268868  1
  Ti  Ti7  1  0.212045  0.301777  0.130258  1
  Ti  Ti8  1  0.415183  0.398372  0.430258  1
  Ti  Ti9  1  0.777549  0.693240  0.872182  1
  Ti  Ti10  1  0.584563  0.601238  0.569169  1
  Ti  Ti11  1  0.619357  0.502139  0.731413  1
  Ti  Ti12  1  0.384811  0.000851  0.769702  1
  Ti  Ti13  1  0.183877  0.900133  0.468654  1
  Ti  Ti14  1  0.014360  0.699801  0.328718  1
  Ti  Ti15  1  0.215691  0.799929  0.631127  1
  Ti  Ti16  1  0.019298  0.203342  0.833009  1
  Ti  Ti17  1  0.419936  0.904877  0.931690  1
  Ti  Ti18  1  0.199786  0.415491  0.976165  1
  O  O19  1  0.987551  0.149995  0.449886  1
  O  O20  1  0.959283  0.472590  0.117180  1
  O  O21  1  0.835674  0.944280  0.094865  1
  O  O22  1  0.649250  0.325039  0.287221  1
  O  O23  1  0.838203  0.574599  0.411699  1
  O  O24  1  0.415117  0.057543  0.149184  1
  O  O25  1  0.814225  0.251179  0.750405  1
  O  O26  1  0.367250  0.328009  0.051454  1
  O  O27  1  0.788529  0.550464  0.649891  1
  O  O28  1  0.361777  0.024400  0.387136  1
  O  O29  1  0.562726  0.627498  0.188098  1
  O  O30  1  0.961881  0.828881  0.788256  1
  O  O31  1  0.747403  0.875931  0.311736  1
  O  O32  1  0.548869  0.274288  0.512165  1
  O  O33  1  0.771622  0.204795  0.985613  1
  O  O34  1  0.450391  0.725062  0.487502  1
  O  O35  1  0.252869  0.126821  0.687932  1
  O  O36  1  0.281968  0.785481  0.013255  1
  O  O37  1  0.044021  0.171863  0.214125  1
  O  O38  1  0.638299  0.975481  0.612524  1
  O  O39  1  0.435478  0.375554  0.811486  1
  O  O40  1  0.211868  0.451311  0.350043  1
  O  O41  1  0.574221  0.625864  0.940916  1
  O  O42  1  0.186351  0.750837  0.248768  1
  O  O43  1  0.588872  0.951608  0.849645  1
  O  O44  1  0.161993  0.425471  0.587809  1
  O  O45  1  0.146224  0.070637  0.913044  1
  O  O46  1  0.350973  0.675717  0.712455  1
  O  O47  1  0.040928  0.524866  0.888390  1
  O  O48  1  0.012265  0.850096  0.549925  1
