# generated using pymatgen
data_Li2VOF4
_symmetry_space_group_name_H-M   'P 1'
_cell_length_a   5.09807956
_cell_length_b   5.78734536
_cell_length_c   7.05673852
_cell_angle_alpha   71.17302782
_cell_angle_beta   90.03434912
_cell_angle_gamma   63.90198807
_symmetry_Int_Tables_number   1
_chemical_formula_structural   Li2VOF4
_chemical_formula_sum   'Li4 V2 O2 F8'
_cell_volume   174.46587138
_cell_formula_units_Z   2
loop_
 _symmetry_equiv_pos_site_id
 _symmetry_equiv_pos_as_xyz
  1  'x, y, z'
loop_
 _atom_site_type_symbol
 _atom_site_label
 _atom_site_symmetry_multiplicity
 _atom_site_fract_x
 _atom_site_fract_y
 _atom_site_fract_z
 _atom_site_occupancy
  Li  Li0  1  0.640575  0.716941  0.746260  1
  Li  Li1  1  0.640584  0.717338  0.246489  1
  Li  Li2  1  0.346476  0.288089  0.757532  1
  Li  Li3  1  0.363961  0.287639  0.257981  1
  V  V4  1  0.015850  0.998206  0.476615  1
  V  V5  1  0.984541  0.997709  0.976680  1
  O  O6  1  0.852410  0.995228  0.754188  1
  O  O7  1  0.150047  0.997167  0.253696  1
  F  F8  1  0.406536  0.827240  0.963243  1
  F  F9  1  0.763857  0.828383  0.462463  1
  F  F10  1  0.334386  0.643441  0.647624  1
  F  F11  1  0.977703  0.354260  0.863930  1
  F  F12  1  0.020698  0.643331  0.148535  1
  F  F13  1  0.666139  0.354550  0.364750  1
  F  F14  1  0.235822  0.171958  0.544666  1
  F  F15  1  0.590570  0.172491  0.044029  1
