# generated using pymatgen
data_Li15Zr7(Cu3O14)2
_symmetry_space_group_name_H-M   'P 1'
_cell_length_a   5.40173972
_cell_length_b   13.13338896
_cell_length_c   8.07486257
_cell_angle_alpha   88.77790538
_cell_angle_beta   87.01715683
_cell_angle_gamma   80.85170651
_symmetry_Int_Tables_number   1
_chemical_formula_structural   Li15Zr7(Cu3O14)2
_chemical_formula_sum   'Li15 Zr7 Cu6 O28'
_cell_volume   564.75376382
_cell_formula_units_Z   1
loop_
 _symmetry_equiv_pos_site_id
 _symmetry_equiv_pos_as_xyz
  1  'x, y, z'
loop_
 _atom_site_type_symbol
 _atom_site_label
 _atom_site_symmetry_multiplicity
 _atom_site_fract_x
 _atom_site_fract_y
 _atom_site_fract_z
 _atom_site_occupancy
  Li  Li0  1  0.070355  0.787155  0.147410  1
  Li  Li1  1  0.500856  0.498044  0.995545  1
  Li  Li2  1  0.146099  0.961087  0.343958  1
  Li  Li3  1  0.578687  0.676925  0.205460  1
  Li  Li4  1  0.935586  0.827047  0.804276  1
  Li  Li5  1  0.777491  0.644783  0.567767  1
  Li  Li6  1  0.361357  0.929275  0.709836  1
  Li  Li7  1  0.047367  0.392661  0.074363  1
  Li  Li8  1  0.340892  0.538897  0.651027  1
  Li  Li9  1  0.214883  0.353536  0.433072  1
  Li  Li10  1  0.737093  0.246651  0.495877  1
  Li  Li11  1  0.000030  0.002414  0.996735  1
  Li  Li12  1  0.642264  0.068974  0.292787  1
  Li  Li13  1  0.926445  0.215983  0.850215  1
  Li  Li14  1  0.476848  0.108524  0.932128  1
  Zr  Zr15  1  0.526777  0.894273  0.068803  1
  Zr  Zr16  1  0.244805  0.755113  0.496343  1
  Zr  Zr17  1  0.664206  0.461663  0.355464  1
  Zr  Zr18  1  0.103472  0.175535  0.212284  1
  Zr  Zr19  1  0.977648  0.606232  0.931415  1
  Zr  Zr20  1  0.830296  0.035442  0.648912  1
  Zr  Zr21  1  0.398534  0.322339  0.784915  1
  Cu  Cu22  1  0.709156  0.857217  0.428631  1
  Cu  Cu23  1  0.127078  0.571031  0.290943  1
  Cu  Cu24  1  0.576822  0.283830  0.143023  1
  Cu  Cu25  1  0.443366  0.715936  0.855605  1
  Cu  Cu26  1  0.861620  0.431176  0.708938  1
  Cu  Cu27  1  0.281354  0.141225  0.571207  1
  O  O28  1  0.820371  0.920082  0.221863  1
  O  O29  1  0.363201  0.818951  0.274977  1
  O  O30  1  0.260635  0.636927  0.081514  1
  O  O31  1  0.924002  0.723846  0.375335  1
  O  O32  1  0.829092  0.537066  0.149319  1
  O  O33  1  0.696669  0.966216  0.866125  1
  O  O34  1  0.438056  0.604655  0.423369  1
  O  O35  1  0.268824  0.251647  0.007101  1
  O  O36  1  0.059279  0.895385  0.582677  1
  O  O37  1  0.882867  0.320096  0.282272  1
  O  O38  1  0.967528  0.498182  0.492550  1
  O  O39  1  0.794345  0.152362  0.081353  1
  O  O40  1  0.383558  0.419070  0.213483  1
  O  O41  1  0.567938  0.786698  0.614272  1
  O  O42  1  0.242242  0.853639  0.930168  1
  O  O43  1  0.515218  0.391334  0.562556  1
  O  O44  1  0.138904  0.680908  0.725363  1
  O  O45  1  0.739216  0.747392  0.992120  1
  O  O46  1  0.304204  0.033635  0.135466  1
  O  O47  1  0.395434  0.204411  0.367124  1
  O  O48  1  0.954603  0.104823  0.423949  1
  O  O49  1  0.670721  0.574415  0.789858  1
  O  O50  1  0.713664  0.362792  0.901522  1
  O  O51  1  0.535186  0.993822  0.507885  1
  O  O52  1  0.082497  0.295245  0.654819  1
  O  O53  1  0.201027  0.467350  0.864001  1
  O  O54  1  0.613428  0.179519  0.716143  1
  O  O55  1  0.135903  0.076568  0.765878  1
