# generated using pymatgen
data_NdAl11O18
_symmetry_space_group_name_H-M   'P 1'
_cell_length_a   5.61114392
_cell_length_b   11.68082028
_cell_length_c   5.76111631
_cell_angle_alpha   106.06388936
_cell_angle_beta   59.47895003
_cell_angle_gamma   104.51810231
_symmetry_Int_Tables_number   1
_chemical_formula_structural   NdAl11O18
_chemical_formula_sum   'Nd1 Al11 O18'
_cell_volume   309.79935591
_cell_formula_units_Z   1
loop_
 _symmetry_equiv_pos_site_id
 _symmetry_equiv_pos_as_xyz
  1  'x, y, z'
loop_
 _atom_site_type_symbol
 _atom_site_label
 _atom_site_symmetry_multiplicity
 _atom_site_fract_x
 _atom_site_fract_y
 _atom_site_fract_z
 _atom_site_occupancy
  Nd  Nd0  1  0.500009  0.499996  0.999988  1
  Al  Al1  1  0.086937  0.782296  0.094612  1
  Al  Al2  1  0.999999  1.000000  0.000004  1
  Al  Al3  1  0.085955  0.775964  0.587674  1
  Al  Al4  1  0.587286  0.792911  0.097697  1
  Al  Al5  1  0.350928  0.056399  0.353651  1
  Al  Al6  1  0.461423  0.372927  0.457970  1
  Al  Al7  1  0.538575  0.627073  0.542018  1
  Al  Al8  1  0.649072  0.943600  0.646352  1
  Al  Al9  1  0.412712  0.207087  0.902306  1
  Al  Al10  1  0.914042  0.224036  0.412328  1
  Al  Al11  1  0.913064  0.217703  0.905387  1
  O  O12  1  0.293512  0.891815  0.291783  1
  O  O13  1  0.109444  0.293363  0.099170  1
  O  O14  1  0.275637  0.893354  0.808550  1
  O  O15  1  0.196521  0.103315  0.186798  1
  O  O16  1  0.107654  0.287839  0.604705  1
  O  O17  1  0.410884  0.709370  0.382496  1
  O  O18  1  0.676876  0.503186  0.555127  1
  O  O19  1  0.190476  0.097323  0.725564  1
  O  O20  1  0.389271  0.695991  0.908963  1
  O  O21  1  0.610730  0.304006  0.091032  1
  O  O22  1  0.809522  0.902678  0.274441  1
  O  O23  1  0.323130  0.496814  0.444852  1
  O  O24  1  0.589112  0.290634  0.617511  1
  O  O25  1  0.892348  0.712163  0.395298  1
  O  O26  1  0.803480  0.896685  0.813206  1
  O  O27  1  0.724360  0.106645  0.191455  1
  O  O28  1  0.706487  0.108182  0.708221  1
  O  O29  1  0.890552  0.706635  0.900830  1
