# generated using pymatgen
data_Na2NiPCO7
_symmetry_space_group_name_H-M   'P 1'
_cell_length_a   10.10938050
_cell_length_b   10.35833801
_cell_length_c   8.49061926
_cell_angle_alpha   108.58873586
_cell_angle_beta   72.61374436
_cell_angle_gamma   60.96234120
_symmetry_Int_Tables_number   1
_chemical_formula_structural   Na2NiPCO7
_chemical_formula_sum   'Na8 Ni4 P4 C4 O28'
_cell_volume   616.65091708
_cell_formula_units_Z   4
loop_
 _symmetry_equiv_pos_site_id
 _symmetry_equiv_pos_as_xyz
  1  'x, y, z'
loop_
 _atom_site_type_symbol
 _atom_site_label
 _atom_site_symmetry_multiplicity
 _atom_site_fract_x
 _atom_site_fract_y
 _atom_site_fract_z
 _atom_site_occupancy
  Na  Na0  1  0.749415  0.986783  0.485936  1
  Na  Na1  1  0.993604  0.753245  0.007837  1
  Na  Na2  1  0.745475  0.519995  0.510333  1
  Na  Na3  1  0.503058  0.759932  0.988946  1
  Na  Na4  1  0.765981  0.309736  0.769428  1
  Na  Na5  1  0.256369  0.481349  0.465133  1
  Na  Na6  1  0.019404  0.238364  0.989980  1
  Na  Na7  1  0.256615  0.000087  0.511615  1
  Ni  Ni8  1  0.834950  0.817035  0.755222  1
  Ni  Ni9  1  0.659823  0.688276  0.246660  1
  Ni  Ni10  1  0.339456  0.312613  0.759439  1
  Ni  Ni11  1  0.160324  0.190114  0.251288  1
  P  P12  1  0.474096  0.948120  0.752841  1
  P  P13  1  0.977344  0.443345  0.749076  1
  P  P14  1  0.022641  0.558269  0.249844  1
  P  P15  1  0.526489  0.051381  0.249036  1
  C  C16  1  0.945257  0.982786  0.749182  1
  C  C17  1  0.555614  0.520952  0.252258  1
  C  C18  1  0.450224  0.477348  0.744276  1
  C  C19  1  0.053082  0.022232  0.251298  1
  O  O20  1  0.994083  0.940191  0.254785  1
  O  O21  1  0.702372  0.965890  0.061235  1
  O  O22  1  0.983276  0.588436  0.746239  1
  O  O23  1  0.849957  0.689280  0.254997  1
  O  O24  1  0.643291  0.815412  0.750216  1
  O  O25  1  0.519074  0.904417  0.251156  1
  O  O26  1  0.486516  0.838658  0.567152  1
  O  O27  1  0.799565  0.521242  0.932796  1
  O  O28  1  0.982958  0.335406  0.567093  1
  O  O29  1  0.198236  0.975458  0.252404  1
  O  O30  1  0.703515  0.476341  0.247492  1
  O  O31  1  0.474356  0.662296  0.247824  1
  O  O32  1  0.973471  0.165243  0.250175  1
  O  O33  1  0.508238  0.561905  0.747438  1
  O  O34  1  0.502641  0.435266  0.255612  1
  O  O35  1  0.021391  0.842740  0.754976  1
  O  O36  1  0.533856  0.332937  0.742037  1
  O  O37  1  0.304631  0.524219  0.745072  1
  O  O38  1  0.803711  0.030917  0.742953  1
  O  O39  1  0.008934  0.665699  0.437295  1
  O  O40  1  0.186523  0.489408  0.063367  1
  O  O41  1  0.518005  0.155470  0.432811  1
  O  O42  1  0.480735  0.091463  0.744606  1
  O  O43  1  0.353009  0.183467  0.260285  1
  O  O44  1  0.143125  0.311877  0.750778  1
  O  O45  1  0.021302  0.408452  0.249302  1
  O  O46  1  0.301495  0.026771  0.939907  1
  O  O47  1  0.003330  0.068110  0.750526  1
