# generated using pymatgen
data_Li8Mn5Fe3(BO3)8
_symmetry_space_group_name_H-M   'P 1'
_cell_length_a   5.23596756
_cell_length_b   5.24888971
_cell_length_c   20.94930556
_cell_angle_alpha   89.29182411
_cell_angle_beta   90.92956827
_cell_angle_gamma   60.10482477
_symmetry_Int_Tables_number   1
_chemical_formula_structural   Li8Mn5Fe3(BO3)8
_chemical_formula_sum   'Li8 Mn5 Fe3 B8 O24'
_cell_volume   498.93552398
_cell_formula_units_Z   1
loop_
 _symmetry_equiv_pos_site_id
 _symmetry_equiv_pos_as_xyz
  1  'x, y, z'
loop_
 _atom_site_type_symbol
 _atom_site_label
 _atom_site_symmetry_multiplicity
 _atom_site_fract_x
 _atom_site_fract_y
 _atom_site_fract_z
 _atom_site_occupancy
  Li  Li0  1  0.321588  0.650779  0.666610  1
  Li  Li1  1  0.347420  0.677567  0.916194  1
  Li  Li2  1  0.322786  0.652042  0.165676  1
  Li  Li3  1  0.348490  0.678959  0.415883  1
  Li  Li4  1  0.648888  0.337735  0.791916  1
  Li  Li5  1  0.662378  0.348043  0.541325  1
  Li  Li6  1  0.653501  0.337177  0.291562  1
  Li  Li7  1  0.662996  0.346250  0.041322  1
  Mn  Mn8  1  0.329305  0.002971  0.558583  1
  Mn  Mn9  1  0.328132  0.006558  0.058071  1
  Mn  Mn10  1  0.677276  0.002921  0.433247  1
  Mn  Mn11  1  0.997216  0.325520  0.684056  1
  Mn  Mn12  1  0.996943  0.668173  0.307333  1
  Fe  Fe13  1  0.684419  0.998033  0.932782  1
  Fe  Fe14  1  0.994151  0.319278  0.183474  1
  Fe  Fe15  1  0.997273  0.667458  0.809132  1
  B  B16  1  0.003314  0.337582  0.936359  1
  B  B17  1  0.002195  0.341526  0.436984  1
  B  B18  1  0.332539  0.008197  0.813101  1
  B  B19  1  0.333842  0.004214  0.311321  1
  B  B20  1  0.659972  0.996319  0.688147  1
  B  B21  1  0.660943  0.996746  0.186697  1
  B  B22  1  0.995984  0.665898  0.562157  1
  B  B23  1  0.994870  0.667450  0.062095  1
  O  O24  1  0.068349  0.257718  0.793240  1
  O  O25  1  0.070577  0.245937  0.290361  1
  O  O26  1  0.258666  0.072574  0.950557  1
  O  O27  1  0.021330  0.584425  0.917418  1
  O  O28  1  0.253280  0.070502  0.452102  1
  O  O29  1  0.033180  0.578708  0.416149  1
  O  O30  1  0.581791  0.031178  0.827148  1
  O  O31  1  0.269187  0.641436  0.569576  1
  O  O32  1  0.578123  0.036415  0.326631  1
  O  O33  1  0.269151  0.643210  0.069222  1
  O  O34  1  0.344376  0.739887  0.819227  1
  O  O35  1  0.357905  0.730266  0.318965  1
  O  O36  1  0.631203  0.271874  0.694963  1
  O  O37  1  0.640762  0.270194  0.193494  1
  O  O38  1  0.729426  0.358186  0.942928  1
  O  O39  1  0.421783  0.967086  0.667166  1
  O  O40  1  0.727334  0.371087  0.444249  1
  O  O41  1  0.414929  0.978192  0.167875  1
  O  O42  1  0.962301  0.422901  0.577605  1
  O  O43  1  0.962468  0.423822  0.077627  1
  O  O44  1  0.752864  0.929837  0.540944  1
  O  O45  1  0.752525  0.929936  0.040728  1
  O  O46  1  0.931103  0.746612  0.703363  1
  O  O47  1  0.929767  0.741822  0.200628  1
