# generated using pymatgen
data_LaNb3O9
_symmetry_space_group_name_H-M   'P 1'
_cell_length_a   8.89025899
_cell_length_b   5.62126663
_cell_length_c   8.96470068
_cell_angle_alpha   71.74260387
_cell_angle_beta   66.60849583
_cell_angle_gamma   71.60283850
_symmetry_Int_Tables_number   1
_chemical_formula_structural   LaNb3O9
_chemical_formula_sum   'La2 Nb6 O18'
_cell_volume   380.97336568
_cell_formula_units_Z   2
loop_
 _symmetry_equiv_pos_site_id
 _symmetry_equiv_pos_as_xyz
  1  'x, y, z'
loop_
 _atom_site_type_symbol
 _atom_site_label
 _atom_site_symmetry_multiplicity
 _atom_site_fract_x
 _atom_site_fract_y
 _atom_site_fract_z
 _atom_site_occupancy
  La  La0  1  0.340757  0.327038  0.998596  1
  La  La1  1  0.663624  0.661370  0.998432  1
  Nb  Nb2  1  0.082708  0.581615  0.747200  1
  Nb  Nb3  1  0.242163  0.742327  0.264226  1
  Nb  Nb4  1  0.592372  0.069796  0.256479  1
  Nb  Nb5  1  0.410284  0.922740  0.739843  1
  Nb  Nb6  1  0.760193  0.249668  0.732336  1
  Nb  Nb7  1  0.921929  0.408232  0.248794  1
  O  O8  1  0.000678  0.499607  -0.000072  1
  O  O9  1  0.095553  0.095912  0.229006  1
  O  O10  1  0.094226  0.578287  0.233689  1
  O  O11  1  0.648427  0.177471  0.001645  1
  O  O12  1  0.347756  0.827851  0.998168  1
  O  O13  1  0.497467  0.003756  0.499191  1
  O  O14  1  0.166822  0.668037  0.502216  1
  O  O15  1  0.422763  0.429133  0.223083  1
  O  O16  1  0.251453  0.251334  0.766356  1
  O  O17  1  0.746558  0.270140  0.232721  1
  O  O18  1  0.251316  0.731157  0.764952  1
  O  O19  1  0.421182  0.928667  0.225470  1
  O  O20  1  0.575150  0.075133  0.774920  1
  O  O21  1  0.832522  0.335876  0.496942  1
  O  O22  1  0.574990  0.574097  0.774915  1
  O  O23  1  0.747021  0.748901  0.229415  1
  O  O24  1  0.902883  0.420344  0.769199  1
  O  O25  1  0.900828  0.903224  0.768749  1
