# generated using pymatgen
data_Li3P3WO11
_symmetry_space_group_name_H-M   'P 1'
_cell_length_a   8.15485615
_cell_length_b   8.22695025
_cell_length_c   6.41301031
_cell_angle_alpha   96.16533814
_cell_angle_beta   99.47426445
_cell_angle_gamma   109.12297450
_symmetry_Int_Tables_number   1
_chemical_formula_structural   Li3P3WO11
_chemical_formula_sum   'Li6 P6 W2 O22'
_cell_volume   394.90625303
_cell_formula_units_Z   2
loop_
 _symmetry_equiv_pos_site_id
 _symmetry_equiv_pos_as_xyz
  1  'x, y, z'
loop_
 _atom_site_type_symbol
 _atom_site_label
 _atom_site_symmetry_multiplicity
 _atom_site_fract_x
 _atom_site_fract_y
 _atom_site_fract_z
 _atom_site_occupancy
  Li  Li0  1  0.991127  0.824365  0.615814  1
  Li  Li1  1  0.178733  0.573941  0.409840  1
  Li  Li2  1  0.473888  0.962033  0.711684  1
  Li  Li3  1  0.526112  0.037967  0.288316  1
  Li  Li4  1  0.821267  0.426059  0.590160  1
  Li  Li5  1  0.008873  0.175635  0.384186  1
  P  P6  1  0.228926  0.618847  0.882174  1
  P  P7  1  0.114386  0.859748  0.140414  1
  P  P8  1  0.414285  0.288189  0.621245  1
  P  P9  1  0.585715  0.711811  0.378755  1
  P  P10  1  0.885614  0.140252  0.859586  1
  P  P11  1  0.771074  0.381153  0.117826  1
  W  W12  1  0.680755  0.725243  0.906026  1
  W  W13  1  0.319245  0.274758  0.093974  1
  O  O14  1  0.092760  0.617481  0.686317  1
  O  O15  1  0.076981  0.873117  0.360317  1
  O  O16  1  0.219696  0.437531  0.914867  1
  O  O17  1  0.172538  0.689617  0.099152  1
  O  O18  1  0.415223  0.745072  0.877540  1
  O  O19  1  0.038374  0.168403  0.054681  1
  O  O20  1  0.271438  0.293613  0.425778  1
  O  O21  1  0.315643  0.173656  0.773418  1
  O  O22  1  0.458110  0.794746  0.456575  1
  O  O23  1  0.516334  0.474511  0.747038  1
  O  O24  1  0.718872  0.988747  0.884332  1
  O  O25  1  0.281128  0.011253  0.115668  1
  O  O26  1  0.483666  0.525489  0.252962  1
  O  O27  1  0.541890  0.205254  0.543425  1
  O  O28  1  0.684357  0.826344  0.226582  1
  O  O29  1  0.728562  0.706387  0.574222  1
  O  O30  1  0.961626  0.831597  0.945319  1
  O  O31  1  0.584777  0.254928  0.122460  1
  O  O32  1  0.827462  0.310382  0.900848  1
  O  O33  1  0.780304  0.562469  0.085133  1
  O  O34  1  0.923019  0.126883  0.639683  1
  O  O35  1  0.907240  0.382519  0.313683  1
