# generated using pymatgen
data_Fe2H13C6NCl2O11
_symmetry_space_group_name_H-M   'P 1'
_cell_length_a   8.89536311
_cell_length_b   8.89536311
_cell_length_c   12.95643382
_cell_angle_alpha   78.05188019
_cell_angle_beta   101.94811981
_cell_angle_gamma   63.45894351
_symmetry_Int_Tables_number   1
_chemical_formula_structural   Fe2H13C6NCl2O11
_chemical_formula_sum   'Fe4 H26 C12 N2 Cl4 O22'
_cell_volume   843.11458990
_cell_formula_units_Z   2
loop_
 _symmetry_equiv_pos_site_id
 _symmetry_equiv_pos_as_xyz
  1  'x, y, z'
loop_
 _atom_site_type_symbol
 _atom_site_label
 _atom_site_symmetry_multiplicity
 _atom_site_fract_x
 _atom_site_fract_y
 _atom_site_fract_z
 _atom_site_occupancy
  Fe  Fe0  1  0.911014  0.002292  0.834597  1
  Fe  Fe1  1  0.997708  0.088986  0.334597  1
  Fe  Fe2  1  0.630936  0.963550  0.608112  1
  Fe  Fe3  1  0.036450  0.369064  0.108112  1
  H  H4  1  0.615357  0.211906  0.680539  1
  H  H5  1  0.788094  0.384643  0.180539  1
  H  H6  1  0.114431  0.634037  0.673062  1
  H  H7  1  0.365963  0.885569  0.173062  1
  H  H8  1  0.261791  0.558434  0.800880  1
  H  H9  1  0.441566  0.738209  0.300880  1
  H  H10  1  0.334449  0.498472  0.697548  1
  H  H11  1  0.501528  0.665551  0.197548  1
  H  H12  1  0.223050  0.652915  0.347182  1
  H  H13  1  0.347085  0.776950  0.847182  1
  H  H14  1  0.385292  0.456101  0.388894  1
  H  H15  1  0.543899  0.614708  0.888894  1
  H  H16  1  0.573182  0.499543  0.672089  1
  H  H17  1  0.500457  0.426818  0.172089  1
  H  H18  1  0.445413  0.520090  0.555487  1
  H  H19  1  0.479910  0.554587  0.055487  1
  H  H20  1  0.084500  0.409263  0.779878  1
  H  H21  1  0.590737  0.915500  0.279878  1
  H  H22  1  0.187659  0.331854  0.682402  1
  H  H23  1  0.668146  0.812341  0.182402  1
  H  H24  1  0.346338  0.096952  0.873920  1
  H  H25  1  0.903048  0.653662  0.373920  1
  H  H26  1  0.489296  0.165912  0.831961  1
  H  H27  1  0.834088  0.510704  0.331961  1
  H  H28  1  0.389678  0.244703  0.931177  1
  H  H29  1  0.755297  0.610322  0.431177  1
  C  C30  1  0.892211  0.738080  0.993458  1
  C  C31  1  0.261920  0.107789  0.493458  1
  C  C32  1  0.026246  0.637953  0.939081  1
  C  C33  1  0.362047  0.973754  0.439081  1
  C  C34  1  0.874571  0.262246  0.940625  1
  C  C35  1  0.737754  0.125429  0.440625  1
  C  C36  1  0.064035  0.101509  0.007160  1
  C  C37  1  0.898491  0.935965  0.507160  1
  C  C38  1  0.207306  0.365438  0.759146  1
  C  C39  1  0.634562  0.792694  0.259146  1
  C  C40  1  0.368585  0.209797  0.855001  1
  C  C41  1  0.790203  0.631415  0.355001  1
  N  N42  1  0.231380  0.523535  0.731394  1
  N  N43  1  0.476465  0.768620  0.231394  1
  Cl  Cl44  1  0.068543  0.047306  0.725791  1
  Cl  Cl45  1  0.952694  0.931457  0.225791  1
  Cl  Cl46  1  0.676343  0.712278  0.731570  1
  Cl  Cl47  1  0.287722  0.323657  0.231570  1
  O  O48  1  0.688947  0.079169  0.711838  1
  O  O49  1  0.920831  0.311053  0.211838  1
  O  O50  1  0.814661  0.906215  0.956911  1
  O  O51  1  0.093785  0.185339  0.456911  1
  O  O52  1  0.047674  0.733516  0.862283  1
  O  O53  1  0.266484  0.952326  0.362283  1
  O  O54  1  0.872505  0.641108  0.070476  1
  O  O55  1  0.358892  0.127495  0.570476  1
  O  O56  1  0.105761  0.469677  0.974043  1
  O  O57  1  0.530323  0.894239  0.474043  1
  O  O58  1  0.824645  0.395629  0.972676  1
  O  O59  1  0.604371  0.175355  0.472676  1
  O  O60  1  0.159992  0.120760  0.085556  1
  O  O61  1  0.879240  0.840008  0.585556  1
  O  O62  1  0.111156  0.964324  0.979274  1
  O  O63  1  0.035676  0.888844  0.479274  1
  O  O64  1  0.784649  0.246303  0.857762  1
  O  O65  1  0.753697  0.215351  0.357762  1
  O  O66  1  0.350084  0.574928  0.393900  1
  O  O67  1  0.425072  0.649916  0.893900  1
  O  O68  1  0.494856  0.459845  0.638057  1
  O  O69  1  0.540155  0.505144  0.138057  1
