# generated using pymatgen
data_Fe23O25
_symmetry_space_group_name_H-M   'P 1'
_cell_length_a   15.46298625
_cell_length_b   21.53389827
_cell_length_c   15.46102626
_cell_angle_alpha   16.93723516
_cell_angle_beta   25.60297016
_cell_angle_gamma   38.12743274
_symmetry_Int_Tables_number   1
_chemical_formula_structural   Fe23O25
_chemical_formula_sum   'Fe23 O25'
_cell_volume   516.46862796
_cell_formula_units_Z   1
loop_
 _symmetry_equiv_pos_site_id
 _symmetry_equiv_pos_as_xyz
  1  'x, y, z'
loop_
 _atom_site_type_symbol
 _atom_site_label
 _atom_site_symmetry_multiplicity
 _atom_site_fract_x
 _atom_site_fract_y
 _atom_site_fract_z
 _atom_site_occupancy
  Fe  Fe0  1  0.001224  0.012506  0.987706  1
  Fe  Fe1  1  0.082649  0.203349  0.992258  1
  Fe  Fe2  1  0.297405  0.200738  0.982000  1
  Fe  Fe3  1  0.144128  0.383973  0.034700  1
  Fe  Fe4  1  0.478776  0.187494  0.012294  1
  Fe  Fe5  1  0.066770  0.621715  0.950116  1
  Fe  Fe6  1  0.369998  0.412463  0.974681  1
  Fe  Fe7  1  0.681585  0.200486  0.003272  1
  Fe  Fe8  1  0.240000  0.600000  0.000000  1
  Fe  Fe9  1  0.566791  0.386960  0.012005  1
  Fe  Fe10  1  0.110002  0.787537  0.025319  1
  Fe  Fe11  1  0.413230  0.578285  0.049884  1
  Fe  Fe12  1  0.770305  0.399296  0.989080  1
  Fe  Fe13  1  0.335872  0.816027  0.965300  1
  Fe  Fe14  1  0.647603  0.619983  0.964194  1
  Fe  Fe15  1  0.182595  -0.000738  0.018000  1
  Fe  Fe16  1  0.954522  0.394925  0.015700  1
  Fe  Fe17  1  0.525478  0.805075  0.984300  1
  Fe  Fe18  1  0.832397  0.580017  0.035806  1
  Fe  Fe19  1  0.397351  0.996651  0.007742  1
  Fe  Fe20  1  0.709695  0.800704  0.010920  1
  Fe  Fe21  1  0.913209  0.813040  0.987995  1
  Fe  Fe22  1  0.798415  0.999514  0.996728  1
  O  O23  1  0.150433  0.108514  0.482108  1
  O  O24  1  0.016117  0.311299  0.481979  1
  O  O25  1  0.329566  0.091486  0.517892  1
  O  O26  1  0.231628  0.307559  0.479456  1
  O  O27  1  0.527840  0.111815  0.504141  1
  O  O28  1  0.100323  0.503002  0.498870  1
  O  O29  1  0.434830  0.317970  0.456530  1
  O  O30  1  0.740000  0.100000  0.500000  1
  O  O31  1  0.287938  0.491312  0.521362  1
  O  O32  1  0.617305  0.318146  0.467136  1
  O  O33  1  0.192062  0.708688  0.478638  1
  O  O34  1  0.045170  0.882030  0.543470  1
  O  O35  1  0.952160  0.088185  0.495859  1
  O  O36  1  0.500893  0.512383  0.488869  1
  O  O37  1  0.850617  0.337692  0.430178  1
  O  O38  1  0.379677  0.696998  0.501130  1
  O  O39  1  0.710240  0.514960  0.461208  1
  O  O40  1  0.248372  0.892441  0.520544  1
  O  O41  1  0.570142  0.673593  0.553416  1
  O  O42  1  0.909858  0.526407  0.446584  1
  O  O43  1  0.463883  0.888701  0.518021  1
  O  O44  1  0.769760  0.685040  0.538792  1
  O  O45  1  0.629383  0.862308  0.569822  1
  O  O46  1  0.979107  0.687617  0.511131  1
  O  O47  1  0.862695  0.881854  0.532864  1
