# generated using pymatgen
data_Ba3Y2F12
_symmetry_space_group_name_H-M   'P 1'
_cell_length_a   10.76766484
_cell_length_b   10.42315281
_cell_length_c   10.81656169
_cell_angle_alpha   90.00000000
_cell_angle_beta   91.38172983
_cell_angle_gamma   90.00000000
_symmetry_Int_Tables_number   1
_chemical_formula_structural   Ba3Y2F12
_chemical_formula_sum   'Ba12 Y8 F48'
_cell_volume   1213.62235372
_cell_formula_units_Z   4
loop_
 _symmetry_equiv_pos_site_id
 _symmetry_equiv_pos_as_xyz
  1  'x, y, z'
loop_
 _atom_site_type_symbol
 _atom_site_label
 _atom_site_symmetry_multiplicity
 _atom_site_fract_x
 _atom_site_fract_y
 _atom_site_fract_z
 _atom_site_occupancy
  Ba  Ba0  1  0.028074  0.216177  0.798063  1
  Ba  Ba1  1  0.025570  0.615403  0.671639  1
  Ba  Ba2  1  0.192795  0.989689  0.521181  1
  Ba  Ba3  1  0.307205  0.489689  0.978819  1
  Ba  Ba4  1  0.474430  0.115403  0.828361  1
  Ba  Ba5  1  0.471926  0.716177  0.701937  1
  Ba  Ba6  1  0.528074  0.283823  0.298063  1
  Ba  Ba7  1  0.525570  0.884597  0.171639  1
  Ba  Ba8  1  0.692795  0.510311  0.021181  1
  Ba  Ba9  1  0.807205  0.010311  0.478819  1
  Ba  Ba10  1  0.974430  0.384597  0.328361  1
  Ba  Ba11  1  0.971926  0.783823  0.201937  1
  Y  Y12  1  0.187284  0.853458  0.925967  1
  Y  Y13  1  0.197700  0.157914  0.157615  1
  Y  Y14  1  0.312716  0.353458  0.574033  1
  Y  Y15  1  0.302300  0.657914  0.342385  1
  Y  Y16  1  0.697700  0.342086  0.657615  1
  Y  Y17  1  0.687284  0.646542  0.425967  1
  Y  Y18  1  0.802300  0.842086  0.842385  1
  Y  Y19  1  0.812716  0.146542  0.074033  1
  F  F20  1  0.996385  0.768295  0.897641  1
  F  F21  1  0.998795  0.146636  0.566405  1
  F  F22  1  0.111045  0.447589  0.829043  1
  F  F23  1  0.129166  0.430610  0.530774  1
  F  F24  1  0.095634  0.117862  0.320482  1
  F  F25  1  0.111635  0.601290  0.316537  1
  F  F26  1  0.113950  0.977310  0.074862  1
  F  F27  1  0.138080  0.980928  0.777609  1
  F  F28  1  0.184013  0.707428  0.071040  1
  F  F29  1  0.217668  0.359325  0.201977  1
  F  F30  1  0.238146  0.212919  0.964889  1
  F  F31  1  0.242029  0.702107  0.804499  1
  F  F32  1  0.257971  0.202107  0.695501  1
  F  F33  1  0.261854  0.712919  0.535111  1
  F  F34  1  0.282332  0.859325  0.298023  1
  F  F35  1  0.315987  0.207428  0.428960  1
  F  F36  1  0.361920  0.480928  0.722391  1
  F  F37  1  0.386050  0.477310  0.425138  1
  F  F38  1  0.388365  0.101290  0.183463  1
  F  F39  1  0.370834  0.930610  0.969226  1
  F  F40  1  0.404366  0.617862  0.179518  1
  F  F41  1  0.388955  0.947589  0.670957  1
  F  F42  1  0.501205  0.646636  0.933595  1
  F  F43  1  0.503615  0.268295  0.602359  1
  F  F44  1  0.496385  0.731705  0.397641  1
  F  F45  1  0.498795  0.353365  0.066405  1
  F  F46  1  0.611045  0.052411  0.329043  1
  F  F47  1  0.595634  0.382138  0.820482  1
  F  F48  1  0.629166  0.069390  0.030774  1
  F  F49  1  0.611635  0.898710  0.816537  1
  F  F50  1  0.613950  0.522690  0.574862  1
  F  F51  1  0.638080  0.519072  0.277609  1
  F  F52  1  0.684013  0.792572  0.571040  1
  F  F53  1  0.717668  0.140675  0.701977  1
  F  F54  1  0.738146  0.287081  0.464889  1
  F  F55  1  0.742029  0.797893  0.304499  1
  F  F56  1  0.757971  0.297893  0.195501  1
  F  F57  1  0.761854  0.787081  0.035111  1
  F  F58  1  0.782332  0.640675  0.798023  1
  F  F59  1  0.815987  0.292572  0.928960  1
  F  F60  1  0.861920  0.019072  0.222391  1
  F  F61  1  0.886050  0.022690  0.925138  1
  F  F62  1  0.888365  0.398710  0.683463  1
  F  F63  1  0.904366  0.882138  0.679518  1
  F  F64  1  0.870834  0.569390  0.469226  1
  F  F65  1  0.888955  0.552411  0.170957  1
  F  F66  1  0.001205  0.853364  0.433595  1
  F  F67  1  0.003615  0.231705  0.102359  1
