# generated using pymatgen
data_Mn12O7F17
_symmetry_space_group_name_H-M   'P 1'
_cell_length_a   5.27331038
_cell_length_b   5.72847165
_cell_length_c   14.49589160
_cell_angle_alpha   94.62601259
_cell_angle_beta   91.08196510
_cell_angle_gamma   89.14155075
_symmetry_Int_Tables_number   1
_chemical_formula_structural   Mn12O7F17
_chemical_formula_sum   'Mn12 O7 F17'
_cell_volume   436.34791127
_cell_formula_units_Z   1
loop_
 _symmetry_equiv_pos_site_id
 _symmetry_equiv_pos_as_xyz
  1  'x, y, z'
loop_
 _atom_site_type_symbol
 _atom_site_label
 _atom_site_symmetry_multiplicity
 _atom_site_fract_x
 _atom_site_fract_y
 _atom_site_fract_z
 _atom_site_occupancy
  Mn  Mn0  1  0.029913  0.926426  0.001782  1
  Mn  Mn1  1  0.993566  0.414988  0.173339  1
  Mn  Mn2  1  0.016896  0.897825  0.334955  1
  Mn  Mn3  1  0.960926  0.422241  0.503359  1
  Mn  Mn4  1  0.024664  0.929101  0.670691  1
  Mn  Mn5  1  0.973671  0.435725  0.842462  1
  Mn  Mn6  1  0.494628  0.123332  0.173996  1
  Mn  Mn7  1  0.506551  0.518507  0.014324  1
  Mn  Mn8  1  0.500398  0.590709  0.666817  1
  Mn  Mn9  1  0.485498  0.099810  0.498831  1
  Mn  Mn10  1  0.475911  0.604051  0.328218  1
  Mn  Mn11  1  0.511952  0.077281  0.833533  1
  O  O12  1  0.325133  0.861982  0.409203  1
  O  O13  1  0.360845  0.857790  0.741526  1
  O  O14  1  0.299911  0.323310  0.097914  1
  O  O15  1  0.165165  0.644128  0.259013  1
  O  O16  1  0.662704  0.324903  0.912702  1
  O  O17  1  0.639289  0.362687  0.573640  1
  O  O18  1  0.654670  0.391500  0.238682  1
  F  F19  1  0.154556  0.140581  0.249499  1
  F  F20  1  0.372881  0.846016  0.088754  1
  F  F21  1  0.160294  0.145912  0.573329  1
  F  F22  1  0.185560  0.133876  0.902622  1
  F  F23  1  0.185795  0.644002  0.587688  1
  F  F24  1  0.215147  0.639785  0.927946  1
  F  F25  1  0.313116  0.362652  0.753730  1
  F  F26  1  0.299944  0.357777  0.422982  1
  F  F27  1  0.857791  0.634799  0.071129  1
  F  F28  1  0.794693  0.631402  0.403331  1
  F  F29  1  0.837490  0.632433  0.732314  1
  F  F30  1  0.818671  0.120839  0.420443  1
  F  F31  1  0.819988  0.150124  0.090242  1
  F  F32  1  0.812323  0.150970  0.755460  1
  F  F33  1  0.682143  0.867541  0.583404  1
  F  F34  1  0.722354  0.835754  0.907735  1
  F  F35  1  0.684964  0.899237  0.254407  1
