# generated using pymatgen
data_CsTaCo(OF2)2
_symmetry_space_group_name_H-M   'P 1'
_cell_length_a   7.57069515
_cell_length_b   7.49710052
_cell_length_c   7.65245699
_cell_angle_alpha   59.95388778
_cell_angle_beta   59.09732133
_cell_angle_gamma   61.04158143
_symmetry_Int_Tables_number   1
_chemical_formula_structural   CsTaCo(OF2)2
_chemical_formula_sum   'Cs2 Ta2 Co2 O4 F8'
_cell_volume   307.16214492
_cell_formula_units_Z   2
loop_
 _symmetry_equiv_pos_site_id
 _symmetry_equiv_pos_as_xyz
  1  'x, y, z'
loop_
 _atom_site_type_symbol
 _atom_site_label
 _atom_site_symmetry_multiplicity
 _atom_site_fract_x
 _atom_site_fract_y
 _atom_site_fract_z
 _atom_site_occupancy
  Cs  Cs0  1  0.374988  0.375012  0.374988  1
  Cs  Cs1  1  0.627920  0.622080  0.627920  1
  Ta  Ta2  1  0.515810  0.006970  0.003362  1
  Ta  Ta3  1  0.003362  0.973858  0.515810  1
  Co  Co4  1  0.995450  0.000820  0.002080  1
  Co  Co5  1  0.002080  0.501650  0.995450  1
  O  O6  1  0.685429  0.053831  0.067694  1
  O  O7  1  0.067694  0.693046  0.685429  1
  O  O8  1  0.291946  0.958054  0.291946  1
  O  O9  1  0.694187  0.055813  0.694187  1
  F  F10  1  0.076803  0.079207  0.658234  1
  F  F11  1  0.069981  0.680019  0.069981  1
  F  F12  1  0.336827  0.317033  0.918930  1
  F  F13  1  0.658234  0.685755  0.076803  1
  F  F14  1  0.927975  0.311033  0.319956  1
  F  F15  1  0.319956  0.941036  0.927975  1
  F  F16  1  0.918930  0.927210  0.336827  1
  F  F17  1  0.932428  0.317572  0.932428  1
