# generated using pymatgen
data_LiFeP3H8O13
_symmetry_space_group_name_H-M   'P 1'
_cell_length_a   7.69420148
_cell_length_b   9.96493324
_cell_length_c   7.12298623
_cell_angle_alpha   105.89570886
_cell_angle_beta   101.65340428
_cell_angle_gamma   84.02858409
_symmetry_Int_Tables_number   1
_chemical_formula_structural   LiFeP3H8O13
_chemical_formula_sum   'Li2 Fe2 P6 H16 O26'
_cell_volume   513.73675778
_cell_formula_units_Z   2
loop_
 _symmetry_equiv_pos_site_id
 _symmetry_equiv_pos_as_xyz
  1  'x, y, z'
loop_
 _atom_site_type_symbol
 _atom_site_label
 _atom_site_symmetry_multiplicity
 _atom_site_fract_x
 _atom_site_fract_y
 _atom_site_fract_z
 _atom_site_occupancy
  Li  Li0  1  0.000000  0.000000  0.000000  1
  Li  Li1  1  0.500000  0.500000  0.000000  1
  Fe  Fe2  1  0.192361  0.237817  0.814899  1
  Fe  Fe3  1  0.807639  0.762183  0.185101  1
  P  P4  1  0.194391  0.257094  0.327529  1
  P  P5  1  0.194490  0.522118  0.238187  1
  P  P6  1  0.537848  0.269056  0.595557  1
  P  P7  1  0.462152  0.730944  0.404443  1
  P  P8  1  0.805510  0.477882  0.761813  1
  P  P9  1  0.805609  0.742906  0.672471  1
  H  H10  1  0.017579  0.032434  0.359265  1
  H  H11  1  0.181945  0.569540  0.818888  1
  H  H12  1  0.136194  0.896473  0.308952  1
  H  H13  1  0.258729  0.794903  0.920277  1
  H  H14  1  0.305715  0.601279  0.690349  1
  H  H15  1  0.337028  0.990535  0.857169  1
  H  H16  1  0.374488  0.996537  0.649920  1
  H  H17  1  0.340146  0.915836  0.099806  1
  H  H18  1  0.659854  0.084164  0.900194  1
  H  H19  1  0.625512  0.003463  0.350080  1
  H  H20  1  0.662972  0.009465  0.142831  1
  H  H21  1  0.694285  0.398721  0.309651  1
  H  H22  1  0.741271  0.205097  0.079723  1
  H  H23  1  0.863806  0.103527  0.691048  1
  H  H24  1  0.818055  0.430460  0.181112  1
  H  H25  1  0.982421  0.967566  0.640735  1
  O  O26  1  0.121990  0.209012  0.477861  1
  O  O27  1  0.014305  0.936773  0.270530  1
  O  O28  1  0.039759  0.618872  0.192511  1
  O  O29  1  0.139721  0.424029  0.363010  1
  O  O30  1  0.146008  0.186172  0.111447  1
  O  O31  1  0.252477  0.898460  0.976043  1
  O  O32  1  0.286316  0.620316  0.827025  1
  O  O33  1  0.373678  0.055017  0.786962  1
  O  O34  1  0.435158  0.325582  0.761719  1
  O  O35  1  0.287485  0.434789  0.075815  1
  O  O36  1  0.344930  0.606921  0.415523  1
  O  O37  1  0.410339  0.253772  0.381639  1
  O  O38  1  0.348412  0.863571  0.413333  1
  O  O39  1  0.651588  0.136429  0.586667  1
  O  O40  1  0.589661  0.746228  0.618361  1
  O  O41  1  0.655070  0.393079  0.584477  1
  O  O42  1  0.712515  0.565211  0.924185  1
  O  O43  1  0.564842  0.674418  0.238281  1
  O  O44  1  0.626322  0.944982  0.213038  1
  O  O45  1  0.713684  0.379684  0.172975  1
  O  O46  1  0.747523  0.101540  0.023957  1
  O  O47  1  0.853992  0.813828  0.888553  1
  O  O48  1  0.860279  0.575971  0.636990  1
  O  O49  1  0.960241  0.381128  0.807489  1
  O  O50  1  0.985695  0.063227  0.729470  1
  O  O51  1  0.878010  0.790988  0.522139  1
