# generated using pymatgen
data_Li3Sb(PO4)2
_symmetry_space_group_name_H-M   'P 1'
_cell_length_a   19.59609185
_cell_length_b   5.24913333
_cell_length_c   12.94690463
_cell_angle_alpha   90.00000000
_cell_angle_beta   71.15618208
_cell_angle_gamma   90.00000000
_symmetry_Int_Tables_number   1
_chemical_formula_structural   Li3Sb(PO4)2
_chemical_formula_sum   'Li24 Sb8 P16 O64'
_cell_volume   1260.37247455
_cell_formula_units_Z   8
loop_
 _symmetry_equiv_pos_site_id
 _symmetry_equiv_pos_as_xyz
  1  'x, y, z'
loop_
 _atom_site_type_symbol
 _atom_site_label
 _atom_site_symmetry_multiplicity
 _atom_site_fract_x
 _atom_site_fract_y
 _atom_site_fract_z
 _atom_site_occupancy
  Li  Li0  1  0.038039  0.763875  0.319287  1
  Li  Li1  1  0.127815  0.294578  0.206324  1
  Li  Li2  1  0.193366  0.702553  0.056655  1
  Li  Li3  1  0.038039  0.736125  0.819287  1
  Li  Li4  1  0.127815  0.205422  0.706324  1
  Li  Li5  1  0.193366  0.797447  0.556655  1
  Li  Li6  1  0.308365  0.211264  0.248115  1
  Li  Li7  1  0.372627  0.794300  0.328584  1
  Li  Li8  1  0.308365  0.288736  0.748115  1
  Li  Li9  1  0.458730  0.264965  0.358433  1
  Li  Li10  1  0.372627  0.705700  0.828584  1
  Li  Li11  1  0.541270  0.764965  0.141567  1
  Li  Li12  1  0.458730  0.235035  0.858433  1
  Li  Li13  1  0.627373  0.294300  0.171416  1
  Li  Li14  1  0.541270  0.735035  0.641567  1
  Li  Li15  1  0.691635  0.711264  0.251885  1
  Li  Li16  1  0.627373  0.205700  0.671416  1
  Li  Li17  1  0.691635  0.788736  0.751885  1
  Li  Li18  1  0.806634  0.202553  0.443345  1
  Li  Li19  1  0.872185  0.794578  0.293676  1
  Li  Li20  1  0.961961  0.263875  0.180713  1
  Li  Li21  1  0.806634  0.297447  0.943345  1
  Li  Li22  1  0.872185  0.705422  0.793676  1
  Li  Li23  1  0.961961  0.236125  0.680713  1
  Sb  Sb24  1  0.125124  0.314978  0.461088  1
  Sb  Sb25  1  0.125124  0.185022  0.961088  1
  Sb  Sb26  1  0.375544  0.686306  0.085817  1
  Sb  Sb27  1  0.375544  0.813694  0.585817  1
  Sb  Sb28  1  0.624456  0.186306  0.414183  1
  Sb  Sb29  1  0.624456  0.313694  0.914183  1
  Sb  Sb30  1  0.874876  0.814978  0.038912  1
  Sb  Sb31  1  0.874876  0.685022  0.538912  1
  P  P32  1  0.040410  0.725716  0.085368  1
  P  P33  1  0.040410  0.774284  0.585368  1
  P  P34  1  0.209647  0.784208  0.287088  1
  P  P35  1  0.209647  0.715792  0.787088  1
  P  P36  1  0.290893  0.287303  0.498545  1
  P  P37  1  0.461778  0.224966  0.123168  1
  P  P38  1  0.290893  0.212697  0.998545  1
  P  P39  1  0.461778  0.275034  0.623168  1
  P  P40  1  0.538222  0.724966  0.376832  1
  P  P41  1  0.709107  0.787303  0.001455  1
  P  P42  1  0.538222  0.775034  0.876832  1
  P  P43  1  0.709107  0.712697  0.501455  1
  P  P44  1  0.790353  0.284208  0.212912  1
  P  P45  1  0.790353  0.215792  0.712912  1
  P  P46  1  0.959590  0.225716  0.414632  1
  P  P47  1  0.959590  0.274284  0.914632  1
  O  O48  1  0.081549  0.474598  0.093618  1
  O  O49  1  0.091419  0.952385  0.100597  1
  O  O50  1  0.028297  0.234402  0.315304  1
  O  O51  1  0.031344  0.743358  0.473012  1
  O  O52  1  0.209356  0.298109  0.020275  1
  O  O53  1  0.166581  0.647484  0.223810  1
  O  O54  1  0.081549  0.025402  0.593618  1
  O  O55  1  0.091419  0.547615  0.600597  1
  O  O56  1  0.028297  0.265598  0.815304  1
  O  O57  1  0.200874  0.077750  0.286542  1
  O  O58  1  0.031344  0.756642  0.973012  1
  O  O59  1  0.187656  0.680729  0.406376  1
  O  O60  1  0.293374  0.919011  0.003152  1
  O  O61  1  0.311262  0.328252  0.095654  1
  O  O62  1  0.209356  0.201891  0.520275  1
  O  O63  1  0.166581  0.852516  0.723810  1
  O  O64  1  0.294064  0.729556  0.239037  1
  O  O65  1  0.200874  0.422250  0.786542  1
  O  O66  1  0.187656  0.819271  0.906376  1
  O  O67  1  0.293374  0.580989  0.503152  1
  O  O68  1  0.338806  0.170984  0.389987  1
  O  O69  1  0.311262  0.171748  0.595654  1
  O  O70  1  0.414281  0.987557  0.176006  1
  O  O71  1  0.416205  0.461695  0.186552  1
  O  O72  1  0.294064  0.770444  0.739037  1
  O  O73  1  0.470352  0.252239  0.002063  1
  O  O74  1  0.468790  0.715101  0.346685  1
  O  O75  1  0.338806  0.329016  0.889987  1
  O  O76  1  0.531210  0.215101  0.153315  1
  O  O77  1  0.414281  0.512443  0.676006  1
  O  O78  1  0.416205  0.038305  0.686552  1
  O  O79  1  0.470352  0.247761  0.502063  1
  O  O80  1  0.529648  0.752239  0.497937  1
  O  O81  1  0.583795  0.961695  0.313448  1
  O  O82  1  0.585719  0.487557  0.323994  1
  O  O83  1  0.468790  0.784899  0.846685  1
  O  O84  1  0.661194  0.670984  0.110013  1
  O  O85  1  0.531210  0.284899  0.653315  1
  O  O86  1  0.529648  0.747761  0.997937  1
  O  O87  1  0.705936  0.229556  0.260963  1
  O  O88  1  0.583795  0.538305  0.813448  1
  O  O89  1  0.585719  0.012443  0.823994  1
  O  O90  1  0.688738  0.828252  0.404346  1
  O  O91  1  0.661194  0.829016  0.610013  1
  O  O92  1  0.706626  0.419011  0.496848  1
  O  O93  1  0.812344  0.180729  0.093624  1
  O  O94  1  0.799126  0.577750  0.213458  1
  O  O95  1  0.705936  0.270444  0.760963  1
  O  O96  1  0.833419  0.147484  0.276190  1
  O  O97  1  0.790644  0.798109  0.479725  1
  O  O98  1  0.688738  0.671748  0.904346  1
  O  O99  1  0.706626  0.080989  0.996848  1
  O  O100  1  0.812344  0.319271  0.593624  1
  O  O101  1  0.968656  0.243358  0.026988  1
  O  O102  1  0.799126  0.922250  0.713458  1
  O  O103  1  0.971703  0.734402  0.184696  1
  O  O104  1  0.908581  0.452385  0.399403  1
  O  O105  1  0.918451  0.974598  0.406382  1
  O  O106  1  0.833419  0.352516  0.776190  1
  O  O107  1  0.790644  0.701891  0.979725  1
  O  O108  1  0.968656  0.256642  0.526988  1
  O  O109  1  0.971703  0.765598  0.684696  1
  O  O110  1  0.908581  0.047615  0.899403  1
  O  O111  1  0.918451  0.525402  0.906382  1
