# generated using pymatgen
data_P2H24PdC12(BrN3)2
_symmetry_space_group_name_H-M   'P 1'
_cell_length_a   7.43456189
_cell_length_b   12.02181290
_cell_length_c   10.55629065
_cell_angle_alpha   90.00000000
_cell_angle_beta   94.99305090
_cell_angle_gamma   90.00000000
_symmetry_Int_Tables_number   1
_chemical_formula_structural   P2H24PdC12(BrN3)2
_chemical_formula_sum   'P4 H48 Pd2 C24 Br4 N12'
_cell_volume   939.90836725
_cell_formula_units_Z   2
loop_
 _symmetry_equiv_pos_site_id
 _symmetry_equiv_pos_as_xyz
  1  'x, y, z'
loop_
 _atom_site_type_symbol
 _atom_site_label
 _atom_site_symmetry_multiplicity
 _atom_site_fract_x
 _atom_site_fract_y
 _atom_site_fract_z
 _atom_site_occupancy
  P  P0  1  0.364294  0.674409  0.952052  1
  P  P1  1  0.864294  0.825591  0.452052  1
  P  P2  1  0.635706  0.325591  0.047948  1
  P  P3  1  0.135706  0.174409  0.547948  1
  H  H4  1  0.313021  0.660175  0.719700  1
  H  H5  1  0.813021  0.839825  0.219700  1
  H  H6  1  0.686979  0.339825  0.280300  1
  H  H7  1  0.186979  0.160175  0.780300  1
  H  H8  1  0.120007  0.615616  0.794705  1
  H  H9  1  0.620007  0.884384  0.294705  1
  H  H10  1  0.879993  0.384384  0.205295  1
  H  H11  1  0.379993  0.115616  0.705295  1
  H  H12  1  0.573920  0.824154  0.022857  1
  H  H13  1  0.073920  0.675846  0.522857  1
  H  H14  1  0.426080  0.175846  0.977143  1
  H  H15  1  0.926080  0.324154  0.477143  1
  H  H16  1  0.595528  0.788747  0.861490  1
  H  H17  1  0.095528  0.711253  0.361490  1
  H  H18  1  0.404472  0.211253  0.138510  1
  H  H19  1  0.904472  0.288747  0.638510  1
  H  H20  1  0.087236  0.673224  0.062017  1
  H  H21  1  0.587236  0.826776  0.562017  1
  H  H22  1  0.912764  0.326776  0.937983  1
  H  H23  1  0.412764  0.173224  0.437983  1
  H  H24  1  0.259223  0.752574  0.147295  1
  H  H25  1  0.759223  0.747426  0.647295  1
  H  H26  1  0.740777  0.247426  0.852705  1
  H  H27  1  0.240777  0.252574  0.352705  1
  H  H28  1  0.372656  0.854115  0.696720  1
  H  H29  1  0.872656  0.645885  0.196720  1
  H  H30  1  0.627344  0.145885  0.303280  1
  H  H31  1  0.127344  0.354115  0.803280  1
  H  H32  1  0.208899  0.953621  0.733576  1
  H  H33  1  0.708899  0.546379  0.233576  1
  H  H34  1  0.791101  0.046379  0.266424  1
  H  H35  1  0.291101  0.453621  0.766424  1
  H  H36  1  0.327934  0.935728  0.079437  1
  H  H37  1  0.827934  0.564272  0.579437  1
  H  H38  1  0.672066  0.064272  0.920563  1
  H  H39  1  0.172066  0.435728  0.420563  1
  H  H40  1  0.183795  0.003457  0.960174  1
  H  H41  1  0.683795  0.496543  0.460174  1
  H  H42  1  0.816205  0.996543  0.039826  1
  H  H43  1  0.316205  0.503457  0.539826  1
  H  H44  1  0.943931  0.893881  0.838751  1
  H  H45  1  0.443931  0.606119  0.338751  1
  H  H46  1  0.056069  0.106119  0.161249  1
  H  H47  1  0.556069  0.393881  0.661249  1
  H  H48  1  0.921032  0.750334  0.877135  1
  H  H49  1  0.421032  0.749666  0.377135  1
  H  H50  1  0.078968  0.249666  0.122865  1
  H  H51  1  0.578968  0.250334  0.622865  1
  Pd  Pd52  1  0.500000  0.500000  0.000000  1
  Pd  Pd53  1  0.000000  0.000000  0.500000  1
  C  C54  1  0.224906  0.680047  0.795347  1
  C  C55  1  0.724906  0.819953  0.295347  1
  C  C56  1  0.775094  0.319953  0.204653  1
  C  C57  1  0.275094  0.180047  0.704653  1
  C  C58  1  0.497757  0.804650  0.931662  1
  C  C59  1  0.997757  0.695350  0.431662  1
  C  C60  1  0.502243  0.195350  0.068338  1
  C  C61  1  0.002243  0.304650  0.568338  1
  C  C62  1  0.192923  0.735576  0.052040  1
  C  C63  1  0.692923  0.764424  0.552040  1
  C  C64  1  0.807077  0.264424  0.947960  1
  C  C65  1  0.307077  0.235576  0.447960  1
  C  C66  1  0.277925  0.876946  0.767128  1
  C  C67  1  0.777925  0.623054  0.267128  1
  C  C68  1  0.722075  0.123054  0.232872  1
  C  C69  1  0.222075  0.376946  0.732872  1
  C  C70  1  0.251988  0.924396  0.985998  1
  C  C71  1  0.751988  0.575604  0.485998  1
  C  C72  1  0.748012  0.075604  0.014002  1
  C  C73  1  0.248012  0.424396  0.514002  1
  C  C74  1  0.018924  0.818349  0.869755  1
  C  C75  1  0.518924  0.681651  0.369755  1
  C  C76  1  0.981076  0.181651  0.130245  1
  C  C77  1  0.481076  0.318349  0.630245  1
  Br  Br78  1  0.260234  0.454177  0.140642  1
  Br  Br79  1  0.760234  0.045823  0.640642  1
  Br  Br80  1  0.739766  0.545823  0.859358  1
  Br  Br81  1  0.239766  0.954177  0.359358  1
  N  N82  1  0.140593  0.789213  0.771387  1
  N  N83  1  0.640593  0.710787  0.271387  1
  N  N84  1  0.859407  0.210787  0.228613  1
  N  N85  1  0.359407  0.289213  0.728613  1
  N  N86  1  0.379698  0.898195  0.890764  1
  N  N87  1  0.879698  0.601805  0.390764  1
  N  N88  1  0.620302  0.101805  0.109236  1
  N  N89  1  0.120302  0.398195  0.609236  1
  N  N90  1  0.113546  0.838155  0.996251  1
  N  N91  1  0.613546  0.661845  0.496251  1
  N  N92  1  0.886454  0.161845  0.003749  1
  N  N93  1  0.386454  0.338155  0.503749  1
