# generated using pymatgen
data_Lu2TeO6
_symmetry_space_group_name_H-M   'P 1'
_cell_length_a   9.09538060
_cell_length_b   9.09547936
_cell_length_c   5.06102612
_cell_angle_alpha   90.00111811
_cell_angle_beta   90.00000000
_cell_angle_gamma   119.99964444
_symmetry_Int_Tables_number   1
_chemical_formula_structural   Lu2TeO6
_chemical_formula_sum   'Lu6 Te3 O18'
_cell_volume   362.59118041
_cell_formula_units_Z   3
loop_
 _symmetry_equiv_pos_site_id
 _symmetry_equiv_pos_as_xyz
  1  'x, y, z'
loop_
 _atom_site_type_symbol
 _atom_site_label
 _atom_site_symmetry_multiplicity
 _atom_site_fract_x
 _atom_site_fract_y
 _atom_site_fract_z
 _atom_site_occupancy
  Lu  Lu0  1  0.999989  0.627315  0.000006  1
  Lu  Lu1  1  0.999991  0.290091  0.500009  1
  Lu  Lu2  1  0.372675  0.372685  0.999994  1
  Lu  Lu3  1  0.290079  0.000000  0.500000  1
  Lu  Lu4  1  0.709901  0.709909  0.499991  1
  Lu  Lu5  1  0.627326  0.000000  0.000000  1
  Te  Te6  1  0.333327  0.666681  0.508333  1
  Te  Te7  1  0.000010  0.000000  0.000000  1
  Te  Te8  1  0.666647  0.333319  0.491667  1
  O  O9  1  0.085225  0.881223  0.785787  1
  O  O10  1  0.220057  0.759263  0.291285  1
  O  O11  1  0.129548  0.542461  0.726007  1
  O  O12  1  0.412900  0.870453  0.726024  1
  O  O13  1  0.240710  0.460797  0.291261  1
  O  O14  1  0.118765  0.203989  0.785773  1
  O  O15  1  0.204002  0.118777  0.214213  1
  O  O16  1  0.539200  0.779927  0.291270  1
  O  O17  1  0.457548  0.587100  0.726017  1
  O  O18  1  0.796022  0.914779  0.785775  1
  O  O19  1  0.460794  0.240737  0.708715  1
  O  O20  1  0.587087  0.457539  0.273993  1
  O  O21  1  0.542447  0.129547  0.273976  1
  O  O22  1  0.779912  0.539203  0.708739  1
  O  O23  1  0.914777  0.796011  0.214227  1
  O  O24  1  0.759271  0.220073  0.708730  1
  O  O25  1  0.870447  0.412900  0.273983  1
  O  O26  1  0.881242  0.085221  0.214225  1
