# generated using pymatgen
data_Ca5La7Mn7Ru5O36
_symmetry_space_group_name_H-M   'P 1'
_cell_length_a   5.56082087
_cell_length_b   5.65386654
_cell_length_c   23.69855605
_cell_angle_alpha   89.82750728
_cell_angle_beta   90.10070551
_cell_angle_gamma   90.16411969
_symmetry_Int_Tables_number   1
_chemical_formula_structural   Ca5La7Mn7Ru5O36
_chemical_formula_sum   'Ca5 La7 Mn7 Ru5 O36'
_cell_volume   745.07832441
_cell_formula_units_Z   1
loop_
 _symmetry_equiv_pos_site_id
 _symmetry_equiv_pos_as_xyz
  1  'x, y, z'
loop_
 _atom_site_type_symbol
 _atom_site_label
 _atom_site_symmetry_multiplicity
 _atom_site_fract_x
 _atom_site_fract_y
 _atom_site_fract_z
 _atom_site_occupancy
  Ca  Ca0  1  0.010402  0.050102  0.085753  1
  Ca  Ca1  1  0.483822  0.556609  0.085603  1
  Ca  Ca2  1  0.516563  0.444091  0.249034  1
  Ca  Ca3  1  0.987683  0.949685  0.249521  1
  Ca  Ca4  1  0.992025  0.957739  0.579223  1
  La  La5  1  0.008346  0.038983  0.417535  1
  La  La6  1  0.005639  0.036651  0.750414  1
  La  La7  1  0.488728  0.542010  0.415620  1
  La  La8  1  0.487587  0.541826  0.751653  1
  La  La9  1  0.513408  0.456161  0.579687  1
  La  La10  1  0.511872  0.459045  0.918265  1
  La  La11  1  0.991944  0.961419  0.917732  1
  Mn  Mn12  1  0.998667  0.499433  0.834178  1
  Mn  Mn13  1  0.501070  0.999203  0.500282  1
  Mn  Mn14  1  0.498668  0.000390  0.833971  1
  Mn  Mn15  1  0.496919  0.000800  0.004347  1
  Mn  Mn16  1  0.501429  0.999144  0.330014  1
  Mn  Mn17  1  0.499966  0.000175  0.664281  1
  Mn  Mn18  1  0.001188  0.501009  0.500328  1
  Ru  Ru19  1  -0.000057  0.502265  0.004678  1
  Ru  Ru20  1  0.000990  0.500433  0.167033  1
  Ru  Ru21  1  -0.000438  0.499508  0.664429  1
  Ru  Ru22  1  0.501638  0.999630  0.167306  1
  Ru  Ru23  1  0.000541  0.497902  0.329315  1
  O  O24  1  0.095703  0.526719  0.248837  1
  O  O25  1  0.091586  0.536016  0.585785  1
  O  O26  1  0.089180  0.523385  0.921752  1
  O  O27  1  0.205806  0.792826  0.149707  1
  O  O28  1  0.221959  0.782390  0.484078  1
  O  O29  1  0.218018  0.783370  0.819124  1
  O  O30  1  0.200479  0.781871  0.348860  1
  O  O31  1  0.187672  0.797524  0.017592  1
  O  O32  1  0.204939  0.780070  0.684881  1
  O  O33  1  0.293843  0.311037  0.016256  1
  O  O34  1  0.281355  0.295304  0.349010  1
  O  O35  1  0.286404  0.297462  0.682552  1
  O  O36  1  0.295796  0.291646  0.149252  1
  O  O37  1  0.284502  0.287799  0.485567  1
  O  O38  1  0.277216  0.282559  0.819501  1
  O  O39  1  0.412161  0.023530  0.583321  1
  O  O40  1  0.401363  0.032872  0.248200  1
  O  O41  1  0.421399  0.016474  0.918096  1
  O  O42  1  0.600167  0.965615  0.086998  1
  O  O43  1  0.576726  0.985724  0.414049  1
  O  O44  1  0.578699  0.984063  0.748974  1
  O  O45  1  0.703784  0.707356  0.184580  1
  O  O46  1  0.718234  0.714017  0.512431  1
  O  O47  1  0.718958  0.716106  0.847570  1
  O  O48  1  0.707846  0.692751  0.316899  1
  O  O49  1  0.709408  0.694149  0.652306  1
  O  O50  1  0.718973  0.706425  0.983975  1
  O  O51  1  0.806436  0.206360  0.316036  1
  O  O52  1  0.809951  0.207215  0.649081  1
  O  O53  1  0.797751  0.221229  0.984259  1
  O  O54  1  0.795222  0.206155  0.183953  1
  O  O55  1  0.779073  0.216569  0.848312  1
  O  O56  1  0.785030  0.215481  0.514189  1
  O  O57  1  0.900675  0.469734  0.084825  1
  O  O58  1  0.914427  0.478777  0.412091  1
  O  O59  1  0.910658  0.475202  0.746898  1
