# generated using pymatgen
data_Fe4OF7
_symmetry_space_group_name_H-M   'P 1'
_cell_length_a   4.84276002
_cell_length_b   5.81150572
_cell_length_c   5.81150572
_cell_angle_alpha   113.36522694
_cell_angle_beta   89.44910859
_cell_angle_gamma   90.55089141
_symmetry_Int_Tables_number   1
_chemical_formula_structural   Fe4OF7
_chemical_formula_sum   'Fe4 O1 F7'
_cell_volume   150.13504745
_cell_formula_units_Z   1
loop_
 _symmetry_equiv_pos_site_id
 _symmetry_equiv_pos_as_xyz
  1  'x, y, z'
loop_
 _atom_site_type_symbol
 _atom_site_label
 _atom_site_symmetry_multiplicity
 _atom_site_fract_x
 _atom_site_fract_y
 _atom_site_fract_z
 _atom_site_occupancy
  Fe  Fe0  1  0.508218  0.003967  0.496033  1
  Fe  Fe1  1  0.508709  0.504320  0.995680  1
  Fe  Fe2  1  0.989497  0.473232  0.484415  1
  Fe  Fe3  1  0.989497  0.015585  0.026768  1
  O  O4  1  0.798459  0.150241  0.349759  1
  F  F5  1  0.807568  0.653001  0.846999  1
  F  F6  1  0.706170  0.149120  0.855857  1
  F  F7  1  0.706170  0.644143  0.350880  1
  F  F8  1  0.292767  0.848714  0.142937  1
  F  F9  1  0.292767  0.357063  0.651286  1
  F  F10  1  0.208517  0.355854  0.144146  1
  F  F11  1  0.191663  0.844762  0.655238  1
