# generated using pymatgen
data_CoMo8H36C8(NO16)2
_symmetry_space_group_name_H-M   'P 1'
_cell_length_a   10.69482136
_cell_length_b   10.69482136
_cell_length_c   17.02304157
_cell_angle_alpha   84.83958436
_cell_angle_beta   95.16041564
_cell_angle_gamma   99.17363881
_symmetry_Int_Tables_number   1
_chemical_formula_structural   CoMo8H36C8(NO16)2
_chemical_formula_sum   'Co2 Mo16 H72 C16 N4 O64'
_cell_volume   1908.71890796
_cell_formula_units_Z   2
loop_
 _symmetry_equiv_pos_site_id
 _symmetry_equiv_pos_as_xyz
  1  'x, y, z'
loop_
 _atom_site_type_symbol
 _atom_site_label
 _atom_site_symmetry_multiplicity
 _atom_site_fract_x
 _atom_site_fract_y
 _atom_site_fract_z
 _atom_site_occupancy
  Co  Co0  1  0.000000  0.500000  0.000000  1
  Co  Co1  1  0.500000  0.000000  0.500000  1
  Mo  Mo2  1  0.411795  0.910531  0.922207  1
  Mo  Mo3  1  0.910531  0.411795  0.577793  1
  Mo  Mo4  1  0.588205  0.089469  0.077793  1
  Mo  Mo5  1  0.089469  0.588205  0.422207  1
  Mo  Mo6  1  0.539995  0.746558  0.069864  1
  Mo  Mo7  1  0.746558  0.539995  0.430136  1
  Mo  Mo8  1  0.460005  0.253442  0.930136  1
  Mo  Mo9  1  0.253442  0.460005  0.569864  1
  Mo  Mo10  1  0.246045  0.034889  0.036805  1
  Mo  Mo11  1  0.034889  0.246045  0.463195  1
  Mo  Mo12  1  0.753955  0.965111  0.963195  1
  Mo  Mo13  1  0.965111  0.753955  0.536805  1
  Mo  Mo14  1  0.376526  0.874593  0.189713  1
  Mo  Mo15  1  0.874593  0.376526  0.310287  1
  Mo  Mo16  1  0.623474  0.125407  0.810287  1
  Mo  Mo17  1  0.125407  0.623474  0.689713  1
  H  H18  1  0.115074  0.642129  0.127661  1
  H  H19  1  0.642129  0.115074  0.372339  1
  H  H20  1  0.884926  0.357871  0.872339  1
  H  H21  1  0.357871  0.884926  0.627661  1
  H  H22  1  0.996825  0.540352  0.152091  1
  H  H23  1  0.540352  0.996825  0.347909  1
  H  H24  1  0.003175  0.459648  0.847909  1
  H  H25  1  0.459648  0.003175  0.652091  1
  H  H26  1  0.891299  0.298392  0.083078  1
  H  H27  1  0.298392  0.891299  0.416922  1
  H  H28  1  0.108701  0.701608  0.916922  1
  H  H29  1  0.701608  0.108701  0.583078  1
  H  H30  1  0.986916  0.248778  0.033056  1
  H  H31  1  0.248778  0.986916  0.466944  1
  H  H32  1  0.013084  0.751222  0.966944  1
  H  H33  1  0.751222  0.013084  0.533056  1
  H  H34  1  0.734620  0.447919  0.989620  1
  H  H35  1  0.447919  0.734620  0.510380  1
  H  H36  1  0.265380  0.552081  0.010380  1
  H  H37  1  0.552081  0.265380  0.489620  1
  H  H38  1  0.774054  0.568111  0.039182  1
  H  H39  1  0.568111  0.774054  0.460818  1
  H  H40  1  0.225946  0.431889  0.960818  1
  H  H41  1  0.431889  0.225946  0.539182  1
  H  H42  1  0.171677  0.354667  0.224845  1
  H  H43  1  0.354667  0.171677  0.275155  1
  H  H44  1  0.828323  0.645333  0.775155  1
  H  H45  1  0.645333  0.828323  0.724845  1
  H  H46  1  0.263819  0.445640  0.150225  1
  H  H47  1  0.445640  0.263819  0.349775  1
  H  H48  1  0.736181  0.554360  0.849775  1
  H  H49  1  0.554360  0.736181  0.650225  1
  H  H50  1  0.252509  0.276778  0.159403  1
  H  H51  1  0.276778  0.252509  0.340597  1
  H  H52  1  0.747491  0.723222  0.840597  1
  H  H53  1  0.723222  0.747491  0.659403  1
  H  H54  1  0.571693  0.386870  0.248962  1
  H  H55  1  0.386870  0.571693  0.251038  1
  H  H56  1  0.428307  0.613130  0.751038  1
  H  H57  1  0.613130  0.428307  0.748962  1
  H  H58  1  0.481491  0.291882  0.175522  1
  H  H59  1  0.291882  0.481491  0.324478  1
  H  H60  1  0.518509  0.708118  0.824478  1
  H  H61  1  0.708118  0.518509  0.675522  1
  H  H62  1  0.493868  0.461346  0.163034  1
  H  H63  1  0.461346  0.493868  0.336966  1
  H  H64  1  0.506132  0.538654  0.836966  1
  H  H65  1  0.538654  0.506132  0.663034  1
  H  H66  1  0.185794  0.148418  0.664356  1
  H  H67  1  0.148418  0.185794  0.835644  1
  H  H68  1  0.814206  0.851582  0.335644  1
  H  H69  1  0.851582  0.814206  0.164356  1
  H  H70  1  0.260356  0.074614  0.751441  1
  H  H71  1  0.074614  0.260356  0.748559  1
  H  H72  1  0.739644  0.925386  0.248559  1
  H  H73  1  0.925386  0.739644  0.251441  1
  H  H74  1  0.172346  0.978609  0.677516  1
  H  H75  1  0.978609  0.172346  0.822484  1
  H  H76  1  0.827654  0.021391  0.322484  1
  H  H77  1  0.021391  0.827654  0.177516  1
  H  H78  1  0.961531  0.943640  0.839277  1
  H  H79  1  0.943640  0.961531  0.660723  1
  H  H80  1  0.038469  0.056360  0.160723  1
  H  H81  1  0.056360  0.038469  0.339277  1
  H  H82  1  0.043546  0.861029  0.777444  1
  H  H83  1  0.861029  0.043546  0.722556  1
  H  H84  1  0.956454  0.138971  0.222556  1
  H  H85  1  0.138971  0.956454  0.277444  1
  H  H86  1  0.131093  0.956372  0.851714  1
  H  H87  1  0.956372  0.131093  0.648286  1
  H  H88  1  0.868907  0.043628  0.148286  1
  H  H89  1  0.043628  0.868907  0.351714  1
  C  C90  1  0.256219  0.361246  0.191952  1
  C  C91  1  0.361246  0.256219  0.308048  1
  C  C92  1  0.743781  0.638754  0.808048  1
  C  C93  1  0.638754  0.743781  0.691952  1
  C  C94  1  0.488575  0.378681  0.206205  1
  C  C95  1  0.378681  0.488575  0.293795  1
  C  C96  1  0.511425  0.621319  0.793795  1
  C  C97  1  0.621319  0.511425  0.706205  1
  C  C98  1  0.178517  0.065924  0.707654  1
  C  C99  1  0.065924  0.178517  0.792346  1
  C  C100  1  0.821483  0.934076  0.292346  1
  C  C101  1  0.934076  0.821483  0.207654  1
  C  C102  1  0.048104  0.946624  0.808972  1
  C  C103  1  0.946624  0.048104  0.691028  1
  C  C104  1  0.951896  0.053376  0.191028  1
  C  C105  1  0.053376  0.951896  0.308972  1
  N  N106  1  0.371354  0.371354  0.250000  1
  N  N107  1  0.628646  0.628646  0.750000  1
  N  N108  1  0.059985  0.059985  0.750000  1
  N  N109  1  0.940015  0.940015  0.250000  1
  O  O110  1  0.034435  0.592714  0.107350  1
  O  O111  1  0.592714  0.034435  0.392650  1
  O  O112  1  0.965565  0.407286  0.892650  1
  O  O113  1  0.407286  0.965565  0.607350  1
  O  O114  1  0.671310  0.668320  0.086087  1
  O  O115  1  0.668320  0.671310  0.413913  1
  O  O116  1  0.328690  0.331680  0.913913  1
  O  O117  1  0.331680  0.328690  0.586087  1
  O  O118  1  0.976839  0.319824  0.063772  1
  O  O119  1  0.319824  0.976839  0.436228  1
  O  O120  1  0.023161  0.680176  0.936228  1
  O  O121  1  0.680176  0.023161  0.563772  1
  O  O122  1  0.461191  0.959582  0.825168  1
  O  O123  1  0.959582  0.461191  0.674832  1
  O  O124  1  0.538809  0.040418  0.174832  1
  O  O125  1  0.040418  0.538809  0.325168  1
  O  O126  1  0.808133  0.508142  0.009356  1
  O  O127  1  0.508142  0.808133  0.490644  1
  O  O128  1  0.191867  0.491858  0.990644  1
  O  O129  1  0.491858  0.191867  0.509356  1
  O  O130  1  0.127532  0.907429  0.020934  1
  O  O131  1  0.907429  0.127532  0.479066  1
  O  O132  1  0.872468  0.092571  0.979066  1
  O  O133  1  0.092571  0.872468  0.520934  1
  O  O134  1  0.394021  0.888958  0.290834  1
  O  O135  1  0.888958  0.394021  0.209166  1
  O  O136  1  0.605979  0.111042  0.709166  1
  O  O137  1  0.111042  0.605979  0.790834  1
  O  O138  1  0.169296  0.166282  0.030800  1
  O  O139  1  0.166282  0.169296  0.469200  1
  O  O140  1  0.830704  0.833718  0.969200  1
  O  O141  1  0.833718  0.830704  0.530800  1
  O  O142  1  0.409768  0.628512  0.054884  1
  O  O143  1  0.628512  0.409768  0.445116  1
  O  O144  1  0.590232  0.371488  0.945116  1
  O  O145  1  0.371488  0.590232  0.554884  1
  O  O146  1  0.581296  0.081202  0.951714  1
  O  O147  1  0.081202  0.581296  0.548286  1
  O  O148  1  0.418704  0.918798  0.048286  1
  O  O149  1  0.918798  0.418704  0.451714  1
  O  O150  1  0.284289  0.013376  0.149917  1
  O  O151  1  0.013376  0.284289  0.350083  1
  O  O152  1  0.715711  0.986624  0.850083  1
  O  O153  1  0.986624  0.715711  0.649917  1
  O  O154  1  0.317533  0.053741  0.930103  1
  O  O155  1  0.053741  0.317533  0.569897  1
  O  O156  1  0.682467  0.946259  0.069897  1
  O  O157  1  0.946259  0.682467  0.430103  1
  O  O158  1  0.553830  0.816531  0.957699  1
  O  O159  1  0.816531  0.553830  0.542301  1
  O  O160  1  0.446170  0.183469  0.042301  1
  O  O161  1  0.183469  0.446170  0.457699  1
  O  O162  1  0.252539  0.749284  0.173590  1
  O  O163  1  0.749284  0.252539  0.326410  1
  O  O164  1  0.747461  0.250716  0.826410  1
  O  O165  1  0.250716  0.747461  0.673590  1
  O  O166  1  0.517454  0.786213  0.174450  1
  O  O167  1  0.786213  0.517454  0.325550  1
  O  O168  1  0.482546  0.213787  0.825550  1
  O  O169  1  0.213787  0.482546  0.674450  1
  O  O170  1  0.287133  0.788281  0.909386  1
  O  O171  1  0.788281  0.287133  0.590614  1
  O  O172  1  0.712867  0.211719  0.090614  1
  O  O173  1  0.211719  0.712867  0.409386  1
