# generated using pymatgen
data_Nb2Ge2O7
_symmetry_space_group_name_H-M   'P 1'
_cell_length_a   13.52116322
_cell_length_b   13.52116322
_cell_length_c   5.87043352
_cell_angle_alpha   90.00000000
_cell_angle_beta   90.00000000
_cell_angle_gamma   16.75555318
_symmetry_Int_Tables_number   1
_chemical_formula_structural   Nb2Ge2O7
_chemical_formula_sum   'Nb4 Ge4 O14'
_cell_volume   309.40438987
_cell_formula_units_Z   2
loop_
 _symmetry_equiv_pos_site_id
 _symmetry_equiv_pos_as_xyz
  1  'x, y, z'
loop_
 _atom_site_type_symbol
 _atom_site_label
 _atom_site_symmetry_multiplicity
 _atom_site_fract_x
 _atom_site_fract_y
 _atom_site_fract_z
 _atom_site_occupancy
  Nb  Nb0  1  0.057261  0.057261  0.002807  1
  Nb  Nb1  1  0.161075  0.161075  0.483761  1
  Nb  Nb2  1  0.838925  0.838925  0.983761  1
  Nb  Nb3  1  0.942739  0.942739  0.502807  1
  Ge  Ge4  1  0.286348  0.286348  0.437398  1
  Ge  Ge5  1  0.563578  0.563578  0.567323  1
  Ge  Ge6  1  0.436422  0.436422  0.067323  1
  Ge  Ge7  1  0.713652  0.713652  0.937398  1
  O  O8  1  0.007990  0.007990  0.221543  1
  O  O9  1  0.114325  0.114325  0.180313  1
  O  O10  1  0.092194  0.092194  0.658859  1
  O  O11  1  0.222848  0.222848  0.301961  1
  O  O12  1  0.198352  0.198352  0.760623  1
  O  O13  1  0.443154  0.443154  0.408130  1
  O  O14  1  0.352002  0.352002  0.987702  1
  O  O15  1  0.556846  0.556846  0.908130  1
  O  O16  1  0.647998  0.647998  0.487702  1
  O  O17  1  0.801648  0.801648  0.260623  1
  O  O18  1  0.885675  0.885675  0.680313  1
  O  O19  1  0.992010  0.992010  0.721543  1
  O  O20  1  0.777152  0.777152  0.801961  1
  O  O21  1  0.907806  0.907806  0.158859  1
