# generated using pymatgen
data_Fe2O3F
_symmetry_space_group_name_H-M   'P 1'
_cell_length_a   4.73208530
_cell_length_b   18.80903047
_cell_length_c   3.00681629
_cell_angle_alpha   90.00000000
_cell_angle_beta   90.00000000
_cell_angle_gamma   91.92792575
_symmetry_Int_Tables_number   1
_chemical_formula_structural   Fe2O3F
_chemical_formula_sum   'Fe8 O12 F4'
_cell_volume   267.47300803
_cell_formula_units_Z   4
loop_
 _symmetry_equiv_pos_site_id
 _symmetry_equiv_pos_as_xyz
  1  'x, y, z'
loop_
 _atom_site_type_symbol
 _atom_site_label
 _atom_site_symmetry_multiplicity
 _atom_site_fract_x
 _atom_site_fract_y
 _atom_site_fract_z
 _atom_site_occupancy
  Fe  Fe0  1  0.990621  0.743696  0.000000  1
  Fe  Fe1  1  0.956761  0.998425  0.000000  1
  Fe  Fe2  1  0.066535  0.245277  0.000000  1
  Fe  Fe3  1  0.022526  0.495958  0.000000  1
  Fe  Fe4  1  0.544374  0.131286  0.500000  1
  Fe  Fe5  1  0.438956  0.879691  0.500000  1
  Fe  Fe6  1  0.502348  0.379066  0.500000  1
  Fe  Fe7  1  0.474691  0.629143  0.500000  1
  O  O8  1  0.243935  0.197664  0.500000  1
  O  O9  1  0.205647  0.450030  0.500000  1
  O  O10  1  0.179940  0.701809  0.500000  1
  O  O11  1  0.136683  0.953432  0.500000  1
  O  O12  1  0.304387  0.576449  0.000000  1
  O  O13  1  0.275855  0.827880  0.000000  1
  O  O14  1  0.339132  0.324817  0.000000  1
  O  O15  1  0.707886  0.422898  0.000000  1
  O  O16  1  0.633831  0.924558  0.000000  1
  O  O17  1  0.734447  0.174069  0.000000  1
  O  O18  1  0.681536  0.673685  0.000000  1
  O  O19  1  0.804573  0.050819  0.500000  1
  F  F20  1  0.317634  0.075923  0.000000  1
  F  F21  1  0.780252  0.799078  0.500000  1
  F  F22  1  0.850603  0.295958  0.500000  1
  F  F23  1  0.806848  0.548387  0.500000  1
