# generated using pymatgen
data_Fe3(OF2)2
_symmetry_space_group_name_H-M   'P 1'
_cell_length_a   7.53114223
_cell_length_b   5.74594667
_cell_length_c   5.74594667
_cell_angle_alpha   72.62074700
_cell_angle_beta   71.75173844
_cell_angle_gamma   71.75173844
_symmetry_Int_Tables_number   1
_chemical_formula_structural   Fe3(OF2)2
_chemical_formula_sum   'Fe6 O4 F8'
_cell_volume   218.64728720
_cell_formula_units_Z   2
loop_
 _symmetry_equiv_pos_site_id
 _symmetry_equiv_pos_as_xyz
  1  'x, y, z'
loop_
 _atom_site_type_symbol
 _atom_site_label
 _atom_site_symmetry_multiplicity
 _atom_site_fract_x
 _atom_site_fract_y
 _atom_site_fract_z
 _atom_site_occupancy
  Fe  Fe0  1  0.844377  0.675005  0.699422  1
  Fe  Fe1  1  0.688368  0.355911  0.303940  1
  Fe  Fe2  1  0.311632  0.696060  0.644089  1
  Fe  Fe3  1  0.155623  0.300578  0.324995  1
  Fe  Fe4  1  0.500000  0.987635  0.012365  1
  Fe  Fe5  1  0.000000  0.989380  0.010620  1
  O  O6  1  0.961629  0.229671  0.234219  1
  O  O7  1  0.038371  0.765781  0.770329  1
  O  O8  1  0.327996  0.976979  0.370961  1
  O  O9  1  0.672004  0.629039  0.023021  1
  F  F10  1  0.670396  0.032003  0.622628  1
  F  F11  1  0.329604  0.377372  0.967997  1
  F  F12  1  0.307086  0.887916  0.886052  1
  F  F13  1  0.627523  0.563011  0.563331  1
  F  F14  1  0.372477  0.436669  0.436989  1
  F  F15  1  0.692914  0.113948  0.112084  1
  F  F16  1  0.000000  0.311753  0.688247  1
  F  F17  1  0.000000  0.671290  0.328710  1
