# generated using pymatgen
data_V3CrSb2(PO4)6
_symmetry_space_group_name_H-M   'P 1'
_cell_length_a   8.86849888
_cell_length_b   8.71145331
_cell_length_c   8.71145400
_cell_angle_alpha   60.00000013
_cell_angle_beta   60.58407666
_cell_angle_gamma   60.58407332
_symmetry_Int_Tables_number   1
_chemical_formula_structural   V3CrSb2(PO4)6
_chemical_formula_sum   'V3 Cr1 Sb2 P6 O24'
_cell_volume   480.05894535
_cell_formula_units_Z   1
loop_
 _symmetry_equiv_pos_site_id
 _symmetry_equiv_pos_as_xyz
  1  'x, y, z'
loop_
 _atom_site_type_symbol
 _atom_site_label
 _atom_site_symmetry_multiplicity
 _atom_site_fract_x
 _atom_site_fract_y
 _atom_site_fract_z
 _atom_site_occupancy
  V  V0  1  0.059005  0.646998  0.646998  1
  V  V1  1  0.439099  0.853633  0.853633  1
  V  V2  1  0.938899  0.353700  0.353700  1
  Cr  Cr3  1  0.562521  0.145827  0.145827  1
  Sb  Sb4  1  0.001313  0.999562  0.999562  1
  Sb  Sb5  1  0.494991  0.501670  0.501670  1
  P  P6  1  0.251123  0.249595  0.537056  1
  P  P7  1  0.251123  0.962225  0.249595  1
  P  P8  1  0.251123  0.537056  0.962225  1
  P  P9  1  0.748695  0.459591  0.040451  1
  P  P10  1  0.748695  0.040451  0.751264  1
  P  P11  1  0.748695  0.751264  0.459591  1
  O  O12  1  0.074715  0.116449  0.301539  1
  O  O13  1  0.074715  0.507296  0.116449  1
  O  O14  1  0.074715  0.301539  0.507296  1
  O  O15  1  0.245156  0.084376  0.731055  1
  O  O16  1  0.427302  0.199078  0.381583  1
  O  O17  1  0.255942  0.416343  0.560051  1
  O  O18  1  0.245156  0.939412  0.084376  1
  O  O19  1  0.255942  0.767663  0.416343  1
  O  O20  1  0.573516  0.615565  0.009162  1
  O  O21  1  0.255942  0.560051  0.767663  1
  O  O22  1  0.754219  0.266295  0.061018  1
  O  O23  1  0.573516  0.009162  0.801757  1
  O  O24  1  0.427302  0.992037  0.199078  1
  O  O25  1  0.245156  0.731055  0.939412  1
  O  O26  1  0.744934  0.436846  0.232947  1
  O  O27  1  0.427302  0.381583  0.992037  1
  O  O28  1  0.744934  0.232947  0.585273  1
  O  O29  1  0.754219  0.061018  0.918469  1
  O  O30  1  0.744934  0.585273  0.436846  1
  O  O31  1  0.573516  0.801757  0.615565  1
  O  O32  1  0.754219  0.918469  0.266295  1
  O  O33  1  0.925789  0.700255  0.489509  1
  O  O34  1  0.925789  0.489509  0.884448  1
  O  O35  1  0.925789  0.884448  0.700255  1
