# generated using pymatgen
data_Mn12O7F17
_symmetry_space_group_name_H-M   'P 1'
_cell_length_a   4.76830210
_cell_length_b   5.76432774
_cell_length_c   15.88855497
_cell_angle_alpha   89.80035317
_cell_angle_beta   89.47258605
_cell_angle_gamma   88.60398010
_symmetry_Int_Tables_number   1
_chemical_formula_structural   Mn12O7F17
_chemical_formula_sum   'Mn12 O7 F17'
_cell_volume   436.56327183
_cell_formula_units_Z   1
loop_
 _symmetry_equiv_pos_site_id
 _symmetry_equiv_pos_as_xyz
  1  'x, y, z'
loop_
 _atom_site_type_symbol
 _atom_site_label
 _atom_site_symmetry_multiplicity
 _atom_site_fract_x
 _atom_site_fract_y
 _atom_site_fract_z
 _atom_site_occupancy
  Mn  Mn0  1  0.992004  0.155856  0.415116  1
  Mn  Mn1  1  0.028466  0.838769  0.238042  1
  Mn  Mn2  1  0.009667  0.159966  0.075561  1
  Mn  Mn3  1  0.052223  0.171366  0.749245  1
  Mn  Mn4  1  0.022436  0.853514  0.580641  1
  Mn  Mn5  1  0.000938  0.857587  0.918457  1
  Mn  Mn6  1  0.473429  0.321119  0.585055  1
  Mn  Mn7  1  0.490587  0.330689  0.923596  1
  Mn  Mn8  1  0.529905  0.340836  0.259361  1
  Mn  Mn9  1  0.486762  0.649492  0.082407  1
  Mn  Mn10  1  0.503195  0.665542  0.420410  1
  Mn  Mn11  1  0.510123  0.630837  0.755062  1
  O  O12  1  0.211243  0.096995  0.639900  1
  O  O13  1  0.206364  0.121730  0.968929  1
  O  O14  1  0.230278  0.888580  0.127259  1
  O  O15  1  0.216110  0.899278  0.468599  1
  O  O16  1  0.305691  0.387974  0.809842  1
  O  O17  1  0.700823  0.382608  0.029486  1
  O  O18  1  0.727379  0.387064  0.368857  1
  F  F19  1  0.224976  0.118402  0.305914  1
  F  F20  1  0.250023  0.876427  0.807117  1
  F  F21  1  0.267139  0.396088  0.150930  1
  F  F22  1  0.277788  0.618599  0.309685  1
  F  F23  1  0.245157  0.400608  0.473594  1
  F  F24  1  0.264664  0.602591  0.645218  1
  F  F25  1  0.249485  0.614579  0.976449  1
  F  F26  1  0.723752  0.618800  0.192671  1
  F  F27  1  0.726002  0.625768  0.533196  1
  F  F28  1  0.738718  0.614226  0.867235  1
  F  F29  1  0.740784  0.380014  0.692886  1
  F  F30  1  0.788270  0.125692  0.186345  1
  F  F31  1  0.753630  0.114345  0.520657  1
  F  F32  1  0.763926  0.891954  0.350721  1
  F  F33  1  0.737567  0.882309  0.023804  1
  F  F34  1  0.783906  0.120280  0.851028  1
  F  F35  1  0.766585  0.859519  0.696724  1
