# generated using pymatgen
data_Li3FeCo3O8
_symmetry_space_group_name_H-M   'P 1'
_cell_length_a   5.97286884
_cell_length_b   5.89696245
_cell_length_c   5.89696296
_cell_angle_alpha   59.99999650
_cell_angle_beta   60.41950213
_cell_angle_gamma   89.99999173
_symmetry_Int_Tables_number   1
_chemical_formula_structural   Li3FeCo3O8
_chemical_formula_sum   'Li3 Fe1 Co3 O8'
_cell_volume   147.79155052
_cell_formula_units_Z   1
loop_
 _symmetry_equiv_pos_site_id
 _symmetry_equiv_pos_as_xyz
  1  'x, y, z'
loop_
 _atom_site_type_symbol
 _atom_site_label
 _atom_site_symmetry_multiplicity
 _atom_site_fract_x
 _atom_site_fract_y
 _atom_site_fract_z
 _atom_site_occupancy
  Li  Li0  1  0.500000  0.000000  0.000000  1
  Li  Li1  1  0.500000  0.000000  0.500000  1
  Li  Li2  1  0.500000  0.500000  0.500000  1
  Fe  Fe3  1  0.000000  0.000000  0.000000  1
  Co  Co4  1  0.000000  0.000000  0.500000  1
  Co  Co5  1  0.000000  0.500000  0.000000  1
  Co  Co6  1  0.000000  0.500000  0.500000  1
  O  O7  1  0.216295  0.234612  0.018317  1
  O  O8  1  0.216295  0.234612  0.530778  1
  O  O9  1  0.216295  0.747073  0.018317  1
  O  O10  1  0.233396  0.744465  0.511069  1
  O  O11  1  0.766604  0.255535  0.488931  1
  O  O12  1  0.783705  0.252927  0.981683  1
  O  O13  1  0.783705  0.765388  0.469222  1
  O  O14  1  0.783705  0.765388  0.981683  1
