# generated using pymatgen
data_Li2Fe3F8
_symmetry_space_group_name_H-M   'P 1'
_cell_length_a   5.36609751
_cell_length_b   9.78262348
_cell_length_c   6.21212929
_cell_angle_alpha   89.99973972
_cell_angle_beta   89.99979693
_cell_angle_gamma   89.77953132
_symmetry_Int_Tables_number   1
_chemical_formula_structural   Li2Fe3F8
_chemical_formula_sum   'Li4 Fe6 F16'
_cell_volume   326.10027847
_cell_formula_units_Z   2
loop_
 _symmetry_equiv_pos_site_id
 _symmetry_equiv_pos_as_xyz
  1  'x, y, z'
loop_
 _atom_site_type_symbol
 _atom_site_label
 _atom_site_symmetry_multiplicity
 _atom_site_fract_x
 _atom_site_fract_y
 _atom_site_fract_z
 _atom_site_occupancy
  Li  Li0  1  0.985525  0.692237  0.998972  1
  Li  Li1  1  0.512253  0.192719  0.498975  1
  Li  Li2  1  0.487759  0.807297  0.499007  1
  Li  Li3  1  0.014550  0.307781  0.999005  1
  Fe  Fe4  1  0.999903  0.000058  0.267340  1
  Fe  Fe5  1  0.999946  0.000019  0.732230  1
  Fe  Fe6  1  0.000046  0.500012  0.504720  1
  Fe  Fe7  1  0.499782  0.999889  0.004424  1
  Fe  Fe8  1  0.500036  0.499976  0.232543  1
  Fe  Fe9  1  0.500077  0.500020  0.767439  1
  F  F10  1  0.152084  0.116141  0.004002  1
  F  F11  1  0.179461  0.390085  0.257424  1
  F  F12  1  0.170136  0.385095  0.743077  1
  F  F13  1  0.169005  0.121533  0.494174  1
  F  F14  1  0.329224  0.621427  0.994367  1
  F  F15  1  0.331730  0.885212  0.243144  1
  F  F16  1  0.322249  0.890148  0.757066  1
  F  F17  1  0.346399  0.616212  0.504203  1
  F  F18  1  0.653700  0.383805  0.504274  1
  F  F19  1  0.668203  0.114818  0.243134  1
  F  F20  1  0.677570  0.109757  0.757204  1
  F  F21  1  0.670860  0.378570  0.994367  1
  F  F22  1  0.830988  0.878465  0.494185  1
  F  F23  1  0.820718  0.609861  0.257491  1
  F  F24  1  0.829923  0.614969  0.743155  1
  F  F25  1  0.847873  0.883894  0.004078  1
