# generated using pymatgen
data_Li2VF5
_symmetry_space_group_name_H-M   'P 1'
_cell_length_a   8.10121897
_cell_length_b   7.45598891
_cell_length_c   6.70457770
_cell_angle_alpha   90.00000000
_cell_angle_beta   90.00000000
_cell_angle_gamma   90.00000000
_symmetry_Int_Tables_number   1
_chemical_formula_structural   Li2VF5
_chemical_formula_sum   'Li8 V4 F20'
_cell_volume   404.97391692
_cell_formula_units_Z   4
loop_
 _symmetry_equiv_pos_site_id
 _symmetry_equiv_pos_as_xyz
  1  'x, y, z'
loop_
 _atom_site_type_symbol
 _atom_site_label
 _atom_site_symmetry_multiplicity
 _atom_site_fract_x
 _atom_site_fract_y
 _atom_site_fract_z
 _atom_site_occupancy
  Li  Li0  1  0.123028  0.233638  0.848759  1
  Li  Li1  1  0.123783  0.946422  0.263956  1
  Li  Li2  1  0.376217  0.446422  0.763956  1
  Li  Li3  1  0.376972  0.733638  0.348759  1
  Li  Li4  1  0.623028  0.233638  0.651241  1
  Li  Li5  1  0.623783  0.946422  0.236044  1
  Li  Li6  1  0.876217  0.446422  0.736044  1
  Li  Li7  1  0.876972  0.733638  0.151241  1
  V  V8  1  0.125289  0.759093  0.748716  1
  V  V9  1  0.374711  0.259093  0.248716  1
  V  V10  1  0.625289  0.759093  0.751284  1
  V  V11  1  0.874711  0.259093  0.251284  1
  F  F12  1  0.091880  0.773050  0.037268  1
  F  F13  1  0.123401  0.011481  0.736247  1
  F  F14  1  0.125326  0.488463  0.745729  1
  F  F15  1  0.124819  0.220607  0.277627  1
  F  F16  1  0.160539  0.762259  0.460260  1
  F  F17  1  0.339461  0.262259  0.960260  1
  F  F18  1  0.375181  0.720607  0.777627  1
  F  F19  1  0.376599  0.511481  0.236247  1
  F  F20  1  0.374674  0.988463  0.245729  1
  F  F21  1  0.408120  0.273050  0.537268  1
  F  F22  1  0.591880  0.773050  0.462732  1
  F  F23  1  0.623401  0.011481  0.763753  1
  F  F24  1  0.625326  0.488463  0.754271  1
  F  F25  1  0.624819  0.220607  0.222373  1
  F  F26  1  0.660539  0.762259  0.039740  1
  F  F27  1  0.839461  0.262259  0.539740  1
  F  F28  1  0.875181  0.720607  0.722373  1
  F  F29  1  0.876599  0.511481  0.263753  1
  F  F30  1  0.874674  0.988463  0.254271  1
  F  F31  1  0.908120  0.273050  0.962732  1
