# generated using pymatgen
data_FeOF
_symmetry_space_group_name_H-M   'P 1'
_cell_length_a   9.45457248
_cell_length_b   9.45474925
_cell_length_c   3.10957606
_cell_angle_alpha   90.00000000
_cell_angle_beta   90.00000000
_cell_angle_gamma   90.18818138
_symmetry_Int_Tables_number   1
_chemical_formula_structural   FeOF
_chemical_formula_sum   'Fe8 O8 F8'
_cell_volume   277.96540795
_cell_formula_units_Z   8
loop_
 _symmetry_equiv_pos_site_id
 _symmetry_equiv_pos_as_xyz
  1  'x, y, z'
loop_
 _atom_site_type_symbol
 _atom_site_label
 _atom_site_symmetry_multiplicity
 _atom_site_fract_x
 _atom_site_fract_y
 _atom_site_fract_z
 _atom_site_occupancy
  Fe  Fe0  1  0.996014  0.018693  0.000000  1
  Fe  Fe1  1  0.011683  0.490087  0.000000  1
  Fe  Fe2  1  0.230521  0.246022  0.500000  1
  Fe  Fe3  1  0.240122  0.726297  0.500000  1
  Fe  Fe4  1  0.495811  0.518168  0.000000  1
  Fe  Fe5  1  0.512782  0.989433  0.000000  1
  Fe  Fe6  1  0.773736  0.259785  0.500000  1
  Fe  Fe7  1  0.733748  0.743540  0.500000  1
  O  O8  1  0.102094  0.403199  0.500000  1
  O  O9  1  0.158838  0.145797  0.000000  1
  O  O10  1  0.145034  0.655733  0.000000  1
  O  O11  1  0.402168  0.598369  0.500000  1
  O  O12  1  0.599529  0.905486  0.500000  1
  O  O13  1  0.655980  0.649100  0.000000  1
  O  O14  1  0.845652  0.355867  0.000000  1
  O  O15  1  0.897269  0.093772  0.500000  1
  F  F16  1  0.095793  0.901337  0.500000  1
  F  F17  1  0.354352  0.342532  0.000000  1
  F  F18  1  0.344615  0.854574  0.000000  1
  F  F19  1  0.408244  0.098366  0.500000  1
  F  F20  1  0.593915  0.398836  0.500000  1
  F  F21  1  0.646837  0.157973  0.000000  1
  F  F22  1  0.852200  0.843240  0.000000  1
  F  F23  1  0.903063  0.603797  0.500000  1
