# generated using pymatgen
data_LiVPCO7
_symmetry_space_group_name_H-M   'P 1'
_cell_length_a   8.24408227
_cell_length_b   5.26553834
_cell_length_c   6.41506963
_cell_angle_alpha   90.00000000
_cell_angle_beta   90.00000000
_cell_angle_gamma   83.68872604
_symmetry_Int_Tables_number   1
_chemical_formula_structural   LiVPCO7
_chemical_formula_sum   'Li2 V2 P2 C2 O14'
_cell_volume   276.78742363
_cell_formula_units_Z   2
loop_
 _symmetry_equiv_pos_site_id
 _symmetry_equiv_pos_as_xyz
  1  'x, y, z'
loop_
 _atom_site_type_symbol
 _atom_site_label
 _atom_site_symmetry_multiplicity
 _atom_site_fract_x
 _atom_site_fract_y
 _atom_site_fract_z
 _atom_site_occupancy
  Li  Li0  1  0.096188  0.767911  0.250000  1
  Li  Li1  1  0.903812  0.232089  0.750000  1
  V  V2  1  0.322467  0.796931  0.750000  1
  V  V3  1  0.677533  0.203069  0.250000  1
  P  P4  1  0.425668  0.742038  0.250000  1
  P  P5  1  0.574332  0.257962  0.750000  1
  C  C6  1  0.041484  0.686284  0.750000  1
  C  C7  1  0.958516  0.313716  0.250000  1
  O  O8  1  0.076710  0.927428  0.750000  1
  O  O9  1  0.096818  0.384790  0.250000  1
  O  O10  1  0.177879  0.526669  0.750000  1
  O  O11  1  0.310918  0.800136  0.061574  1
  O  O12  1  0.310918  0.800136  0.438426  1
  O  O13  1  0.431073  0.090302  0.750000  1
  O  O14  1  0.498626  0.460528  0.250000  1
  O  O15  1  0.501374  0.539472  0.750000  1
  O  O16  1  0.568928  0.909698  0.250000  1
  O  O17  1  0.689082  0.199864  0.561574  1
  O  O18  1  0.689082  0.199864  0.938426  1
  O  O19  1  0.822121  0.473331  0.250000  1
  O  O20  1  0.903182  0.615210  0.750000  1
  O  O21  1  0.923290  0.072572  0.250000  1
