# generated using pymatgen
data_Li3V2(O2F)2
_symmetry_space_group_name_H-M   'P 1'
_cell_length_a   5.97824788
_cell_length_b   5.99784345
_cell_length_c   14.94073029
_cell_angle_alpha   90.00000090
_cell_angle_beta   90.09293776
_cell_angle_gamma   120.10848491
_symmetry_Int_Tables_number   1
_chemical_formula_structural   Li3V2(O2F)2
_chemical_formula_sum   'Li12 V8 O16 F8'
_cell_volume   463.44152414
_cell_formula_units_Z   4
loop_
 _symmetry_equiv_pos_site_id
 _symmetry_equiv_pos_as_xyz
  1  'x, y, z'
loop_
 _atom_site_type_symbol
 _atom_site_label
 _atom_site_symmetry_multiplicity
 _atom_site_fract_x
 _atom_site_fract_y
 _atom_site_fract_z
 _atom_site_occupancy
  Li  Li0  1  0.152550  0.863478  0.166412  1
  Li  Li1  1  0.183284  0.852374  0.667112  1
  Li  Li2  1  0.001551  0.500775  0.026894  1
  Li  Li3  1  0.152550  0.289073  0.166412  1
  Li  Li4  1  0.183284  0.330910  0.667112  1
  Li  Li5  1  0.337710  0.668855  0.292417  1
  Li  Li6  1  0.672640  0.836321  0.663065  1
  Li  Li7  1  0.528960  0.525590  0.045886  1
  Li  Li8  1  0.653497  0.326748  0.175234  1
  Li  Li9  1  0.528960  0.003370  0.045886  1
  Li  Li10  1  0.809637  0.670687  0.296582  1
  Li  Li11  1  0.809637  0.138950  0.296582  1
  V  V12  1  0.993109  0.496554  0.508192  1
  V  V13  1  0.006108  0.003055  0.493029  1
  V  V14  1  0.334836  0.667418  0.835491  1
  V  V15  1  0.502065  0.504099  0.499451  1
  V  V16  1  0.338779  0.169389  0.836051  1
  V  V17  1  0.502065  0.997966  0.499451  1
  V  V18  1  0.833814  0.665750  0.827309  1
  V  V19  1  0.833814  0.168064  0.827309  1
  O  O20  1  0.165443  0.832858  0.896630  1
  O  O21  1  0.161722  0.828895  0.437471  1
  O  O22  1  0.020879  0.510440  0.759095  1
  O  O23  1  0.161722  0.332827  0.437471  1
  O  O24  1  0.165443  0.332585  0.896630  1
  O  O25  1  0.015562  0.007781  0.755280  1
  O  O26  1  0.344206  0.672103  0.577167  1
  O  O27  1  0.652177  0.826088  0.896025  1
  O  O28  1  0.673215  0.836608  0.425833  1
  O  O29  1  0.488710  0.498475  0.759735  1
  O  O30  1  0.320069  0.160035  0.571749  1
  O  O31  1  0.660282  0.330141  0.438240  1
  O  O32  1  0.648791  0.324395  0.898477  1
  O  O33  1  0.488710  0.990235  0.759735  1
  O  O34  1  0.834085  0.685537  0.572250  1
  O  O35  1  0.834085  0.148548  0.572250  1
  F  F36  1  0.984450  0.492225  0.256819  1
  F  F37  1  0.998366  0.999183  0.251298  1
  F  F38  1  0.327556  0.663778  0.071865  1
  F  F39  1  0.485093  0.490229  0.245699  1
  F  F40  1  0.360199  0.180099  0.089992  1
  F  F41  1  0.485093  0.994864  0.245699  1
  F  F42  1  0.849311  0.649024  0.091022  1
  F  F43  1  0.849311  0.200288  0.091022  1
