# generated using pymatgen
data_LiPrPCO7
_symmetry_space_group_name_H-M   'P 1'
_cell_length_a   9.49011183
_cell_length_b   7.08894719
_cell_length_c   4.94248266
_cell_angle_alpha   90.00000000
_cell_angle_beta   85.17781632
_cell_angle_gamma   90.00000000
_symmetry_Int_Tables_number   1
_chemical_formula_structural   LiPrPCO7
_chemical_formula_sum   'Li2 Pr2 P2 C2 O14'
_cell_volume   331.32809550
_cell_formula_units_Z   2
loop_
 _symmetry_equiv_pos_site_id
 _symmetry_equiv_pos_as_xyz
  1  'x, y, z'
loop_
 _atom_site_type_symbol
 _atom_site_label
 _atom_site_symmetry_multiplicity
 _atom_site_fract_x
 _atom_site_fract_y
 _atom_site_fract_z
 _atom_site_occupancy
  Li  Li0  1  0.225285  0.445252  0.250233  1
  Li  Li1  1  0.774715  0.945252  0.749767  1
  Pr  Pr2  1  0.372079  0.777381  0.762436  1
  Pr  Pr3  1  0.627921  0.277381  0.237564  1
  P  P4  1  0.396416  0.278821  0.727626  1
  P  P5  1  0.603584  0.778821  0.272374  1
  C  C6  1  0.059665  0.717270  0.720848  1
  C  C7  1  0.940335  0.217270  0.279152  1
  O  O8  1  0.064266  0.270207  0.312957  1
  O  O9  1  0.102801  0.704181  0.960086  1
  O  O10  1  0.153574  0.680372  0.522524  1
  O  O11  1  0.322548  0.093259  0.814023  1
  O  O12  1  0.337216  0.449282  0.894451  1
  O  O13  1  0.439311  0.763219  0.241493  1
  O  O14  1  0.388395  0.318604  0.419019  1
  O  O15  1  0.611605  0.818604  0.580981  1
  O  O16  1  0.560689  0.263219  0.758507  1
  O  O17  1  0.662784  0.949282  0.105549  1
  O  O18  1  0.677452  0.593259  0.185977  1
  O  O19  1  0.846426  0.180372  0.477476  1
  O  O20  1  0.897199  0.204181  0.039914  1
  O  O21  1  0.935734  0.770208  0.687043  1
