# generated using pymatgen
data_LiVCrP2(O4F)2
_symmetry_space_group_name_H-M   'P 1'
_cell_length_a   7.94267753
_cell_length_b   10.27503049
_cell_length_c   7.33360227
_cell_angle_alpha   74.82823483
_cell_angle_beta   87.36012778
_cell_angle_gamma   67.36671264
_symmetry_Int_Tables_number   1
_chemical_formula_structural   LiVCrP2(O4F)2
_chemical_formula_sum   'Li3 V3 Cr3 P6 O24 F6'
_cell_volume   532.15322085
_cell_formula_units_Z   3
loop_
 _symmetry_equiv_pos_site_id
 _symmetry_equiv_pos_as_xyz
  1  'x, y, z'
loop_
 _atom_site_type_symbol
 _atom_site_label
 _atom_site_symmetry_multiplicity
 _atom_site_fract_x
 _atom_site_fract_y
 _atom_site_fract_z
 _atom_site_occupancy
  Li  Li0  1  0.069980  0.501187  0.317264  1
  Li  Li1  1  0.597481  0.163485  0.017043  1
  Li  Li2  1  0.262212  0.833317  0.350527  1
  V  V3  1  0.000748  0.000339  0.990306  1
  V  V4  1  0.333578  0.332692  0.668939  1
  V  V5  1  0.666943  0.665586  0.335948  1
  Cr  Cr6  1  0.500417  0.001945  0.503395  1
  Cr  Cr7  1  0.166698  0.666369  0.832269  1
  Cr  Cr8  1  0.833513  0.333204  0.165384  1
  P  P9  1  0.068694  0.184290  0.568338  1
  P  P10  1  0.262097  0.149127  0.096111  1
  P  P11  1  0.598247  0.482766  0.761780  1
  P  P12  1  0.402648  0.518141  0.241043  1
  P  P13  1  0.733078  0.850145  0.909363  1
  P  P14  1  0.931121  0.815530  0.422556  1
  O  O15  1  0.236388  0.053693  0.542636  1
  O  O16  1  0.217041  0.012170  0.112857  1
  O  O17  1  0.335489  0.193054  0.894062  1
  O  O18  1  0.116560  0.320448  0.557881  1
  O  O19  1  0.097141  0.280335  0.121463  1
  O  O20  1  0.431675  0.110497  0.226407  1
  O  O21  1  0.551340  0.344985  0.774321  1
  O  O22  1  0.327938  0.470174  0.440987  1
  O  O23  1  0.097512  0.775623  0.558243  1
  O  O24  1  0.004926  0.136884  0.775660  1
  O  O25  1  0.234822  0.557424  0.107903  1
  O  O26  1  0.428190  0.612674  0.783127  1
  O  O27  1  0.569440  0.391079  0.211108  1
  O  O28  1  0.760880  0.441635  0.897177  1
  O  O29  1  0.009511  0.862982  0.224661  1
  O  O30  1  0.904741  0.225013  0.435328  1
  O  O31  1  0.665223  0.529494  0.556711  1
  O  O32  1  0.439596  0.656364  0.240916  1
  O  O33  1  0.572326  0.893315  0.770555  1
  O  O34  1  0.904818  0.724526  0.882861  1
  O  O35  1  0.895080  0.676009  0.424419  1
  O  O36  1  0.664693  0.799564  0.112046  1
  O  O37  1  0.773230  0.988133  0.914857  1
  O  O38  1  0.761805  0.941847  0.447946  1
  F  F39  1  0.170899  0.486836  0.774576  1
  F  F40  1  0.497336  0.179841  0.560682  1
  F  F41  1  0.163842  0.844982  0.890158  1
  F  F42  1  0.829437  0.155945  0.104296  1
  F  F43  1  0.496295  0.823513  0.440537  1
  F  F44  1  0.838088  0.510021  0.227114  1
