# generated using pymatgen
data_Li4MnFe2(BO3)4
_symmetry_space_group_name_H-M   'P 1'
_cell_length_a   5.29164720
_cell_length_b   9.00665469
_cell_length_c   9.95652441
_cell_angle_alpha   90.00000000
_cell_angle_beta   90.89697847
_cell_angle_gamma   90.00000000
_symmetry_Int_Tables_number   1
_chemical_formula_structural   Li4MnFe2(BO3)4
_chemical_formula_sum   'Li8 Mn2 Fe4 B8 O24'
_cell_volume   474.47019397
_cell_formula_units_Z   2
loop_
 _symmetry_equiv_pos_site_id
 _symmetry_equiv_pos_as_xyz
  1  'x, y, z'
loop_
 _atom_site_type_symbol
 _atom_site_label
 _atom_site_symmetry_multiplicity
 _atom_site_fract_x
 _atom_site_fract_y
 _atom_site_fract_z
 _atom_site_occupancy
  Li  Li0  1  0.168041  0.644683  0.602358  1
  Li  Li1  1  0.158347  0.985290  0.087027  1
  Li  Li2  1  0.350847  0.158372  0.887758  1
  Li  Li3  1  0.346171  0.479406  0.836898  1
  Li  Li4  1  0.658347  0.514710  0.587027  1
  Li  Li5  1  0.668041  0.855317  0.102358  1
  Li  Li6  1  0.850847  0.341628  0.387758  1
  Li  Li7  1  0.846171  0.020594  0.336898  1
  Mn  Mn8  1  0.145560  0.972223  0.668748  1
  Mn  Mn9  1  0.645560  0.527777  0.168748  1
  Fe  Fe10  1  0.151841  0.314506  0.126166  1
  Fe  Fe11  1  0.350072  0.823587  0.369057  1
  Fe  Fe12  1  0.651841  0.185494  0.626166  1
  Fe  Fe13  1  0.850072  0.676413  0.869057  1
  B  B14  1  0.168223  0.330472  0.623464  1
  B  B15  1  0.156171  0.665644  0.128272  1
  B  B16  1  0.340065  0.817095  0.880656  1
  B  B17  1  0.341282  0.160043  0.372126  1
  B  B18  1  0.656171  0.834356  0.628272  1
  B  B19  1  0.668223  0.169528  0.123464  1
  B  B20  1  0.841282  0.339957  0.872126  1
  B  B21  1  0.840065  0.682905  0.380656  1
  O  O22  1  0.089510  0.325027  0.920001  1
  O  O23  1  0.095265  0.684618  0.410436  1
  O  O24  1  0.211985  0.950457  0.875299  1
  O  O25  1  0.213447  0.683508  0.855231  1
  O  O26  1  0.200868  0.277539  0.320346  1
  O  O27  1  0.219761  0.021052  0.373826  1
  O  O28  1  0.276941  0.188453  0.646033  1
  O  O29  1  0.263401  0.524037  0.131642  1
  O  O30  1  0.302873  0.788481  0.163799  1
  O  O31  1  0.316983  0.452319  0.638702  1
  O  O32  1  0.404140  0.818837  0.589137  1
  O  O33  1  0.410992  0.162374  0.088743  1
  O  O34  1  0.595265  0.815382  0.910436  1
  O  O35  1  0.589510  0.174973  0.420001  1
  O  O36  1  0.700868  0.222461  0.820346  1
  O  O37  1  0.711985  0.549543  0.375299  1
  O  O38  1  0.719761  0.478948  0.873826  1
  O  O39  1  0.713447  0.816492  0.355231  1
  O  O40  1  0.763401  0.975963  0.631642  1
  O  O41  1  0.776941  0.311547  0.146033  1
  O  O42  1  0.802873  0.711519  0.663799  1
  O  O43  1  0.816983  0.047681  0.138702  1
  O  O44  1  0.910992  0.337626  0.588743  1
  O  O45  1  0.904140  0.681163  0.089137  1
