# generated using pymatgen
data_Li3Cr(CuO2)4
_symmetry_space_group_name_H-M   'P 1'
_cell_length_a   6.32158336
_cell_length_b   6.32158314
_cell_length_c   6.15493499
_cell_angle_alpha   79.31171260
_cell_angle_beta   53.35044626
_cell_angle_gamma   53.17353731
_symmetry_Int_Tables_number   1
_chemical_formula_structural   Li3Cr(CuO2)4
_chemical_formula_sum   'Li3 Cr1 Cu4 O8'
_cell_volume   152.16795233
_cell_formula_units_Z   1
loop_
 _symmetry_equiv_pos_site_id
 _symmetry_equiv_pos_as_xyz
  1  'x, y, z'
loop_
 _atom_site_type_symbol
 _atom_site_label
 _atom_site_symmetry_multiplicity
 _atom_site_fract_x
 _atom_site_fract_y
 _atom_site_fract_z
 _atom_site_occupancy
  Li  Li0  1  0.000000  0.000000  0.500000  1
  Li  Li1  1  0.500000  0.000000  0.500000  1
  Li  Li2  1  0.500000  0.500000  0.500000  1
  Cr  Cr3  1  0.500000  0.500000  0.000000  1
  Cu  Cu4  1  0.000000  0.500000  0.500000  1
  Cu  Cu5  1  0.000000  0.000000  0.000000  1
  Cu  Cu6  1  0.500000  0.000000  0.000000  1
  Cu  Cu7  1  0.000000  0.500000  0.000000  1
  O  O8  1  0.465070  0.288374  0.823303  1
  O  O9  1  0.998751  0.231891  0.705165  1
  O  O10  1  0.526725  0.703916  0.705165  1
  O  O11  1  0.961194  0.799423  0.838229  1
  O  O12  1  0.038806  0.200577  0.161771  1
  O  O13  1  0.473275  0.296084  0.294834  1
  O  O14  1  0.001249  0.768109  0.294834  1
  O  O15  1  0.534930  0.711626  0.176697  1
