# generated using pymatgen
data_Mn3BiO8
_symmetry_space_group_name_H-M   'P 1'
_cell_length_a   8.60947538
_cell_length_b   8.60945769
_cell_length_c   8.60927554
_cell_angle_alpha   90.00132051
_cell_angle_beta   89.99894789
_cell_angle_gamma   90.00259704
_symmetry_Int_Tables_number   1
_chemical_formula_structural   Mn3BiO8
_chemical_formula_sum   'Mn12 Bi4 O32'
_cell_volume   638.14459014
_cell_formula_units_Z   4
loop_
 _symmetry_equiv_pos_site_id
 _symmetry_equiv_pos_as_xyz
  1  'x, y, z'
loop_
 _atom_site_type_symbol
 _atom_site_label
 _atom_site_symmetry_multiplicity
 _atom_site_fract_x
 _atom_site_fract_y
 _atom_site_fract_z
 _atom_site_occupancy
  Mn  Mn0  1  0.098887  0.151124  0.625014  1
  Mn  Mn1  1  0.125006  0.401122  0.848890  1
  Mn  Mn2  1  0.151112  0.625010  0.098916  1
  Mn  Mn3  1  0.348886  0.375000  0.598905  1
  Mn  Mn4  1  0.374988  0.598896  0.348907  1
  Mn  Mn5  1  0.401109  0.848889  0.125019  1
  Mn  Mn6  1  0.598887  0.348883  0.374984  1
  Mn  Mn7  1  0.625010  0.098890  0.151098  1
  Mn  Mn8  1  0.651106  0.874995  0.901089  1
  Mn  Mn9  1  0.848885  0.125007  0.401110  1
  Mn  Mn10  1  0.874997  0.901118  0.651112  1
  Mn  Mn11  1  0.901113  0.651113  0.874992  1
  Bi  Bi12  1  0.124985  0.875029  0.375034  1
  Bi  Bi13  1  0.375006  0.124981  0.875027  1
  Bi  Bi14  1  0.625005  0.624968  0.624967  1
  Bi  Bi15  1  0.875016  0.375018  0.124974  1
  O  O16  1  0.071593  0.138438  0.402644  1
  O  O17  1  0.097383  0.928414  0.638447  1
  O  O18  1  0.125708  0.625709  0.874313  1
  O  O19  1  0.111592  0.178414  0.847374  1
  O  O20  1  0.138425  0.402630  0.071602  1
  O  O21  1  0.124319  0.375691  0.624298  1
  O  O22  1  0.152629  0.611589  0.321623  1
  O  O23  1  0.178406  0.847354  0.111589  1
  O  O24  1  0.321594  0.152653  0.611583  1
  O  O25  1  0.347367  0.388412  0.821610  1
  O  O26  1  0.375674  0.624325  0.124314  1
  O  O27  1  0.361582  0.597382  0.571618  1
  O  O28  1  0.388406  0.821603  0.347381  1
  O  O29  1  0.374294  0.374301  0.374309  1
  O  O30  1  0.402624  0.071600  0.138451  1
  O  O31  1  0.428401  0.861560  0.902643  1
  O  O32  1  0.571593  0.361561  0.597361  1
  O  O33  1  0.597379  0.571598  0.361553  1
  O  O34  1  0.625703  0.874303  0.125691  1
  O  O35  1  0.611596  0.321596  0.152625  1
  O  O36  1  0.638431  0.097379  0.928392  1
  O  O37  1  0.624317  0.124318  0.375700  1
  O  O38  1  0.652638  0.888408  0.678388  1
  O  O39  1  0.678402  0.652648  0.888410  1
  O  O40  1  0.821596  0.347354  0.388421  1
  O  O41  1  0.847364  0.111591  0.178401  1
  O  O42  1  0.875678  0.875684  0.875701  1
  O  O43  1  0.861571  0.902623  0.428403  1
  O  O44  1  0.888420  0.678411  0.652630  1
  O  O45  1  0.874295  0.125709  0.625708  1
  O  O46  1  0.902622  0.428402  0.861555  1
  O  O47  1  0.928400  0.638436  0.097369  1
