# generated using pymatgen
data_Li3MnV(PO4)3
_symmetry_space_group_name_H-M   'P 1'
_cell_length_a   8.65192466
_cell_length_b   8.65192507
_cell_length_c   6.33491541
_cell_angle_alpha   74.10233529
_cell_angle_beta   105.89766743
_cell_angle_gamma   84.80665319
_symmetry_Int_Tables_number   1
_chemical_formula_structural   Li3MnV(PO4)3
_chemical_formula_sum   'Li6 Mn2 V2 P6 O24'
_cell_volume   431.54207485
_cell_formula_units_Z   2
loop_
 _symmetry_equiv_pos_site_id
 _symmetry_equiv_pos_as_xyz
  1  'x, y, z'
loop_
 _atom_site_type_symbol
 _atom_site_label
 _atom_site_symmetry_multiplicity
 _atom_site_fract_x
 _atom_site_fract_y
 _atom_site_fract_z
 _atom_site_occupancy
  Li  Li0  1  0.001690  0.001690  0.750000  1
  Li  Li1  1  0.289332  0.289332  0.250000  1
  Li  Li2  1  0.499475  0.502018  0.497020  1
  Li  Li3  1  0.502018  0.499475  0.002980  1
  Li  Li4  1  0.711039  0.711039  0.750000  1
  Li  Li5  1  0.996085  0.996085  0.250000  1
  Mn  Mn6  1  0.374695  0.942293  0.130061  1
  Mn  Mn7  1  0.942293  0.374695  0.369939  1
  V  V8  1  0.056994  0.622292  0.641586  1
  V  V9  1  0.622292  0.056994  0.858414  1
  P  P10  1  0.287003  0.287003  0.750000  1
  P  P11  1  0.134355  0.665316  0.136097  1
  P  P12  1  0.339173  0.861409  0.635546  1
  P  P13  1  0.665316  0.134355  0.363903  1
  P  P14  1  0.861409  0.339173  0.864454  1
  P  P15  1  0.713887  0.713887  0.250000  1
  O  O16  1  0.010362  0.655656  0.910999  1
  O  O17  1  0.052364  0.609909  0.329764  1
  O  O18  1  0.263114  0.171948  0.971891  1
  O  O19  1  0.171948  0.263114  0.528109  1
  O  O20  1  0.157426  0.841957  0.612106  1
  O  O21  1  0.263432  0.461018  0.772774  1
  O  O22  1  0.145468  0.850330  0.093964  1
  O  O23  1  0.295665  0.548696  0.204765  1
  O  O24  1  0.400729  0.952293  0.822913  1
  O  O25  1  0.336463  0.985024  0.403120  1
  O  O26  1  0.461018  0.263432  0.727226  1
  O  O27  1  0.457391  0.701545  0.707414  1
  O  O28  1  0.548696  0.295665  0.295235  1
  O  O29  1  0.536978  0.738519  0.267424  1
  O  O30  1  0.655656  0.010362  0.589001  1
  O  O31  1  0.609909  0.052364  0.170236  1
  O  O32  1  0.701545  0.457391  0.792586  1
  O  O33  1  0.841957  0.157426  0.887894  1
  O  O34  1  0.738519  0.536978  0.232576  1
  O  O35  1  0.850330  0.145468  0.406036  1
  O  O36  1  0.825982  0.740674  0.469119  1
  O  O37  1  0.740674  0.825982  0.030881  1
  O  O38  1  0.952293  0.400729  0.677087  1
  O  O39  1  0.985024  0.336463  0.096880  1
