# generated using pymatgen
data_NaLi3Fe4(SiO3)8
_symmetry_space_group_name_H-M   'P 1'
_cell_length_a   6.61367390
_cell_length_b   13.21993358
_cell_length_c   10.73461007
_cell_angle_alpha   75.39408158
_cell_angle_beta   104.60518094
_cell_angle_gamma   96.41737522
_symmetry_Int_Tables_number   1
_chemical_formula_structural   NaLi3Fe4(SiO3)8
_chemical_formula_sum   'Na2 Li6 Fe8 Si16 O48'
_cell_volume   877.70871678
_cell_formula_units_Z   2
loop_
 _symmetry_equiv_pos_site_id
 _symmetry_equiv_pos_as_xyz
  1  'x, y, z'
loop_
 _atom_site_type_symbol
 _atom_site_label
 _atom_site_symmetry_multiplicity
 _atom_site_fract_x
 _atom_site_fract_y
 _atom_site_fract_z
 _atom_site_occupancy
  Na  Na0  1  0.709083  0.854664  0.875544  1
  Na  Na1  1  0.290917  0.145336  0.124456  1
  Li  Li2  1  0.255241  0.629526  0.624075  1
  Li  Li3  1  0.743140  0.872416  0.374577  1
  Li  Li4  1  0.257471  0.628581  0.125641  1
  Li  Li5  1  0.742529  0.371419  0.874359  1
  Li  Li6  1  0.256860  0.127584  0.625423  1
  Li  Li7  1  0.744759  0.370474  0.375925  1
  Fe  Fe8  1  0.103396  0.552795  0.874161  1
  Fe  Fe9  1  0.896004  0.948888  0.624852  1
  Fe  Fe10  1  0.103805  0.550845  0.375850  1
  Fe  Fe11  1  0.897219  0.947901  0.125217  1
  Fe  Fe12  1  0.102781  0.052099  0.874783  1
  Fe  Fe13  1  0.896195  0.449155  0.624150  1
  Fe  Fe14  1  0.103996  0.051112  0.375148  1
  Fe  Fe15  1  0.896604  0.447205  0.125839  1
  Si  Si16  1  0.206109  0.808742  0.878553  1
  Si  Si17  1  0.380210  0.898097  0.626407  1
  Si  Si18  1  0.203200  0.807093  0.379381  1
  Si  Si19  1  0.383031  0.895124  0.129733  1
  Si  Si20  1  0.617185  0.601418  0.870026  1
  Si  Si21  1  0.203367  0.310959  0.876735  1
  Si  Si22  1  0.794103  0.692206  0.619065  1
  Si  Si23  1  0.385064  0.398722  0.629582  1
  Si  Si24  1  0.614936  0.601278  0.370418  1
  Si  Si25  1  0.205897  0.307794  0.380935  1
  Si  Si26  1  0.796633  0.689041  0.123265  1
  Si  Si27  1  0.382815  0.398582  0.129974  1
  Si  Si28  1  0.616969  0.104876  0.870267  1
  Si  Si29  1  0.796800  0.192907  0.620619  1
  Si  Si30  1  0.619790  0.101903  0.373593  1
  Si  Si31  1  0.793891  0.191258  0.121447  1
  O  O32  1  0.035345  0.900781  0.821788  1
  O  O33  1  0.198481  0.984855  0.574158  1
  O  O34  1  0.029545  0.898476  0.324661  1
  O  O35  1  0.108274  0.689301  0.910411  1
  O  O36  1  0.353727  0.823419  0.771450  1
  O  O37  1  0.199059  0.980993  0.071492  1
  O  O38  1  0.617419  0.948751  0.652136  1
  O  O39  1  0.348949  0.820908  0.523972  1
  O  O40  1  0.107768  0.687249  0.411462  1
  O  O41  1  0.352000  0.821732  0.273508  1
  O  O42  1  0.650533  0.674261  0.978478  1
  O  O43  1  0.622181  0.943314  0.162042  1
  O  O44  1  0.028572  0.401495  0.822780  1
  O  O45  1  0.376243  0.556185  0.837209  1
  O  O46  1  0.357720  0.821754  0.022386  1
  O  O47  1  0.649449  0.676933  0.727678  1
  O  O48  1  0.203546  0.486306  0.574098  1
  O  O49  1  0.886614  0.812304  0.586786  1
  O  O50  1  0.646042  0.675713  0.476287  1
  O  O51  1  0.028837  0.397654  0.324895  1
  O  O52  1  0.375513  0.553704  0.338753  1
  O  O53  1  0.104498  0.191994  0.902361  1
  O  O54  1  0.796779  0.513109  0.926041  1
  O  O55  1  0.643197  0.673428  0.225995  1
  O  O56  1  0.356803  0.326572  0.774005  1
  O  O57  1  0.203220  0.486891  0.073959  1
  O  O58  1  0.895502  0.808006  0.097639  1
  O  O59  1  0.624487  0.446296  0.661247  1
  O  O60  1  0.971163  0.602346  0.675105  1
  O  O61  1  0.353958  0.324287  0.523713  1
  O  O62  1  0.113386  0.187696  0.413214  1
  O  O63  1  0.796454  0.513694  0.425902  1
  O  O64  1  0.350551  0.323067  0.272322  1
  O  O65  1  0.642280  0.178246  0.977614  1
  O  O66  1  0.623757  0.443815  0.162791  1
  O  O67  1  0.971428  0.598505  0.177220  1
  O  O68  1  0.377819  0.056686  0.837958  1
  O  O69  1  0.349467  0.325739  0.021522  1
  O  O70  1  0.648000  0.178268  0.726492  1
  O  O71  1  0.892232  0.312751  0.588538  1
  O  O72  1  0.651051  0.179092  0.476028  1
  O  O73  1  0.382581  0.051249  0.347864  1
  O  O74  1  0.800941  0.019007  0.928508  1
  O  O75  1  0.646273  0.176581  0.228550  1
  O  O76  1  0.891726  0.310699  0.089589  1
  O  O77  1  0.970455  0.101524  0.675339  1
  O  O78  1  0.801519  0.015145  0.425842  1
  O  O79  1  0.964655  0.099219  0.178212  1
