# generated using pymatgen
data_Li4Cr2Fe3Sn3O16
_symmetry_space_group_name_H-M   'P 1'
_cell_length_a   6.12189299
_cell_length_b   6.11701673
_cell_length_c   9.66941777
_cell_angle_alpha   90.00049187
_cell_angle_beta   89.77451305
_cell_angle_gamma   119.97482832
_symmetry_Int_Tables_number   1
_chemical_formula_structural   Li4Cr2Fe3Sn3O16
_chemical_formula_sum   'Li4 Cr2 Fe3 Sn3 O16'
_cell_volume   313.66205775
_cell_formula_units_Z   1
loop_
 _symmetry_equiv_pos_site_id
 _symmetry_equiv_pos_as_xyz
  1  'x, y, z'
loop_
 _atom_site_type_symbol
 _atom_site_label
 _atom_site_symmetry_multiplicity
 _atom_site_fract_x
 _atom_site_fract_y
 _atom_site_fract_z
 _atom_site_occupancy
  Li  Li0  1  0.338689  0.669340  0.888145  1
  Li  Li1  1  0.977208  0.988603  0.991316  1
  Li  Li2  1  0.981983  0.990994  0.500197  1
  Li  Li3  1  0.668477  0.334261  0.395450  1
  Cr  Cr4  1  0.338127  0.669106  0.489709  1
  Cr  Cr5  1  0.676460  0.338248  0.982460  1
  Fe  Fe6  1  0.662395  0.831210  0.215269  1
  Fe  Fe7  1  0.830062  0.659606  0.714426  1
  Fe  Fe8  1  0.830049  0.170468  0.714417  1
  Sn  Sn9  1  0.170686  0.831631  0.212931  1
  Sn  Sn10  1  0.170687  0.339070  0.212939  1
  Sn  Sn11  1  0.341777  0.170904  0.712527  1
  O  O12  1  0.164053  0.833932  0.596851  1
  O  O13  1  0.039566  0.519794  0.347563  1
  O  O14  1  0.343659  0.671835  0.097689  1
  O  O15  1  0.993413  0.996706  0.315076  1
  O  O16  1  0.989793  0.994916  0.805966  1
  O  O17  1  0.164069  0.330182  0.596853  1
  O  O18  1  0.482489  0.958659  0.345676  1
  O  O19  1  0.482481  0.523875  0.345687  1
  O  O20  1  0.326480  0.163248  0.094008  1
  O  O21  1  0.664392  0.832222  0.602597  1
  O  O22  1  0.526665  0.484075  0.844336  1
  O  O23  1  0.526639  0.042580  0.844327  1
  O  O24  1  0.681053  0.340535  0.601948  1
  O  O25  1  0.834509  0.671401  0.099335  1
  O  O26  1  0.959616  0.479804  0.840811  1
  O  O27  1  0.834521  0.163097  0.099331  1
