# generated using pymatgen
data_Na2PH15O11
_symmetry_space_group_name_H-M   'P 1'
_cell_length_a   10.51072260
_cell_length_b   11.10670271
_cell_length_c   9.34749192
_cell_angle_alpha   90.00000000
_cell_angle_beta   95.72916382
_cell_angle_gamma   90.00000000
_symmetry_Int_Tables_number   1
_chemical_formula_structural   Na2PH15O11
_chemical_formula_sum   'Na8 P4 H60 O44'
_cell_volume   1085.77048967
_cell_formula_units_Z   4
loop_
 _symmetry_equiv_pos_site_id
 _symmetry_equiv_pos_as_xyz
  1  'x, y, z'
loop_
 _atom_site_type_symbol
 _atom_site_label
 _atom_site_symmetry_multiplicity
 _atom_site_fract_x
 _atom_site_fract_y
 _atom_site_fract_z
 _atom_site_occupancy
  Na  Na0  1  0.525012  0.894544  0.359003  1
  Na  Na1  1  0.025012  0.605456  0.859003  1
  Na  Na2  1  0.474988  0.105456  0.640997  1
  Na  Na3  1  0.974988  0.394544  0.140997  1
  Na  Na4  1  0.523951  0.605844  0.366579  1
  Na  Na5  1  0.023951  0.894156  0.866579  1
  Na  Na6  1  0.476049  0.394156  0.633421  1
  Na  Na7  1  0.976049  0.105844  0.133421  1
  P  P8  1  0.104726  0.737321  0.396377  1
  P  P9  1  0.604726  0.762679  0.896377  1
  P  P10  1  0.895274  0.262679  0.603623  1
  P  P11  1  0.395274  0.237321  0.103623  1
  H  H12  1  0.129807  0.570560  0.535093  1
  H  H13  1  0.629807  0.929440  0.035093  1
  H  H14  1  0.870193  0.429440  0.464907  1
  H  H15  1  0.370193  0.070560  0.964907  1
  H  H16  1  0.666691  0.916165  0.650732  1
  H  H17  1  0.166691  0.583835  0.150732  1
  H  H18  1  0.333309  0.083835  0.349268  1
  H  H19  1  0.833309  0.416165  0.849268  1
  H  H20  1  0.720909  0.030765  0.571610  1
  H  H21  1  0.220909  0.469235  0.071610  1
  H  H22  1  0.279091  0.969235  0.428390  1
  H  H23  1  0.779091  0.530765  0.928390  1
  H  H24  1  0.495896  0.755750  0.612895  1
  H  H25  1  0.995896  0.744250  0.112895  1
  H  H26  1  0.504104  0.244250  0.387105  1
  H  H27  1  0.004104  0.255750  0.887105  1
  H  H28  1  0.355372  0.771713  0.529062  1
  H  H29  1  0.855372  0.728287  0.029062  1
  H  H30  1  0.644628  0.228287  0.470938  1
  H  H31  1  0.144628  0.271713  0.970938  1
  H  H32  1  0.775601  0.758578  0.347769  1
  H  H33  1  0.275601  0.741422  0.847769  1
  H  H34  1  0.224399  0.241422  0.652231  1
  H  H35  1  0.724399  0.258578  0.152231  1
  H  H36  1  0.690471  0.733895  0.202501  1
  H  H37  1  0.190471  0.766105  0.702501  1
  H  H38  1  0.309529  0.266105  0.797499  1
  H  H39  1  0.809529  0.233895  0.297499  1
  H  H40  1  0.600024  0.090144  0.161620  1
  H  H41  1  0.100024  0.409856  0.661620  1
  H  H42  1  0.399976  0.909856  0.838380  1
  H  H43  1  0.899976  0.590144  0.338380  1
  H  H44  1  0.717316  0.010898  0.233869  1
  H  H45  1  0.217316  0.489102  0.733869  1
  H  H46  1  0.282684  0.989102  0.766131  1
  H  H47  1  0.782684  0.510898  0.266131  1
  H  H48  1  0.316766  0.748754  0.210246  1
  H  H49  1  0.816766  0.751246  0.710246  1
  H  H50  1  0.683234  0.251246  0.789754  1
  H  H51  1  0.183234  0.248754  0.289754  1
  H  H52  1  0.417997  0.750486  0.093040  1
  H  H53  1  0.917997  0.749514  0.593040  1
  H  H54  1  0.582003  0.249514  0.906960  1
  H  H55  1  0.082003  0.250486  0.406960  1
  H  H56  1  0.647684  0.607656  0.656691  1
  H  H57  1  0.147684  0.892344  0.156691  1
  H  H58  1  0.352316  0.392344  0.343309  1
  H  H59  1  0.852316  0.107656  0.843309  1
  H  H60  1  0.714991  0.492765  0.592495  1
  H  H61  1  0.214991  0.007235  0.092495  1
  H  H62  1  0.285009  0.507235  0.407505  1
  H  H63  1  0.785009  0.992765  0.907505  1
  H  H64  1  0.581172  0.419616  0.144617  1
  H  H65  1  0.081172  0.080384  0.644617  1
  H  H66  1  0.418828  0.580384  0.855383  1
  H  H67  1  0.918828  0.919616  0.355383  1
  H  H68  1  0.620805  0.554652  0.101478  1
  H  H69  1  0.120805  0.945348  0.601478  1
  H  H70  1  0.379195  0.445348  0.898522  1
  H  H71  1  0.879195  0.054652  0.398522  1
  O  O72  1  0.145642  0.751009  0.243026  1
  O  O73  1  0.645642  0.748991  0.743026  1
  O  O74  1  0.854358  0.248991  0.756974  1
  O  O75  1  0.354358  0.251009  0.256974  1
  O  O76  1  0.959162  0.752135  0.400965  1
  O  O77  1  0.459162  0.747865  0.900965  1
  O  O78  1  0.040838  0.247865  0.599035  1
  O  O79  1  0.540838  0.252135  0.099035  1
  O  O80  1  0.182026  0.818186  0.508181  1
  O  O81  1  0.682026  0.681814  0.008181  1
  O  O82  1  0.817974  0.181814  0.491819  1
  O  O83  1  0.317974  0.318186  0.991819  1
  O  O84  1  0.141115  0.598318  0.434577  1
  O  O85  1  0.641115  0.901682  0.934577  1
  O  O86  1  0.858885  0.401682  0.565423  1
  O  O87  1  0.358885  0.098318  0.065423  1
  O  O88  1  0.646159  0.978771  0.577516  1
  O  O89  1  0.146159  0.521229  0.077516  1
  O  O90  1  0.353841  0.021229  0.422484  1
  O  O91  1  0.853841  0.478771  0.922484  1
  O  O92  1  0.445540  0.753125  0.518055  1
  O  O93  1  0.945540  0.746875  0.018055  1
  O  O94  1  0.554460  0.246875  0.481945  1
  O  O95  1  0.054460  0.253125  0.981945  1
  O  O96  1  0.686595  0.749221  0.306326  1
  O  O97  1  0.186595  0.750779  0.806326  1
  O  O98  1  0.313405  0.250779  0.693674  1
  O  O99  1  0.813405  0.249221  0.193674  1
  O  O100  1  0.627110  0.007656  0.190808  1
  O  O101  1  0.127110  0.492344  0.690808  1
  O  O102  1  0.372890  0.992344  0.809192  1
  O  O103  1  0.872890  0.507656  0.309192  1
  O  O104  1  0.409065  0.749741  0.197416  1
  O  O105  1  0.909065  0.750259  0.697416  1
  O  O106  1  0.590935  0.250259  0.802584  1
  O  O107  1  0.090935  0.249741  0.302584  1
  O  O108  1  0.633402  0.536981  0.592514  1
  O  O109  1  0.133402  0.963019  0.092514  1
  O  O110  1  0.366598  0.463019  0.407486  1
  O  O111  1  0.866598  0.036981  0.907486  1
  O  O112  1  0.613143  0.498376  0.182532  1
  O  O113  1  0.113143  0.001624  0.682532  1
  O  O114  1  0.386857  0.501624  0.817468  1
  O  O115  1  0.886857  0.998376  0.317468  1
