# generated using pymatgen
data_Li5CrP2(O4F)2
_symmetry_space_group_name_H-M   'P 1'
_cell_length_a   10.05719399
_cell_length_b   10.05718578
_cell_length_c   6.50512965
_cell_angle_alpha   90.00020920
_cell_angle_beta   89.99950365
_cell_angle_gamma   119.99998904
_symmetry_Int_Tables_number   1
_chemical_formula_structural   Li5CrP2(O4F)2
_chemical_formula_sum   'Li15 Cr3 P6 O24 F6'
_cell_volume   569.82294932
_cell_formula_units_Z   3
loop_
 _symmetry_equiv_pos_site_id
 _symmetry_equiv_pos_as_xyz
  1  'x, y, z'
loop_
 _atom_site_type_symbol
 _atom_site_label
 _atom_site_symmetry_multiplicity
 _atom_site_fract_x
 _atom_site_fract_y
 _atom_site_fract_z
 _atom_site_occupancy
  Li  Li0  1  0.167332  0.834224  0.503499  1
  Li  Li1  1  0.333349  0.666678  0.546971  1
  Li  Li2  1  0.333359  0.666685  0.966282  1
  Li  Li3  1  0.000024  0.000005  0.463038  1
  Li  Li4  1  0.000027  0.000014  0.044528  1
  Li  Li5  1  0.165825  0.333101  0.503495  1
  Li  Li6  1  0.666895  0.832675  0.503501  1
  Li  Li7  1  0.467389  0.482722  0.741428  1
  Li  Li8  1  0.323373  0.139805  0.267812  1
  Li  Li9  1  0.816421  0.676665  0.267831  1
  Li  Li10  1  0.666674  0.333334  0.967047  1
  Li  Li11  1  0.666679  0.333327  0.486588  1
  Li  Li12  1  0.517281  0.984671  0.741413  1
  Li  Li13  1  0.015361  0.532658  0.741414  1
  Li  Li14  1  0.860264  0.183573  0.267833  1
  Cr  Cr15  1  0.167489  0.833789  0.005068  1
  Cr  Cr16  1  0.165854  0.333680  0.004859  1
  Cr  Cr17  1  0.666329  0.832388  0.004843  1
  P  P18  1  0.036527  0.524301  0.265355  1
  P  P19  1  0.487770  0.963455  0.265315  1
  P  P20  1  0.297237  0.144252  0.745368  1
  P  P21  1  0.475685  0.512246  0.265283  1
  P  P22  1  0.847022  0.702754  0.745341  1
  P  P23  1  0.855735  0.152989  0.745297  1
  O  O24  1  0.015625  0.733972  0.769680  1
  O  O25  1  0.120767  0.626450  0.073678  1
  O  O26  1  0.118251  0.612448  0.462504  1
  O  O27  1  0.320277  0.935148  0.239502  1
  O  O28  1  0.064821  0.385112  0.239506  1
  O  O29  1  0.494212  0.881764  0.462498  1
  O  O30  1  0.505737  0.879222  0.073681  1
  O  O31  1  0.266002  0.281628  0.769681  1
  O  O32  1  0.373449  0.494272  0.073681  1
  O  O33  1  0.387584  0.505827  0.462504  1
  O  O34  1  0.218318  0.056446  0.547153  1
  O  O35  1  0.213316  0.041112  0.935944  1
  O  O36  1  0.614899  0.679730  0.239467  1
  O  O37  1  0.718385  0.984380  0.769637  1
  O  O38  1  0.529311  0.393721  0.265384  1
  O  O39  1  0.470609  0.201545  0.748560  1
  O  O40  1  0.827872  0.786701  0.935948  1
  O  O41  1  0.838144  0.781686  0.547159  1
  O  O42  1  0.730967  0.529395  0.748596  1
  O  O43  1  0.606316  0.135596  0.265392  1
  O  O44  1  0.864405  0.470705  0.265407  1
  O  O45  1  0.798471  0.269068  0.748557  1
  O  O46  1  0.943588  0.161885  0.547152  1
  O  O47  1  0.958796  0.172142  0.935939  1
  F  F48  1  0.031847  0.842176  0.220929  1
  F  F49  1  0.302555  0.824655  0.788889  1
  F  F50  1  0.175293  0.477930  0.788793  1
  F  F51  1  0.157780  0.189714  0.220805  1
  F  F52  1  0.522144  0.697435  0.788833  1
  F  F53  1  0.810359  0.968142  0.220859  1
