# generated using pymatgen
data_H4Os3C10O9
_symmetry_space_group_name_H-M   'P 1'
_cell_length_a   9.38334025
_cell_length_b   11.60014045
_cell_length_c   15.71611897
_cell_angle_alpha   112.14627427
_cell_angle_beta   90.18845885
_cell_angle_gamma   97.37425006
_symmetry_Int_Tables_number   1
_chemical_formula_structural   H4Os3C10O9
_chemical_formula_sum   'H16 Os12 C40 O36'
_cell_volume   1568.87010709
_cell_formula_units_Z   4
loop_
 _symmetry_equiv_pos_site_id
 _symmetry_equiv_pos_as_xyz
  1  'x, y, z'
loop_
 _atom_site_type_symbol
 _atom_site_label
 _atom_site_symmetry_multiplicity
 _atom_site_fract_x
 _atom_site_fract_y
 _atom_site_fract_z
 _atom_site_occupancy
  H  H0  1  0.897073  0.643567  0.821841  1
  H  H1  1  0.102927  0.356433  0.178159  1
  H  H2  1  0.086004  0.639231  0.931421  1
  H  H3  1  0.913996  0.360769  0.068579  1
  H  H4  1  0.155593  0.668585  0.786768  1
  H  H5  1  0.844407  0.331415  0.213232  1
  H  H6  1  0.068563  0.960633  0.953692  1
  H  H7  1  0.931437  0.039367  0.046308  1
  H  H8  1  0.519199  0.654483  0.304848  1
  H  H9  1  0.480801  0.345517  0.695152  1
  H  H10  1  0.328431  0.757042  0.259292  1
  H  H11  1  0.671569  0.242958  0.740708  1
  H  H12  1  0.263149  0.610019  0.337579  1
  H  H13  1  0.736851  0.389981  0.662421  1
  H  H14  1  0.422958  0.911326  0.502652  1
  H  H15  1  0.577042  0.088674  0.497348  1
  Os  Os16  1  0.922482  0.719793  0.948002  1
  Os  Os17  1  0.077518  0.280207  0.051998  1
  Os  Os18  1  0.005052  0.753961  0.778827  1
  Os  Os19  1  0.994948  0.246039  0.221173  1
  Os  Os20  1  0.227110  0.746925  0.907420  1
  Os  Os21  1  0.772890  0.253075  0.092580  1
  Os  Os22  1  0.512176  0.817621  0.315443  1
  Os  Os23  1  0.487824  0.182379  0.684557  1
  Os  Os24  1  0.432756  0.643032  0.407531  1
  Os  Os25  1  0.567244  0.356968  0.592469  1
  Os  Os26  1  0.210892  0.765222  0.354480  1
  Os  Os27  1  0.789108  0.234778  0.645520  1
  C  C28  1  0.061005  0.858602  0.919359  1
  C  C29  1  0.938995  0.141398  0.080641  1
  C  C30  1  0.956741  0.798020  0.078211  1
  C  C31  1  0.043259  0.201980  0.921789  1
  C  C32  1  0.825542  0.557691  0.944170  1
  C  C33  1  0.174458  0.442309  0.055830  1
  C  C34  1  0.751120  0.793937  0.957325  1
  C  C35  1  0.248880  0.206063  0.042675  1
  C  C36  1  0.964760  0.614645  0.659705  1
  C  C37  1  0.035240  0.385355  0.340295  1
  C  C38  1  0.122096  0.860208  0.732131  1
  C  C39  1  0.877904  0.139792  0.267869  1
  C  C40  1  0.845125  0.838547  0.775863  1
  C  C41  1  0.154875  0.161453  0.224137  1
  C  C42  1  0.291816  0.814069  0.033900  1
  C  C43  1  0.708184  0.185931  0.966100  1
  C  C44  1  0.363405  0.862176  0.878850  1
  C  C45  1  0.636595  0.137824  0.121150  1
  C  C46  1  0.343471  0.609689  0.875935  1
  C  C47  1  0.656529  0.390311  0.124065  1
  C  C48  1  0.405979  0.832483  0.436507  1
  C  C49  1  0.594021  0.167517  0.563493  1
  C  C50  1  0.571094  0.756659  0.188358  1
  C  C51  1  0.428906  0.243341  0.811642  1
  C  C52  1  0.496692  0.984161  0.324262  1
  C  C53  1  0.503308  0.015839  0.675738  1
  C  C54  1  0.702519  0.866773  0.370108  1
  C  C55  1  0.297481  0.133227  0.629892  1
  C  C56  1  0.335987  0.628507  0.510477  1
  C  C57  1  0.664013  0.371493  0.489523  1
  C  C58  1  0.439471  0.463885  0.338745  1
  C  C59  1  0.560529  0.536115  0.661255  1
  C  C60  1  0.611516  0.675357  0.476467  1
  C  C61  1  0.388484  0.324643  0.523533  1
  C  C62  1  0.096661  0.766296  0.454922  1
  C  C63  1  0.903339  0.233704  0.545078  1
  C  C64  1  0.059882  0.668151  0.259343  1
  C  C65  1  0.940118  0.331849  0.740657  1
  C  C66  1  0.160437  0.923283  0.363413  1
  C  C67  1  0.839563  0.076717  0.636587  1
  O  O68  1  0.977841  0.850241  0.157277  1
  O  O69  1  0.022159  0.149758  0.842723  1
  O  O70  1  0.766192  0.462268  0.942008  1
  O  O71  1  0.233808  0.537732  0.057992  1
  O  O72  1  0.647801  0.841520  0.963485  1
  O  O73  1  0.352199  0.158480  0.036515  1
  O  O74  1  0.942991  0.531668  0.589041  1
  O  O75  1  0.057009  0.468332  0.410959  1
  O  O76  1  0.193807  0.927401  0.705393  1
  O  O77  1  0.806193  0.072599  0.294607  1
  O  O78  1  0.749565  0.894140  0.779411  1
  O  O79  1  0.250435  0.105860  0.220589  1
  O  O80  1  0.325685  0.852538  0.111712  1
  O  O81  1  0.674315  0.147462  0.888288  1
  O  O82  1  0.439664  0.936209  0.861383  1
  O  O83  1  0.560336  0.063791  0.138617  1
  O  O84  1  0.417776  0.531949  0.859001  1
  O  O85  1  0.582224  0.468051  0.140999  1
  O  O86  1  0.607825  0.722311  0.113475  1
  O  O87  1  0.392175  0.277689  0.886525  1
  O  O88  1  0.485933  0.086601  0.333241  1
  O  O89  1  0.514067  0.913399  0.666759  1
  O  O90  1  0.817836  0.894707  0.405402  1
  O  O91  1  0.182164  0.105293  0.594598  1
  O  O92  1  0.279636  0.622623  0.574725  1
  O  O93  1  0.720364  0.377377  0.425275  1
  O  O94  1  0.444500  0.358046  0.296537  1
  O  O95  1  0.555500  0.641954  0.703463  1
  O  O96  1  0.718081  0.694960  0.520535  1
  O  O97  1  0.281919  0.305040  0.479465  1
  O  O98  1  0.031556  0.766925  0.517635  1
  O  O99  1  0.968444  0.233075  0.482365  1
  O  O100  1  0.965397  0.612276  0.205679  1
  O  O101  1  0.034603  0.387724  0.794321  1
  O  O102  1  0.130682  0.019932  0.369122  1
  O  O103  1  0.869318  0.980068  0.630878  1
