# generated using pymatgen
data_LiMn2(BO3)2
_symmetry_space_group_name_H-M   'P 1'
_cell_length_a   5.32313127
_cell_length_b   9.04786614
_cell_length_c   10.36257117
_cell_angle_alpha   90.00000144
_cell_angle_beta   91.95852733
_cell_angle_gamma   89.99999904
_symmetry_Int_Tables_number   1
_chemical_formula_structural   LiMn2(BO3)2
_chemical_formula_sum   'Li4 Mn8 B8 O24'
_cell_volume   498.80074304
_cell_formula_units_Z   4
loop_
 _symmetry_equiv_pos_site_id
 _symmetry_equiv_pos_as_xyz
  1  'x, y, z'
loop_
 _atom_site_type_symbol
 _atom_site_label
 _atom_site_symmetry_multiplicity
 _atom_site_fract_x
 _atom_site_fract_y
 _atom_site_fract_z
 _atom_site_occupancy
  Li  Li0  1  0.866162  0.002951  0.916840  1
  Li  Li1  1  0.629882  0.481747  0.666663  1
  Li  Li2  1  0.629882  0.518253  0.166663  1
  Li  Li3  1  0.866162  0.997049  0.416840  1
  Mn  Mn4  1  0.350580  0.194612  0.874404  1
  Mn  Mn5  1  0.652402  0.147959  0.623978  1
  Mn  Mn6  1  0.142255  0.302986  0.131635  1
  Mn  Mn7  1  0.845563  0.345793  0.387701  1
  Mn  Mn8  1  0.142255  0.697014  0.631635  1
  Mn  Mn9  1  0.845563  0.654207  0.887701  1
  Mn  Mn10  1  0.350580  0.805388  0.374404  1
  Mn  Mn11  1  0.652402  0.852041  0.123978  1
  B  B12  1  0.341329  0.148368  0.370786  1
  B  B13  1  0.153802  0.351169  0.636998  1
  B  B14  1  0.679230  0.187650  0.118228  1
  B  B15  1  0.824040  0.313154  0.873404  1
  B  B16  1  0.153802  0.648831  0.136998  1
  B  B17  1  0.341329  0.851632  0.870786  1
  B  B18  1  0.824040  0.686846  0.373404  1
  B  B19  1  0.679230  0.812349  0.618228  1
  O  O20  1  0.217716  0.018521  0.382140  1
  O  O21  1  0.289742  0.228131  0.689967  1
  O  O22  1  0.431831  0.197971  0.068553  1
  O  O23  1  0.809186  0.060787  0.110369  1
  O  O24  1  0.591160  0.166487  0.415020  1
  O  O25  1  0.060750  0.301318  0.935714  1
  O  O26  1  0.210847  0.272219  0.316932  1
  O  O27  1  0.707547  0.177508  0.838051  1
  O  O28  1  0.272396  0.482304  0.627601  1
  O  O29  1  0.786412  0.319501  0.166010  1
  O  O30  1  0.904662  0.329163  0.593378  1
  O  O31  1  0.272396  0.517696  0.127601  1
  O  O32  1  0.711831  0.443318  0.851584  1
  O  O33  1  0.060750  0.698682  0.435714  1
  O  O34  1  0.210847  0.727781  0.816932  1
  O  O35  1  0.711831  0.556682  0.351584  1
  O  O36  1  0.289742  0.771869  0.189967  1
  O  O37  1  0.786412  0.680499  0.666010  1
  O  O38  1  0.904662  0.670837  0.093378  1
  O  O39  1  0.431831  0.802029  0.568553  1
  O  O40  1  0.217716  0.981479  0.882140  1
  O  O41  1  0.591160  0.833513  0.915020  1
  O  O42  1  0.707547  0.822492  0.338051  1
  O  O43  1  0.809186  0.939213  0.610369  1
