# generated using pymatgen
data_Na3VSiBO7
_symmetry_space_group_name_H-M   'P 1'
_cell_length_a   8.91609048
_cell_length_b   6.63342200
_cell_length_c   5.33966485
_cell_angle_alpha   90.00000000
_cell_angle_beta   88.46141829
_cell_angle_gamma   90.00000000
_symmetry_Int_Tables_number   1
_chemical_formula_structural   Na3VSiBO7
_chemical_formula_sum   'Na6 V2 Si2 B2 O14'
_cell_volume   315.69629785
_cell_formula_units_Z   2
loop_
 _symmetry_equiv_pos_site_id
 _symmetry_equiv_pos_as_xyz
  1  'x, y, z'
loop_
 _atom_site_type_symbol
 _atom_site_label
 _atom_site_symmetry_multiplicity
 _atom_site_fract_x
 _atom_site_fract_y
 _atom_site_fract_z
 _atom_site_occupancy
  Na  Na0  1  0.083937  0.250000  0.760817  1
  Na  Na1  1  0.253162  0.003565  0.253659  1
  Na  Na2  1  0.253162  0.496435  0.253659  1
  Na  Na3  1  0.746838  0.503565  0.746341  1
  Na  Na4  1  0.746838  0.996435  0.746341  1
  Na  Na5  1  0.916063  0.750000  0.239183  1
  V  V6  1  0.338940  0.750000  0.789566  1
  V  V7  1  0.661060  0.250000  0.210434  1
  Si  Si8  1  0.427214  0.250000  0.720917  1
  Si  Si9  1  0.572786  0.750000  0.279083  1
  B  B10  1  0.065646  0.750000  0.737196  1
  B  B11  1  0.934354  0.250000  0.262804  1
  O  O12  1  0.081215  0.250000  0.313292  1
  O  O13  1  0.129103  0.750000  0.972791  1
  O  O14  1  0.181591  0.750000  0.546716  1
  O  O15  1  0.323634  0.052530  0.786841  1
  O  O16  1  0.323634  0.447470  0.786841  1
  O  O17  1  0.483020  0.250000  0.424646  1
  O  O18  1  0.420763  0.750000  0.108327  1
  O  O19  1  0.579237  0.250000  0.891673  1
  O  O20  1  0.516980  0.750000  0.575354  1
  O  O21  1  0.676366  0.552530  0.213159  1
  O  O22  1  0.676366  0.947470  0.213159  1
  O  O23  1  0.818409  0.250000  0.453284  1
  O  O24  1  0.870897  0.250000  0.027209  1
  O  O25  1  0.918785  0.750000  0.686708  1
