# generated using pymatgen
data_LiSi2NiO6
_symmetry_space_group_name_H-M   'P 1'
_cell_length_a   5.33636249
_cell_length_b   5.30280259
_cell_length_c   5.60378148
_cell_angle_alpha   90.00005847
_cell_angle_beta   89.99984871
_cell_angle_gamma   120.21404501
_symmetry_Int_Tables_number   1
_chemical_formula_structural   LiSi2NiO6
_chemical_formula_sum   'Li1 Si2 Ni1 O6'
_cell_volume   137.03195292
_cell_formula_units_Z   1
loop_
 _symmetry_equiv_pos_site_id
 _symmetry_equiv_pos_as_xyz
  1  'x, y, z'
loop_
 _atom_site_type_symbol
 _atom_site_label
 _atom_site_symmetry_multiplicity
 _atom_site_fract_x
 _atom_site_fract_y
 _atom_site_fract_z
 _atom_site_occupancy
  Li  Li0  1  0.000014  0.000010  0.999964  1
  Si  Si1  1  0.000005  0.499995  0.663806  1
  Si  Si2  1  0.500012  0.500003  0.336199  1
  Ni  Ni3  1  0.500009  0.999992  0.000031  1
  O  O4  1  0.159515  0.792563  0.829434  1
  O  O5  1  0.237434  0.474904  0.499967  1
  O  O6  1  0.633108  0.792559  0.170556  1
  O  O7  1  0.366941  0.207434  0.170574  1
  O  O8  1  0.762548  0.525102  0.500022  1
  O  O9  1  0.840524  0.207438  0.829446  1
