# generated using pymatgen
data_Li3Sn3(PO4)4
_symmetry_space_group_name_H-M   'P 1'
_cell_length_a   13.40109803
_cell_length_b   8.63413594
_cell_length_c   9.23073243
_cell_angle_alpha   89.02341444
_cell_angle_beta   87.43295606
_cell_angle_gamma   90.76337495
_symmetry_Int_Tables_number   1
_chemical_formula_structural   Li3Sn3(PO4)4
_chemical_formula_sum   'Li9 Sn9 P12 O48'
_cell_volume   1066.72657365
_cell_formula_units_Z   3
loop_
 _symmetry_equiv_pos_site_id
 _symmetry_equiv_pos_as_xyz
  1  'x, y, z'
loop_
 _atom_site_type_symbol
 _atom_site_label
 _atom_site_symmetry_multiplicity
 _atom_site_fract_x
 _atom_site_fract_y
 _atom_site_fract_z
 _atom_site_occupancy
  Li  Li0  1  0.159430  0.857116  0.235859  1
  Li  Li1  1  0.512036  0.143431  0.102481  1
  Li  Li2  1  0.159370  0.615299  0.738015  1
  Li  Li3  1  0.497159  0.619262  0.405912  1
  Li  Li4  1  0.826176  0.640964  0.052424  1
  Li  Li5  1  0.167940  0.374805  0.925648  1
  Li  Li6  1  0.506743  0.376977  0.595545  1
  Li  Li7  1  0.821593  0.878157  0.575181  1
  Li  Li8  1  0.841492  0.123169  0.761035  1
  Sn  Sn9  1  0.162340  0.518145  0.344044  1
  Sn  Sn10  1  0.504243  0.488531  0.993158  1
  Sn  Sn11  1  0.191455  0.129377  0.449453  1
  Sn  Sn12  1  0.162644  0.996123  0.827306  1
  Sn  Sn13  1  0.504196  0.997578  0.500832  1
  Sn  Sn14  1  0.828126  0.991923  0.166005  1
  Sn  Sn15  1  0.877185  0.375448  0.283030  1
  Sn  Sn16  1  0.474077  0.875379  0.881550  1
  Sn  Sn17  1  0.832561  0.501185  0.671409  1
  P  P18  1  0.062964  0.172397  0.136177  1
  P  P19  1  0.267485  0.697161  0.016176  1
  P  P20  1  0.041901  0.300184  0.662563  1
  P  P21  1  0.403226  0.297991  0.311411  1
  P  P22  1  0.284054  0.801210  0.531887  1
  P  P23  1  0.602921  0.815594  0.188932  1
  P  P24  1  0.384574  0.199328  0.803583  1
  P  P25  1  0.721985  0.187762  0.486210  1
  P  P26  1  0.620154  0.691390  0.672412  1
  P  P27  1  0.936036  0.719477  0.355785  1
  P  P28  1  0.732389  0.306568  0.983276  1
  P  P29  1  0.938334  0.810228  0.851563  1
  O  O30  1  0.241062  0.871995  0.980776  1
  O  O31  1  0.082962  0.346629  0.143581  1
  O  O32  1  0.118036  0.072625  0.246113  1
  O  O33  1  0.048632  0.740465  0.334490  1
  O  O34  1  0.237045  0.674355  0.177613  1
  O  O35  1  0.056258  0.322606  0.496745  1
  O  O36  1  0.435009  0.334341  0.150032  1
  O  O37  1  0.287277  0.297861  0.318845  1
  O  O38  1  0.242045  0.885223  0.400500  1
  O  O39  1  0.618535  0.297235  0.019384  1
  O  O40  1  0.551611  0.926885  0.083566  1
  O  O41  1  0.249445  0.631876  0.546356  1
  O  O42  1  0.067743  0.126067  0.697074  1
  O  O43  1  0.566929  0.645967  0.180083  1
  O  O44  1  0.438929  0.124622  0.335938  1
  O  O45  1  0.098679  0.414528  0.750789  1
  O  O46  1  0.055733  0.810714  0.828891  1
  O  O47  1  0.447716  0.410816  0.414361  1
  O  O48  1  0.402200  0.812073  0.515710  1
  O  O49  1  0.786445  0.418603  0.083557  1
  O  O50  1  0.249881  0.883708  0.675581  1
  O  O51  1  0.719574  0.822985  0.152772  1
  O  O52  1  0.583907  0.868357  0.347546  1
  O  O53  1  0.908686  0.850164  0.014351  1
  O  O54  1  0.088895  0.120476  0.980856  1
  O  O55  1  0.419505  0.120610  0.657546  1
  O  O56  1  0.267433  0.187695  0.819255  1
  O  O57  1  0.748415  0.148791  0.320200  1
  O  O58  1  0.220224  0.582445  0.917998  1
  O  O59  1  0.605112  0.182925  0.511846  1
  O  O60  1  0.565619  0.578415  0.580963  1
  O  O61  1  0.945912  0.146080  0.162867  1
  O  O62  1  0.891224  0.624709  0.233462  1
  O  O63  1  0.594941  0.866008  0.639937  1
  O  O64  1  0.422754  0.369749  0.795662  1
  O  O65  1  0.881008  0.880870  0.355130  1
  O  O66  1  0.754863  0.363377  0.506613  1
  O  O67  1  0.429154  0.116496  0.934463  1
  O  O68  1  0.385707  0.685100  0.003654  1
  O  O69  1  0.772250  0.080825  0.588392  1
  O  O70  1  0.736923  0.682323  0.641372  1
  O  O71  1  0.600476  0.663141  0.839559  1
  O  O72  1  0.912328  0.634961  0.506092  1
  O  O73  1  0.746522  0.363689  0.822024  1
  O  O74  1  0.925115  0.315439  0.700034  1
  O  O75  1  0.890530  0.918466  0.747138  1
  O  O76  1  0.899298  0.636534  0.836932  1
  O  O77  1  0.776664  0.138007  0.994492  1
