# generated using pymatgen
data_Al2CoO4
_symmetry_space_group_name_H-M   'P 1'
_cell_length_a   5.77864173
_cell_length_b   5.77864202
_cell_length_c   23.15745862
_cell_angle_alpha   60.06125111
_cell_angle_beta   60.06124934
_cell_angle_gamma   60.00000513
_symmetry_Int_Tables_number   1
_chemical_formula_structural   Al2CoO4
_chemical_formula_sum   'Al16 Co8 O32'
_cell_volume   547.30438180
_cell_formula_units_Z   8
loop_
 _symmetry_equiv_pos_site_id
 _symmetry_equiv_pos_as_xyz
  1  'x, y, z'
loop_
 _atom_site_type_symbol
 _atom_site_label
 _atom_site_symmetry_multiplicity
 _atom_site_fract_x
 _atom_site_fract_y
 _atom_site_fract_z
 _atom_site_occupancy
  Al  Al0  1  0.245110  0.245110  0.066168  1
  Al  Al1  1  0.118253  0.628587  0.156143  1
  Al  Al2  1  0.628587  0.118253  0.156143  1
  Al  Al3  1  0.248396  0.248396  0.313703  1
  Al  Al4  1  0.628587  0.628587  0.156143  1
  Al  Al5  1  0.121063  0.626381  0.406544  1
  Al  Al6  1  0.626381  0.121063  0.406544  1
  Al  Al7  1  0.626381  0.626381  0.406544  1
  Al  Al8  1  0.123772  0.624226  0.656944  1
  Al  Al9  1  0.624226  0.123772  0.656944  1
  Al  Al10  1  0.623598  0.623598  0.532302  1
  Al  Al11  1  0.624226  0.624226  0.656944  1
  Al  Al12  1  0.121586  0.627644  0.905782  1
  Al  Al13  1  0.627644  0.121586  0.905782  1
  Al  Al14  1  0.624473  0.624473  0.781645  1
  Al  Al15  1  0.627644  0.627644  0.905782  1
  Co  Co16  1  0.003395  0.003395  0.997453  1
  Co  Co17  1  0.628080  0.628080  0.028940  1
  Co  Co18  1  0.002108  0.002108  0.248419  1
  Co  Co19  1  0.625977  0.625977  0.280517  1
  Co  Co20  1  0.251384  0.251384  0.561462  1
  Co  Co21  1  0.999373  0.999373  0.500470  1
  Co  Co22  1  0.246496  0.246496  0.815128  1
  Co  Co23  1  0.000873  0.000873  0.749345  1
  O  O24  1  0.371514  0.371514  0.100544  1
  O  O25  1  0.371514  0.854794  0.100544  1
  O  O26  1  0.380538  0.380538  0.214597  1
  O  O27  1  0.854794  0.371514  0.100544  1
  O  O28  1  0.413748  0.873286  0.209920  1
  O  O29  1  0.366959  0.366959  0.350611  1
  O  O30  1  0.366959  0.863640  0.350611  1
  O  O31  1  0.863739  0.863739  0.102195  1
  O  O32  1  0.394391  0.394391  0.454207  1
  O  O33  1  0.873286  0.413748  0.209920  1
  O  O34  1  0.863640  0.366959  0.350611  1
  O  O35  1  0.873286  0.873286  0.209920  1
  O  O36  1  0.418812  0.858149  0.466222  1
  O  O37  1  0.388719  0.388719  0.597556  1
  O  O38  1  0.388719  0.832338  0.597556  1
  O  O39  1  0.858149  0.418812  0.466222  1
  O  O40  1  0.860983  0.860983  0.354263  1
  O  O41  1  0.388361  0.388361  0.708730  1
  O  O42  1  0.832338  0.388719  0.597556  1
  O  O43  1  0.858149  0.858149  0.466222  1
  O  O44  1  0.419002  0.860401  0.715049  1
  O  O45  1  0.391113  0.391113  0.848004  1
  O  O46  1  0.391113  0.825759  0.848004  1
  O  O47  1  0.375371  0.375371  0.968471  1
  O  O48  1  0.860511  0.860511  0.604617  1
  O  O49  1  0.860401  0.419002  0.715049  1
  O  O50  1  0.825759  0.391113  0.848004  1
  O  O51  1  0.860401  0.860401  0.715049  1
  O  O52  1  0.414367  0.876084  0.958367  1
  O  O53  1  0.876084  0.414367  0.958367  1
  O  O54  1  0.863585  0.863585  0.852311  1
  O  O55  1  0.876084  0.876084  0.958367  1
