# generated using pymatgen
data_Co3OF5
_symmetry_space_group_name_H-M   'P 1'
_cell_length_a   7.52107644
_cell_length_b   5.70857706
_cell_length_c   5.67268717
_cell_angle_alpha   70.37802273
_cell_angle_beta   71.55612282
_cell_angle_gamma   71.89066964
_symmetry_Int_Tables_number   1
_chemical_formula_structural   Co3OF5
_chemical_formula_sum   'Co6 O2 F10'
_cell_volume   211.84612465
_cell_formula_units_Z   2
loop_
 _symmetry_equiv_pos_site_id
 _symmetry_equiv_pos_as_xyz
  1  'x, y, z'
loop_
 _atom_site_type_symbol
 _atom_site_label
 _atom_site_symmetry_multiplicity
 _atom_site_fract_x
 _atom_site_fract_y
 _atom_site_fract_z
 _atom_site_occupancy
  Co  Co0  1  0.833318  0.666666  0.666695  1
  Co  Co1  1  0.333336  0.666664  0.666664  1
  Co  Co2  1  0.666382  0.363314  0.299650  1
  Co  Co3  1  0.159865  0.344127  0.336530  1
  Co  Co4  1  0.506805  0.989205  0.996802  1
  Co  Co5  1  0.000280  0.969978  0.033733  1
  O  O6  1  0.674859  0.634188  0.012995  1
  O  O7  1  0.991821  0.699182  0.320275  1
  F  F8  1  0.335641  0.358435  0.972412  1
  F  F9  1  0.668041  0.045230  0.611942  1
  F  F10  1  0.628925  0.560971  0.556780  1
  F  F11  1  0.296251  0.900847  0.902341  1
  F  F12  1  0.964047  0.231455  0.235514  1
  F  F13  1  0.370419  0.432485  0.430990  1
  F  F14  1  0.037744  0.772360  0.776547  1
  F  F15  1  0.702613  0.101887  0.097824  1
  F  F16  1  0.331027  0.974899  0.360919  1
  F  F17  1  0.998626  0.288105  0.721388  1
