# generated using pymatgen
data_Li2Ni(PO3)4
_symmetry_space_group_name_H-M   'P 1'
_cell_length_a   7.12921969
_cell_length_b   7.58520916
_cell_length_c   4.92806506
_cell_angle_alpha   82.01967021
_cell_angle_beta   110.38277693
_cell_angle_gamma   115.45007579
_symmetry_Int_Tables_number   1
_chemical_formula_structural   Li2Ni(PO3)4
_chemical_formula_sum   'Li2 Ni1 P4 O12'
_cell_volume   225.54735781
_cell_formula_units_Z   1
loop_
 _symmetry_equiv_pos_site_id
 _symmetry_equiv_pos_as_xyz
  1  'x, y, z'
loop_
 _atom_site_type_symbol
 _atom_site_label
 _atom_site_symmetry_multiplicity
 _atom_site_fract_x
 _atom_site_fract_y
 _atom_site_fract_z
 _atom_site_occupancy
  Li  Li0  1  0.241175  0.444156  0.982366  1
  Li  Li1  1  0.758825  0.555844  0.017634  1
  Ni  Ni2  1  0.000000  0.000000  0.000000  1
  P  P3  1  0.191397  0.788049  0.558226  1
  P  P4  1  0.597367  0.784299  0.437846  1
  P  P5  1  0.402633  0.215701  0.562154  1
  P  P6  1  0.808603  0.211951  0.441774  1
  O  O7  1  0.122651  0.640707  0.773816  1
  O  O8  1  0.313334  0.003438  0.709053  1
  O  O9  1  0.982802  0.205664  0.723349  1
  O  O10  1  0.377793  0.770051  0.471953  1
  O  O11  1  0.239268  0.208004  0.263296  1
  O  O12  1  0.458877  0.368575  0.769457  1
  O  O13  1  0.541123  0.631425  0.230543  1
  O  O14  1  0.760732  0.791996  0.736704  1
  O  O15  1  0.622207  0.229949  0.528047  1
  O  O16  1  0.017198  0.794336  0.276651  1
  O  O17  1  0.686666  0.996562  0.290947  1
  O  O18  1  0.877349  0.359293  0.226184  1
