# generated using pymatgen
data_LiV2O3F
_symmetry_space_group_name_H-M   'P 1'
_cell_length_a   6.01793251
_cell_length_b   8.02166571
_cell_length_c   8.02166571
_cell_angle_alpha   115.51839779
_cell_angle_beta   112.07711376
_cell_angle_gamma   67.92288624
_symmetry_Int_Tables_number   1
_chemical_formula_structural   LiV2O3F
_chemical_formula_sum   'Li4 V8 O12 F4'
_cell_volume   313.06189521
_cell_formula_units_Z   4
loop_
 _symmetry_equiv_pos_site_id
 _symmetry_equiv_pos_as_xyz
  1  'x, y, z'
loop_
 _atom_site_type_symbol
 _atom_site_label
 _atom_site_symmetry_multiplicity
 _atom_site_fract_x
 _atom_site_fract_y
 _atom_site_fract_z
 _atom_site_occupancy
  Li  Li0  1  0.362181  0.990828  0.249406  1
  Li  Li1  1  0.127007  0.260618  0.996418  1
  Li  Li2  1  0.862181  0.750594  0.009172  1
  Li  Li3  1  0.627007  0.003582  0.739382  1
  V  V4  1  0.760683  0.237253  0.224470  1
  V  V5  1  0.011562  0.991507  0.501319  1
  V  V6  1  0.511562  0.498681  0.008493  1
  V  V7  1  0.871406  0.629830  0.375041  1
  V  V8  1  0.371406  0.624959  0.370170  1
  V  V9  1  0.620483  0.381370  0.633615  1
  V  V10  1  0.120483  0.366385  0.618630  1
  V  V11  1  0.260683  0.775530  0.762747  1
  O  O12  1  0.409478  0.383495  0.139342  1
  O  O13  1  0.086986  0.129759  0.379814  1
  O  O14  1  0.866881  0.387704  0.144774  1
  O  O15  1  0.747583  0.476340  0.485359  1
  O  O16  1  0.976641  0.252077  0.716939  1
  O  O17  1  0.521989  0.725229  0.253449  1
  O  O18  1  0.476641  0.283061  0.747923  1
  O  O19  1  0.021989  0.746551  0.274771  1
  O  O20  1  0.247583  0.514641  0.523660  1
  O  O21  1  0.909478  0.860658  0.616505  1
  O  O22  1  0.586986  0.620186  0.870241  1
  O  O23  1  0.366881  0.855226  0.612296  1
  F  F24  1  0.254079  0.005464  0.000185  1
  F  F25  1  0.633043  0.127850  0.379193  1
  F  F26  1  0.133043  0.620807  0.872150  1
  F  F27  1  0.754079  -0.000185  0.994536  1
