# generated using pymatgen
data_Mn2O3F
_symmetry_space_group_name_H-M   'P 1'
_cell_length_a   6.04211620
_cell_length_b   6.33003475
_cell_length_c   7.38926645
_cell_angle_alpha   90.00000000
_cell_angle_beta   114.13224454
_cell_angle_gamma   90.00000000
_symmetry_Int_Tables_number   1
_chemical_formula_structural   Mn2O3F
_chemical_formula_sum   'Mn8 O12 F4'
_cell_volume   257.91640989
_cell_formula_units_Z   4
loop_
 _symmetry_equiv_pos_site_id
 _symmetry_equiv_pos_as_xyz
  1  'x, y, z'
loop_
 _atom_site_type_symbol
 _atom_site_label
 _atom_site_symmetry_multiplicity
 _atom_site_fract_x
 _atom_site_fract_y
 _atom_site_fract_z
 _atom_site_occupancy
  Mn  Mn0  1  0.012070  0.000000  0.000000  1
  Mn  Mn1  1  0.487930  0.000000  0.000000  1
  Mn  Mn2  1  0.492641  0.000000  0.485282  1
  Mn  Mn3  1  0.750000  0.500000  0.000000  1
  Mn  Mn4  1  0.007359  0.000000  0.514718  1
  Mn  Mn5  1  0.250000  0.500000  0.000000  1
  Mn  Mn6  1  0.750000  0.500000  0.500000  1
  Mn  Mn7  1  0.250000  0.500000  0.500000  1
  O  O8  1  0.341779  0.000000  0.183559  1
  O  O9  1  0.001092  0.305377  0.000000  1
  O  O10  1  0.498908  0.305377  0.000000  1
  O  O11  1  0.250000  0.193732  0.500000  1
  O  O12  1  0.001092  0.694623  0.000000  1
  O  O13  1  0.498908  0.694623  0.000000  1
  O  O14  1  0.750000  0.193732  0.500000  1
  O  O15  1  0.158221  0.000000  0.816441  1
  O  O16  1  0.905436  0.500000  0.310872  1
  O  O17  1  0.594564  0.500000  0.689128  1
  O  O18  1  0.250000  0.806268  0.500000  1
  O  O19  1  0.750000  0.806268  0.500000  1
  F  F20  1  0.843386  0.000000  0.186774  1
  F  F21  1  0.391150  0.500000  0.282301  1
  F  F22  1  0.656614  0.000000  0.813226  1
  F  F23  1  0.108850  0.500000  0.717699  1
