# generated using pymatgen
data_HfZrO4
_symmetry_space_group_name_H-M   'P 1'
_cell_length_a   7.24619068
_cell_length_b   7.27495519
_cell_length_c   10.32656750
_cell_angle_alpha   44.77468629
_cell_angle_beta   89.99914810
_cell_angle_gamma   60.16714196
_symmetry_Int_Tables_number   1
_chemical_formula_structural   HfZrO4
_chemical_formula_sum   'Hf4 Zr4 O16'
_cell_volume   271.42307566
_cell_formula_units_Z   4
loop_
 _symmetry_equiv_pos_site_id
 _symmetry_equiv_pos_as_xyz
  1  'x, y, z'
loop_
 _atom_site_type_symbol
 _atom_site_label
 _atom_site_symmetry_multiplicity
 _atom_site_fract_x
 _atom_site_fract_y
 _atom_site_fract_z
 _atom_site_occupancy
  Hf  Hf0  1  0.242277  0.501545  0.120141  1
  Hf  Hf1  1  0.240247  0.004333  0.119091  1
  Hf  Hf2  1  0.742055  0.004040  0.119166  1
  Hf  Hf3  1  0.741529  0.503517  0.620036  1
  Zr  Zr4  1  0.240690  0.006026  0.619613  1
  Zr  Zr5  1  0.239132  0.507726  0.618903  1
  Zr  Zr6  1  0.740201  0.506185  0.119018  1
  Zr  Zr7  1  0.739505  0.005792  0.619806  1
  O  O8  1  0.962601  0.512507  0.472949  1
  O  O9  1  0.008574  0.974185  0.272930  1
  O  O10  1  0.007566  0.506887  0.228111  1
  O  O11  1  0.968635  0.046320  0.490470  1
  O  O12  1  0.964730  0.053773  0.988859  1
  O  O13  1  0.007844  0.975277  0.777680  1
  O  O14  1  0.008692  0.494291  0.733729  1
  O  O15  1  0.514775  0.960360  0.532062  1
  O  O16  1  0.514116  0.497286  0.980699  1
  O  O17  1  0.473891  0.034482  0.744566  1
  O  O18  1  0.479034  0.503523  0.729235  1
  O  O19  1  0.514327  0.960787  0.036387  1
  O  O20  1  0.473238  0.035259  0.245682  1
  O  O21  1  0.467639  0.515841  0.223584  1
  O  O22  1  0.514879  0.506345  0.476039  1
  O  O23  1  0.972133  0.503370  0.977682  1
