# generated using pymatgen
data_Li3V4(OF3)3
_symmetry_space_group_name_H-M   'P 1'
_cell_length_a   5.16014289
_cell_length_b   5.56483780
_cell_length_c   9.04025104
_cell_angle_alpha   72.92349286
_cell_angle_beta   89.92621994
_cell_angle_gamma   62.67100812
_symmetry_Int_Tables_number   1
_chemical_formula_structural   Li3V4(OF3)3
_chemical_formula_sum   'Li3 V4 O3 F9'
_cell_volume   217.71014436
_cell_formula_units_Z   1
loop_
 _symmetry_equiv_pos_site_id
 _symmetry_equiv_pos_as_xyz
  1  'x, y, z'
loop_
 _atom_site_type_symbol
 _atom_site_label
 _atom_site_symmetry_multiplicity
 _atom_site_fract_x
 _atom_site_fract_y
 _atom_site_fract_z
 _atom_site_occupancy
  Li  Li0  1  0.355899  0.273773  0.117060  1
  Li  Li1  1  0.199202  0.612891  0.406415  1
  Li  Li2  1  0.934203  0.098399  0.643544  1
  V  V3  1  0.019296  0.015241  0.994757  1
  V  V4  1  0.248519  0.491552  0.753558  1
  V  V5  1  0.469595  0.982201  0.497493  1
  V  V6  1  0.780833  0.485389  0.251842  1
  O  O7  1  0.190383  0.266143  0.312114  1
  O  O8  1  0.190271  0.250789  0.935377  1
  O  O9  1  0.297229  0.748019  0.568302  1
  F  F10  1  0.212089  0.264789  0.615978  1
  F  F11  1  0.253021  0.745576  0.874750  1
  F  F12  1  0.321825  0.747909  0.195507  1
  F  F13  1  0.667577  0.262402  0.444423  1
  F  F14  1  0.705140  0.233545  0.804897  1
  F  F15  1  0.737192  0.258089  0.126382  1
  F  F16  1  0.760417  0.750015  0.369212  1
  F  F17  1  0.834732  0.756228  0.066274  1
  F  F18  1  0.806313  0.784642  0.678536  1
