# generated using pymatgen
data_FeOF
_symmetry_space_group_name_H-M   'P 1'
_cell_length_a   4.77401757
_cell_length_b   4.77720087
_cell_length_c   9.21509167
_cell_angle_alpha   90.00174488
_cell_angle_beta   90.00203157
_cell_angle_gamma   89.99889105
_symmetry_Int_Tables_number   1
_chemical_formula_structural   FeOF
_chemical_formula_sum   'Fe6 O6 F6'
_cell_volume   210.16344333
_cell_formula_units_Z   6
loop_
 _symmetry_equiv_pos_site_id
 _symmetry_equiv_pos_as_xyz
  1  'x, y, z'
loop_
 _atom_site_type_symbol
 _atom_site_label
 _atom_site_symmetry_multiplicity
 _atom_site_fract_x
 _atom_site_fract_y
 _atom_site_fract_z
 _atom_site_occupancy
  Fe  Fe0  1  0.972565  0.970057  0.999135  1
  Fe  Fe1  1  0.972595  0.970019  0.334175  1
  Fe  Fe2  1  0.056279  0.020468  0.666656  1
  Fe  Fe3  1  0.556219  0.479506  0.166657  1
  Fe  Fe4  1  0.472580  0.529950  0.834199  1
  Fe  Fe5  1  0.472629  0.529982  0.499156  1
  O  O6  1  0.190631  0.821585  0.496941  1
  O  O7  1  0.190622  0.821610  0.836367  1
  O  O8  1  0.315702  0.330755  0.666662  1
  O  O9  1  0.690589  0.678396  0.996979  1
  O  O10  1  0.690641  0.678373  0.336354  1
  O  O11  1  0.815643  0.169246  0.166658  1
  F  F12  1  0.197518  0.779899  0.166664  1
  F  F13  1  0.302034  0.296840  0.002568  1
  F  F14  1  0.302065  0.296852  0.330803  1
  F  F15  1  0.697531  0.720114  0.666676  1
  F  F16  1  0.802067  0.203192  0.830793  1
  F  F17  1  0.802090  0.203156  0.502560  1
