# generated using pymatgen
data_H12WN3O3F5
_symmetry_space_group_name_H-M   'P 1'
_cell_length_a   17.90604138
_cell_length_b   18.44195870
_cell_length_c   7.89576809
_cell_angle_alpha   90.00000000
_cell_angle_beta   90.00000000
_cell_angle_gamma   90.00000000
_symmetry_Int_Tables_number   1
_chemical_formula_structural   H12WN3O3F5
_chemical_formula_sum   'H96 W8 N24 O24 F40'
_cell_volume   2607.36008553
_cell_formula_units_Z   8
loop_
 _symmetry_equiv_pos_site_id
 _symmetry_equiv_pos_as_xyz
  1  'x, y, z'
loop_
 _atom_site_type_symbol
 _atom_site_label
 _atom_site_symmetry_multiplicity
 _atom_site_fract_x
 _atom_site_fract_y
 _atom_site_fract_z
 _atom_site_occupancy
  H  H0  1  0.769462  0.339970  0.225122  1
  H  H1  1  0.269462  0.160030  0.774878  1
  H  H2  1  0.230538  0.839970  0.274878  1
  H  H3  1  0.730538  0.660030  0.725122  1
  H  H4  1  0.230538  0.660030  0.774878  1
  H  H5  1  0.730538  0.839970  0.225122  1
  H  H6  1  0.769462  0.160030  0.725122  1
  H  H7  1  0.269462  0.339970  0.274878  1
  H  H8  1  0.677160  0.272647  0.383226  1
  H  H9  1  0.177160  0.227353  0.616774  1
  H  H10  1  0.322840  0.772647  0.116774  1
  H  H11  1  0.822840  0.727353  0.883226  1
  H  H12  1  0.322840  0.727353  0.616774  1
  H  H13  1  0.822840  0.772647  0.383226  1
  H  H14  1  0.677160  0.227353  0.883226  1
  H  H15  1  0.177160  0.272647  0.116774  1
  H  H16  1  0.804404  0.267718  0.316188  1
  H  H17  1  0.304404  0.232282  0.683812  1
  H  H18  1  0.195596  0.767718  0.183812  1
  H  H19  1  0.695596  0.732282  0.816188  1
  H  H20  1  0.195596  0.732282  0.683812  1
  H  H21  1  0.695596  0.767718  0.316188  1
  H  H22  1  0.804404  0.232282  0.816188  1
  H  H23  1  0.304404  0.267718  0.183812  1
  H  H24  1  0.789355  0.341688  0.428854  1
  H  H25  1  0.289355  0.158312  0.571146  1
  H  H26  1  0.210645  0.841688  0.071146  1
  H  H27  1  0.710645  0.658312  0.928854  1
  H  H28  1  0.210645  0.658312  0.571146  1
  H  H29  1  0.710645  0.841688  0.428854  1
  H  H30  1  0.789355  0.158312  0.928854  1
  H  H31  1  0.289355  0.341688  0.071146  1
  H  H32  1  0.763518  0.080594  0.247982  1
  H  H33  1  0.263518  0.419406  0.752018  1
  H  H34  1  0.236482  0.580594  0.252018  1
  H  H35  1  0.736482  0.919406  0.747982  1
  H  H36  1  0.236482  0.919406  0.752018  1
  H  H37  1  0.736482  0.580594  0.247982  1
  H  H38  1  0.763518  0.419406  0.747982  1
  H  H39  1  0.263518  0.080594  0.252018  1
  H  H40  1  0.943755  0.047220  0.015968  1
  H  H41  1  0.443755  0.452780  0.984032  1
  H  H42  1  0.056245  0.547220  0.484032  1
  H  H43  1  0.556245  0.952780  0.515968  1
  H  H44  1  0.056245  0.952780  0.984032  1
  H  H45  1  0.556245  0.547220  0.015968  1
  H  H46  1  0.943755  0.452780  0.515968  1
  H  H47  1  0.443755  0.047220  0.484032  1
  H  H48  1  0.872166  0.127281  0.503528  1
  H  H49  1  0.372166  0.372719  0.496472  1
  H  H50  1  0.127834  0.627281  0.996472  1
  H  H51  1  0.627834  0.872719  0.003528  1
  H  H52  1  0.127834  0.872719  0.496472  1
  H  H53  1  0.627834  0.627281  0.503528  1
  H  H54  1  0.872166  0.372719  0.003528  1
  H  H55  1  0.372166  0.127281  0.996472  1
  H  H56  1  0.017128  0.868226  0.205897  1
  H  H57  1  0.517128  0.631774  0.794103  1
  H  H58  1  0.982872  0.368226  0.294103  1
  H  H59  1  0.482872  0.131774  0.705897  1
  H  H60  1  0.982872  0.131774  0.794103  1
  H  H61  1  0.482872  0.368226  0.205897  1
  H  H62  1  0.017128  0.631774  0.705897  1
  H  H63  1  0.517128  0.868226  0.294103  1
  H  H64  1  0.544426  0.301744  0.288582  1
  H  H65  1  0.044426  0.198256  0.711418  1
  H  H66  1  0.455574  0.801744  0.211418  1
  H  H67  1  0.955574  0.698256  0.788582  1
  H  H68  1  0.455574  0.698256  0.711418  1
  H  H69  1  0.955574  0.801744  0.288582  1
  H  H70  1  0.544426  0.198256  0.788582  1
  H  H71  1  0.044426  0.301744  0.211418  1
  H  H72  1  0.631711  0.193207  0.381159  1
  H  H73  1  0.131711  0.306793  0.618841  1
  H  H74  1  0.368289  0.693207  0.118841  1
  H  H75  1  0.868289  0.806793  0.881159  1
  H  H76  1  0.368289  0.806793  0.618841  1
  H  H77  1  0.868289  0.693207  0.381159  1
  H  H78  1  0.631711  0.306793  0.881159  1
  H  H79  1  0.131711  0.193207  0.118841  1
  H  H80  1  0.535006  0.381577  0.383097  1
  H  H81  1  0.035006  0.118423  0.616903  1
  H  H82  1  0.464994  0.881577  0.116903  1
  H  H83  1  0.964994  0.618423  0.883097  1
  H  H84  1  0.464994  0.618423  0.616903  1
  H  H85  1  0.964994  0.881577  0.383097  1
  H  H86  1  0.535006  0.118423  0.883097  1
  H  H87  1  0.035006  0.381577  0.116903  1
  H  H88  1  0.462786  0.324753  0.388676  1
  H  H89  1  0.962786  0.175247  0.611324  1
  H  H90  1  0.537214  0.824753  0.111324  1
  H  H91  1  0.037214  0.675247  0.888676  1
  H  H92  1  0.537214  0.675247  0.611324  1
  H  H93  1  0.037214  0.824753  0.388676  1
  H  H94  1  0.462786  0.175247  0.888676  1
  H  H95  1  0.962786  0.324753  0.111324  1
  W  W96  1  0.608538  0.010907  0.238000  1
  W  W97  1  0.108538  0.489093  0.762000  1
  W  W98  1  0.391462  0.510907  0.262000  1
  W  W99  1  0.891462  0.989093  0.738000  1
  W  W100  1  0.391462  0.989093  0.762000  1
  W  W101  1  0.891462  0.510907  0.238000  1
  W  W102  1  0.608538  0.489093  0.738000  1
  W  W103  1  0.108538  0.010907  0.262000  1
  N  N104  1  0.768144  0.309912  0.333798  1
  N  N105  1  0.268144  0.190088  0.666202  1
  N  N106  1  0.231856  0.809912  0.166202  1
  N  N107  1  0.731856  0.690088  0.833798  1
  N  N108  1  0.231856  0.690088  0.666202  1
  N  N109  1  0.731856  0.809912  0.333798  1
  N  N110  1  0.768144  0.190088  0.833798  1
  N  N111  1  0.268144  0.309912  0.166202  1
  N  N112  1  0.623261  0.248104  0.393493  1
  N  N113  1  0.123261  0.251896  0.606507  1
  N  N114  1  0.376739  0.748104  0.106507  1
  N  N115  1  0.876739  0.751896  0.893493  1
  N  N116  1  0.376739  0.751896  0.606507  1
  N  N117  1  0.876739  0.748104  0.393493  1
  N  N118  1  0.623261  0.251896  0.893493  1
  N  N119  1  0.123261  0.248104  0.106507  1
  N  N120  1  0.505992  0.343778  0.311975  1
  N  N121  1  0.005992  0.156222  0.688025  1
  N  N122  1  0.494008  0.843778  0.188025  1
  N  N123  1  0.994008  0.656222  0.811975  1
  N  N124  1  0.494008  0.656222  0.688025  1
  N  N125  1  0.994008  0.843778  0.311975  1
  N  N126  1  0.505992  0.156222  0.811975  1
  N  N127  1  0.005992  0.343778  0.188025  1
  O  O128  1  0.638826  0.941093  0.098778  1
  O  O129  1  0.138826  0.558907  0.901222  1
  O  O130  1  0.361174  0.441093  0.401222  1
  O  O131  1  0.861174  0.058907  0.598778  1
  O  O132  1  0.361174  0.058907  0.901222  1
  O  O133  1  0.861174  0.441093  0.098778  1
  O  O134  1  0.638826  0.558907  0.598778  1
  O  O135  1  0.138826  0.941093  0.401222  1
  O  O136  1  0.578165  0.940079  0.405483  1
  O  O137  1  0.078165  0.559921  0.594517  1
  O  O138  1  0.421835  0.440079  0.094517  1
  O  O139  1  0.921835  0.059921  0.905483  1
  O  O140  1  0.421835  0.059921  0.594517  1
  O  O141  1  0.921835  0.440079  0.405483  1
  O  O142  1  0.578165  0.559921  0.905483  1
  O  O143  1  0.078165  0.940079  0.094517  1
  O  O144  1  0.686933  0.053520  0.327647  1
  O  O145  1  0.186933  0.446480  0.672353  1
  O  O146  1  0.313067  0.553520  0.172353  1
  O  O147  1  0.813067  0.946480  0.827647  1
  O  O148  1  0.313067  0.946480  0.672353  1
  O  O149  1  0.813067  0.553520  0.327647  1
  O  O150  1  0.686933  0.446480  0.827647  1
  O  O151  1  0.186933  0.053520  0.172353  1
  F  F152  1  0.588943  0.075602  0.046545  1
  F  F153  1  0.088943  0.424398  0.953455  1
  F  F154  1  0.411057  0.575602  0.453455  1
  F  F155  1  0.911057  0.924398  0.546545  1
  F  F156  1  0.411057  0.924398  0.953455  1
  F  F157  1  0.911057  0.575602  0.046545  1
  F  F158  1  0.588943  0.424398  0.546545  1
  F  F159  1  0.088943  0.075602  0.453455  1
  F  F160  1  0.606612  0.247034  0.074841  1
  F  F161  1  0.106612  0.252966  0.925159  1
  F  F162  1  0.393388  0.747034  0.425159  1
  F  F163  1  0.893388  0.752966  0.574841  1
  F  F164  1  0.393388  0.752966  0.925159  1
  F  F165  1  0.893388  0.747034  0.074841  1
  F  F166  1  0.606612  0.252966  0.574841  1
  F  F167  1  0.106612  0.247034  0.425159  1
  F  F168  1  0.805652  0.102289  0.189260  1
  F  F169  1  0.305652  0.397711  0.810740  1
  F  F170  1  0.194348  0.602289  0.310740  1
  F  F171  1  0.694348  0.897711  0.689260  1
  F  F172  1  0.194348  0.897711  0.810740  1
  F  F173  1  0.694348  0.602289  0.189260  1
  F  F174  1  0.805652  0.397711  0.689260  1
  F  F175  1  0.305652  0.102289  0.310740  1
  F  F176  1  0.514826  0.058804  0.312337  1
  F  F177  1  0.014826  0.441196  0.687663  1
  F  F178  1  0.485174  0.558804  0.187663  1
  F  F179  1  0.985174  0.941196  0.812337  1
  F  F180  1  0.485174  0.941196  0.687663  1
  F  F181  1  0.985174  0.558804  0.312337  1
  F  F182  1  0.514826  0.441196  0.812337  1
  F  F183  1  0.014826  0.058804  0.187663  1
  F  F184  1  0.887969  0.322760  0.969716  1
  F  F185  1  0.387969  0.177240  0.030284  1
  F  F186  1  0.112031  0.822760  0.530284  1
  F  F187  1  0.612031  0.677240  0.469716  1
  F  F188  1  0.112031  0.677240  0.030284  1
  F  F189  1  0.612031  0.822760  0.969716  1
  F  F190  1  0.887969  0.177240  0.469716  1
  F  F191  1  0.387969  0.322760  0.530284  1
