# generated using pymatgen
data_LiMn2F5
_symmetry_space_group_name_H-M   'P 1'
_cell_length_a   5.52059084
_cell_length_b   10.93001157
_cell_length_c   13.39806489
_cell_angle_alpha   90.00000000
_cell_angle_beta   92.14708890
_cell_angle_gamma   90.00000000
_symmetry_Int_Tables_number   1
_chemical_formula_structural   LiMn2F5
_chemical_formula_sum   'Li8 Mn16 F40'
_cell_volume   807.87329233
_cell_formula_units_Z   8
loop_
 _symmetry_equiv_pos_site_id
 _symmetry_equiv_pos_as_xyz
  1  'x, y, z'
loop_
 _atom_site_type_symbol
 _atom_site_label
 _atom_site_symmetry_multiplicity
 _atom_site_fract_x
 _atom_site_fract_y
 _atom_site_fract_z
 _atom_site_occupancy
  Li  Li0  1  0.191246  0.415676  0.469955  1
  Li  Li1  1  0.227855  0.934106  0.268644  1
  Li  Li2  1  0.272145  0.434105  0.231356  1
  Li  Li3  1  0.308754  0.915676  0.030045  1
  Li  Li4  1  0.691246  0.084324  0.969955  1
  Li  Li5  1  0.727855  0.565894  0.768644  1
  Li  Li6  1  0.772145  0.065894  0.731356  1
  Li  Li7  1  0.808754  0.584324  0.530045  1
  Mn  Mn8  1  0.253312  0.022588  0.825501  1
  Mn  Mn9  1  0.289712  0.719362  0.455117  1
  Mn  Mn10  1  0.226827  0.037446  0.587572  1
  Mn  Mn11  1  0.247732  0.197662  0.337477  1
  Mn  Mn12  1  0.273173  0.537446  0.912428  1
  Mn  Mn13  1  0.210288  0.219362  0.044883  1
  Mn  Mn14  1  0.252268  0.697662  0.162523  1
  Mn  Mn15  1  0.246688  0.522588  0.674499  1
  Mn  Mn16  1  0.753312  0.477412  0.325501  1
  Mn  Mn17  1  0.747732  0.302338  0.837477  1
  Mn  Mn18  1  0.789712  0.780638  0.955117  1
  Mn  Mn19  1  0.726827  0.462554  0.087572  1
  Mn  Mn20  1  0.752268  0.802338  0.662523  1
  Mn  Mn21  1  0.773173  0.962554  0.412428  1
  Mn  Mn22  1  0.710288  0.280638  0.544883  1
  Mn  Mn23  1  0.746688  0.977412  0.174499  1
  F  F24  1  0.107520  0.661600  0.012426  1
  F  F25  1  0.070404  0.685810  0.588807  1
  F  F26  1  0.074085  0.903679  0.924599  1
  F  F27  1  0.094244  0.873647  0.137988  1
  F  F28  1  0.008544  0.545197  0.194583  1
  F  F29  1  0.003880  0.940955  0.699748  1
  F  F30  1  0.231824  0.150688  0.710064  1
  F  F31  1  0.051171  0.562823  0.412417  1
  F  F32  1  0.129766  0.902097  0.476407  1
  F  F33  1  0.220168  0.271982  0.193806  1
  F  F34  1  0.268176  0.650688  0.789936  1
  F  F35  1  0.496120  0.440955  0.800252  1
  F  F36  1  0.279832  0.771982  0.306194  1
  F  F37  1  0.425915  0.403679  0.575401  1
  F  F38  1  0.429596  0.185810  0.911193  1
  F  F39  1  0.370234  0.402097  0.023593  1
  F  F40  1  0.392480  0.161600  0.487574  1
  F  F41  1  0.448829  0.062823  0.087583  1
  F  F42  1  0.594244  0.626353  0.637988  1
  F  F43  1  0.491456  0.045197  0.305417  1
  F  F44  1  0.508544  0.954803  0.694583  1
  F  F45  1  0.405756  0.373647  0.362012  1
  F  F46  1  0.551171  0.937177  0.912417  1
  F  F47  1  0.607520  0.838400  0.512426  1
  F  F48  1  0.629766  0.597903  0.976407  1
  F  F49  1  0.570404  0.814190  0.088807  1
  F  F50  1  0.574085  0.596321  0.424599  1
  F  F51  1  0.720168  0.228018  0.693806  1
  F  F52  1  0.503880  0.559045  0.199748  1
  F  F53  1  0.731824  0.349312  0.210064  1
  F  F54  1  0.779832  0.728018  0.806194  1
  F  F55  1  0.870234  0.097903  0.523593  1
  F  F56  1  0.948829  0.437177  0.587583  1
  F  F57  1  0.768176  0.849312  0.289936  1
  F  F58  1  0.996120  0.059045  0.300252  1
  F  F59  1  0.991456  0.454803  0.805417  1
  F  F60  1  0.905756  0.126353  0.862012  1
  F  F61  1  0.925915  0.096321  0.075401  1
  F  F62  1  0.929596  0.314190  0.411193  1
  F  F63  1  0.892480  0.338400  0.987574  1
