# generated using pymatgen
data_Mg3(AsO4)2
_symmetry_space_group_name_H-M   'P 1'
_cell_length_a   6.89309843
_cell_length_b   10.71884934
_cell_length_c   6.89309843
_cell_angle_alpha   71.24385818
_cell_angle_beta   90.00000000
_cell_angle_gamma   108.75614182
_symmetry_Int_Tables_number   1
_chemical_formula_structural   Mg3(AsO4)2
_chemical_formula_sum   'Mg9 As6 O24'
_cell_volume   453.60175247
_cell_formula_units_Z   3
loop_
 _symmetry_equiv_pos_site_id
 _symmetry_equiv_pos_as_xyz
  1  'x, y, z'
loop_
 _atom_site_type_symbol
 _atom_site_label
 _atom_site_symmetry_multiplicity
 _atom_site_fract_x
 _atom_site_fract_y
 _atom_site_fract_z
 _atom_site_occupancy
  Mg  Mg0  1  0.375690  0.247360  0.121003  1
  Mg  Mg1  1  0.250000  0.500000  0.250000  1
  Mg  Mg2  1  0.772018  0.544035  0.227982  1
  Mg  Mg3  1  0.631637  0.752640  0.375690  1
  Mg  Mg4  1  0.871670  0.247360  0.631637  1
  Mg  Mg5  1  0.520478  0.040956  0.979522  1
  Mg  Mg6  1  0.227982  0.455965  0.772018  1
  Mg  Mg7  1  0.979522  0.959044  0.520478  1
  Mg  Mg8  1  0.121003  0.752640  0.871670  1
  As  As9  1  0.000000  0.000000  0.000000  1
  As  As10  1  0.875966  0.247881  0.220909  1
  As  As11  1  0.371915  0.247881  0.531209  1
  As  As12  1  0.220909  0.752119  0.371915  1
  As  As13  1  0.750000  0.500000  0.750000  1
  As  As14  1  0.531209  0.752119  0.875966  1
  O  O15  1  0.254233  0.089222  0.008455  1
  O  O16  1  0.651189  0.209623  0.113687  1
  O  O17  1  0.111933  0.304671  0.074911  1
  O  O18  1  0.620418  0.695329  0.111933  1
  O  O19  1  0.262804  0.118981  0.428857  1
  O  O20  1  0.471474  0.391748  0.298147  1
  O  O21  1  0.920273  0.391748  0.310105  1
  O  O22  1  0.856178  0.118981  0.452162  1
  O  O23  1  0.074911  0.695329  0.192738  1
  O  O24  1  0.902323  0.910778  0.254233  1
  O  O25  1  0.452162  0.881019  0.262804  1
  O  O26  1  0.192738  0.304671  0.620418  1
  O  O27  1  0.558434  0.209623  0.676689  1
  O  O28  1  0.310105  0.608252  0.471474  1
  O  O29  1  0.732508  0.586745  0.496145  1
  O  O30  1  0.834989  0.089222  0.902323  1
  O  O31  1  0.917110  0.413255  0.732508  1
  O  O32  1  0.113687  0.790377  0.558434  1
  O  O33  1  0.676689  0.790377  0.651189  1
  O  O34  1  0.496145  0.413255  0.854237  1
  O  O35  1  0.854237  0.586745  0.917110  1
  O  O36  1  0.298147  0.608252  0.920273  1
  O  O37  1  0.428857  0.881019  0.856178  1
  O  O38  1  0.008455  0.910778  0.834989  1
