# generated using pymatgen
data_MnPH6NO5
_symmetry_space_group_name_H-M   'P 1'
_cell_length_a   5.77377835
_cell_length_b   8.95185878
_cell_length_c   4.91099099
_cell_angle_alpha   90.00000000
_cell_angle_beta   90.00000000
_cell_angle_gamma   90.00000000
_symmetry_Int_Tables_number   1
_chemical_formula_structural   MnPH6NO5
_chemical_formula_sum   'Mn2 P2 H12 N2 O10'
_cell_volume   253.82971808
_cell_formula_units_Z   2
loop_
 _symmetry_equiv_pos_site_id
 _symmetry_equiv_pos_as_xyz
  1  'x, y, z'
loop_
 _atom_site_type_symbol
 _atom_site_label
 _atom_site_symmetry_multiplicity
 _atom_site_fract_x
 _atom_site_fract_y
 _atom_site_fract_z
 _atom_site_occupancy
  Mn  Mn0  1  0.500000  0.022726  0.524636  1
  Mn  Mn1  1  0.000000  0.977274  0.024636  1
  P  P2  1  0.500000  0.800167  0.090238  1
  P  P3  1  0.000000  0.199833  0.590238  1
  H  H4  1  0.500000  0.539457  0.821724  1
  H  H5  1  0.000000  0.460543  0.321724  1
  H  H6  1  0.500000  0.544252  0.467303  1
  H  H7  1  0.000000  0.455748  0.967303  1
  H  H8  1  0.648048  0.409775  0.637196  1
  H  H9  1  0.351952  0.409775  0.637196  1
  H  H10  1  0.851952  0.590225  0.137196  1
  H  H11  1  0.148048  0.590225  0.137196  1
  H  H12  1  0.636194  0.199808  0.088574  1
  H  H13  1  0.363806  0.199808  0.088574  1
  H  H14  1  0.863806  0.800192  0.588574  1
  H  H15  1  0.136194  0.800192  0.588574  1
  N  N16  1  0.500000  0.475196  0.641320  1
  N  N17  1  0.000000  0.524804  0.141320  1
  O  O18  1  0.500000  0.830681  0.782770  1
  O  O19  1  0.000000  0.169319  0.282770  1
  O  O20  1  0.500000  0.628604  0.141085  1
  O  O21  1  0.000000  0.371396  0.641085  1
  O  O22  1  0.715363  0.873991  0.233438  1
  O  O23  1  0.284637  0.873991  0.233438  1
  O  O24  1  0.784637  0.126009  0.733438  1
  O  O25  1  0.215363  0.126009  0.733438  1
  O  O26  1  0.500000  0.212395  0.208009  1
  O  O27  1  0.000000  0.787605  0.708009  1
