# generated using pymatgen
data_Li8Mn3Fe5(BO3)8
_symmetry_space_group_name_H-M   'P 1'
_cell_length_a   6.02453042
_cell_length_b   5.23012918
_cell_length_c   16.17475357
_cell_angle_alpha   90.77468380
_cell_angle_beta   98.19615862
_cell_angle_gamma   89.04694380
_symmetry_Int_Tables_number   1
_chemical_formula_structural   Li8Mn3Fe5(BO3)8
_chemical_formula_sum   'Li8 Mn3 Fe5 B8 O24'
_cell_volume   504.34400058
_cell_formula_units_Z   1
loop_
 _symmetry_equiv_pos_site_id
 _symmetry_equiv_pos_as_xyz
  1  'x, y, z'
loop_
 _atom_site_type_symbol
 _atom_site_label
 _atom_site_symmetry_multiplicity
 _atom_site_fract_x
 _atom_site_fract_y
 _atom_site_fract_z
 _atom_site_occupancy
  Li  Li0  1  0.065149  0.847257  0.609563  1
  Li  Li1  1  0.431529  0.151967  0.887423  1
  Li  Li2  1  0.186389  0.652105  0.141305  1
  Li  Li3  1  0.315974  0.345529  0.361748  1
  Li  Li4  1  0.684855  0.652701  0.638605  1
  Li  Li5  1  0.812930  0.349588  0.857933  1
  Li  Li6  1  0.567010  0.845295  0.111474  1
  Li  Li7  1  0.936533  0.152651  0.391649  1
  Mn  Mn8  1  0.271586  0.670829  0.959124  1
  Mn  Mn9  1  0.028093  0.168963  0.210899  1
  Mn  Mn10  1  0.723555  0.329878  0.039428  1
  Fe  Fe11  1  0.227262  0.330318  0.543191  1
  Fe  Fe12  1  0.524479  0.172075  0.710513  1
  Fe  Fe13  1  0.477258  0.825007  0.293606  1
  Fe  Fe14  1  0.776066  0.661053  0.458406  1
  Fe  Fe15  1  0.969371  0.828755  0.787652  1
  B  B16  1  0.035298  0.330227  0.702872  1
  B  B17  1  0.289291  0.828696  0.454655  1
  B  B18  1  0.460983  0.674741  0.794364  1
  B  B19  1  0.216145  0.171082  0.047486  1
  B  B20  1  0.783236  0.830957  0.951057  1
  B  B21  1  0.537418  0.327937  0.205074  1
  B  B22  1  0.712075  0.169678  0.546053  1
  B  B23  1  0.965322  0.669813  0.298955  1
  O  O24  1  0.011462  0.592511  0.692229  1
  O  O25  1  0.167847  0.188044  0.653341  1
  O  O26  1  0.178309  0.702972  0.511870  1
  O  O27  1  0.331875  0.288203  0.989545  1
  O  O28  1  0.077544  0.787415  0.240741  1
  O  O29  1  0.326790  0.817000  0.842398  1
  O  O30  1  0.081752  0.321196  0.093908  1
  O  O31  1  0.262712  0.089548  0.442567  1
  O  O32  1  0.485540  0.412155  0.805478  1
  O  O33  1  0.238908  0.910964  0.061404  1
  O  O34  1  0.420331  0.685493  0.404686  1
  O  O35  1  0.421827  0.204106  0.261358  1
  O  O36  1  0.577455  0.797151  0.737923  1
  O  O37  1  0.580820  0.314724  0.595266  1
  O  O38  1  0.760780  0.090950  0.936992  1
  O  O39  1  0.513818  0.589952  0.192879  1
  O  O40  1  0.740616  0.909794  0.557251  1
  O  O41  1  0.916274  0.681949  0.903487  1
  O  O42  1  0.669679  0.181832  0.156400  1
  O  O43  1  0.923731  0.207249  0.759928  1
  O  O44  1  0.669617  0.713530  0.009180  1
  O  O45  1  0.823155  0.296175  0.488820  1
  O  O46  1  0.832462  0.820035  0.346836  1
  O  O47  1  0.988890  0.409952  0.312479  1
