# generated using pymatgen
data_Fe43O64
_symmetry_space_group_name_H-M   'P 1'
_cell_length_a   8.53030100
_cell_length_b   8.53030100
_cell_length_c   17.05978024
_cell_angle_alpha   89.75408612
_cell_angle_beta   90.24591388
_cell_angle_gamma   89.60134827
_symmetry_Int_Tables_number   1
_chemical_formula_structural   Fe43O64
_chemical_formula_sum   'Fe43 O64'
_cell_volume   1241.31949269
_cell_formula_units_Z   1
loop_
 _symmetry_equiv_pos_site_id
 _symmetry_equiv_pos_as_xyz
  1  'x, y, z'
loop_
 _atom_site_type_symbol
 _atom_site_label
 _atom_site_symmetry_multiplicity
 _atom_site_fract_x
 _atom_site_fract_y
 _atom_site_fract_z
 _atom_site_occupancy
  Fe  Fe0  1  0.007057  0.497523  0.251899  1
  Fe  Fe1  1  0.003108  0.489218  0.751935  1
  Fe  Fe2  1  0.120471  0.617592  0.065885  1
  Fe  Fe3  1  0.116555  0.636044  0.566400  1
  Fe  Fe4  1  0.134900  0.368107  0.439888  1
  Fe  Fe5  1  0.126927  0.359649  0.944323  1
  Fe  Fe6  1  0.125556  0.875556  0.187500  1
  Fe  Fe7  1  0.134255  0.119542  0.315522  1
  Fe  Fe8  1  0.138910  0.109718  0.813960  1
  Fe  Fe9  1  0.244280  0.742329  0.377286  1
  Fe  Fe10  1  0.249647  0.741052  0.879308  1
  Fe  Fe11  1  0.260748  0.252917  0.128959  1
  Fe  Fe12  1  0.249123  0.254385  0.629906  1
  Fe  Fe13  1  0.369542  0.884255  0.059478  1
  Fe  Fe14  1  0.359718  0.888910  0.561040  1
  Fe  Fe15  1  0.384449  0.631416  0.193003  1
  Fe  Fe16  1  0.363984  0.634318  0.689903  1
  Fe  Fe17  1  0.389080  0.374435  0.317330  1
  Fe  Fe18  1  0.379271  0.364163  0.818455  1
  Fe  Fe19  1  0.492494  0.505206  0.002756  1
  Fe  Fe20  1  0.495613  0.512307  0.499974  1
  Fe  Fe21  1  0.502917  0.010748  0.246041  1
  Fe  Fe22  1  0.504385  -0.000877  0.745094  1
  Fe  Fe23  1  0.609649  0.876927  0.430677  1
  Fe  Fe24  1  0.618107  0.884900  0.935112  1
  Fe  Fe25  1  0.624435  0.139080  0.057670  1
  Fe  Fe26  1  0.614163  0.129271  0.556545  1
  Fe  Fe27  1  0.625630  0.624372  0.813392  1
  Fe  Fe28  1  0.637920  0.387920  0.187500  1
  Fe  Fe29  1  0.624037  0.374037  0.687500  1
  Fe  Fe30  1  0.747523  0.757057  0.123101  1
  Fe  Fe31  1  0.739218  0.753108  0.623065  1
  Fe  Fe32  1  0.755206  0.242494  0.372244  1
  Fe  Fe33  1  0.762307  0.245613  0.875026  1
  Fe  Fe34  1  0.871767  0.615770  0.943403  1
  Fe  Fe35  1  0.865770  0.621767  0.431597  1
  Fe  Fe36  1  0.874372  0.375630  0.561608  1
  Fe  Fe37  1  0.867592  0.870471  0.309115  1
  Fe  Fe38  1  0.886044  0.866555  0.808600  1
  Fe  Fe39  1  0.881416  0.134449  0.181997  1
  Fe  Fe40  1  0.884318  0.113984  0.685097  1
  Fe  Fe41  1  0.991052  -0.000353  0.495692  1
  Fe  Fe42  1  0.992329  -0.005720  -0.002286  1
  O  O43  1  0.109169  0.611551  0.446306  1
  O  O44  1  0.111674  0.611616  0.942796  1
  O  O45  1  0.116128  0.884657  0.315015  1
  O  O46  1  0.117395  0.877369  0.819211  1
  O  O47  1  0.107594  0.138008  0.433381  1
  O  O48  1  0.106197  0.131823  0.930331  1
  O  O49  1  0.134657  0.866128  0.059985  1
  O  O50  1  0.127369  0.867395  0.555789  1
  O  O51  1  0.117209  0.126319  0.191680  1
  O  O52  1  0.111775  0.141613  0.694963  1
  O  O53  1  0.145121  0.384246  0.058560  1
  O  O54  1  0.113742  0.382705  0.559771  1
  O  O55  1  0.133659  0.625609  0.182632  1
  O  O56  1  0.132003  0.605848  0.683992  1
  O  O57  1  0.135332  0.362574  0.320619  1
  O  O58  1  0.139953  0.362487  0.817990  1
  O  O59  1  0.362737  0.639523  0.068935  1
  O  O60  1  0.359144  0.635186  0.570373  1
  O  O61  1  0.365908  0.391446  0.435023  1
  O  O62  1  0.364109  0.392920  0.930898  1
  O  O63  1  0.356468  0.612011  0.307613  1
  O  O64  1  0.385625  0.616350  0.807905  1
  O  O65  1  0.388008  0.857594  0.941619  1
  O  O66  1  0.381823  0.856197  0.444669  1
  O  O67  1  0.362915  0.138519  0.303750  1
  O  O68  1  0.370478  0.132668  0.803476  1
  O  O69  1  0.376319  0.867209  0.183320  1
  O  O70  1  0.391613  0.861775  0.680037  1
  O  O71  1  0.388519  0.112915  0.071250  1
  O  O72  1  0.382668  0.120478  0.571524  1
  O  O73  1  0.389536  0.390537  0.194927  1
  O  O74  1  0.388143  0.388081  0.693012  1
  O  O75  1  0.612574  0.885332  0.054381  1
  O  O76  1  0.612487  0.889953  0.557010  1
  O  O77  1  0.617120  0.618812  0.179772  1
  O  O78  1  0.616827  0.613794  0.691620  1
  O  O79  1  0.608931  0.368304  0.067223  1
  O  O80  1  0.631468  0.371141  0.566702  1
  O  O81  1  0.637899  0.640048  0.446728  1
  O  O82  1  0.633887  0.629865  0.932208  1
  O  O83  1  0.618304  0.358931  0.307777  1
  O  O84  1  0.621141  0.381468  0.808298  1
  O  O85  1  0.642920  0.114109  0.444102  1
  O  O86  1  0.641446  0.115908  0.939977  1
  O  O87  1  0.634246  0.895121  0.316440  1
  O  O88  1  0.632705  0.863742  0.815229  1
  O  O89  1  0.640537  0.139536  0.180073  1
  O  O90  1  0.638081  0.138143  0.681988  1
  O  O91  1  0.861616  0.861674  0.432204  1
  O  O92  1  0.861551  0.859169  0.928694  1
  O  O93  1  0.862011  0.106468  0.067387  1
  O  O94  1  0.866350  0.135625  0.567095  1
  O  O95  1  0.875609  0.883659  0.192368  1
  O  O96  1  0.855848  0.882003  0.691008  1
  O  O97  1  0.886683  0.642851  0.057196  1
  O  O98  1  0.879293  0.616554  0.561837  1
  O  O99  1  0.868812  0.367120  0.195228  1
  O  O100  1  0.863794  0.366827  0.683380  1
  O  O101  1  0.892851  0.636683  0.317804  1
  O  O102  1  0.866554  0.629293  0.813163  1
  O  O103  1  0.890048  0.387899  0.928272  1
  O  O104  1  0.879865  0.383887  0.442792  1
  O  O105  1  0.889523  0.112737  0.306065  1
  O  O106  1  0.885186  0.109144  0.804627  1
