# generated using pymatgen
data_Na3Sb5O14
_symmetry_space_group_name_H-M   'P 1'
_cell_length_a   24.41592792
_cell_length_b   7.21709789
_cell_length_c   7.41116690
_cell_angle_alpha   90.00000000
_cell_angle_beta   90.00000000
_cell_angle_gamma   90.00000000
_symmetry_Int_Tables_number   1
_chemical_formula_structural   Na3Sb5O14
_chemical_formula_sum   'Na12 Sb20 O56'
_cell_volume   1305.93759323
_cell_formula_units_Z   4
loop_
 _symmetry_equiv_pos_site_id
 _symmetry_equiv_pos_as_xyz
  1  'x, y, z'
loop_
 _atom_site_type_symbol
 _atom_site_label
 _atom_site_symmetry_multiplicity
 _atom_site_fract_x
 _atom_site_fract_y
 _atom_site_fract_z
 _atom_site_occupancy
  Na  Na0  1  0.029336  0.194743  0.500000  1
  Na  Na1  1  0.126382  0.574672  0.500000  1
  Na  Na2  1  0.193222  0.692317  0.000000  1
  Na  Na3  1  0.306778  0.192317  0.000000  1
  Na  Na4  1  0.373618  0.074672  0.500000  1
  Na  Na5  1  0.470664  0.694743  0.500000  1
  Na  Na6  1  0.529336  0.305257  0.500000  1
  Na  Na7  1  0.626382  0.925328  0.500000  1
  Na  Na8  1  0.693222  0.807683  0.000000  1
  Na  Na9  1  0.806778  0.307683  0.000000  1
  Na  Na10  1  0.873618  0.425328  0.500000  1
  Na  Na11  1  0.970664  0.805257  0.500000  1
  Sb  Sb12  1  0.058240  0.421953  0.000000  1
  Sb  Sb13  1  0.061462  0.908611  0.000000  1
  Sb  Sb14  1  0.146027  0.106883  0.264017  1
  Sb  Sb15  1  0.146027  0.106883  0.735983  1
  Sb  Sb16  1  0.241576  0.808639  0.500000  1
  Sb  Sb17  1  0.258424  0.308639  0.500000  1
  Sb  Sb18  1  0.353973  0.606883  0.264017  1
  Sb  Sb19  1  0.353973  0.606883  0.735983  1
  Sb  Sb20  1  0.438538  0.408611  0.000000  1
  Sb  Sb21  1  0.441760  0.921953  0.000000  1
  Sb  Sb22  1  0.558240  0.078047  0.000000  1
  Sb  Sb23  1  0.561462  0.591389  0.000000  1
  Sb  Sb24  1  0.646027  0.393117  0.264017  1
  Sb  Sb25  1  0.646027  0.393117  0.735983  1
  Sb  Sb26  1  0.741576  0.691361  0.500000  1
  Sb  Sb27  1  0.758424  0.191361  0.500000  1
  Sb  Sb28  1  0.853973  0.893117  0.264017  1
  Sb  Sb29  1  0.853973  0.893117  0.735983  1
  Sb  Sb30  1  0.938538  0.091389  0.000000  1
  Sb  Sb31  1  0.941760  0.578047  0.000000  1
  O  O32  1  0.000000  0.500000  0.179512  1
  O  O33  1  0.000000  0.500000  0.820488  1
  O  O34  1  0.018092  0.163011  0.000000  1
  O  O35  1  0.072059  0.961540  0.258618  1
  O  O36  1  0.072059  0.961540  0.741382  1
  O  O37  1  0.096047  0.666208  0.000000  1
  O  O38  1  0.106355  0.343539  0.197169  1
  O  O39  1  0.106355  0.343539  0.802831  1
  O  O40  1  0.121377  0.192451  0.500000  1
  O  O41  1  0.143410  0.019769  0.000000  1
  O  O42  1  0.181451  0.863063  0.316748  1
  O  O43  1  0.181451  0.863063  0.683252  1
  O  O44  1  0.215456  0.241502  0.729626  1
  O  O45  1  0.215456  0.241502  0.270374  1
  O  O46  1  0.216767  0.544980  0.500000  1
  O  O47  1  0.283233  0.044980  0.500000  1
  O  O48  1  0.284544  0.741502  0.270374  1
  O  O49  1  0.284544  0.741502  0.729626  1
  O  O50  1  0.318549  0.363063  0.316748  1
  O  O51  1  0.318549  0.363063  0.683252  1
  O  O52  1  0.356590  0.519769  0.000000  1
  O  O53  1  0.378623  0.692451  0.500000  1
  O  O54  1  0.393645  0.843539  0.197169  1
  O  O55  1  0.393645  0.843539  0.802831  1
  O  O56  1  0.403953  0.166208  0.000000  1
  O  O57  1  0.427941  0.461540  0.258618  1
  O  O58  1  0.427941  0.461540  0.741382  1
  O  O59  1  0.481908  0.663011  0.000000  1
  O  O60  1  0.500000  0.000000  0.179512  1
  O  O61  1  0.500000  0.000000  0.820488  1
  O  O62  1  0.518092  0.336989  0.000000  1
  O  O63  1  0.572059  0.538460  0.258618  1
  O  O64  1  0.572059  0.538460  0.741382  1
  O  O65  1  0.596047  0.833792  0.000000  1
  O  O66  1  0.606355  0.156461  0.197169  1
  O  O67  1  0.606355  0.156461  0.802831  1
  O  O68  1  0.621377  0.307549  0.500000  1
  O  O69  1  0.643410  0.480231  0.000000  1
  O  O70  1  0.681451  0.636937  0.316748  1
  O  O71  1  0.681451  0.636937  0.683252  1
  O  O72  1  0.715456  0.258498  0.729626  1
  O  O73  1  0.715456  0.258498  0.270374  1
  O  O74  1  0.716767  0.955020  0.500000  1
  O  O75  1  0.783233  0.455020  0.500000  1
  O  O76  1  0.784544  0.758498  0.270374  1
  O  O77  1  0.784544  0.758498  0.729626  1
  O  O78  1  0.818549  0.136937  0.316748  1
  O  O79  1  0.818549  0.136937  0.683252  1
  O  O80  1  0.856590  0.980231  0.000000  1
  O  O81  1  0.878623  0.807549  0.500000  1
  O  O82  1  0.893645  0.656461  0.197169  1
  O  O83  1  0.893645  0.656461  0.802831  1
  O  O84  1  0.903953  0.333792  0.000000  1
  O  O85  1  0.927941  0.038460  0.258618  1
  O  O86  1  0.927941  0.038460  0.741382  1
  O  O87  1  0.981908  0.836989  0.000000  1
