# generated using pymatgen
data_Co(BiO3)2
_symmetry_space_group_name_H-M   'P 1'
_cell_length_a   8.92565631
_cell_length_b   8.92570630
_cell_length_c   5.01495235
_cell_angle_alpha   89.99713987
_cell_angle_beta   90.00043605
_cell_angle_gamma   59.99917462
_symmetry_Int_Tables_number   1
_chemical_formula_structural   Co(BiO3)2
_chemical_formula_sum   'Co3 Bi6 O18'
_cell_volume   346.00038510
_cell_formula_units_Z   3
loop_
 _symmetry_equiv_pos_site_id
 _symmetry_equiv_pos_as_xyz
  1  'x, y, z'
loop_
 _atom_site_type_symbol
 _atom_site_label
 _atom_site_symmetry_multiplicity
 _atom_site_fract_x
 _atom_site_fract_y
 _atom_site_fract_z
 _atom_site_occupancy
  Co  Co0  1  0.000007  0.999996  0.000015  1
  Co  Co1  1  0.333282  0.333369  0.499572  1
  Co  Co2  1  0.666655  0.666674  0.500427  1
  Bi  Bi3  1  0.999987  0.374004  -0.000000  1
  Bi  Bi4  1  0.292307  -0.000001  0.499989  1
  Bi  Bi5  1  0.999983  0.707711  0.500013  1
  Bi  Bi6  1  0.625987  0.000005  0.999993  1
  Bi  Bi7  1  0.374009  0.626001  0.999995  1
  Bi  Bi8  1  0.707702  0.292291  0.499993  1
  O  O9  1  0.082532  0.117307  0.217354  1
  O  O10  1  0.233030  0.232394  0.720539  1
  O  O11  1  0.136474  0.461378  0.280742  1
  O  O12  1  0.402160  0.136509  0.280733  1
  O  O13  1  0.232374  0.534561  0.720616  1
  O  O14  1  0.117324  0.800187  0.217425  1
  O  O15  1  0.534559  0.233011  0.720553  1
  O  O16  1  0.199851  0.882696  0.782648  1
  O  O17  1  0.461320  0.402243  0.280863  1
  O  O18  1  0.800152  0.082532  0.217357  1
  O  O19  1  0.465452  0.767601  0.279434  1
  O  O20  1  0.597856  0.538615  0.719225  1
  O  O21  1  0.538666  0.863453  0.719305  1
  O  O22  1  0.766936  0.465439  0.279419  1
  O  O23  1  0.917500  0.199812  0.782544  1
  O  O24  1  0.767592  0.766946  0.279415  1
  O  O25  1  0.863527  0.597796  0.719171  1
  O  O26  1  0.882680  0.917470  0.782659  1
