# generated using pymatgen
data_Li9Sb3S
_symmetry_space_group_name_H-M   'P 1'
_cell_length_a   7.76583094
_cell_length_b   9.44982410
_cell_length_c   14.59611473
_cell_angle_alpha   90.00000000
_cell_angle_beta   107.49524928
_cell_angle_gamma   90.00000000
_symmetry_Int_Tables_number   1
_chemical_formula_structural   Li9Sb3S
_chemical_formula_sum   'Li36 Sb12 S4'
_cell_volume   1021.59739912
_cell_formula_units_Z   4
loop_
 _symmetry_equiv_pos_site_id
 _symmetry_equiv_pos_as_xyz
  1  'x, y, z'
loop_
 _atom_site_type_symbol
 _atom_site_label
 _atom_site_symmetry_multiplicity
 _atom_site_fract_x
 _atom_site_fract_y
 _atom_site_fract_z
 _atom_site_occupancy
  Li  Li0  1  0.044403  0.814314  0.880678  1
  Li  Li1  1  0.097781  0.248196  0.951479  1
  Li  Li2  1  0.271254  0.557237  0.959641  1
  Li  Li3  1  0.044403  0.685686  0.380678  1
  Li  Li4  1  0.132598  0.558869  0.759233  1
  Li  Li5  1  0.097781  0.251804  0.451479  1
  Li  Li6  1  0.271254  0.942763  0.459641  1
  Li  Li7  1  0.304302  0.788917  0.668368  1
  Li  Li8  1  0.298683  0.014085  0.814453  1
  Li  Li9  1  0.132598  0.941131  0.259233  1
  Li  Li10  1  0.355315  0.309203  0.660572  1
  Li  Li11  1  0.304302  0.711083  0.168368  1
  Li  Li12  1  0.541876  0.161147  0.001226  1
  Li  Li13  1  0.298683  0.485915  0.314453  1
  Li  Li14  1  0.512365  0.552554  0.848907  1
  Li  Li15  1  0.487635  0.052554  0.651093  1
  Li  Li16  1  0.458124  0.661147  0.498774  1
  Li  Li17  1  0.355315  0.190797  0.160572  1
  Li  Li18  1  0.644685  0.809203  0.839428  1
  Li  Li19  1  0.541876  0.338853  0.501226  1
  Li  Li20  1  0.512365  0.947446  0.348907  1
  Li  Li21  1  0.487635  0.447446  0.151093  1
  Li  Li22  1  0.701317  0.514085  0.685547  1
  Li  Li23  1  0.458124  0.838853  0.998774  1
  Li  Li24  1  0.695698  0.288917  0.831632  1
  Li  Li25  1  0.644685  0.690797  0.339428  1
  Li  Li26  1  0.867402  0.058869  0.740767  1
  Li  Li27  1  0.701317  0.985915  0.185547  1
  Li  Li28  1  0.695698  0.211083  0.331632  1
  Li  Li29  1  0.728746  0.057237  0.540359  1
  Li  Li30  1  0.902219  0.748197  0.548521  1
  Li  Li31  1  0.867402  0.441131  0.240767  1
  Li  Li32  1  0.955597  0.314314  0.619322  1
  Li  Li33  1  0.728746  0.442763  0.040359  1
  Li  Li34  1  0.902219  0.751803  0.048521  1
  Li  Li35  1  0.955597  0.185686  0.119322  1
  Sb  Sb36  1  0.180545  0.540289  0.564447  1
  Sb  Sb37  1  0.110346  0.053438  0.603093  1
  Sb  Sb38  1  0.333463  0.303466  0.845603  1
  Sb  Sb39  1  0.180545  0.959711  0.064447  1
  Sb  Sb40  1  0.110346  0.446562  0.103093  1
  Sb  Sb41  1  0.333463  0.196534  0.345603  1
  Sb  Sb42  1  0.666537  0.803466  0.654397  1
  Sb  Sb43  1  0.889654  0.553438  0.896907  1
  Sb  Sb44  1  0.819455  0.040289  0.935553  1
  Sb  Sb45  1  0.666537  0.696534  0.154397  1
  Sb  Sb46  1  0.889654  0.946562  0.396907  1
  Sb  Sb47  1  0.819455  0.459711  0.435553  1
  S  S48  1  0.326659  0.758234  0.839999  1
  S  S49  1  0.326659  0.741766  0.339999  1
  S  S50  1  0.673341  0.258234  0.660001  1
  S  S51  1  0.673341  0.241766  0.160001  1
