# generated using pymatgen
data_Li3V3P8O29
_symmetry_space_group_name_H-M   'P 1'
_cell_length_a   9.76945011
_cell_length_b   9.77173283
_cell_length_c   14.06708723
_cell_angle_alpha   90.20020310
_cell_angle_beta   90.01148082
_cell_angle_gamma   59.80611151
_symmetry_Int_Tables_number   1
_chemical_formula_structural   Li3V3P8O29
_chemical_formula_sum   'Li6 V6 P16 O58'
_cell_volume   1160.70361744
_cell_formula_units_Z   2
loop_
 _symmetry_equiv_pos_site_id
 _symmetry_equiv_pos_as_xyz
  1  'x, y, z'
loop_
 _atom_site_type_symbol
 _atom_site_label
 _atom_site_symmetry_multiplicity
 _atom_site_fract_x
 _atom_site_fract_y
 _atom_site_fract_z
 _atom_site_occupancy
  Li  Li0  1  0.767343  0.905844  0.550813  1
  Li  Li1  1  0.774354  0.322273  0.063441  1
  Li  Li2  1  0.327435  0.767439  0.552166  1
  Li  Li3  1  0.688598  0.085174  0.945247  1
  Li  Li4  1  0.220869  0.693089  0.948804  1
  Li  Li5  1  0.983781  0.039706  0.486499  1
  V  V6  1  0.564184  0.431015  0.257737  1
  V  V7  1  0.435905  0.562745  0.748060  1
  V  V8  1  0.561948  0.996885  0.750922  1
  V  V9  1  0.430361  0.001920  0.247033  1
  V  V10  1  0.000328  0.565104  0.249847  1
  V  V11  1  0.999410  0.434259  0.748321  1
  P  P12  1  0.915287  0.769822  0.843616  1
  P  P13  1  0.773195  0.912145  0.339973  1
  P  P14  1  0.918122  0.308079  0.343603  1
  P  P15  1  0.667112  0.662731  0.130268  1
  P  P16  1  0.666755  0.666260  0.629819  1
  P  P17  1  0.772129  0.316365  0.840839  1
  P  P18  1  0.691816  0.219734  0.657001  1
  P  P19  1  0.311230  0.914537  0.846020  1
  P  P20  1  0.683511  0.088693  0.158286  1
  P  P21  1  0.312120  0.777997  0.340657  1
  P  P22  1  0.229622  0.680793  0.160112  1
  P  P23  1  0.330382  0.332018  0.370975  1
  P  P24  1  0.332916  0.334184  0.869118  1
  P  P25  1  0.082678  0.690465  0.656847  1
  P  P26  1  0.223636  0.084180  0.659710  1
  P  P27  1  0.085186  0.227812  0.157338  1
  O  O28  1  0.994205  0.784295  0.572801  1
  O  O29  1  0.914077  0.740452  0.332009  1
  O  O30  1  0.757954  0.007936  0.067216  1
  O  O31  1  0.743826  0.915578  0.839861  1
  O  O32  1  0.907286  0.617186  0.822565  1
  O  O33  1  0.816832  0.657067  0.177923  1
  O  O34  1  0.919438  0.464165  0.331781  1
  O  O35  1  0.994749  0.235940  0.070960  1
  O  O36  1  0.914406  0.342392  0.833533  1
  O  O37  1  0.671817  0.814928  0.673265  1
  O  O38  1  0.616313  0.913124  0.326306  1
  O  O39  1  0.812110  0.518450  0.674891  1
  O  O40  1  0.670827  0.662992  0.024455  1
  O  O41  1  0.662715  0.675720  0.524667  1
  O  O42  1  0.664130  0.514535  0.170244  1
  O  O43  1  0.474431  0.905306  0.821677  1
  O  O44  1  0.522987  0.815819  0.175409  1
  O  O45  1  0.742498  0.346233  0.331978  1
  O  O46  1  0.790939  0.200905  0.754059  1
  O  O47  1  0.782845  0.210825  0.571668  1
  O  O48  1  0.754073  0.248638  0.931605  1
  O  O49  1  0.618238  0.478371  0.819495  1
  O  O50  1  0.511322  0.672962  0.669924  1
  O  O51  1  0.660136  0.258451  0.162849  1
  O  O52  1  0.471831  0.619374  0.328157  1
  O  O53  1  0.343533  0.917108  0.332176  1
  O  O54  1  0.793201  0.001576  0.249231  1
  O  O55  1  0.783078  0.988346  0.430340  1
  O  O56  1  0.222747  0.994931  0.574538  1
  O  O57  1  0.656490  0.081126  0.663769  1
  O  O58  1  0.532198  0.380261  0.673570  1
  O  O59  1  0.339452  0.742259  0.836368  1
  O  O60  1  0.482740  0.331880  0.327275  1
  O  O61  1  0.382979  0.522169  0.181477  1
  O  O62  1  0.239145  0.752991  0.069842  1
  O  O63  1  0.229802  0.784393  0.431514  1
  O  O64  1  0.205497  0.794827  0.249982  1
  O  O65  1  0.256334  0.659023  0.660381  1
  O  O66  1  0.485238  0.183115  0.827466  1
  O  O67  1  0.523329  0.096642  0.176786  1
  O  O68  1  0.334721  0.483865  0.824101  1
  O  O69  1  0.337194  0.340446  0.974046  1
  O  O70  1  0.337299  0.331305  0.476434  1
  O  O71  1  0.185649  0.479809  0.326009  1
  O  O72  1  0.382218  0.085862  0.675032  1
  O  O73  1  0.333886  0.184095  0.324801  1
  O  O74  1  0.086588  0.654253  0.167522  1
  O  O75  1  0.000801  0.792972  0.751547  1
  O  O76  1  0.004890  0.761082  0.929847  1
  O  O77  1  0.085468  0.531105  0.671590  1
  O  O78  1  0.186038  0.337454  0.822436  1
  O  O79  1  0.092122  0.381045  0.175751  1
  O  O80  1  0.257368  0.085645  0.163118  1
  O  O81  1  0.239908  0.997852  0.935085  1
  O  O82  1  0.204348  0.001214  0.753440  1
  O  O83  1  0.086493  0.257480  0.665741  1
  O  O84  1  0.991475  0.213238  0.430091  1
  O  O85  1  0.002680  0.203057  0.250224  1
