# generated using pymatgen
data_LiMnF3
_symmetry_space_group_name_H-M   'P 1'
_cell_length_a   5.19547752
_cell_length_b   5.97720697
_cell_length_c   8.33816385
_cell_angle_alpha   90.00012113
_cell_angle_beta   89.99978975
_cell_angle_gamma   89.99973384
_symmetry_Int_Tables_number   1
_chemical_formula_structural   LiMnF3
_chemical_formula_sum   'Li4 Mn4 F12'
_cell_volume   258.93704605
_cell_formula_units_Z   4
loop_
 _symmetry_equiv_pos_site_id
 _symmetry_equiv_pos_as_xyz
  1  'x, y, z'
loop_
 _atom_site_type_symbol
 _atom_site_label
 _atom_site_symmetry_multiplicity
 _atom_site_fract_x
 _atom_site_fract_y
 _atom_site_fract_z
 _atom_site_occupancy
  Li  Li0  1  0.969887  0.646157  0.750000  1
  Li  Li1  1  0.530116  0.146153  0.750004  1
  Li  Li2  1  0.469877  0.853843  0.250004  1
  Li  Li3  1  0.030123  0.353847  0.250000  1
  Mn  Mn4  1  0.999970  0.999985  0.999986  1
  Mn  Mn5  1  0.999980  0.000011  0.500001  1
  Mn  Mn6  1  0.500048  0.499989  0.999978  1
  Mn  Mn7  1  0.499996  0.499979  0.499981  1
  F  F8  1  0.340275  0.526104  0.250007  1
  F  F9  1  0.316650  0.198538  0.572345  1
  F  F10  1  0.316645  0.198537  0.927667  1
  F  F11  1  0.183363  0.698547  0.572333  1
  F  F12  1  0.183348  0.698551  0.927671  1
  F  F13  1  0.159719  0.026110  0.250005  1
  F  F14  1  0.840273  0.973900  0.750000  1
  F  F15  1  0.816656  0.301467  0.427667  1
  F  F16  1  0.816640  0.301467  0.072339  1
  F  F17  1  0.683353  0.801459  0.072335  1
  F  F18  1  0.683350  0.801458  0.427671  1
  F  F19  1  0.659730  0.473897  0.750006  1
