# generated using pymatgen
data_H2RhN2Cl5O
_symmetry_space_group_name_H-M   'P 1'
_cell_length_a   13.73250268
_cell_length_b   9.60083549
_cell_length_c   7.08386713
_cell_angle_alpha   90.00000000
_cell_angle_beta   90.00000000
_cell_angle_gamma   90.00000000
_symmetry_Int_Tables_number   1
_chemical_formula_structural   H2RhN2Cl5O
_chemical_formula_sum   'H8 Rh4 N8 Cl20 O4'
_cell_volume   933.96182956
_cell_formula_units_Z   4
loop_
 _symmetry_equiv_pos_site_id
 _symmetry_equiv_pos_as_xyz
  1  'x, y, z'
loop_
 _atom_site_type_symbol
 _atom_site_label
 _atom_site_symmetry_multiplicity
 _atom_site_fract_x
 _atom_site_fract_y
 _atom_site_fract_z
 _atom_site_occupancy
  H  H0  1  0.469823  0.165362  0.544948  1
  H  H1  1  0.969823  0.334638  0.955052  1
  H  H2  1  0.530177  0.665362  0.455052  1
  H  H3  1  0.030177  0.834638  0.044948  1
  H  H4  1  0.530177  0.834638  0.455052  1
  H  H5  1  0.030177  0.665362  0.044948  1
  H  H6  1  0.469823  0.334638  0.544948  1
  H  H7  1  0.969823  0.165362  0.955052  1
  Rh  Rh8  1  0.612664  0.250000  0.300925  1
  Rh  Rh9  1  0.112664  0.250000  0.199075  1
  Rh  Rh10  1  0.387336  0.750000  0.699075  1
  Rh  Rh11  1  0.887336  0.750000  0.800925  1
  N  N12  1  0.856406  0.002607  0.340459  1
  N  N13  1  0.356406  0.497393  0.159541  1
  N  N14  1  0.143594  0.502607  0.659541  1
  N  N15  1  0.643594  0.997393  0.840459  1
  N  N16  1  0.143594  0.997393  0.659541  1
  N  N17  1  0.643594  0.502607  0.840459  1
  N  N18  1  0.856406  0.497393  0.340459  1
  N  N19  1  0.356406  0.002607  0.159541  1
  Cl  Cl20  1  0.507220  0.250000  0.048492  1
  Cl  Cl21  1  0.007220  0.250000  0.451508  1
  Cl  Cl22  1  0.492780  0.750000  0.951508  1
  Cl  Cl23  1  0.992780  0.750000  0.548492  1
  Cl  Cl24  1  0.742912  0.250000  0.107500  1
  Cl  Cl25  1  0.242912  0.250000  0.392500  1
  Cl  Cl26  1  0.257088  0.750000  0.892500  1
  Cl  Cl27  1  0.757088  0.750000  0.607500  1
  Cl  Cl28  1  0.709071  0.250000  0.566234  1
  Cl  Cl29  1  0.209071  0.250000  0.933766  1
  Cl  Cl30  1  0.290929  0.750000  0.433766  1
  Cl  Cl31  1  0.790929  0.750000  0.066234  1
  Cl  Cl32  1  0.608294  0.007122  0.307984  1
  Cl  Cl33  1  0.108294  0.492878  0.192016  1
  Cl  Cl34  1  0.391706  0.507122  0.692016  1
  Cl  Cl35  1  0.891706  0.992878  0.807984  1
  Cl  Cl36  1  0.391706  0.992878  0.692016  1
  Cl  Cl37  1  0.891706  0.507122  0.807984  1
  Cl  Cl38  1  0.608294  0.492878  0.307984  1
  Cl  Cl39  1  0.108294  0.007122  0.192016  1
  O  O40  1  0.483199  0.250000  0.470424  1
  O  O41  1  0.983199  0.250000  0.029576  1
  O  O42  1  0.516801  0.750000  0.529576  1
  O  O43  1  0.016801  0.750000  0.970424  1
