# generated using pymatgen
data_K5YO4
_symmetry_space_group_name_H-M   'P 1'
_cell_length_a   12.42717482
_cell_length_b   12.27728051
_cell_length_c   11.98465863
_cell_angle_alpha   90.00000000
_cell_angle_beta   90.00000000
_cell_angle_gamma   90.00000000
_symmetry_Int_Tables_number   1
_chemical_formula_structural   K5YO4
_chemical_formula_sum   'K40 Y8 O32'
_cell_volume   1828.52227240
_cell_formula_units_Z   8
loop_
 _symmetry_equiv_pos_site_id
 _symmetry_equiv_pos_as_xyz
  1  'x, y, z'
loop_
 _atom_site_type_symbol
 _atom_site_label
 _atom_site_symmetry_multiplicity
 _atom_site_fract_x
 _atom_site_fract_y
 _atom_site_fract_z
 _atom_site_occupancy
  K  K0  1  0.100030  0.613761  0.145959  1
  K  K1  1  0.100030  0.886239  0.645959  1
  K  K2  1  0.113498  0.105875  0.830459  1
  K  K3  1  0.113498  0.394125  0.330459  1
  K  K4  1  0.121407  0.847315  0.365050  1
  K  K5  1  0.121407  0.652685  0.865050  1
  K  K6  1  0.146977  0.872798  0.089060  1
  K  K7  1  0.146977  0.627202  0.589060  1
  K  K8  1  0.162997  0.120372  0.403422  1
  K  K9  1  0.162997  0.379628  0.903422  1
  K  K10  1  0.337003  0.879628  0.903422  1
  K  K11  1  0.337003  0.620372  0.403422  1
  K  K12  1  0.353023  0.127202  0.589060  1
  K  K13  1  0.353023  0.372798  0.089060  1
  K  K14  1  0.378593  0.347315  0.365050  1
  K  K15  1  0.378593  0.152685  0.865050  1
  K  K16  1  0.386502  0.605875  0.830459  1
  K  K17  1  0.386502  0.894125  0.330459  1
  K  K18  1  0.399970  0.113761  0.145959  1
  K  K19  1  0.399970  0.386239  0.645959  1
  K  K20  1  0.600030  0.613761  0.354041  1
  K  K21  1  0.600030  0.886239  0.854041  1
  K  K22  1  0.613498  0.394125  0.169541  1
  K  K23  1  0.613498  0.105875  0.669541  1
  K  K24  1  0.621407  0.652685  0.634950  1
  K  K25  1  0.621407  0.847315  0.134950  1
  K  K26  1  0.646977  0.627202  0.910940  1
  K  K27  1  0.646977  0.872798  0.410940  1
  K  K28  1  0.662997  0.120372  0.096578  1
  K  K29  1  0.662997  0.379628  0.596578  1
  K  K30  1  0.837003  0.620372  0.096578  1
  K  K31  1  0.837003  0.879628  0.596578  1
  K  K32  1  0.853023  0.372798  0.410940  1
  K  K33  1  0.853023  0.127202  0.910940  1
  K  K34  1  0.878593  0.152685  0.634950  1
  K  K35  1  0.878593  0.347315  0.134950  1
  K  K36  1  0.886502  0.605875  0.669541  1
  K  K37  1  0.886502  0.894125  0.169541  1
  K  K38  1  0.899970  0.113761  0.354041  1
  K  K39  1  0.899970  0.386239  0.854041  1
  Y  Y40  1  0.126240  0.145440  0.116276  1
  Y  Y41  1  0.126240  0.354560  0.616276  1
  Y  Y42  1  0.373760  0.645440  0.116276  1
  Y  Y43  1  0.373760  0.854560  0.616276  1
  Y  Y44  1  0.626240  0.145440  0.383724  1
  Y  Y45  1  0.626240  0.354560  0.883724  1
  Y  Y46  1  0.873760  0.645440  0.383724  1
  Y  Y47  1  0.873760  0.854560  0.883724  1
  O  O48  1  0.020425  0.260293  0.504338  1
  O  O49  1  0.020425  0.239707  0.004338  1
  O  O50  1  0.054527  0.024096  0.228828  1
  O  O51  1  0.054527  0.475904  0.728828  1
  O  O52  1  0.236665  0.056176  0.008528  1
  O  O53  1  0.236665  0.443824  0.508528  1
  O  O54  1  0.232785  0.240527  0.222786  1
  O  O55  1  0.232785  0.259473  0.722786  1
  O  O56  1  0.267215  0.759473  0.722786  1
  O  O57  1  0.267215  0.740527  0.222786  1
  O  O58  1  0.263335  0.556176  0.008528  1
  O  O59  1  0.263335  0.943824  0.508528  1
  O  O60  1  0.445473  0.524096  0.228828  1
  O  O61  1  0.445473  0.975904  0.728828  1
  O  O62  1  0.479575  0.760293  0.504338  1
  O  O63  1  0.479575  0.739707  0.004338  1
  O  O64  1  0.520425  0.260293  0.995662  1
  O  O65  1  0.520425  0.239707  0.495662  1
  O  O66  1  0.554527  0.024096  0.271172  1
  O  O67  1  0.554527  0.475904  0.771172  1
  O  O68  1  0.736665  0.443824  0.991472  1
  O  O69  1  0.736665  0.056176  0.491472  1
  O  O70  1  0.732785  0.240527  0.277214  1
  O  O71  1  0.732785  0.259473  0.777214  1
  O  O72  1  0.767215  0.740527  0.277214  1
  O  O73  1  0.767215  0.759473  0.777214  1
  O  O74  1  0.763335  0.556176  0.491472  1
  O  O75  1  0.763335  0.943824  0.991472  1
  O  O76  1  0.945473  0.524096  0.271172  1
  O  O77  1  0.945473  0.975904  0.771172  1
  O  O78  1  0.979575  0.760293  0.995662  1
  O  O79  1  0.979575  0.739707  0.495662  1
