# generated using pymatgen
data_Li8Mn3Fe5(BO3)8
_symmetry_space_group_name_H-M   'P 1'
_cell_length_a   5.24043019
_cell_length_b   5.24676292
_cell_length_c   20.77843072
_cell_angle_alpha   89.29473599
_cell_angle_beta   90.58228974
_cell_angle_gamma   60.10808809
_symmetry_Int_Tables_number   1
_chemical_formula_structural   Li8Mn3Fe5(BO3)8
_chemical_formula_sum   'Li8 Mn3 Fe5 B8 O24'
_cell_volume   495.18113321
_cell_formula_units_Z   1
loop_
 _symmetry_equiv_pos_site_id
 _symmetry_equiv_pos_as_xyz
  1  'x, y, z'
loop_
 _atom_site_type_symbol
 _atom_site_label
 _atom_site_symmetry_multiplicity
 _atom_site_fract_x
 _atom_site_fract_y
 _atom_site_fract_z
 _atom_site_occupancy
  Li  Li0  1  0.325431  0.649519  0.666851  1
  Li  Li1  1  0.346748  0.678889  0.916379  1
  Li  Li2  1  0.321866  0.653408  0.166426  1
  Li  Li3  1  0.347487  0.678523  0.416556  1
  Li  Li4  1  0.655412  0.333660  0.790600  1
  Li  Li5  1  0.664618  0.347930  0.541772  1
  Li  Li6  1  0.652956  0.333926  0.291169  1
  Li  Li7  1  0.664744  0.347552  0.041355  1
  Mn  Mn8  1  0.677483  0.000470  0.933062  1
  Mn  Mn9  1  0.677073  0.000340  0.433634  1
  Mn  Mn10  1  0.000137  0.323662  0.183554  1
  Fe  Fe11  1  0.322374  0.001945  0.559349  1
  Fe  Fe12  1  0.324004  0.000667  0.058456  1
  Fe  Fe13  1  0.009767  0.323460  0.683415  1
  Fe  Fe14  1  0.998221  0.674059  0.808080  1
  Fe  Fe15  1  0.999762  0.674602  0.308592  1
  B  B16  1  0.003063  0.339812  0.936984  1
  B  B17  1  0.003235  0.339693  0.437318  1
  B  B18  1  0.329939  0.005277  0.811036  1
  B  B19  1  0.330790  0.005510  0.311760  1
  B  B20  1  0.661250  0.997808  0.686977  1
  B  B21  1  0.660447  0.997144  0.187183  1
  B  B22  1  0.992054  0.670132  0.562625  1
  B  B23  1  0.993171  0.669857  0.061807  1
  O  O24  1  0.068186  0.253018  0.792194  1
  O  O25  1  0.068423  0.253708  0.292751  1
  O  O26  1  0.253341  0.069632  0.952600  1
  O  O27  1  0.033673  0.576880  0.916209  1
  O  O28  1  0.253224  0.069686  0.453255  1
  O  O29  1  0.033868  0.576693  0.416468  1
  O  O30  1  0.581395  0.025167  0.825490  1
  O  O31  1  0.265245  0.653156  0.568743  1
  O  O32  1  0.581341  0.026221  0.326343  1
  O  O33  1  0.266025  0.652089  0.068193  1
  O  O34  1  0.347962  0.732076  0.817323  1
  O  O35  1  0.348913  0.732787  0.317954  1
  O  O36  1  0.641712  0.268180  0.693148  1
  O  O37  1  0.630517  0.273193  0.194017  1
  O  O38  1  0.726766  0.369454  0.943961  1
  O  O39  1  0.415243  0.974848  0.668010  1
  O  O40  1  0.726942  0.369257  0.444167  1
  O  O41  1  0.423385  0.966396  0.166423  1
  O  O42  1  0.970794  0.420634  0.577249  1
  O  O43  1  0.972711  0.419084  0.076306  1
  O  O44  1  0.743798  0.931983  0.543310  1
  O  O45  1  0.745384  0.931673  0.042588  1
  O  O46  1  0.927063  0.740269  0.701622  1
  O  O47  1  0.930859  0.747267  0.202934  1
