# generated using pymatgen
data_Dy2Sb2O7
_symmetry_space_group_name_H-M   'P 1'
_cell_length_a   7.53429845
_cell_length_b   7.53413894
_cell_length_c   18.54538004
_cell_angle_alpha   90.00773442
_cell_angle_beta   89.99293079
_cell_angle_gamma   119.99598900
_symmetry_Int_Tables_number   1
_chemical_formula_structural   Dy2Sb2O7
_chemical_formula_sum   'Dy12 Sb12 O42'
_cell_volume   911.71764595
_cell_formula_units_Z   6
loop_
 _symmetry_equiv_pos_site_id
 _symmetry_equiv_pos_as_xyz
  1  'x, y, z'
loop_
 _atom_site_type_symbol
 _atom_site_label
 _atom_site_symmetry_multiplicity
 _atom_site_fract_x
 _atom_site_fract_y
 _atom_site_fract_z
 _atom_site_occupancy
  Dy  Dy0  1  0.000196  0.823283  0.666751  1
  Dy  Dy1  1  0.999752  0.834051  0.166599  1
  Dy  Dy2  1  0.183430  0.683836  0.011394  1
  Dy  Dy3  1  0.177134  0.177173  0.999993  1
  Dy  Dy4  1  0.500579  0.816634  0.678159  1
  Dy  Dy5  1  0.165913  0.165805  0.499994  1
  Dy  Dy6  1  0.316320  0.499185  0.344696  1
  Dy  Dy7  1  0.499196  0.316337  0.655313  1
  Dy  Dy8  1  0.683817  0.183215  0.988657  1
  Dy  Dy9  1  0.816566  0.500567  0.321845  1
  Dy  Dy10  1  0.834072  0.999773  0.833394  1
  Dy  Dy11  1  0.823246  0.000154  0.333256  1
  Sb  Sb12  1  0.999515  0.325480  0.166588  1
  Sb  Sb13  1  0.998791  0.298194  0.666437  1
  Sb  Sb14  1  0.167207  0.669377  0.500968  1
  Sb  Sb15  1  0.501923  0.832669  0.167529  1
  Sb  Sb16  1  0.330955  0.497797  0.834360  1
  Sb  Sb17  1  0.298175  0.998767  0.333539  1
  Sb  Sb18  1  0.674604  0.674653  0.500015  1
  Sb  Sb19  1  0.325515  0.999666  0.833440  1
  Sb  Sb20  1  0.701494  0.701130  0.999928  1
  Sb  Sb21  1  0.497760  0.331003  0.165634  1
  Sb  Sb22  1  0.669400  0.167222  0.499043  1
  Sb  Sb23  1  0.832725  0.501993  0.832457  1
  O  O24  1  0.016639  0.851178  0.284889  1
  O  O25  1  0.990834  0.801326  0.804821  1
  O  O26  1  0.106527  0.656368  0.394092  1
  O  O27  1  0.051028  0.438002  0.805548  1
  O  O28  1  0.329044  0.994321  0.955753  1
  O  O29  1  0.231880  0.697579  0.605978  1
  O  O30  1  0.006290  0.334987  0.288858  1
  O  O31  1  0.202463  0.681077  0.140089  1
  O  O32  1  0.387084  0.949077  0.472123  1
  O  O33  1  0.464540  0.768200  0.272821  1
  O  O34  1  0.479272  0.797405  0.806562  1
  O  O35  1  0.344479  0.450637  0.727372  1
  O  O36  1  0.148058  0.164678  0.618172  1
  O  O37  1  0.318320  0.520980  0.473342  1
  O  O38  1  0.198320  0.190039  0.138621  1
  O  O39  1  0.164634  0.148028  0.381802  1
  O  O40  1  0.303245  0.534757  0.939189  1
  O  O41  1  0.190019  0.198396  0.861396  1
  O  O42  1  0.549800  0.893913  0.060966  1
  O  O43  1  0.562016  0.613020  0.138909  1
  O  O44  1  0.810292  0.008745  0.471909  1
  O  O45  1  0.665557  0.671307  0.622374  1
  O  O46  1  0.450633  0.344517  0.272648  1
  O  O47  1  0.613043  0.562020  0.861107  1
  O  O48  1  0.334952  0.006249  0.711081  1
  O  O49  1  0.835085  0.983491  0.951500  1
  O  O50  1  0.534730  0.303136  0.060835  1
  O  O51  1  0.671291  0.665540  0.377645  1
  O  O52  1  0.521043  0.318398  0.526647  1
  O  O53  1  0.437727  0.050891  0.194501  1
  O  O54  1  0.697616  0.231870  0.393997  1
  O  O55  1  0.681264  0.202539  0.859961  1
  O  O56  1  0.893752  0.550026  0.939108  1
  O  O57  1  0.983684  0.835080  0.048506  1
  O  O58  1  0.797318  0.479194  0.193456  1
  O  O59  1  0.008691  0.810252  0.528077  1
  O  O60  1  0.768181  0.464538  0.727209  1
  O  O61  1  0.656392  0.106543  0.605891  1
  O  O62  1  0.949008  0.387167  0.527894  1
  O  O63  1  0.801291  0.990769  0.195224  1
  O  O64  1  0.994425  0.329084  0.044157  1
  O  O65  1  0.851242  0.016713  0.715113  1
