# generated using pymatgen
data_Li4Mn2Fe3Te3O16
_symmetry_space_group_name_H-M   'P 1'
_cell_length_a   6.26048545
_cell_length_b   6.32524093
_cell_length_c   9.97393461
_cell_angle_alpha   87.19055999
_cell_angle_beta   90.48222136
_cell_angle_gamma   120.52623240
_symmetry_Int_Tables_number   1
_chemical_formula_structural   Li4Mn2Fe3Te3O16
_chemical_formula_sum   'Li4 Mn2 Fe3 Te3 O16'
_cell_volume   339.74479718
_cell_formula_units_Z   1
loop_
 _symmetry_equiv_pos_site_id
 _symmetry_equiv_pos_as_xyz
  1  'x, y, z'
loop_
 _atom_site_type_symbol
 _atom_site_label
 _atom_site_symmetry_multiplicity
 _atom_site_fract_x
 _atom_site_fract_y
 _atom_site_fract_z
 _atom_site_occupancy
  Li  Li0  1  0.306891  0.651302  0.878558  1
  Li  Li1  1  0.991994  0.015765  0.992771  1
  Li  Li2  1  0.992378  0.993359  0.505375  1
  Li  Li3  1  0.645373  0.335167  0.396900  1
  Mn  Mn4  1  0.366489  0.686836  0.511639  1
  Mn  Mn5  1  0.668193  0.303699  0.974794  1
  Fe  Fe6  1  0.676581  0.853952  0.213272  1
  Fe  Fe7  1  0.831424  0.661563  0.718907  1
  Fe  Fe8  1  0.833483  0.161763  0.714965  1
  Te  Te9  1  0.175462  0.848673  0.212937  1
  Te  Te10  1  0.182597  0.365574  0.219220  1
  Te  Te11  1  0.338072  0.159910  0.714355  1
  O  O12  1  0.173880  0.859654  0.608164  1
  O  O13  1  0.027994  0.524410  0.328340  1
  O  O14  1  0.323754  0.691695  0.104190  1
  O  O15  1  0.010063  0.975539  0.322522  1
  O  O16  1  0.022223  0.992490  0.815171  1
  O  O17  1  0.184479  0.312138  0.605605  1
  O  O18  1  0.457153  0.969921  0.328981  1
  O  O19  1  0.474593  0.522287  0.333569  1
  O  O20  1  0.337401  0.143133  0.089049  1
  O  O21  1  0.697647  0.836519  0.612200  1
  O  O22  1  0.500888  0.444021  0.839946  1
  O  O23  1  0.486505  0.012439  0.827612  1
  O  O24  1  0.648193  0.335060  0.606157  1
  O  O25  1  0.879687  0.713659  0.107383  1
  O  O26  1  0.941723  0.466482  0.840375  1
  O  O27  1  0.824882  0.163289  0.084883  1
