# generated using pymatgen
data_Li4V3P8O29
_symmetry_space_group_name_H-M   'P 1'
_cell_length_a   9.75828667
_cell_length_b   9.78779311
_cell_length_c   14.17003122
_cell_angle_alpha   90.10359223
_cell_angle_beta   90.18259440
_cell_angle_gamma   60.01095868
_symmetry_Int_Tables_number   1
_chemical_formula_structural   Li4V3P8O29
_chemical_formula_sum   'Li8 V6 P16 O58'
_cell_volume   1172.21026634
_cell_formula_units_Z   2
loop_
 _symmetry_equiv_pos_site_id
 _symmetry_equiv_pos_as_xyz
  1  'x, y, z'
loop_
 _atom_site_type_symbol
 _atom_site_label
 _atom_site_symmetry_multiplicity
 _atom_site_fract_x
 _atom_site_fract_y
 _atom_site_fract_z
 _atom_site_occupancy
  Li  Li0  1  0.764040  0.901952  0.558923  1
  Li  Li1  1  0.901055  0.334519  0.560873  1
  Li  Li2  1  0.774866  0.317398  0.055072  1
  Li  Li3  1  0.310290  0.916090  0.059628  1
  Li  Li4  1  0.328417  0.769228  0.560659  1
  Li  Li5  1  0.692300  0.084797  0.938587  1
  Li  Li6  1  0.227877  0.681233  0.940695  1
  Li  Li7  1  0.999292  0.006472  0.503516  1
  V  V8  1  0.565158  0.432376  0.255930  1
  V  V9  1  0.433867  0.567749  0.745563  1
  V  V10  1  0.566862  0.998070  0.749193  1
  V  V11  1  0.433555  0.005012  0.253099  1
  V  V12  1  0.999643  0.566250  0.247320  1
  V  V13  1  0.000581  0.433983  0.751579  1
  P  P14  1  0.916528  0.769335  0.842943  1
  P  P15  1  0.777788  0.911312  0.339414  1
  P  P16  1  0.916554  0.312482  0.344275  1
  P  P17  1  0.662092  0.666247  0.132072  1
  P  P18  1  0.669821  0.664846  0.628158  1
  P  P19  1  0.767877  0.321329  0.840493  1
  P  P20  1  0.691813  0.222806  0.659494  1
  P  P21  1  0.319853  0.911890  0.843395  1
  P  P22  1  0.682391  0.090892  0.157901  1
  P  P23  1  0.312682  0.776622  0.341777  1
  P  P24  1  0.229628  0.680979  0.160584  1
  P  P25  1  0.330123  0.335771  0.368700  1
  P  P26  1  0.335028  0.335713  0.868124  1
  P  P27  1  0.080616  0.692436  0.657487  1
  P  P28  1  0.221135  0.084844  0.661675  1
  P  P29  1  0.086120  0.226607  0.160833  1
  O  O30  1  0.991954  0.793291  0.575050  1
  O  O31  1  0.916149  0.740291  0.328876  1
  O  O32  1  0.753050  0.012431  0.067205  1
  O  O33  1  0.748145  0.915213  0.840667  1
  O  O34  1  0.905628  0.617804  0.821833  1
  O  O35  1  0.813863  0.658936  0.177978  1
  O  O36  1  0.916535  0.468470  0.328582  1
  O  O37  1  0.990694  0.231626  0.078418  1
  O  O38  1  0.914663  0.342010  0.833052  1
  O  O39  1  0.681144  0.809126  0.666231  1
  O  O40  1  0.618409  0.911798  0.325294  1
  O  O41  1  0.813904  0.509913  0.672704  1
  O  O42  1  0.664104  0.659983  0.027468  1
  O  O43  1  0.679111  0.652674  0.522947  1
  O  O44  1  0.659196  0.519328  0.175473  1
  O  O45  1  0.481057  0.900717  0.818928  1
  O  O46  1  0.515054  0.819368  0.172174  1
  O  O47  1  0.744176  0.343575  0.329965  1
  O  O48  1  0.786565  0.201495  0.758096  1
  O  O49  1  0.799834  0.205544  0.580289  1
  O  O50  1  0.756929  0.249388  0.931444  1
  O  O51  1  0.618011  0.481232  0.819904  1
  O  O52  1  0.512002  0.678677  0.666181  1
  O  O53  1  0.659552  0.259998  0.163386  1
  O  O54  1  0.470153  0.617997  0.328750  1
  O  O55  1  0.345327  0.915311  0.329867  1
  O  O56  1  0.793184  0.001982  0.248564  1
  O  O57  1  0.785802  0.984197  0.429924  1
  O  O58  1  0.200232  0.995653  0.582137  1
  O  O59  1  0.658784  0.082666  0.661698  1
  O  O60  1  0.536389  0.380243  0.667547  1
  O  O61  1  0.337614  0.745426  0.835114  1
  O  O62  1  0.482328  0.331695  0.325089  1
  O  O63  1  0.381386  0.522155  0.180184  1
  O  O64  1  0.241790  0.757616  0.072230  1
  O  O65  1  0.230112  0.789013  0.432161  1
  O  O66  1  0.205616  0.793083  0.250832  1
  O  O67  1  0.254573  0.658904  0.658743  1
  O  O68  1  0.485739  0.185320  0.829789  1
  O  O69  1  0.522890  0.097467  0.179701  1
  O  O70  1  0.331721  0.486629  0.827624  1
  O  O71  1  0.324589  0.339920  0.972665  1
  O  O72  1  0.334311  0.331351  0.472769  1
  O  O73  1  0.185594  0.481467  0.322578  1
  O  O74  1  0.379346  0.081509  0.668190  1
  O  O75  1  0.330912  0.185878  0.323773  1
  O  O76  1  0.085051  0.656732  0.164114  1
  O  O77  1  0.003017  0.791931  0.752287  1
  O  O78  1  0.008819  0.755901  0.928915  1
  O  O79  1  0.078677  0.536102  0.669585  1
  O  O80  1  0.185782  0.338279  0.818479  1
  O  O81  1  0.092287  0.380632  0.176219  1
  O  O82  1  0.257396  0.082869  0.160313  1
  O  O83  1  0.256802  0.987313  0.935708  1
  O  O84  1  0.200380  0.012563  0.759920  1
  O  O85  1  0.080536  0.259009  0.662452  1
  O  O86  1  0.981480  0.231567  0.435898  1
  O  O87  1  0.013587  0.199500  0.257761  1
