# generated using pymatgen
data_Ca4Zr3TaO12
_symmetry_space_group_name_H-M   'P 1'
_cell_length_a   5.79975151
_cell_length_b   8.06478303
_cell_length_c   5.62978957
_cell_angle_alpha   89.95538694
_cell_angle_beta   89.88705946
_cell_angle_gamma   90.45980238
_symmetry_Int_Tables_number   1
_chemical_formula_structural   Ca4Zr3TaO12
_chemical_formula_sum   'Ca4 Zr3 Ta1 O12'
_cell_volume   263.31722617
_cell_formula_units_Z   1
loop_
 _symmetry_equiv_pos_site_id
 _symmetry_equiv_pos_as_xyz
  1  'x, y, z'
loop_
 _atom_site_type_symbol
 _atom_site_label
 _atom_site_symmetry_multiplicity
 _atom_site_fract_x
 _atom_site_fract_y
 _atom_site_fract_z
 _atom_site_occupancy
  Ca  Ca0  1  0.052792  0.251914  0.987887  1
  Ca  Ca1  1  0.449304  0.748049  0.490051  1
  Ca  Ca2  1  0.550696  0.251951  0.509949  1
  Ca  Ca3  1  0.947208  0.748086  0.012113  1
  Zr  Zr4  1  0.000000  0.000000  0.500000  1
  Zr  Zr5  1  0.000000  0.500000  0.500000  1
  Zr  Zr6  1  0.500000  0.000000  0.000000  1
  Ta  Ta7  1  0.500000  0.500000  0.000000  1
  O  O8  1  0.038580  0.749024  0.607151  1
  O  O9  1  0.211880  0.553470  0.193317  1
  O  O10  1  0.196582  0.943624  0.192936  1
  O  O11  1  0.305020  0.057175  0.693467  1
  O  O12  1  0.303402  0.448568  0.707333  1
  O  O13  1  0.464393  0.257572  0.099577  1
  O  O14  1  0.535607  0.742428  0.900423  1
  O  O15  1  0.696598  0.551432  0.292667  1
  O  O16  1  0.694980  0.942825  0.306533  1
  O  O17  1  0.803418  0.056376  0.807064  1
  O  O18  1  0.788120  0.446530  0.806683  1
  O  O19  1  0.961420  0.250976  0.392849  1
