# generated using pymatgen
data_Li3V2(O2F)2
_symmetry_space_group_name_H-M   'P 1'
_cell_length_a   5.15235586
_cell_length_b   5.13273775
_cell_length_c   14.85375366
_cell_angle_alpha   90.69773641
_cell_angle_beta   90.34754038
_cell_angle_gamma   60.12588114
_symmetry_Int_Tables_number   1
_chemical_formula_structural   Li3V2(O2F)2
_chemical_formula_sum   'Li9 V6 O12 F6'
_cell_volume   340.59562184
_cell_formula_units_Z   3
loop_
 _symmetry_equiv_pos_site_id
 _symmetry_equiv_pos_as_xyz
  1  'x, y, z'
loop_
 _atom_site_type_symbol
 _atom_site_label
 _atom_site_symmetry_multiplicity
 _atom_site_fract_x
 _atom_site_fract_y
 _atom_site_fract_z
 _atom_site_occupancy
  Li  Li0  1  0.313978  0.009678  0.166667  1
  Li  Li1  1  0.333245  0.000043  0.666667  1
  Li  Li2  1  0.000000  0.666667  0.166667  1
  Li  Li3  1  0.334419  0.329104  0.026004  1
  Li  Li4  1  0.665581  0.004229  0.307330  1
  Li  Li5  1  0.666755  0.333290  0.666667  1
  Li  Li6  1  0.686022  0.323655  0.166667  1
  Li  Li7  1  0.334419  0.669810  0.307330  1
  Li  Li8  1  0.665581  0.663523  0.026004  1
  V  V9  1  1.000000  -0.000297  0.497885  1
  V  V10  1  0.000000  0.333630  0.835449  1
  V  V11  1  0.326826  0.336802  0.499363  1
  V  V12  1  0.673174  0.996531  0.833970  1
  V  V13  1  0.326826  0.669705  0.833970  1
  V  V14  1  0.673174  0.663628  0.499363  1
  O  O15  1  0.000000  0.021050  0.760146  1
  O  O16  1  0.335290  0.991905  0.431654  1
  O  O17  1  0.335290  0.006138  0.901680  1
  O  O18  1  1.000000  0.312284  0.573187  1
  O  O19  1  0.000000  0.687046  0.430166  1
  O  O20  1  1.000000  0.646288  0.903168  1
  O  O21  1  0.341021  0.319925  0.761070  1
  O  O22  1  0.658979  0.013408  0.572263  1
  O  O23  1  0.664710  0.341428  0.901680  1
  O  O24  1  0.664710  0.327196  0.431654  1
  O  O25  1  0.341021  0.672387  0.572263  1
  O  O26  1  0.658979  0.660947  0.761070  1
  F  F27  1  0.000000  0.979577  0.243203  1
  F  F28  1  1.000000  0.353756  0.090131  1
  F  F29  1  0.356594  0.335330  0.246291  1
  F  F30  1  0.643406  0.998004  0.087042  1
  F  F31  1  0.356594  0.641410  0.087042  1
  F  F32  1  0.643406  0.691923  0.246291  1
