# generated using pymatgen
data_Ti2P4H9C2NO16
_symmetry_space_group_name_H-M   'P 1'
_cell_length_a   10.91397486
_cell_length_b   6.45316203
_cell_length_c   20.87137268
_cell_angle_alpha   90.00000000
_cell_angle_beta   104.22774438
_cell_angle_gamma   90.00000000
_symmetry_Int_Tables_number   1
_chemical_formula_structural   Ti2P4H9C2NO16
_chemical_formula_sum   'Ti8 P16 H36 C8 N4 O64'
_cell_volume   1424.87443972
_cell_formula_units_Z   4
loop_
 _symmetry_equiv_pos_site_id
 _symmetry_equiv_pos_as_xyz
  1  'x, y, z'
loop_
 _atom_site_type_symbol
 _atom_site_label
 _atom_site_symmetry_multiplicity
 _atom_site_fract_x
 _atom_site_fract_y
 _atom_site_fract_z
 _atom_site_occupancy
  Ti  Ti0  1  0.607393  0.537541  0.300656  1
  Ti  Ti1  1  0.107393  0.962459  0.800656  1
  Ti  Ti2  1  0.392607  0.462459  0.699344  1
  Ti  Ti3  1  0.892607  0.037541  0.199344  1
  Ti  Ti4  1  0.400441  0.039854  0.106921  1
  Ti  Ti5  1  0.900441  0.460146  0.606921  1
  Ti  Ti6  1  0.599559  0.960146  0.893079  1
  Ti  Ti7  1  0.099559  0.539854  0.393079  1
  P  P8  1  0.333103  0.684423  0.327978  1
  P  P9  1  0.833103  0.815577  0.827978  1
  P  P10  1  0.666897  0.315577  0.672022  1
  P  P11  1  0.166897  0.184423  0.172022  1
  P  P12  1  0.616442  0.037516  0.256258  1
  P  P13  1  0.116442  0.462484  0.756258  1
  P  P14  1  0.383558  0.962484  0.743742  1
  P  P15  1  0.883558  0.537516  0.243742  1
  P  P16  1  0.470680  0.546484  0.134667  1
  P  P17  1  0.970680  0.953516  0.634667  1
  P  P18  1  0.529320  0.453516  0.865333  1
  P  P19  1  0.029320  0.046484  0.365333  1
  P  P20  1  0.678575  0.074522  0.053514  1
  P  P21  1  0.178575  0.425478  0.553514  1
  P  P22  1  0.321425  0.925478  0.946486  1
  P  P23  1  0.821425  0.574522  0.446486  1
  H  H24  1  0.174182  0.748847  0.241178  1
  H  H25  1  0.674182  0.751153  0.741178  1
  H  H26  1  0.825818  0.251153  0.758822  1
  H  H27  1  0.325818  0.248847  0.258822  1
  H  H28  1  0.647627  0.704450  0.128390  1
  H  H29  1  0.147627  0.795550  0.628390  1
  H  H30  1  0.352373  0.295550  0.871610  1
  H  H31  1  0.852373  0.204450  0.371610  1
  H  H32  1  0.649593  0.412776  0.067647  1
  H  H33  1  0.149593  0.087224  0.567647  1
  H  H34  1  0.350407  0.587224  0.932353  1
  H  H35  1  0.850407  0.912776  0.432353  1
  H  H36  1  0.351518  0.967163  0.426444  1
  H  H37  1  0.851518  0.532837  0.926444  1
  H  H38  1  0.648482  0.032837  0.573556  1
  H  H39  1  0.148482  0.467163  0.073556  1
  H  H40  1  0.282079  0.093319  0.481174  1
  H  H41  1  0.782079  0.406681  0.981174  1
  H  H42  1  0.717921  0.906681  0.518826  1
  H  H43  1  0.217921  0.593319  0.018826  1
  H  H44  1  0.420886  0.310277  0.434983  1
  H  H45  1  0.920886  0.189723  0.934983  1
  H  H46  1  0.579114  0.689723  0.565017  1
  H  H47  1  0.079114  0.810277  0.065017  1
  H  H48  1  0.467007  0.291395  0.523405  1
  H  H49  1  0.967007  0.208605  0.023405  1
  H  H50  1  0.532993  0.708605  0.476595  1
  H  H51  1  0.032993  0.791395  0.976595  1
  H  H52  1  0.424220  0.958208  0.576300  1
  H  H53  1  0.924220  0.541792  0.076300  1
  H  H54  1  0.575780  0.041792  0.423700  1
  H  H55  1  0.075780  0.458208  0.923700  1
  H  H56  1  0.344905  0.757014  0.523824  1
  H  H57  1  0.844905  0.742986  0.023824  1
  H  H58  1  0.655095  0.242986  0.476176  1
  H  H59  1  0.155095  0.257014  0.976176  1
  C  C60  1  0.458906  0.207361  0.476876  1
  C  C61  1  0.958906  0.292639  0.976876  1
  C  C62  1  0.541094  0.792639  0.523124  1
  C  C63  1  0.041094  0.707361  0.023124  1
  C  C64  1  0.414956  0.880669  0.528533  1
  C  C65  1  0.914956  0.619331  0.028533  1
  C  C66  1  0.585044  0.119331  0.471467  1
  C  C67  1  0.085044  0.380669  0.971467  1
  N  N68  1  0.366818  0.035198  0.474857  1
  N  N69  1  0.866819  0.464802  0.974857  1
  N  N70  1  0.633181  0.964802  0.525143  1
  N  N71  1  0.133182  0.535198  0.025143  1
  O  O72  1  0.613318  0.229096  0.300185  1
  O  O73  1  0.113318  0.270904  0.800185  1
  O  O74  1  0.386682  0.770904  0.699815  1
  O  O75  1  0.886682  0.729096  0.199815  1
  O  O76  1  0.699047  0.525678  0.393728  1
  O  O77  1  0.199047  0.974322  0.893728  1
  O  O78  1  0.300953  0.474322  0.606272  1
  O  O79  1  0.800953  0.025678  0.106272  1
  O  O80  1  0.612391  0.840528  0.297882  1
  O  O81  1  0.112391  0.659472  0.797882  1
  O  O82  1  0.387609  0.159472  0.702118  1
  O  O83  1  0.887609  0.340528  0.202118  1
  O  O84  1  0.502529  0.530000  0.209467  1
  O  O85  1  0.002529  0.970000  0.709467  1
  O  O86  1  0.497471  0.470000  0.790533  1
  O  O87  1  0.997471  0.030000  0.290533  1
  O  O88  1  0.763898  0.536290  0.270490  1
  O  O89  1  0.263898  0.963710  0.770490  1
  O  O90  1  0.236102  0.463710  0.729510  1
  O  O91  1  0.736102  0.036290  0.229510  1
  O  O92  1  0.448361  0.543860  0.327657  1
  O  O93  1  0.948361  0.956140  0.827657  1
  O  O94  1  0.551639  0.456140  0.672343  1
  O  O95  1  0.051639  0.043860  0.172343  1
  O  O96  1  0.498011  0.042182  0.196863  1
  O  O97  1  0.998011  0.457818  0.696863  1
  O  O98  1  0.501989  0.957818  0.803137  1
  O  O99  1  0.001989  0.542182  0.303137  1
  O  O100  1  0.413787  0.349029  0.099613  1
  O  O101  1  0.913787  0.150971  0.599613  1
  O  O102  1  0.586213  0.650971  0.900387  1
  O  O103  1  0.086213  0.849029  0.400387  1
  O  O104  1  0.313489  0.034502  0.010748  1
  O  O105  1  0.813489  0.465498  0.510748  1
  O  O106  1  0.686511  0.965498  0.989252  1
  O  O107  1  0.186511  0.534502  0.489252  1
  O  O108  1  0.387372  0.734473  0.108970  1
  O  O109  1  0.887372  0.765527  0.608970  1
  O  O110  1  0.612628  0.265527  0.891030  1
  O  O111  1  0.112628  0.234473  0.391030  1
  O  O112  1  0.245528  0.065087  0.129595  1
  O  O113  1  0.745528  0.434913  0.629595  1
  O  O114  1  0.754472  0.934913  0.870405  1
  O  O115  1  0.254472  0.565087  0.370405  1
  O  O116  1  0.564044  0.011452  0.078886  1
  O  O117  1  0.064045  0.488548  0.578886  1
  O  O118  1  0.435955  0.988548  0.921114  1
  O  O119  1  0.935956  0.511452  0.421114  1
  O  O120  1  0.254607  0.674682  0.253255  1
  O  O121  1  0.754607  0.825318  0.753255  1
  O  O122  1  0.745393  0.325318  0.746745  1
  O  O123  1  0.245393  0.174682  0.246745  1
  O  O124  1  0.365553  0.896997  0.356294  1
  O  O125  1  0.865553  0.603003  0.856294  1
  O  O126  1  0.634447  0.103003  0.643706  1
  O  O127  1  0.134447  0.396997  0.143706  1
  O  O128  1  0.602917  0.574342  0.113267  1
  O  O129  1  0.102917  0.925658  0.613267  1
  O  O130  1  0.397083  0.425658  0.886733  1
  O  O131  1  0.897083  0.074342  0.386733  1
  O  O132  1  0.675620  0.313829  0.036167  1
  O  O133  1  0.175620  0.186171  0.536167  1
  O  O134  1  0.324380  0.686171  0.963833  1
  O  O135  1  0.824380  0.813829  0.463833  1
