# generated using pymatgen
data_Li3Nb(NiO2)4
_symmetry_space_group_name_H-M   'P 1'
_cell_length_a   10.39230822
_cell_length_b   10.39230860
_cell_length_c   14.65072338
_cell_angle_alpha   19.50113058
_cell_angle_beta   19.50112797
_cell_angle_gamma   33.71970305
_symmetry_Int_Tables_number   1
_chemical_formula_structural   Li3Nb(NiO2)4
_chemical_formula_sum   'Li3 Nb1 Ni4 O8'
_cell_volume   151.70758344
_cell_formula_units_Z   1
loop_
 _symmetry_equiv_pos_site_id
 _symmetry_equiv_pos_as_xyz
  1  'x, y, z'
loop_
 _atom_site_type_symbol
 _atom_site_label
 _atom_site_symmetry_multiplicity
 _atom_site_fract_x
 _atom_site_fract_y
 _atom_site_fract_z
 _atom_site_occupancy
  Li  Li0  1  0.000000  0.500000  0.500000  1
  Li  Li1  1  0.500000  0.000000  0.500000  1
  Li  Li2  1  0.500000  0.500000  0.500000  1
  Nb  Nb3  1  0.500000  0.500000  0.000000  1
  Ni  Ni4  1  0.000000  0.000000  0.000000  1
  Ni  Ni5  1  0.000000  0.500000  0.000000  1
  Ni  Ni6  1  0.500000  0.000000  0.000000  1
  Ni  Ni7  1  0.000000  0.000000  0.500000  1
  O  O8  1  0.980566  0.980566  0.279703  1
  O  O9  1  0.022181  0.502829  0.236029  1
  O  O10  1  0.502829  0.022181  0.236029  1
  O  O11  1  0.019434  0.019434  0.720297  1
  O  O12  1  0.516266  0.516266  0.233811  1
  O  O13  1  0.977819  0.497171  0.763971  1
  O  O14  1  0.497171  0.977819  0.763971  1
  O  O15  1  0.483734  0.483734  0.766189  1
