# generated using pymatgen
data_Li2AlFeO4
_symmetry_space_group_name_H-M   'P 1'
_cell_length_a   6.43021032
_cell_length_b   5.47084956
_cell_length_c   5.03826055
_cell_angle_alpha   90.02048874
_cell_angle_beta   90.04324778
_cell_angle_gamma   90.00508368
_symmetry_Int_Tables_number   1
_chemical_formula_structural   Li2AlFeO4
_chemical_formula_sum   'Li4 Al2 Fe2 O8'
_cell_volume   177.23946096
_cell_formula_units_Z   2
loop_
 _symmetry_equiv_pos_site_id
 _symmetry_equiv_pos_as_xyz
  1  'x, y, z'
loop_
 _atom_site_type_symbol
 _atom_site_label
 _atom_site_symmetry_multiplicity
 _atom_site_fract_x
 _atom_site_fract_y
 _atom_site_fract_z
 _atom_site_occupancy
  Li  Li0  1  0.250578  0.329368  0.496805  1
  Li  Li1  1  0.497716  0.166181  0.997604  1
  Li  Li2  1  0.750564  0.671258  0.998265  1
  Li  Li3  1  0.997864  0.834424  0.498917  1
  Al  Al4  1  0.999822  0.169366  0.004037  1
  Al  Al5  1  0.499855  0.831210  0.504182  1
  Fe  Fe6  1  0.247033  0.669143  0.001486  1
  Fe  Fe7  1  0.747003  0.331311  0.501633  1
  O  O8  1  0.009760  0.857900  0.900743  1
  O  O9  1  0.225748  0.334352  0.898727  1
  O  O10  1  0.270796  0.684367  0.380345  1
  O  O11  1  0.488956  0.819531  0.858593  1
  O  O12  1  0.509860  0.142512  0.399920  1
  O  O13  1  0.725939  0.666192  0.399840  1
  O  O14  1  0.770672  0.316167  0.880485  1
  O  O15  1  0.988951  0.181223  0.358554  1
