# generated using pymatgen
data_Na5LiFe2P2(CO7)2
_symmetry_space_group_name_H-M   'P 1'
_cell_length_a   8.98842298
_cell_length_b   6.60255099
_cell_length_c   10.38355669
_cell_angle_alpha   90.19428956
_cell_angle_beta   89.02930007
_cell_angle_gamma   89.43764260
_symmetry_Int_Tables_number   1
_chemical_formula_structural   Na5LiFe2P2(CO7)2
_chemical_formula_sum   'Na10 Li2 Fe4 P4 C4 O28'
_cell_volume   616.10595314
_cell_formula_units_Z   2
loop_
 _symmetry_equiv_pos_site_id
 _symmetry_equiv_pos_as_xyz
  1  'x, y, z'
loop_
 _atom_site_type_symbol
 _atom_site_label
 _atom_site_symmetry_multiplicity
 _atom_site_fract_x
 _atom_site_fract_y
 _atom_site_fract_z
 _atom_site_occupancy
  Na  Na0  1  0.082439  0.246092  0.879464  1
  Na  Na1  1  0.083155  0.248608  0.380985  1
  Na  Na2  1  0.260029  0.498656  0.624278  1
  Na  Na3  1  0.260508  0.001065  0.124662  1
  Na  Na4  1  0.261063  0.499281  0.124243  1
  Na  Na5  1  0.739971  0.501344  0.875722  1
  Na  Na6  1  0.738937  0.500719  0.375757  1
  Na  Na7  1  0.739492  0.998935  0.375338  1
  Na  Na8  1  0.917561  0.753908  0.620536  1
  Na  Na9  1  0.916845  0.751392  0.119015  1
  Li  Li10  1  0.268290  0.004032  0.622588  1
  Li  Li11  1  0.731710  0.995969  0.877412  1
  Fe  Fe12  1  0.355588  0.750090  0.891178  1
  Fe  Fe13  1  0.355062  0.751938  0.393772  1
  Fe  Fe14  1  0.644412  0.249910  0.608822  1
  Fe  Fe15  1  0.644938  0.248062  0.106228  1
  P  P16  1  0.414743  0.243323  0.848279  1
  P  P17  1  0.413552  0.249881  0.351406  1
  P  P18  1  0.585257  0.756677  0.651721  1
  P  P19  1  0.586448  0.750119  0.148594  1
  C  C20  1  0.057341  0.757124  0.865441  1
  C  C21  1  0.060311  0.750711  0.366573  1
  C  C22  1  0.942659  0.242876  0.634559  1
  C  C23  1  0.939689  0.249289  0.133427  1
  O  O24  1  0.087228  0.234849  0.641440  1
  O  O25  1  0.083364  0.251586  0.141269  1
  O  O26  1  0.120981  0.750181  0.977025  1
  O  O27  1  0.123080  0.751882  0.478867  1
  O  O28  1  0.140286  0.755126  0.761379  1
  O  O29  1  0.143268  0.751840  0.262871  1
  O  O30  1  0.317949  0.061385  0.893564  1
  O  O31  1  0.324493  0.436858  0.890640  1
  O  O32  1  0.318563  0.064323  0.395268  1
  O  O33  1  0.318854  0.440080  0.392021  1
  O  O34  1  0.428307  0.238479  0.698155  1
  O  O35  1  0.428296  0.763917  0.592258  1
  O  O36  1  0.432956  0.247213  0.201917  1
  O  O37  1  0.432736  0.749966  0.085417  1
  O  O38  1  0.571704  0.236083  0.907742  1
  O  O39  1  0.571693  0.761521  0.801845  1
  O  O40  1  0.567264  0.250034  0.414583  1
  O  O41  1  0.567044  0.752787  0.298083  1
  O  O42  1  0.675507  0.563142  0.609360  1
  O  O43  1  0.682051  0.938615  0.606436  1
  O  O44  1  0.681146  0.559920  0.107979  1
  O  O45  1  0.681437  0.935677  0.104732  1
  O  O46  1  0.859714  0.244874  0.738621  1
  O  O47  1  0.856732  0.248160  0.237129  1
  O  O48  1  0.879019  0.249820  0.522975  1
  O  O49  1  0.876920  0.248118  0.021133  1
  O  O50  1  0.912772  0.765151  0.858560  1
  O  O51  1  0.916636  0.748414  0.358731  1
