# generated using pymatgen
data_Li3FeSiO5
_symmetry_space_group_name_H-M   'P 1'
_cell_length_a   6.28107558
_cell_length_b   5.75705765
_cell_length_c   5.13058413
_cell_angle_alpha   106.49179363
_cell_angle_beta   75.96890945
_cell_angle_gamma   103.75959435
_symmetry_Int_Tables_number   1
_chemical_formula_structural   Li3FeSiO5
_chemical_formula_sum   'Li6 Fe2 Si2 O10'
_cell_volume   169.71191600
_cell_formula_units_Z   2
loop_
 _symmetry_equiv_pos_site_id
 _symmetry_equiv_pos_as_xyz
  1  'x, y, z'
loop_
 _atom_site_type_symbol
 _atom_site_label
 _atom_site_symmetry_multiplicity
 _atom_site_fract_x
 _atom_site_fract_y
 _atom_site_fract_z
 _atom_site_occupancy
  Li  Li0  1  0.994511  0.755088  0.512602  1
  Li  Li1  1  0.398918  0.554333  0.297986  1
  Li  Li2  1  0.392413  0.049684  0.318947  1
  Li  Li3  1  0.607587  0.950316  0.681053  1
  Li  Li4  1  0.601082  0.445667  0.702014  1
  Li  Li5  1  0.005489  0.244912  0.487398  1
  Fe  Fe6  1  0.223020  0.654354  0.896488  1
  Fe  Fe7  1  0.776980  0.345646  0.103512  1
  Si  Si8  1  0.210505  0.151136  0.899384  1
  Si  Si9  1  0.789495  0.848864  0.100616  1
  O  O10  1  0.284081  0.880615  0.645475  1
  O  O11  1  0.281753  0.331275  0.646832  1
  O  O12  1  0.090796  0.953939  0.159422  1
  O  O13  1  0.474277  0.240173  0.999862  1
  O  O14  1  0.110474  0.420964  0.160856  1
  O  O15  1  0.889526  0.579036  0.839144  1
  O  O16  1  0.525723  0.759827  0.000138  1
  O  O17  1  0.909204  0.046061  0.840578  1
  O  O18  1  0.718247  0.668725  0.353168  1
  O  O19  1  0.715919  0.119385  0.354525  1
