# generated using pymatgen
data_Na2Te2H4O7
_symmetry_space_group_name_H-M   'P 1'
_cell_length_a   11.74848666
_cell_length_b   5.74123410
_cell_length_c   6.33385892
_cell_angle_alpha   103.01002589
_cell_angle_beta   93.77503991
_cell_angle_gamma   92.78968131
_symmetry_Int_Tables_number   1
_chemical_formula_structural   Na2Te2H4O7
_chemical_formula_sum   'Na4 Te4 H8 O14'
_cell_volume   414.46754040
_cell_formula_units_Z   2
loop_
 _symmetry_equiv_pos_site_id
 _symmetry_equiv_pos_as_xyz
  1  'x, y, z'
loop_
 _atom_site_type_symbol
 _atom_site_label
 _atom_site_symmetry_multiplicity
 _atom_site_fract_x
 _atom_site_fract_y
 _atom_site_fract_z
 _atom_site_occupancy
  Na  Na0  1  0.950301  0.393739  0.727348  1
  Na  Na1  1  0.049699  0.606261  0.272652  1
  Na  Na2  1  0.432808  0.894369  0.720088  1
  Na  Na3  1  0.567192  0.105631  0.279912  1
  Te  Te4  1  0.137325  0.959447  0.940649  1
  Te  Te5  1  0.862675  0.040553  0.059351  1
  Te  Te6  1  0.637323  0.544918  0.998397  1
  Te  Te7  1  0.362677  0.455082  0.001603  1
  H  H8  1  0.188551  0.410202  0.598636  1
  H  H9  1  0.811449  0.589798  0.401364  1
  H  H10  1  0.867470  0.797575  0.591813  1
  H  H11  1  0.132530  0.202425  0.408187  1
  H  H12  1  0.686418  0.948398  0.658103  1
  H  H13  1  0.313582  0.051602  0.341897  1
  H  H14  1  0.363524  0.268922  0.530606  1
  H  H15  1  0.636476  0.731078  0.469394  1
  O  O16  1  0.949381  0.765809  0.995673  1
  O  O17  1  0.050619  0.234191  0.004327  1
  O  O18  1  0.496917  0.272587  0.946482  1
  O  O19  1  0.503083  0.727413  0.053518  1
  O  O20  1  0.281004  0.119104  0.891046  1
  O  O21  1  0.718996  0.880896  0.108954  1
  O  O22  1  0.821026  0.072686  0.775812  1
  O  O23  1  0.178974  0.927314  0.224188  1
  O  O24  1  0.323146  0.527818  0.733294  1
  O  O25  1  0.676854  0.472182  0.266706  1
  O  O26  1  0.613677  0.873331  0.574100  1
  O  O27  1  0.386323  0.126669  0.425900  1
  O  O28  1  0.115782  0.356211  0.506512  1
  O  O29  1  0.884218  0.643789  0.493488  1
