# generated using pymatgen
data_Li5Cu(PO4)2
_symmetry_space_group_name_H-M   'P 1'
_cell_length_a   6.20241798
_cell_length_b   5.35645344
_cell_length_c   9.95536436
_cell_angle_alpha   89.82783920
_cell_angle_beta   90.00000000
_cell_angle_gamma   90.00000000
_symmetry_Int_Tables_number   1
_chemical_formula_structural   Li5Cu(PO4)2
_chemical_formula_sum   'Li10 Cu2 P4 O16'
_cell_volume   330.74521020
_cell_formula_units_Z   2
loop_
 _symmetry_equiv_pos_site_id
 _symmetry_equiv_pos_as_xyz
  1  'x, y, z'
loop_
 _atom_site_type_symbol
 _atom_site_label
 _atom_site_symmetry_multiplicity
 _atom_site_fract_x
 _atom_site_fract_y
 _atom_site_fract_z
 _atom_site_occupancy
  Li  Li0  1  0.999598  0.155075  0.745434  1
  Li  Li1  1  0.000402  0.155075  0.245434  1
  Li  Li2  1  0.248202  0.327199  0.995306  1
  Li  Li3  1  0.252894  0.672523  0.244691  1
  Li  Li4  1  0.252333  0.674382  0.745601  1
  Li  Li5  1  0.500794  0.844856  0.996046  1
  Li  Li6  1  0.499206  0.844856  0.496046  1
  Li  Li7  1  0.747106  0.672523  0.744691  1
  Li  Li8  1  0.747667  0.674382  0.245601  1
  Li  Li9  1  0.751798  0.327199  0.495306  1
  Cu  Cu10  1  0.241874  0.334769  0.498478  1
  Cu  Cu11  1  0.758126  0.334769  0.998478  1
  P  P12  1  0.004291  0.824793  0.999150  1
  P  P13  1  0.995709  0.824793  0.499150  1
  P  P14  1  0.501303  0.171486  0.249635  1
  P  P15  1  0.498697  0.171486  0.749635  1
  O  O16  1  -0.000020  0.820056  0.655493  1
  O  O17  1  0.984869  0.099063  0.446138  1
  O  O18  1  0.000020  0.820056  0.155493  1
  O  O19  1  0.015131  0.099063  0.946138  1
  O  O20  1  0.207191  0.703486  0.443059  1
  O  O21  1  0.207107  0.681585  0.947826  1
  O  O22  1  0.297026  0.310884  0.196996  1
  O  O23  1  0.290099  0.313650  0.704170  1
  O  O24  1  0.495134  0.168918  0.906073  1
  O  O25  1  0.498355  0.897274  0.697204  1
  O  O26  1  0.504866  0.168918  0.406073  1
  O  O27  1  0.501645  0.897274  0.197204  1
  O  O28  1  0.702974  0.310884  0.696996  1
  O  O29  1  0.709901  0.313650  0.204170  1
  O  O30  1  0.792893  0.681585  0.447826  1
  O  O31  1  0.792809  0.703486  0.943059  1
