# generated using pymatgen
data_LiCu5(PO4)2
_symmetry_space_group_name_H-M   'P 1'
_cell_length_a   6.22955523
_cell_length_b   5.61406299
_cell_length_c   10.36514377
_cell_angle_alpha   89.76445806
_cell_angle_beta   89.73170764
_cell_angle_gamma   88.93076325
_symmetry_Int_Tables_number   1
_chemical_formula_structural   LiCu5(PO4)2
_chemical_formula_sum   'Li2 Cu10 P4 O16'
_cell_volume   362.43134085
_cell_formula_units_Z   2
loop_
 _symmetry_equiv_pos_site_id
 _symmetry_equiv_pos_as_xyz
  1  'x, y, z'
loop_
 _atom_site_type_symbol
 _atom_site_label
 _atom_site_symmetry_multiplicity
 _atom_site_fract_x
 _atom_site_fract_y
 _atom_site_fract_z
 _atom_site_occupancy
  Li  Li0  1  0.002716  0.149985  0.745905  1
  Li  Li1  1  0.252355  0.327706  0.499028  1
  Cu  Cu2  1  0.992518  0.224516  0.244886  1
  Cu  Cu3  1  0.239193  0.343446  0.002181  1
  Cu  Cu4  1  0.256284  0.664258  0.251501  1
  Cu  Cu5  1  0.286841  0.647224  0.744676  1
  Cu  Cu6  1  0.499680  0.768733  0.988342  1
  Cu  Cu7  1  0.503308  0.764422  0.488018  1
  Cu  Cu8  1  0.704969  0.648052  0.735919  1
  Cu  Cu9  1  0.750737  0.650635  0.250521  1
  Cu  Cu10  1  0.740709  0.354767  0.494052  1
  Cu  Cu11  1  0.761375  0.346295  0.000684  1
  P  P12  1  0.997872  0.839736  0.997862  1
  P  P13  1  0.009057  0.843360  0.507507  1
  P  P14  1  0.494824  0.168160  0.254641  1
  P  P15  1  0.499614  0.179202  0.748616  1
  O  O16  1  0.002328  0.836440  0.656291  1
  O  O17  1  0.017512  0.103144  0.456422  1
  O  O18  1  0.997046  0.846917  0.147106  1
  O  O19  1  0.996751  0.091793  0.935890  1
  O  O20  1  0.204571  0.687514  0.457215  1
  O  O21  1  0.201500  0.699549  0.947155  1
  O  O22  1  0.290895  0.307544  0.203763  1
  O  O23  1  0.292836  0.302559  0.691306  1
  O  O24  1  0.494725  0.178260  0.897560  1
  O  O25  1  0.502442  0.920731  0.694849  1
  O  O26  1  0.496028  0.175465  0.403767  1
  O  O27  1  0.496530  0.912285  0.200722  1
  O  O28  1  0.713127  0.298914  0.699880  1
  O  O29  1  0.693586  0.302596  0.198950  1
  O  O30  1  0.807879  0.716000  0.450704  1
  O  O31  1  0.800193  0.699793  0.946672  1
