# generated using pymatgen
data_Li6MnV3(PO4)6
_symmetry_space_group_name_H-M   'P 1'
_cell_length_a   9.06761056
_cell_length_b   8.48538080
_cell_length_c   14.64649099
_cell_angle_alpha   90.46676896
_cell_angle_beta   73.97662762
_cell_angle_gamma   62.10339553
_symmetry_Int_Tables_number   1
_chemical_formula_structural   Li6MnV3(PO4)6
_chemical_formula_sum   'Li12 Mn2 V6 P12 O48'
_cell_volume   944.69446053
_cell_formula_units_Z   2
loop_
 _symmetry_equiv_pos_site_id
 _symmetry_equiv_pos_as_xyz
  1  'x, y, z'
loop_
 _atom_site_type_symbol
 _atom_site_label
 _atom_site_symmetry_multiplicity
 _atom_site_fract_x
 _atom_site_fract_y
 _atom_site_fract_z
 _atom_site_occupancy
  Li  Li0  1  0.150162  0.255235  0.331821  1
  Li  Li1  1  0.148959  0.796002  0.131382  1
  Li  Li2  1  0.151371  0.294232  0.631152  1
  Li  Li3  1  0.149957  0.724829  0.461016  1
  Li  Li4  1  0.150135  0.225963  0.961242  1
  Li  Li5  1  0.149409  0.755016  0.831992  1
  Li  Li6  1  0.849838  0.244765  0.168179  1
  Li  Li7  1  0.850043  0.775171  0.038984  1
  Li  Li8  1  0.849865  0.274037  0.538758  1
  Li  Li9  1  0.851041  0.703998  0.368618  1
  Li  Li10  1  0.848629  0.205768  0.868848  1
  Li  Li11  1  0.850591  0.744984  0.668008  1
  Mn  Mn12  1  0.560659  0.223302  0.072714  1
  Mn  Mn13  1  0.439341  0.276698  0.427286  1
  V  V14  1  0.046298  0.976021  0.326107  1
  V  V15  1  0.045151  0.478020  0.825743  1
  V  V16  1  0.565776  0.718163  0.571568  1
  V  V17  1  0.434224  0.781837  0.928432  1
  V  V18  1  0.953702  0.523979  0.173893  1
  V  V19  1  0.954849  0.021980  0.674257  1
  P  P20  1  0.250921  0.084832  0.125323  1
  P  P21  1  0.251222  0.018654  0.479196  1
  P  P22  1  0.249172  0.521972  0.269202  1
  P  P23  1  0.250219  0.020536  0.770102  1
  P  P24  1  0.252346  0.583725  0.623900  1
  P  P25  1  0.250141  0.521303  0.977971  1
  P  P26  1  0.748778  0.481346  0.020804  1
  P  P27  1  0.749079  0.415168  0.374677  1
  P  P28  1  0.750828  0.978028  0.230799  1
  P  P29  1  0.749781  0.479464  0.729898  1
  P  P30  1  0.749859  0.978697  0.522029  1
  P  P31  1  0.747654  0.916275  0.876100  1
  O  O32  1  0.098629  0.259220  0.104548  1
  O  O33  1  0.191234  0.067299  0.233234  1
  O  O34  1  0.096564  0.616147  0.077499  1
  O  O35  1  0.097320  0.115493  0.578136  1
  O  O36  1  0.098910  0.477250  0.266717  1
  O  O37  1  0.421733  0.090123  0.099224  1
  O  O38  1  0.263551  0.176790  0.431727  1
  O  O39  1  0.193755  0.719337  0.250974  1
  O  O40  1  0.194566  0.218015  0.753170  1
  O  O41  1  0.261351  0.503220  0.371437  1
  O  O42  1  0.423798  0.390628  0.192982  1
  O  O43  1  0.098236  0.757373  0.604458  1
  O  O44  1  0.265073  0.926500  0.062144  1
  O  O45  1  0.269764  0.423582  0.559774  1
  O  O46  1  0.576202  0.109372  0.307018  1
  O  O47  1  0.193932  0.565209  0.731329  1
  O  O48  1  0.193260  0.922958  0.416842  1
  O  O49  1  0.189766  0.426705  0.915865  1
  O  O50  1  0.738649  0.996780  0.128563  1
  O  O51  1  0.580210  0.614891  0.002915  1
  O  O52  1  0.580794  0.113228  0.506803  1
  O  O53  1  0.096910  0.978648  0.768821  1
  O  O54  1  0.736449  0.323210  0.068273  1
  O  O55  1  0.578267  0.409877  0.400776  1
  O  O56  1  0.420823  0.593217  0.598674  1
  O  O57  1  0.262463  0.679987  0.931459  1
  O  O58  1  0.901090  0.022750  0.233283  1
  O  O59  1  0.419790  0.885109  0.497085  1
  O  O60  1  0.419206  0.386772  0.993197  1
  O  O61  1  0.265510  0.998393  0.872594  1
  O  O62  1  0.806740  0.577042  0.083158  1
  O  O63  1  0.810234  0.073295  0.584135  1
  O  O64  1  0.808766  0.432701  0.266766  1
  O  O65  1  0.420459  0.890255  0.693593  1
  O  O66  1  0.734927  0.573500  0.437856  1
  O  O67  1  0.730236  0.076418  0.940226  1
  O  O68  1  0.901371  0.240780  0.395452  1
  O  O69  1  0.579541  0.609745  0.806407  1
  O  O70  1  0.734490  0.501607  0.627406  1
  O  O71  1  0.806245  0.780663  0.249026  1
  O  O72  1  0.805434  0.281985  0.746830  1
  O  O73  1  0.737537  0.820013  0.568541  1
  O  O74  1  0.579177  0.906783  0.901326  1
  O  O75  1  0.903090  0.521352  0.731179  1
  O  O76  1  0.903436  0.883853  0.422501  1
  O  O77  1  0.902680  0.384507  0.921864  1
  O  O78  1  0.806068  0.934791  0.768671  1
  O  O79  1  0.901764  0.742627  0.895542  1
