# generated using pymatgen
data_Bi17W3O34
_symmetry_space_group_name_H-M   'P 1'
_cell_length_a   10.27397675
_cell_length_b   10.41049012
_cell_length_c   10.62862857
_cell_angle_alpha   107.58475191
_cell_angle_beta   107.92314389
_cell_angle_gamma   113.20569268
_symmetry_Int_Tables_number   1
_chemical_formula_structural   Bi17W3O34
_chemical_formula_sum   'Bi17 W3 O34'
_cell_volume   869.85455747
_cell_formula_units_Z   1
loop_
 _symmetry_equiv_pos_site_id
 _symmetry_equiv_pos_as_xyz
  1  'x, y, z'
loop_
 _atom_site_type_symbol
 _atom_site_label
 _atom_site_symmetry_multiplicity
 _atom_site_fract_x
 _atom_site_fract_y
 _atom_site_fract_z
 _atom_site_occupancy
  Bi  Bi0  1  0.942069  0.026411  0.719696  1
  Bi  Bi1  1  0.662384  0.271039  0.189139  1
  Bi  Bi2  1  0.359501  0.367476  0.000872  1
  Bi  Bi3  1  0.822339  0.722905  0.319707  1
  Bi  Bi4  1  0.307483  0.199334  0.291429  1
  Bi  Bi5  1  0.503981  0.796943  0.077344  1
  Bi  Bi6  1  0.788848  0.565141  0.592138  1
  Bi  Bi7  1  0.231620  0.040747  0.579220  1
  Bi  Bi8  1  0.019628  0.345661  0.130856  1
  Bi  Bi9  1  0.486828  0.684489  0.425166  1
  Bi  Bi10  1  0.964871  0.168448  0.401432  1
  Bi  Bi11  1  0.728818  0.420192  0.912953  1
  Bi  Bi12  1  0.193433  0.779576  0.218719  1
  Bi  Bi13  1  0.396131  0.498690  0.666078  1
  Bi  Bi14  1  0.079235  0.472544  0.822224  1
  Bi  Bi15  1  0.556310  0.963841  0.798036  1
  Bi  Bi16  1  0.209198  0.900536  0.878780  1
  W  W17  1  0.650994  0.144515  0.496867  1
  W  W18  1  0.894487  0.879987  0.005695  1
  W  W19  1  0.119443  0.603645  0.515023  1
  O  O20  1  0.763382  0.232381  0.972423  1
  O  O21  1  0.502122  0.969669  0.980124  1
  O  O22  1  0.924390  0.346789  0.304485  1
  O  O23  1  0.684305  0.463669  0.116184  1
  O  O24  1  0.381975  0.231440  0.123984  1
  O  O25  1  0.894500  0.231514  0.576900  1
  O  O26  1  0.424043  0.063822  0.414626  1
  O  O27  1  0.657364  0.309968  0.411308  1
  O  O28  1  0.901677  0.596429  0.438196  1
  O  O29  1  0.452156  0.613613  0.195592  1
  O  O30  1  0.822447  0.870313  0.144061  1
  O  O31  1  0.729967  0.330698  0.679925  1
  O  O32  1  0.041705  0.125267  0.137497  1
  O  O33  1  0.984935  0.532881  0.034842  1
  O  O34  1  0.263292  0.745552  0.021002  1
  O  O35  1  0.985877  0.994098  0.517772  1
  O  O36  1  0.228905  0.227820  0.507489  1
  O  O37  1  0.424689  0.465046  0.441670  1
  O  O38  1  0.737286  0.737219  0.511199  1
  O  O39  1  0.633095  0.022148  0.305508  1
  O  O40  1  0.176091  0.608666  0.355872  1
  O  O41  1  0.201572  0.092771  0.795925  1
  O  O42  1  0.785083  0.653946  0.894789  1
  O  O43  1  0.966330  0.878202  0.835522  1
  O  O44  1  0.634943  0.002169  0.572356  1
  O  O45  1  0.105466  0.902570  0.109533  1
  O  O46  1  0.379513  0.697424  0.643240  1
  O  O47  1  0.145513  0.437176  0.552418  1
  O  O48  1  0.105462  0.299178  0.931900  1
  O  O49  1  0.325551  0.523295  0.854894  1
  O  O50  1  0.731055  0.900725  0.880478  1
  O  O51  1  0.071346  0.834145  0.348815  1
  O  O52  1  0.217553  0.836343  0.647548  1
  O  O53  1  0.048982  0.621106  0.700553  1
