# generated using pymatgen
data_Bi25O38
_symmetry_space_group_name_H-M   'P 1'
_cell_length_a   8.99094398
_cell_length_b   9.07999140
_cell_length_c   14.71381871
_cell_angle_alpha   90.53096291
_cell_angle_beta   90.02740081
_cell_angle_gamma   109.57575096
_symmetry_Int_Tables_number   1
_chemical_formula_structural   Bi25O38
_chemical_formula_sum   'Bi25 O38'
_cell_volume   1131.71516598
_cell_formula_units_Z   1
loop_
 _symmetry_equiv_pos_site_id
 _symmetry_equiv_pos_as_xyz
  1  'x, y, z'
loop_
 _atom_site_type_symbol
 _atom_site_label
 _atom_site_symmetry_multiplicity
 _atom_site_fract_x
 _atom_site_fract_y
 _atom_site_fract_z
 _atom_site_occupancy
  Bi  Bi0  1  0.438499  0.235768  0.083962  1
  Bi  Bi1  1  0.784347  0.623122  0.087457  1
  Bi  Bi2  1  0.469449  0.172231  0.336066  1
  Bi  Bi3  1  0.835525  0.511617  0.351294  1
  Bi  Bi4  1  0.999674  0.355186  0.155778  1
  Bi  Bi5  1  0.660349  0.967184  0.174945  1
  Bi  Bi6  1  0.927634  0.052917  0.765458  1
  Bi  Bi7  1  0.250508  0.771527  0.061955  1
  Bi  Bi8  1  0.415430  0.553280  0.242250  1
  Bi  Bi9  1  0.769890  0.259097  0.576072  1
  Bi  Bi10  1  0.919367  0.723727  0.588579  1
  Bi  Bi11  1  0.096511  0.266200  0.402098  1
  Bi  Bi12  1  0.259008  0.101318  0.596871  1
  Bi  Bi13  1  0.726076  0.917574  0.422598  1
  Bi  Bi14  1  0.499783  0.502684  0.503488  1
  Bi  Bi15  1  0.267504  0.757432  0.431771  1
  Bi  Bi16  1  0.763832  0.273964  0.920333  1
  Bi  Bi17  1  0.061471  0.909528  0.256301  1
  Bi  Bi18  1  0.557929  0.416196  0.745446  1
  Bi  Bi19  1  0.979958  0.681454  0.848342  1
  Bi  Bi20  1  0.329643  0.024901  0.851293  1
  Bi  Bi21  1  0.514160  0.860776  0.659481  1
  Bi  Bi22  1  0.162044  0.481749  0.674725  1
  Bi  Bi23  1  0.570925  0.751931  0.901625  1
  Bi  Bi24  1  0.208378  0.387546  0.919300  1
  O  O25  1  0.372224  0.002432  0.999838  1
  O  O26  1  0.955724  0.069469  0.306818  1
  O  O27  1  0.684850  0.285880  0.056216  1
  O  O28  1  0.941259  0.563926  0.178233  1
  O  O29  1  0.435540  0.076172  0.189116  1
  O  O30  1  0.568213  0.445686  0.183334  1
  O  O31  1  0.802110  0.179118  0.443480  1
  O  O32  1  0.992394  0.362083  0.000261  1
  O  O33  1  0.819650  0.816741  0.185371  1
  O  O34  1  0.241464  0.470568  0.129722  1
  O  O35  1  0.500897  0.758336  0.122224  1
  O  O36  1  0.987278  0.748154  0.366743  1
  O  O37  1  0.258015  0.996167  0.375187  1
  O  O38  1  0.311937  0.312245  0.311527  1
  O  O39  1  0.869312  0.504059  0.499376  1
  O  O40  1  0.002679  0.737710  0.001715  1
  O  O41  1  0.622612  0.618783  0.383645  1
  O  O42  1  0.489038  0.261674  0.496896  1
  O  O43  1  0.440128  0.069544  0.678854  1
  O  O44  1  0.575868  0.929789  0.312028  1
  O  O45  1  0.050146  0.433158  0.317365  1
  O  O46  1  0.942335  0.572814  0.690957  1
  O  O47  1  0.621853  0.615817  0.626089  1
  O  O48  1  0.261363  0.507584  0.495505  1
  O  O49  1  0.501199  0.867797  0.498759  1
  O  O50  1  0.320061  0.320857  0.682775  1
  O  O51  1  0.007045  0.269126  0.620554  1
  O  O52  1  0.747420  0.002854  0.629285  1
  O  O53  1  0.763089  0.501947  0.883400  1
  O  O54  1  0.495275  0.253442  0.872713  1
  O  O55  1  0.815768  0.812016  0.820351  1
  O  O56  1  0.182422  0.804825  0.558389  1
  O  O57  1  0.449548  0.563851  0.810724  1
  O  O58  1  0.133040  0.134710  0.868854  1
  O  O59  1  0.061697  0.421245  0.813691  1
  O  O60  1  0.556000  0.933946  0.818357  1
  O  O61  1  0.071894  0.950542  0.692678  1
  O  O62  1  0.302951  0.681827  0.937284  1
