# generated using pymatgen
data_Ga3NO3
_symmetry_space_group_name_H-M   'P 1'
_cell_length_a   8.31757770
_cell_length_b   8.31770936
_cell_length_c   3.14282452
_cell_angle_alpha   90.00000000
_cell_angle_beta   90.00000000
_cell_angle_gamma   120.00026946
_symmetry_Int_Tables_number   1
_chemical_formula_structural   Ga3NO3
_chemical_formula_sum   'Ga6 N2 O6'
_cell_volume   188.29994493
_cell_formula_units_Z   2
loop_
 _symmetry_equiv_pos_site_id
 _symmetry_equiv_pos_as_xyz
  1  'x, y, z'
loop_
 _atom_site_type_symbol
 _atom_site_label
 _atom_site_symmetry_multiplicity
 _atom_site_fract_x
 _atom_site_fract_y
 _atom_site_fract_z
 _atom_site_occupancy
  Ga  Ga0  1  0.174877  0.761490  0.250000  1
  Ga  Ga1  1  0.238508  0.413399  0.250000  1
  Ga  Ga2  1  0.586603  0.825120  0.250000  1
  Ga  Ga3  1  0.413388  0.174882  0.750000  1
  Ga  Ga4  1  0.761471  0.586594  0.750000  1
  Ga  Ga5  1  0.825110  0.238517  0.750000  1
  N  N6  1  0.333329  0.666672  0.250000  1
  N  N7  1  0.666656  0.333327  0.750000  1
  O  O8  1  0.026492  0.707428  0.750000  1
  O  O9  1  0.292564  0.319073  0.750000  1
  O  O10  1  0.680931  0.973501  0.750000  1
  O  O11  1  0.319054  0.026504  0.250000  1
  O  O12  1  0.707428  0.680928  0.250000  1
  O  O13  1  0.973489  0.292564  0.250000  1
