# generated using pymatgen
data_Li4V5Sb3O16
_symmetry_space_group_name_H-M   'P 1'
_cell_length_a   6.21876834
_cell_length_b   6.27596830
_cell_length_c   9.77938887
_cell_angle_alpha   90.88598106
_cell_angle_beta   89.13884159
_cell_angle_gamma   121.20016555
_symmetry_Int_Tables_number   1
_chemical_formula_structural   Li4V5Sb3O16
_chemical_formula_sum   'Li4 V5 Sb3 O16'
_cell_volume   326.42290359
_cell_formula_units_Z   1
loop_
 _symmetry_equiv_pos_site_id
 _symmetry_equiv_pos_as_xyz
  1  'x, y, z'
loop_
 _atom_site_type_symbol
 _atom_site_label
 _atom_site_symmetry_multiplicity
 _atom_site_fract_x
 _atom_site_fract_y
 _atom_site_fract_z
 _atom_site_occupancy
  Li  Li0  1  0.326161  0.659517  0.884331  1
  Li  Li1  1  0.981016  0.991536  0.992948  1
  Li  Li2  1  0.986763  0.998290  0.500935  1
  Li  Li3  1  0.663414  0.321372  0.400476  1
  V  V4  1  0.353677  0.673189  0.488807  1
  V  V5  1  0.675462  0.353414  0.980211  1
  V  V6  1  0.663812  0.830888  0.211912  1
  V  V7  1  0.832441  0.664827  0.712511  1
  V  V8  1  0.831627  0.168586  0.715256  1
  Sb  Sb9  1  0.171083  0.832262  0.213201  1
  Sb  Sb10  1  0.172118  0.340609  0.212546  1
  Sb  Sb11  1  0.339618  0.170285  0.714072  1
  O  O12  1  0.163373  0.846861  0.601591  1
  O  O13  1  0.044679  0.497676  0.352169  1
  O  O14  1  0.337816  0.645492  0.094215  1
  O  O15  1  0.998034  0.020732  0.316745  1
  O  O16  1  0.008733  0.007530  0.812685  1
  O  O17  1  0.167925  0.322261  0.605941  1
  O  O18  1  0.500696  0.950327  0.350882  1
  O  O19  1  0.483777  0.513429  0.331839  1
  O  O20  1  0.325013  0.184877  0.089852  1
  O  O21  1  0.676367  0.836222  0.609433  1
  O  O22  1  0.516722  0.479601  0.835474  1
  O  O23  1  0.512260  0.043862  0.840601  1
  O  O24  1  0.659524  0.326644  0.604180  1
  O  O25  1  0.814502  0.673045  0.092530  1
  O  O26  1  0.949922  0.481340  0.838298  1
  O  O27  1  0.843468  0.165626  0.104198  1
