# generated using pymatgen
data_Li6V3P8O29
_symmetry_space_group_name_H-M   'P 1'
_cell_length_a   9.79096535
_cell_length_b   9.80669468
_cell_length_c   13.99480741
_cell_angle_alpha   89.73293612
_cell_angle_beta   90.14272304
_cell_angle_gamma   59.99873032
_symmetry_Int_Tables_number   1
_chemical_formula_structural   Li6V3P8O29
_chemical_formula_sum   'Li12 V6 P16 O58'
_cell_volume   1163.66700510
_cell_formula_units_Z   2
loop_
 _symmetry_equiv_pos_site_id
 _symmetry_equiv_pos_as_xyz
  1  'x, y, z'
loop_
 _atom_site_type_symbol
 _atom_site_label
 _atom_site_symmetry_multiplicity
 _atom_site_fract_x
 _atom_site_fract_y
 _atom_site_fract_z
 _atom_site_occupancy
  Li  Li0  1  0.764492  0.904231  0.559598  1
  Li  Li1  1  0.672978  0.668115  0.888677  1
  Li  Li2  1  0.768966  0.320705  0.060977  1
  Li  Li3  1  0.326468  0.903368  0.061870  1
  Li  Li4  1  0.663354  0.239669  0.438682  1
  Li  Li5  1  0.332369  0.765370  0.563727  1
  Li  Li6  1  0.667942  0.096110  0.939728  1
  Li  Li7  1  0.098167  0.668312  0.438420  1
  Li  Li8  1  0.236989  0.103059  0.439854  1
  Li  Li9  1  0.101668  0.230111  0.938343  1
  Li  Li10  1  0.010250  0.926432  0.010795  1
  Li  Li11  1  0.985396  0.055993  0.507868  1
  V  V12  1  0.565009  0.436633  0.249708  1
  V  V13  1  0.432610  0.563300  0.752343  1
  V  V14  1  0.565531  0.000509  0.748437  1
  V  V15  1  0.432293  0.001836  0.249125  1
  V  V16  1  0.999239  0.566750  0.248873  1
  V  V17  1  0.997712  0.438345  0.747510  1
  P  P18  1  0.913447  0.778230  0.841402  1
  P  P19  1  0.772827  0.913209  0.340289  1
  P  P20  1  0.917439  0.305818  0.338686  1
  P  P21  1  0.665069  0.667237  0.130004  1
  P  P22  1  0.663565  0.669291  0.630175  1
  P  P23  1  0.775686  0.314279  0.840109  1
  P  P24  1  0.688174  0.227571  0.654792  1
  P  P25  1  0.318239  0.905835  0.843160  1
  P  P26  1  0.685693  0.088118  0.155670  1
  P  P27  1  0.316398  0.771755  0.346373  1
  P  P28  1  0.221416  0.692879  0.162653  1
  P  P29  1  0.334578  0.332218  0.369511  1
  P  P30  1  0.335033  0.329972  0.871056  1
  P  P31  1  0.082966  0.690109  0.655600  1
  P  P32  1  0.223090  0.088589  0.659800  1
  P  P33  1  0.084789  0.230577  0.153792  1
  O  O34  1  0.997718  0.773087  0.564299  1
  O  O35  1  0.917104  0.745760  0.341967  1
  O  O36  1  0.773479  0.012777  0.065590  1
  O  O37  1  0.739775  0.919718  0.840570  1
  O  O38  1  0.902665  0.625823  0.833270  1
  O  O39  1  0.805066  0.674435  0.176414  1
  O  O40  1  0.925034  0.458169  0.330772  1
  O  O41  1  0.002017  0.229566  0.062386  1
  O  O42  1  0.922837  0.332282  0.843120  1
  O  O43  1  0.675487  0.814162  0.669280  1
  O  O44  1  0.618192  0.909596  0.326633  1
  O  O45  1  0.808477  0.521064  0.678912  1
  O  O46  1  0.663563  0.666534  0.022117  1
  O  O47  1  0.663026  0.672062  0.523903  1
  O  O48  1  0.675912  0.510231  0.167461  1
  O  O49  1  0.482519  0.891229  0.828673  1
  O  O50  1  0.508417  0.811543  0.167539  1
  O  O51  1  0.744992  0.339473  0.341061  1
  O  O52  1  0.796422  0.208529  0.747646  1
  O  O53  1  0.778251  0.212914  0.564656  1
  O  O54  1  0.764966  0.231257  0.928451  1
  O  O55  1  0.628742  0.480981  0.827324  1
  O  O56  1  0.510083  0.677140  0.671505  1
  O  O57  1  0.660031  0.257950  0.161479  1
  O  O58  1  0.474029  0.619652  0.329871  1
  O  O59  1  0.337603  0.917996  0.342756  1
  O  O60  1  0.795883  0.997964  0.247611  1
  O  O61  1  0.770988  0.002528  0.428902  1
  O  O62  1  0.216956  0.004381  0.570127  1
  O  O63  1  0.663849  0.082783  0.660640  1
  O  O64  1  0.534151  0.383928  0.665347  1
  O  O65  1  0.339758  0.741065  0.842107  1
  O  O66  1  0.488955  0.322543  0.328333  1
  O  O67  1  0.380835  0.540103  0.169538  1
  O  O68  1  0.204895  0.799350  0.080526  1
  O  O69  1  0.234839  0.769530  0.437601  1
  O  O70  1  0.200391  0.792181  0.259510  1
  O  O71  1  0.249093  0.669886  0.658758  1
  O  O72  1  0.486606  0.183461  0.829754  1
  O  O73  1  0.530087  0.088501  0.168336  1
  O  O74  1  0.338305  0.475242  0.823285  1
  O  O75  1  0.338746  0.327174  0.977204  1
  O  O76  1  0.342777  0.320570  0.476380  1
  O  O77  1  0.189423  0.489178  0.333158  1
  O  O78  1  0.383166  0.082957  0.670450  1
  O  O79  1  0.321567  0.189485  0.326783  1
  O  O80  1  0.084215  0.658427  0.165949  1
  O  O81  1  0.986269  0.802180  0.743120  1
  O  O82  1  0.002963  0.788325  0.923355  1
  O  O83  1  0.090832  0.530956  0.670702  1
  O  O84  1  0.184870  0.330720  0.829635  1
  O  O85  1  0.092594  0.379505  0.169883  1
  O  O86  1  0.251985  0.082149  0.158745  1
  O  O87  1  0.235810  0.997499  0.931817  1
  O  O88  1  0.208149  0.997360  0.751793  1
  O  O89  1  0.085424  0.255533  0.662905  1
  O  O90  1  0.010936  0.197800  0.419957  1
  O  O91  1  0.988440  0.209635  0.240469  1
