# generated using pymatgen
data_SrCa2I6
_symmetry_space_group_name_H-M   'P 1'
_cell_length_a   7.96056049
_cell_length_b   7.96069653
_cell_length_c   7.33017121
_cell_angle_alpha   90.00109630
_cell_angle_beta   89.99780728
_cell_angle_gamma   119.99943477
_symmetry_Int_Tables_number   1
_chemical_formula_structural   SrCa2I6
_chemical_formula_sum   'Sr1 Ca2 I6'
_cell_volume   402.29250245
_cell_formula_units_Z   1
loop_
 _symmetry_equiv_pos_site_id
 _symmetry_equiv_pos_as_xyz
  1  'x, y, z'
loop_
 _atom_site_type_symbol
 _atom_site_label
 _atom_site_symmetry_multiplicity
 _atom_site_fract_x
 _atom_site_fract_y
 _atom_site_fract_z
 _atom_site_occupancy
  Sr  Sr0  1  0.999985  0.000000  0.999997  1
  Ca  Ca1  1  0.333315  0.666671  0.500000  1
  Ca  Ca2  1  0.666645  0.333330  0.500000  1
  I  I3  1  0.999985  0.653411  0.743467  1
  I  I4  1  0.999999  0.346602  0.256552  1
  I  I5  1  0.346574  0.346589  0.743467  1
  I  I6  1  0.653397  0.653398  0.256552  1
  I  I7  1  0.346602  0.000000  0.256538  1
  I  I8  1  0.653398  0.000000  0.743428  1
