# generated using pymatgen
data_Zr2N2O
_symmetry_space_group_name_H-M   'P 1'
_cell_length_a   5.58660896
_cell_length_b   10.38983924
_cell_length_c   5.58660930
_cell_angle_alpha   104.99104072
_cell_angle_beta   59.33592403
_cell_angle_gamma   89.72482422
_symmetry_Int_Tables_number   1
_chemical_formula_structural   Zr2N2O
_chemical_formula_sum   'Zr8 N8 O4'
_cell_volume   265.76149741
_cell_formula_units_Z   4
loop_
 _symmetry_equiv_pos_site_id
 _symmetry_equiv_pos_as_xyz
  1  'x, y, z'
loop_
 _atom_site_type_symbol
 _atom_site_label
 _atom_site_symmetry_multiplicity
 _atom_site_fract_x
 _atom_site_fract_y
 _atom_site_fract_z
 _atom_site_occupancy
  Zr  Zr0  1  0.415216  0.713211  0.146458  1
  Zr  Zr1  1  0.324785  0.037870  0.381510  1
  Zr  Zr2  1  0.167692  0.463314  0.667368  1
  Zr  Zr3  1  0.045946  0.786686  0.868994  1
  Zr  Zr4  1  0.906360  0.212130  0.137345  1
  Zr  Zr5  1  0.562927  0.287263  0.858869  1
  Zr  Zr6  1  0.678394  0.962737  0.649809  1
  Zr  Zr7  1  0.816752  0.536789  0.371573  1
  N  N8  1  0.135734  0.619520  0.035838  1
  N  N9  1  0.080699  0.874101  0.537331  1
  N  N10  1  0.624900  0.122265  0.042419  1
  N  N11  1  0.329847  0.127735  0.752835  1
  N  N12  1  0.673110  0.881460  0.250762  1
  N  N13  1  0.586769  0.375899  0.545201  1
  N  N14  1  0.833682  0.630480  0.744745  1
  N  N15  1  0.880698  0.368540  0.945430  1
  O  O16  1  0.184614  0.382654  0.253193  1
  O  O17  1  0.440550  0.625000  0.434450  1
  O  O18  1  0.379462  0.867346  0.932732  1
  O  O19  1  0.931862  0.125000  0.443138  1
