# generated using pymatgen
data_FePO4
_symmetry_space_group_name_H-M   'P 1'
_cell_length_a   7.49867168
_cell_length_b   8.65674825
_cell_length_c   5.36044903
_cell_angle_alpha   90.00000000
_cell_angle_beta   105.45164932
_cell_angle_gamma   90.00000000
_symmetry_Int_Tables_number   1
_chemical_formula_structural   FePO4
_chemical_formula_sum   'Fe4 P4 O16'
_cell_volume   335.39168030
_cell_formula_units_Z   4
loop_
 _symmetry_equiv_pos_site_id
 _symmetry_equiv_pos_as_xyz
  1  'x, y, z'
loop_
 _atom_site_type_symbol
 _atom_site_label
 _atom_site_symmetry_multiplicity
 _atom_site_fract_x
 _atom_site_fract_y
 _atom_site_fract_z
 _atom_site_occupancy
  Fe  Fe0  1  0.210426  0.531222  0.459065  1
  Fe  Fe1  1  0.289574  0.031222  0.040935  1
  Fe  Fe2  1  0.710426  0.968778  0.959065  1
  Fe  Fe3  1  0.789574  0.468778  0.540935  1
  P  P4  1  0.185177  0.688252  0.881441  1
  P  P5  1  0.314823  0.188252  0.618559  1
  P  P6  1  0.685177  0.811748  0.381441  1
  P  P7  1  0.814823  0.311748  0.118559  1
  O  O8  1  0.025178  0.597307  0.683035  1
  O  O9  1  0.162942  0.177979  0.766706  1
  O  O10  1  0.132198  0.856422  0.920336  1
  O  O11  1  0.262851  0.102602  0.359204  1
  O  O12  1  0.337058  0.677979  0.733294  1
  O  O13  1  0.237149  0.602602  0.140796  1
  O  O14  1  0.367802  0.356422  0.579664  1
  O  O15  1  0.474822  0.097307  0.816965  1
  O  O16  1  0.525178  0.902693  0.183035  1
  O  O17  1  0.632198  0.643578  0.420336  1
  O  O18  1  0.762851  0.397398  0.859204  1
  O  O19  1  0.662942  0.322021  0.266706  1
  O  O20  1  0.737149  0.897398  0.640796  1
  O  O21  1  0.867802  0.143578  0.079664  1
  O  O22  1  0.837058  0.822021  0.233294  1
  O  O23  1  0.974822  0.402693  0.316965  1
