# generated using pymatgen
data_Li4Ti3Mn2Fe3O16
_symmetry_space_group_name_H-M   'P 1'
_cell_length_a   5.96915187
_cell_length_b   5.90687327
_cell_length_c   9.59785045
_cell_angle_alpha   89.99835393
_cell_angle_beta   91.81717706
_cell_angle_gamma   119.65460768
_symmetry_Int_Tables_number   1
_chemical_formula_structural   Li4Ti3Mn2Fe3O16
_chemical_formula_sum   'Li4 Ti3 Mn2 Fe3 O16'
_cell_volume   293.89138126
_cell_formula_units_Z   1
loop_
 _symmetry_equiv_pos_site_id
 _symmetry_equiv_pos_as_xyz
  1  'x, y, z'
loop_
 _atom_site_type_symbol
 _atom_site_label
 _atom_site_symmetry_multiplicity
 _atom_site_fract_x
 _atom_site_fract_y
 _atom_site_fract_z
 _atom_site_occupancy
  Li  Li0  1  0.335568  0.667769  0.892574  1
  Li  Li1  1  0.976403  0.988240  0.988890  1
  Li  Li2  1  0.994973  0.997527  0.498291  1
  Li  Li3  1  0.668058  0.334032  0.399695  1
  Ti  Ti4  1  0.163051  0.831381  0.213827  1
  Ti  Ti5  1  0.163123  0.331712  0.213818  1
  Ti  Ti6  1  0.353904  0.176965  0.715937  1
  Mn  Mn7  1  0.338660  0.669346  0.486189  1
  Mn  Mn8  1  0.675347  0.337664  0.982903  1
  Fe  Fe9  1  0.654638  0.827360  0.214494  1
  Fe  Fe10  1  0.843714  0.662670  0.710151  1
  Fe  Fe11  1  0.843669  0.180996  0.710150  1
  O  O12  1  0.179028  0.837323  0.596088  1
  O  O13  1  0.042037  0.521038  0.341921  1
  O  O14  1  0.311404  0.655720  0.105951  1
  O  O15  1  -0.000101  -0.000029  0.312784  1
  O  O16  1  0.019329  0.009662  0.802483  1
  O  O17  1  0.179043  0.341727  0.596091  1
  O  O18  1  0.469619  0.954566  0.343983  1
  O  O19  1  0.469641  0.515099  0.343982  1
  O  O20  1  0.307638  0.153836  0.111318  1
  O  O21  1  0.666504  0.833267  0.595265  1
  O  O22  1  0.523613  0.478209  0.843819  1
  O  O23  1  0.523559  0.045398  0.843828  1
  O  O24  1  0.652547  0.326273  0.601599  1
  O  O25  1  0.832885  0.666868  0.103956  1
  O  O26  1  0.979251  0.489597  0.833895  1
  O  O27  1  0.832892  0.166081  0.103960  1
