# generated using pymatgen
data_VCu3(PO4)4
_symmetry_space_group_name_H-M   'P 1'
_cell_length_a   4.85388526
_cell_length_b   9.78967227
_cell_length_c   5.91198429
_cell_angle_alpha   90.00000000
_cell_angle_beta   90.00000000
_cell_angle_gamma   89.39078943
_symmetry_Int_Tables_number   1
_chemical_formula_structural   VCu3(PO4)4
_chemical_formula_sum   'V1 Cu3 P4 O16'
_cell_volume   280.90947036
_cell_formula_units_Z   1
loop_
 _symmetry_equiv_pos_site_id
 _symmetry_equiv_pos_as_xyz
  1  'x, y, z'
loop_
 _atom_site_type_symbol
 _atom_site_label
 _atom_site_symmetry_multiplicity
 _atom_site_fract_x
 _atom_site_fract_y
 _atom_site_fract_z
 _atom_site_occupancy
  V  V0  1  0.972445  0.277679  0.250000  1
  Cu  Cu1  1  0.038601  0.723899  0.750000  1
  Cu  Cu2  1  0.421243  0.215663  0.750000  1
  Cu  Cu3  1  0.567365  0.777872  0.250000  1
  P  P4  1  0.082629  0.602353  0.250000  1
  P  P5  1  0.405165  0.096005  0.250000  1
  P  P6  1  0.581759  0.903297  0.750000  1
  P  P7  1  0.932203  0.405786  0.750000  1
  O  O8  1  0.146025  0.438886  0.250000  1
  O  O9  1  0.229218  0.662441  0.042326  1
  O  O10  1  0.229218  0.662441  0.457674  1
  O  O11  1  0.245033  0.389226  0.750000  1
  O  O12  1  0.269375  0.886647  0.750000  1
  O  O13  1  0.242652  0.174251  0.055458  1
  O  O14  1  0.242652  0.174251  0.444542  1
  O  O15  1  0.352958  0.944562  0.250000  1
  O  O16  1  0.646391  0.057517  0.750000  1
  O  O17  1  0.737972  0.829947  0.548848  1
  O  O18  1  0.737972  0.829947  0.951152  1
  O  O19  1  0.711545  0.133273  0.250000  1
  O  O20  1  0.767990  0.608411  0.250000  1
  O  O21  1  0.805919  0.326804  0.536066  1
  O  O22  1  0.805919  0.326804  0.963934  1
  O  O23  1  0.827749  0.552040  0.750000  1
