# generated using pymatgen
data_CrSn3(PO4)6
_symmetry_space_group_name_H-M   'P 1'
_cell_length_a   8.95871198
_cell_length_b   8.95871212
_cell_length_c   8.95871235
_cell_angle_alpha   58.12721316
_cell_angle_beta   58.12721522
_cell_angle_gamma   58.12721581
_symmetry_Int_Tables_number   1
_chemical_formula_structural   CrSn3(PO4)6
_chemical_formula_sum   'Cr1 Sn3 P6 O24'
_cell_volume   486.59256861
_cell_formula_units_Z   1
loop_
 _symmetry_equiv_pos_site_id
 _symmetry_equiv_pos_as_xyz
  1  'x, y, z'
loop_
 _atom_site_type_symbol
 _atom_site_label
 _atom_site_symmetry_multiplicity
 _atom_site_fract_x
 _atom_site_fract_y
 _atom_site_fract_z
 _atom_site_occupancy
  Cr  Cr0  1  0.856622  0.856622  0.856622  1
  Sn  Sn1  1  0.143160  0.143160  0.143160  1
  Sn  Sn2  1  0.358164  0.358164  0.358164  1
  Sn  Sn3  1  0.643086  0.643086  0.643086  1
  P  P4  1  0.035528  0.749849  0.468020  1
  P  P5  1  0.468020  0.035528  0.749849  1
  P  P6  1  0.749849  0.468020  0.035528  1
  P  P7  1  0.244211  0.542714  0.960725  1
  P  P8  1  0.542714  0.960725  0.244211  1
  P  P9  1  0.960725  0.244211  0.542714  1
  O  O10  1  0.131036  0.263115  0.524346  1
  O  O11  1  0.263115  0.524346  0.131036  1
  O  O12  1  0.059847  0.920055  0.290816  1
  O  O13  1  0.524346  0.131036  0.263115  1
  O  O14  1  0.214406  0.577337  0.454630  1
  O  O15  1  0.993520  0.786861  0.643259  1
  O  O16  1  0.290816  0.059847  0.920055  1
  O  O17  1  0.454630  0.214406  0.577337  1
  O  O18  1  0.577337  0.454630  0.214406  1
  O  O19  1  0.216802  0.375453  0.986884  1
  O  O20  1  0.064387  0.721355  0.928801  1
  O  O21  1  0.375453  0.986884  0.216802  1
  O  O22  1  0.643259  0.993520  0.786861  1
  O  O23  1  0.920055  0.290816  0.059847  1
  O  O24  1  0.786861  0.643259  0.993520  1
  O  O25  1  0.409083  0.574756  0.779392  1
  O  O26  1  0.574756  0.779392  0.409083  1
  O  O27  1  0.721355  0.928801  0.064387  1
  O  O28  1  0.986884  0.216802  0.375453  1
  O  O29  1  0.779392  0.409083  0.574756  1
  O  O30  1  0.490026  0.870803  0.720951  1
  O  O31  1  0.928801  0.064387  0.721355  1
  O  O32  1  0.720951  0.490026  0.870803  1
  O  O33  1  0.870803  0.720951  0.490026  1
