# generated using pymatgen
data_Mn12O7F17
_symmetry_space_group_name_H-M   'P 1'
_cell_length_a   4.79785054
_cell_length_b   5.82774379
_cell_length_c   15.76528722
_cell_angle_alpha   90.16261177
_cell_angle_beta   90.52215526
_cell_angle_gamma   88.99904378
_symmetry_Int_Tables_number   1
_chemical_formula_structural   Mn12O7F17
_chemical_formula_sum   'Mn12 O7 F17'
_cell_volume   440.72042840
_cell_formula_units_Z   1
loop_
 _symmetry_equiv_pos_site_id
 _symmetry_equiv_pos_as_xyz
  1  'x, y, z'
loop_
 _atom_site_type_symbol
 _atom_site_label
 _atom_site_symmetry_multiplicity
 _atom_site_fract_x
 _atom_site_fract_y
 _atom_site_fract_z
 _atom_site_occupancy
  Mn  Mn0  1  0.025297  0.135205  0.413060  1
  Mn  Mn1  1  0.991097  0.838555  0.245515  1
  Mn  Mn2  1  0.000703  0.165725  0.073612  1
  Mn  Mn3  1  0.009637  0.153305  0.753847  1
  Mn  Mn4  1  0.034278  0.843197  0.580617  1
  Mn  Mn5  1  0.023560  0.852550  0.913985  1
  Mn  Mn6  1  0.503092  0.362241  0.585650  1
  Mn  Mn7  1  0.492385  0.332249  0.926729  1
  Mn  Mn8  1  0.490587  0.321604  0.253918  1
  Mn  Mn9  1  0.539430  0.638002  0.091122  1
  Mn  Mn10  1  0.483862  0.670931  0.417104  1
  Mn  Mn11  1  0.473750  0.675804  0.750034  1
  O  O12  1  0.204747  0.085977  0.303863  1
  O  O13  1  0.204712  0.121142  0.969783  1
  O  O14  1  0.226722  0.894209  0.473934  1
  O  O15  1  0.214796  0.888484  0.805632  1
  O  O16  1  0.287597  0.633467  0.639612  1
  O  O17  1  0.721429  0.379511  0.030912  1
  O  O18  1  0.727239  0.615053  0.197914  1
  F  F19  1  0.240749  0.132181  0.643831  1
  F  F20  1  0.236899  0.884290  0.133496  1
  F  F21  1  0.258230  0.381436  0.143501  1
  F  F22  1  0.242656  0.599045  0.306376  1
  F  F23  1  0.266880  0.392365  0.472242  1
  F  F24  1  0.266732  0.392607  0.815525  1
  F  F25  1  0.284545  0.623478  0.985370  1
  F  F26  1  0.734181  0.368548  0.366328  1
  F  F27  1  0.743846  0.613715  0.524673  1
  F  F28  1  0.720784  0.628301  0.860798  1
  F  F29  1  0.733946  0.394443  0.702985  1
  F  F30  1  0.772021  0.104596  0.181897  1
  F  F31  1  0.790195  0.118213  0.526032  1
  F  F32  1  0.747859  0.881428  0.353108  1
  F  F33  1  0.775933  0.872989  0.018355  1
  F  F34  1  0.745681  0.117930  0.855159  1
  F  F35  1  0.783945  0.887225  0.683479  1
