# generated using pymatgen
data_Li4CrBi(TeO6)2
_symmetry_space_group_name_H-M   'P 1'
_cell_length_a   5.48819165
_cell_length_b   5.22317848
_cell_length_c   7.58922919
_cell_angle_alpha   90.09768564
_cell_angle_beta   94.06721745
_cell_angle_gamma   90.13367374
_symmetry_Int_Tables_number   1
_chemical_formula_structural   Li4CrBi(TeO6)2
_chemical_formula_sum   'Li4 Cr1 Bi1 Te2 O12'
_cell_volume   217.00249148
_cell_formula_units_Z   1
loop_
 _symmetry_equiv_pos_site_id
 _symmetry_equiv_pos_as_xyz
  1  'x, y, z'
loop_
 _atom_site_type_symbol
 _atom_site_label
 _atom_site_symmetry_multiplicity
 _atom_site_fract_x
 _atom_site_fract_y
 _atom_site_fract_z
 _atom_site_occupancy
  Li  Li0  1  0.956382  0.490935  0.249656  1
  Li  Li1  1  0.943284  0.502111  0.807876  1
  Li  Li2  1  0.405122  0.006399  0.814056  1
  Li  Li3  1  0.412772  -0.000025  0.264032  1
  Cr  Cr4  1  0.990095  0.000897  0.001179  1
  Bi  Bi5  1  0.496158  0.498448  0.505722  1
  Te  Te6  1  0.995567  0.998932  0.500313  1
  Te  Te7  1  0.500493  0.500964  0.001565  1
  O  O8  1  0.810686  0.678733  0.049933  1
  O  O9  1  0.850631  0.325077  0.565001  1
  O  O10  1  0.690836  0.832433  0.416957  1
  O  O11  1  0.693167  0.212076  0.927956  1
  O  O12  1  0.533107  0.359535  0.242653  1
  O  O13  1  0.514902  0.648074  0.761928  1
  O  O14  1  0.318941  0.804141  0.052583  1
  O  O15  1  0.323227  0.145243  0.565123  1
  O  O16  1  0.172256  0.696183  0.413900  1
  O  O17  1  0.210179  0.304813  0.932850  1
  O  O18  1  0.030959  0.123695  0.260227  1
  O  O19  1  0.008838  0.871336  0.737691  1
