# generated using pymatgen
data_Ca9LaMn10O30
_symmetry_space_group_name_H-M   'P 1'
_cell_length_a   26.95879799
_cell_length_b   7.63641596
_cell_length_c   9.29811392
_cell_angle_alpha   65.85526423
_cell_angle_beta   54.55761735
_cell_angle_gamma   45.13397530
_symmetry_Int_Tables_number   1
_chemical_formula_structural   Ca9LaMn10O30
_chemical_formula_sum   'Ca18 La2 Mn20 O60'
_cell_volume   1105.30040528
_cell_formula_units_Z   2
loop_
 _symmetry_equiv_pos_site_id
 _symmetry_equiv_pos_as_xyz
  1  'x, y, z'
loop_
 _atom_site_type_symbol
 _atom_site_label
 _atom_site_symmetry_multiplicity
 _atom_site_fract_x
 _atom_site_fract_y
 _atom_site_fract_z
 _atom_site_occupancy
  Ca  Ca0  1  0.141598  0.033731  0.250888  1
  Ca  Ca1  1  0.056962  0.460918  0.747291  1
  Ca  Ca2  1  0.145034  0.535071  0.248938  1
  Ca  Ca3  1  0.339083  0.039494  0.253212  1
  Ca  Ca4  1  0.059065  0.964091  0.750161  1
  Ca  Ca5  1  0.255669  0.462699  0.748549  1
  Ca  Ca6  1  0.344611  0.535870  0.251108  1
  Ca  Ca7  1  0.541675  0.036514  0.248101  1
  Ca  Ca8  1  0.259455  0.963308  0.750534  1
  Ca  Ca9  1  0.455122  0.465909  0.749956  1
  Ca  Ca10  1  0.544534  0.535230  0.250297  1
  Ca  Ca11  1  0.740811  0.037904  0.247708  1
  Ca  Ca12  1  0.655165  0.461970  0.751324  1
  Ca  Ca13  1  0.744663  0.539431  0.249264  1
  Ca  Ca14  1  0.940077  0.038131  0.249985  1
  Ca  Ca15  1  0.659062  0.962302  0.750717  1
  Ca  Ca16  1  0.854548  0.463403  0.752920  1
  Ca  Ca17  1  0.859269  0.964119  0.748662  1
  La  La18  1  0.455403  0.977649  0.749857  1
  La  La19  1  0.945942  0.523108  0.250202  1
  Mn  Mn20  1  0.101455  0.995453  0.997414  1
  Mn  Mn21  1  0.101267  0.500166  0.997984  1
  Mn  Mn22  1  0.000844  0.499623  0.501471  1
  Mn  Mn23  1  0.298314  0.000210  0.003799  1
  Mn  Mn24  1  0.199682  0.500781  0.500284  1
  Mn  Mn25  1  0.298563  0.504650  0.003163  1
  Mn  Mn26  1  0.500916  0.999096  0.001915  1
  Mn  Mn27  1  0.199781  0.999603  0.501168  1
  Mn  Mn28  1  0.399419  0.504771  0.497581  1
  Mn  Mn29  1  0.500450  0.495987  0.001779  1
  Mn  Mn30  1  0.699961  0.000403  0.999961  1
  Mn  Mn31  1  0.399675  -0.000079  0.496141  1
  Mn  Mn32  1  0.601482  0.496140  0.496937  1
  Mn  Mn33  1  0.699920  0.499733  0.000637  1
  Mn  Mn34  1  0.899419  0.003581  0.997678  1
  Mn  Mn35  1  0.601741  0.999726  0.497513  1
  Mn  Mn36  1  0.798103  0.500102  0.504089  1
  Mn  Mn37  1  0.899552  0.500867  0.996077  1
  Mn  Mn38  1  0.798361  0.004178  0.502711  1
  Mn  Mn39  1  0.000706  0.995343  0.501924  1
  O  O40  1  0.082254  0.275830  0.038039  1
  O  O41  1  0.069132  0.481732  0.250229  1
  O  O42  1  0.007838  0.222116  0.959758  1
  O  O43  1  0.091075  0.218922  0.545556  1
  O  O44  1  0.004190  0.718488  0.543830  1
  O  O45  1  0.035592  0.993176  0.249935  1
  O  O46  1  0.163404  0.015998  0.749513  1
  O  O47  1  0.280932  0.276835  0.040695  1
  O  O48  1  0.195545  0.281920  0.456952  1
  O  O49  1  0.191588  0.779120  0.044646  1
  O  O50  1  0.109061  0.779807  0.455897  1
  O  O51  1  0.130129  0.519821  0.749825  1
  O  O52  1  0.269367  0.483530  0.250985  1
  O  O53  1  0.208526  0.220087  0.956647  1
  O  O54  1  0.291019  0.219021  0.542390  1
  O  O55  1  0.203852  0.718945  0.544060  1
  O  O56  1  0.122063  0.717694  0.956327  1
  O  O57  1  0.236847  0.982983  0.250855  1
  O  O58  1  0.360996  0.013045  0.750019  1
  O  O59  1  0.478816  0.280391  0.045215  1
  O  O60  1  0.397129  0.276379  0.459404  1
  O  O61  1  0.308982  0.780305  0.456260  1
  O  O62  1  0.391837  0.782123  0.041575  1
  O  O63  1  0.333065  0.506823  0.749972  1
  O  O64  1  0.469922  0.481870  0.249202  1
  O  O65  1  0.408037  0.224695  0.961830  1
  O  O66  1  0.492632  0.224984  0.537657  1
  O  O67  1  0.403494  0.719716  0.542609  1
  O  O68  1  0.320441  0.720284  0.957723  1
  O  O69  1  0.437352  0.980086  0.249799  1
  O  O70  1  0.561750  0.018518  0.750027  1
  O  O71  1  0.678117  0.282287  0.044034  1
  O  O72  1  0.596941  0.280923  0.454490  1
  O  O73  1  0.508826  0.781331  0.457757  1
  O  O74  1  0.591488  0.780991  0.044825  1
  O  O75  1  0.530428  0.518058  0.749530  1
  O  O76  1  0.671165  0.479343  0.249446  1
  O  O77  1  0.608401  0.218684  0.956394  1
  O  O78  1  0.690759  0.218064  0.545220  1
  O  O79  1  0.603457  0.721028  0.542829  1
  O  O80  1  0.520773  0.720728  0.956197  1
  O  O81  1  0.637961  0.981411  0.249282  1
  O  O82  1  0.762526  0.019038  0.750031  1
  O  O83  1  0.878315  0.281965  0.041713  1
  O  O84  1  0.795190  0.282076  0.457512  1
  O  O85  1  0.708586  0.783423  0.456942  1
  O  O86  1  0.791403  0.782921  0.041484  1
  O  O87  1  0.729329  0.518829  0.750797  1
  O  O88  1  0.866225  0.485100  0.250191  1
  O  O89  1  0.808633  0.217935  0.954780  1
  O  O90  1  0.891504  0.222842  0.540231  1
  O  O91  1  0.721123  0.719254  0.956529  1
  O  O92  1  0.805075  0.716745  0.541559  1
  O  O93  1  0.837490  0.982033  0.250120  1
  O  O94  1  0.962681  0.017080  0.750425  1
  O  O95  1  0.997567  0.275711  0.461756  1
  O  O96  1  0.991474  0.779894  0.043591  1
  O  O97  1  0.908896  0.779978  0.456698  1
  O  O98  1  0.929758  0.519316  0.749694  1
  O  O99  1  0.921685  0.716583  0.958611  1
