# generated using pymatgen
data_LiAgF2
_symmetry_space_group_name_H-M   'P 1'
_cell_length_a   3.18054857
_cell_length_b   5.10805288
_cell_length_c   6.74153585
_cell_angle_alpha   90.00000000
_cell_angle_beta   90.00000000
_cell_angle_gamma   89.92435269
_symmetry_Int_Tables_number   1
_chemical_formula_structural   LiAgF2
_chemical_formula_sum   'Li2 Ag2 F4'
_cell_volume   109.52566195
_cell_formula_units_Z   2
loop_
 _symmetry_equiv_pos_site_id
 _symmetry_equiv_pos_as_xyz
  1  'x, y, z'
loop_
 _atom_site_type_symbol
 _atom_site_label
 _atom_site_symmetry_multiplicity
 _atom_site_fract_x
 _atom_site_fract_y
 _atom_site_fract_z
 _atom_site_occupancy
  Li  Li0  1  0.432485  0.085308  0.334360  1
  Li  Li1  1  0.932484  0.585307  0.165639  1
  Ag  Ag2  1  0.441287  0.601069  0.615768  1
  Ag  Ag3  1  0.941287  0.101069  0.884232  1
  F  F4  1  0.432602  0.719872  0.282180  1
  F  F5  1  0.438490  0.114903  0.612609  1
  F  F6  1  0.932602  0.219872  0.217820  1
  F  F7  1  0.938490  0.614903  0.887391  1
