# generated using pymatgen
data_Co2P2H12O13
_symmetry_space_group_name_H-M   'P 1'
_cell_length_a   7.24528014
_cell_length_b   18.52900133
_cell_length_c   7.66783181
_cell_angle_alpha   90.00000000
_cell_angle_beta   92.35042229
_cell_angle_gamma   90.00000000
_symmetry_Int_Tables_number   1
_chemical_formula_structural   Co2P2H12O13
_chemical_formula_sum   'Co8 P8 H48 O52'
_cell_volume   1028.52355776
_cell_formula_units_Z   4
loop_
 _symmetry_equiv_pos_site_id
 _symmetry_equiv_pos_as_xyz
  1  'x, y, z'
loop_
 _atom_site_type_symbol
 _atom_site_label
 _atom_site_symmetry_multiplicity
 _atom_site_fract_x
 _atom_site_fract_y
 _atom_site_fract_z
 _atom_site_occupancy
  Co  Co0  1  0.000000  0.000000  0.000000  1
  Co  Co1  1  0.000000  0.500000  0.000000  1
  Co  Co2  1  0.199742  0.755637  0.524389  1
  Co  Co3  1  0.300258  0.255637  0.975611  1
  Co  Co4  1  0.500000  0.000000  0.500000  1
  Co  Co5  1  0.500000  0.500000  0.500000  1
  Co  Co6  1  0.699742  0.744363  0.024389  1
  Co  Co7  1  0.800258  0.244363  0.475611  1
  P  P8  1  0.166965  0.604082  0.318280  1
  P  P9  1  0.202327  0.597640  0.700802  1
  P  P10  1  0.297673  0.097640  0.799198  1
  P  P11  1  0.333035  0.104082  0.181720  1
  P  P12  1  0.666965  0.895918  0.818280  1
  P  P13  1  0.702327  0.902360  0.200802  1
  P  P14  1  0.797673  0.402360  0.299198  1
  P  P15  1  0.833035  0.395918  0.681720  1
  H  H16  1  0.995099  0.673395  0.927472  1
  H  H17  1  0.000458  0.835510  0.295705  1
  H  H18  1  0.042317  0.712192  0.106411  1
  H  H19  1  0.106371  0.853346  0.790149  1
  H  H20  1  0.151496  0.232814  0.347676  1
  H  H21  1  0.139668  0.889034  0.404336  1
  H  H22  1  0.159322  0.008726  0.379795  1
  H  H23  1  0.165565  0.267395  0.537790  1
  H  H24  1  0.163212  0.996967  0.589632  1
  H  H25  1  0.167949  0.428170  0.476875  1
  H  H26  1  0.194602  0.369164  0.776395  1
  H  H27  1  0.195870  0.886590  0.142382  1
  H  H28  1  0.305398  0.869164  0.723605  1
  H  H29  1  0.304130  0.386590  0.357618  1
  H  H30  1  0.336788  0.496967  0.910368  1
  H  H31  1  0.334435  0.767395  0.962210  1
  H  H32  1  0.332051  0.928170  0.023125  1
  H  H33  1  0.340678  0.508726  0.120205  1
  H  H34  1  0.360332  0.389034  0.095664  1
  H  H35  1  0.393629  0.353346  0.709851  1
  H  H36  1  0.348504  0.732814  0.152324  1
  H  H37  1  0.457683  0.212192  0.393589  1
  H  H38  1  0.504901  0.173396  0.572528  1
  H  H39  1  0.499542  0.335510  0.204295  1
  H  H40  1  0.500458  0.664490  0.795705  1
  H  H41  1  0.495099  0.826605  0.427472  1
  H  H42  1  0.542317  0.787808  0.606411  1
  H  H43  1  0.651496  0.267186  0.847676  1
  H  H44  1  0.606371  0.646654  0.290149  1
  H  H45  1  0.639668  0.610966  0.904336  1
  H  H46  1  0.659322  0.491274  0.879795  1
  H  H47  1  0.667949  0.071830  0.976875  1
  H  H48  1  0.665565  0.232605  0.037790  1
  H  H49  1  0.663212  0.503033  0.089632  1
  H  H50  1  0.695870  0.613410  0.642382  1
  H  H51  1  0.694602  0.130836  0.276395  1
  H  H52  1  0.804130  0.113410  0.857618  1
  H  H53  1  0.805398  0.630836  0.223605  1
  H  H54  1  0.832051  0.571830  0.523125  1
  H  H55  1  0.836788  0.003033  0.410368  1
  H  H56  1  0.834435  0.732605  0.462210  1
  H  H57  1  0.840678  0.991274  0.620205  1
  H  H58  1  0.860332  0.110966  0.595664  1
  H  H59  1  0.848504  0.767186  0.652324  1
  H  H60  1  0.893629  0.146654  0.209851  1
  H  H61  1  0.957683  0.287808  0.893589  1
  H  H62  1  0.999542  0.164490  0.704295  1
  H  H63  1  0.004901  0.326605  0.072528  1
  O  O64  1  0.008688  0.575200  0.200157  1
  O  O65  1  0.054801  0.590100  0.835799  1
  O  O66  1  0.023846  0.280532  0.007641  1
  O  O67  1  0.090006  0.587277  0.512337  1
  O  O68  1  0.082995  0.260305  0.434545  1
  O  O69  1  0.130704  0.841324  0.343744  1
  O  O70  1  0.151063  0.037941  0.786698  1
  O  O71  1  0.147211  0.065696  0.195726  1
  O  O72  1  0.184799  0.687030  0.301647  1
  O  O73  1  0.213109  0.830094  0.739339  1
  O  O74  1  0.203864  0.976134  0.476533  1
  O  O75  1  0.209833  0.173261  0.804855  1
  O  O76  1  0.200384  0.919719  0.041228  1
  O  O77  1  0.290167  0.673261  0.695145  1
  O  O78  1  0.286891  0.330094  0.760661  1
  O  O79  1  0.299616  0.419719  0.458772  1
  O  O80  1  0.296136  0.476134  0.023467  1
  O  O81  1  0.315201  0.187030  0.198353  1
  O  O82  1  0.348937  0.537941  0.713302  1
  O  O83  1  0.352789  0.565696  0.304274  1
  O  O84  1  0.409994  0.087277  0.987663  1
  O  O85  1  0.369296  0.341324  0.156256  1
  O  O86  1  0.417005  0.760305  0.065455  1
  O  O87  1  0.445199  0.090100  0.664201  1
  O  O88  1  0.476154  0.780532  0.492359  1
  O  O89  1  0.491312  0.075200  0.299843  1
  O  O90  1  0.508688  0.924800  0.700157  1
  O  O91  1  0.523846  0.219468  0.507641  1
  O  O92  1  0.554801  0.909900  0.335799  1
  O  O93  1  0.582995  0.239695  0.934545  1
  O  O94  1  0.630704  0.658676  0.843744  1
  O  O95  1  0.590006  0.912723  0.012337  1
  O  O96  1  0.647211  0.434304  0.695726  1
  O  O97  1  0.651063  0.462059  0.286698  1
  O  O98  1  0.684799  0.812970  0.801647  1
  O  O99  1  0.703864  0.523866  0.976533  1
  O  O100  1  0.700384  0.580281  0.541228  1
  O  O101  1  0.713109  0.669906  0.239339  1
  O  O102  1  0.709833  0.326739  0.304855  1
  O  O103  1  0.799616  0.080281  0.958772  1
  O  O104  1  0.790167  0.826739  0.195145  1
  O  O105  1  0.796136  0.023866  0.523467  1
  O  O106  1  0.786891  0.169906  0.260661  1
  O  O107  1  0.815201  0.312970  0.698353  1
  O  O108  1  0.852789  0.934304  0.804274  1
  O  O109  1  0.848937  0.962059  0.213302  1
  O  O110  1  0.869296  0.158676  0.656256  1
  O  O111  1  0.917005  0.739695  0.565455  1
  O  O112  1  0.909994  0.412723  0.487663  1
  O  O113  1  0.976154  0.719468  0.992359  1
  O  O114  1  0.945199  0.409900  0.164201  1
  O  O115  1  0.991312  0.424800  0.799843  1
