# generated using pymatgen
data_Cr5(Si2O7)2
_symmetry_space_group_name_H-M   'P 1'
_cell_length_a   7.39774063
_cell_length_b   7.88187566
_cell_length_c   5.67118529
_cell_angle_alpha   90.95609907
_cell_angle_beta   106.06973076
_cell_angle_gamma   112.10507350
_symmetry_Int_Tables_number   1
_chemical_formula_structural   Cr5(Si2O7)2
_chemical_formula_sum   'Cr5 Si4 O14'
_cell_volume   291.67351431
_cell_formula_units_Z   1
loop_
 _symmetry_equiv_pos_site_id
 _symmetry_equiv_pos_as_xyz
  1  'x, y, z'
loop_
 _atom_site_type_symbol
 _atom_site_label
 _atom_site_symmetry_multiplicity
 _atom_site_fract_x
 _atom_site_fract_y
 _atom_site_fract_z
 _atom_site_occupancy
  Cr  Cr0  1  0.000000  0.000000  0.000000  1
  Cr  Cr1  1  0.388294  0.811782  0.074515  1
  Cr  Cr2  1  0.581288  0.698407  0.644922  1
  Cr  Cr3  1  0.418712  0.301593  0.355078  1
  Cr  Cr4  1  0.611706  0.188218  0.925485  1
  Si  Si5  1  0.233412  0.864498  0.497391  1
  Si  Si6  1  0.209322  0.390295  0.777747  1
  Si  Si7  1  0.790678  0.609705  0.222253  1
  Si  Si8  1  0.766588  0.135502  0.502609  1
  O  O9  1  0.206653  0.581609  0.861416  1
  O  O10  1  0.349337  0.956688  0.784518  1
  O  O11  1  0.007945  0.261055  0.547605  1
  O  O12  1  0.356366  0.748753  0.413943  1
  O  O13  1  0.223015  0.262021  0.009211  1
  O  O14  1  0.405105  0.428504  0.660367  1
  O  O15  1  0.234981  0.028477  0.315336  1
  O  O16  1  0.765019  0.971523  0.684664  1
  O  O17  1  0.594895  0.571496  0.339633  1
  O  O18  1  0.776985  0.737979  0.990789  1
  O  O19  1  0.643634  0.251247  0.586057  1
  O  O20  1  0.992055  0.738945  0.452395  1
  O  O21  1  0.650663  0.043312  0.215482  1
  O  O22  1  0.793347  0.418391  0.138584  1
