# generated using pymatgen
data_LiMn3Al2(HO2)6
_symmetry_space_group_name_H-M   'P 1'
_cell_length_a   5.15912652
_cell_length_b   5.15909704
_cell_length_c   19.14171016
_cell_angle_alpha   92.66820277
_cell_angle_beta   92.66817369
_cell_angle_gamma   120.70494794
_symmetry_Int_Tables_number   1
_chemical_formula_structural   LiMn3Al2(HO2)6
_chemical_formula_sum   'Li2 Mn6 Al4 H12 O24'
_cell_volume   436.11445729
_cell_formula_units_Z   2
loop_
 _symmetry_equiv_pos_site_id
 _symmetry_equiv_pos_as_xyz
  1  'x, y, z'
loop_
 _atom_site_type_symbol
 _atom_site_label
 _atom_site_symmetry_multiplicity
 _atom_site_fract_x
 _atom_site_fract_y
 _atom_site_fract_z
 _atom_site_occupancy
  Li  Li0  1  0.583021  0.916489  0.750038  1
  Li  Li1  1  0.749828  0.749687  0.250036  1
  Mn  Mn2  1  0.170050  0.833971  0.500026  1
  Mn  Mn3  1  0.333443  0.666818  0.000035  1
  Mn  Mn4  1  0.500123  0.500093  0.500038  1
  Mn  Mn5  1  0.667311  0.336722  0.000025  1
  Mn  Mn6  1  0.830126  0.166055  0.500018  1
  Mn  Mn7  1  0.999398  0.996808  0.000023  1
  Al  Al8  1  0.916563  0.582840  0.749971  1
  Al  Al9  1  0.084169  0.416938  0.249972  1
  Al  Al10  1  0.416182  0.083221  0.249966  1
  Al  Al11  1  0.250287  0.250854  0.749977  1
  H  H12  1  0.435697  0.790742  0.353305  1
  H  H13  1  0.268824  0.953841  0.853248  1
  H  H14  1  0.896612  0.881278  0.646812  1
  H  H15  1  0.057467  0.714762  0.146775  1
  H  H16  1  0.787174  0.435487  0.353243  1
  H  H17  1  0.624084  0.602364  0.853311  1
  H  H18  1  0.198701  0.534101  0.646976  1
  H  H19  1  0.367437  0.365368  0.146971  1
  H  H20  1  0.132648  0.132627  0.353023  1
  H  H21  1  0.965965  0.299318  0.853027  1
  H  H22  1  0.714610  0.063274  0.146808  1
  H  H23  1  0.548099  0.224142  0.646779  1
  O  O24  1  0.478933  0.841945  0.445925  1
  O  O25  1  0.405604  0.769038  0.301554  1
  O  O26  1  0.238406  0.935710  0.801663  1
  O  O27  1  0.312726  0.990559  0.948645  1
  O  O28  1  0.928619  0.898038  0.698256  1
  O  O29  1  0.851235  0.852188  0.549988  1
  O  O30  1  0.991228  0.687843  0.054132  1
  O  O31  1  0.096054  0.730960  0.198249  1
  O  O32  1  0.769056  0.405059  0.301660  1
  O  O33  1  0.823884  0.479397  0.448644  1
  O  O34  1  0.675354  0.645607  0.945920  1
  O  O35  1  0.602367  0.572281  0.801557  1
  O  O36  1  0.368986  0.368692  0.198476  1
  O  O37  1  0.353893  0.342913  0.051401  1
  O  O38  1  0.202012  0.535637  0.698478  1
  O  O39  1  0.176228  0.520558  0.551406  1
  O  O40  1  0.981323  0.315787  0.950054  1
  O  O41  1  0.130816  0.130947  0.301611  1
  O  O42  1  0.964308  0.297508  0.801614  1
  O  O43  1  0.149098  0.147979  0.450048  1
  O  O44  1  0.564309  0.262706  0.698251  1
  O  O45  1  0.521174  0.157953  0.554126  1
  O  O46  1  0.731359  0.095297  0.198253  1
  O  O47  1  0.685512  0.017897  0.049982  1
