# generated using pymatgen
data_Cs3TlO3
_symmetry_space_group_name_H-M   'P 1'
_cell_length_a   12.19125656
_cell_length_b   7.49379596
_cell_length_c   8.35796006
_cell_angle_alpha   90.00000000
_cell_angle_beta   94.88458144
_cell_angle_gamma   90.00000000
_symmetry_Int_Tables_number   1
_chemical_formula_structural   Cs3TlO3
_chemical_formula_sum   'Cs12 Tl4 O12'
_cell_volume   760.80000117
_cell_formula_units_Z   4
loop_
 _symmetry_equiv_pos_site_id
 _symmetry_equiv_pos_as_xyz
  1  'x, y, z'
loop_
 _atom_site_type_symbol
 _atom_site_label
 _atom_site_symmetry_multiplicity
 _atom_site_fract_x
 _atom_site_fract_y
 _atom_site_fract_z
 _atom_site_occupancy
  Cs  Cs0  1  0.074458  0.320154  0.645628  1
  Cs  Cs1  1  0.155193  0.627807  0.055665  1
  Cs  Cs2  1  0.191664  0.806888  0.629769  1
  Cs  Cs3  1  0.308336  0.306888  0.370231  1
  Cs  Cs4  1  0.344807  0.127807  0.944335  1
  Cs  Cs5  1  0.425542  0.820154  0.354372  1
  Cs  Cs6  1  0.574458  0.179846  0.645628  1
  Cs  Cs7  1  0.655193  0.872193  0.055665  1
  Cs  Cs8  1  0.691664  0.693112  0.629769  1
  Cs  Cs9  1  0.808336  0.193112  0.370231  1
  Cs  Cs10  1  0.844807  0.372193  0.944335  1
  Cs  Cs11  1  0.925542  0.679846  0.354372  1
  Tl  Tl12  1  0.067538  0.090064  0.162110  1
  Tl  Tl13  1  0.432462  0.590064  0.837890  1
  Tl  Tl14  1  0.567538  0.409936  0.162110  1
  Tl  Tl15  1  0.932462  0.909936  0.837890  1
  O  O16  1  0.037058  0.354707  0.253695  1
  O  O17  1  0.098952  0.042131  0.899167  1
  O  O18  1  0.190908  0.937062  0.304726  1
  O  O19  1  0.309092  0.437062  0.695274  1
  O  O20  1  0.401048  0.542131  0.100833  1
  O  O21  1  0.462942  0.854707  0.746305  1
  O  O22  1  0.537058  0.145293  0.253695  1
  O  O23  1  0.598952  0.457869  0.899167  1
  O  O24  1  0.690908  0.562938  0.304726  1
  O  O25  1  0.809092  0.062938  0.695274  1
  O  O26  1  0.901048  0.957869  0.100833  1
  O  O27  1  0.962942  0.645293  0.746305  1
