# generated using pymatgen
data_Li2MnH8(SO6)2
_symmetry_space_group_name_H-M   'P 1'
_cell_length_a   9.28265973
_cell_length_b   11.85641502
_cell_length_c   12.52651392
_cell_angle_alpha   61.97008627
_cell_angle_beta   89.98335798
_cell_angle_gamma   113.10800774
_symmetry_Int_Tables_number   1
_chemical_formula_structural   Li2MnH8(SO6)2
_chemical_formula_sum   'Li8 Mn4 H32 S8 O48'
_cell_volume   1089.94709300
_cell_formula_units_Z   4
loop_
 _symmetry_equiv_pos_site_id
 _symmetry_equiv_pos_as_xyz
  1  'x, y, z'
loop_
 _atom_site_type_symbol
 _atom_site_label
 _atom_site_symmetry_multiplicity
 _atom_site_fract_x
 _atom_site_fract_y
 _atom_site_fract_z
 _atom_site_occupancy
  Li  Li0  1  0.008721  0.247969  0.307894  1
  Li  Li1  1  0.631319  0.273120  0.332538  1
  Li  Li2  1  0.365967  0.732881  0.160992  1
  Li  Li3  1  0.759994  0.751567  0.190584  1
  Li  Li4  1  0.241960  0.252490  0.808009  1
  Li  Li5  1  0.632856  0.269880  0.835200  1
  Li  Li6  1  0.364369  0.726294  0.668440  1
  Li  Li7  1  0.985752  0.748465  0.694540  1
  Mn  Mn8  1  0.998958  0.498649  0.001515  1
  Mn  Mn9  1  0.251021  0.999289  0.251920  1
  Mn  Mn10  1  0.499278  0.499509  0.500119  1
  Mn  Mn11  1  0.746560  0.998475  0.750025  1
  H  H12  1  0.014170  0.251397  0.038808  1
  H  H13  1  0.727649  0.257652  0.053638  1
  H  H14  1  0.357182  0.279502  0.044512  1
  H  H15  1  0.976703  0.033388  0.175508  1
  H  H16  1  0.556539  0.031986  0.173489  1
  H  H17  1  0.813888  0.627354  0.004788  1
  H  H18  1  0.312382  0.614930  0.009816  1
  H  H19  1  0.401093  0.289573  0.166061  1
  H  H20  1  0.112928  0.707354  0.336748  1
  H  H21  1  0.694378  0.382934  0.491610  1
  H  H22  1  0.236854  0.252234  0.541094  1
  H  H23  1  0.181925  0.371416  0.495490  1
  H  H24  1  0.526198  0.254185  0.556148  1
  H  H25  1  0.916999  0.279543  0.543449  1
  H  H26  1  0.056478  0.032399  0.675694  1
  H  H27  1  0.475477  0.034299  0.673956  1
  H  H28  1  0.524795  0.967676  0.322967  1
  H  H29  1  0.943479  0.970877  0.324752  1
  H  H30  1  0.078535  0.716025  0.458757  1
  H  H31  1  0.470496  0.743017  0.449204  1
  H  H32  1  0.813913  0.625348  0.510905  1
  H  H33  1  0.764276  0.748486  0.456043  1
  H  H34  1  0.300595  0.614778  0.505583  1
  H  H35  1  0.888094  0.290877  0.664929  1
  H  H36  1  0.594058  0.708129  0.835975  1
  H  H37  1  0.684245  0.383827  0.991133  1
  H  H38  1  0.187450  0.372853  0.993656  1
  H  H39  1  0.442398  0.967475  0.824559  1
  H  H40  1  0.024333  0.966341  0.825433  1
  H  H41  1  0.637067  0.715385  0.958411  1
  H  H42  1  0.273062  0.744123  0.947114  1
  H  H43  1  0.987613  0.747590  0.957926  1
  S  S44  1  0.755614  0.036244  0.018822  1
  S  S45  1  0.524185  0.532094  0.204436  1
  S  S46  1  0.989711  0.466041  0.296103  1
  S  S47  1  0.276278  0.034918  0.521083  1
  S  S48  1  0.720274  0.962367  0.479648  1
  S  S49  1  0.006118  0.530159  0.706682  1
  S  S50  1  0.478853  0.469914  0.795788  1
  S  S51  1  0.242478  0.964956  0.980937  1
  O  O52  1  0.922186  0.101953  0.035035  1
  O  O53  1  0.667508  0.120156  0.017315  1
  O  O54  1  0.082105  0.336024  0.046302  1
  O  O55  1  0.745587  0.346827  0.051776  1
  O  O56  1  0.373671  0.228811  0.128986  1
  O  O57  1  0.021015  0.002487  0.250483  1
  O  O58  1  0.480656  0.998584  0.248611  1
  O  O59  1  0.674519  0.632192  0.101761  1
  O  O60  1  0.992797  0.431233  0.195309  1
  O  O61  1  0.388157  0.563622  0.159658  1
  O  O62  1  0.487705  0.381761  0.250172  1
  O  O63  1  0.269321  0.036725  0.402904  1
  O  O64  1  0.780956  0.111800  0.373416  1
  O  O65  1  0.667944  0.886438  0.125993  1
  O  O66  1  0.234311  0.964392  0.098529  1
  O  O67  1  0.103244  0.615891  0.252189  1
  O  O68  1  0.821695  0.432612  0.341151  1
  O  O69  1  0.562828  0.568887  0.303707  1
  O  O70  1  0.039863  0.364938  0.397632  1
  O  O71  1  0.177726  0.103047  0.536188  1
  O  O72  1  0.449088  0.118583  0.517971  1
  O  O73  1  0.252471  0.337131  0.547505  1
  O  O74  1  0.595818  0.345235  0.552137  1
  O  O75  1  0.145979  0.767992  0.373976  1
  O  O76  1  0.853253  0.228734  0.629006  1
  O  O77  1  0.403112  0.653921  0.448801  1
  O  O78  1  0.747724  0.660915  0.454162  1
  O  O79  1  0.978116  0.996246  0.751086  1
  O  O80  1  0.518483  0.002356  0.748849  1
  O  O81  1  0.547870  0.877927  0.482226  1
  O  O82  1  0.821711  0.897663  0.462521  1
  O  O83  1  0.956195  0.631033  0.604690  1
  O  O84  1  0.442568  0.433470  0.695897  1
  O  O85  1  0.173907  0.562347  0.661855  1
  O  O86  1  0.891983  0.380200  0.751308  1
  O  O87  1  0.762810  0.038753  0.900555  1
  O  O88  1  0.330336  0.114291  0.872983  1
  O  O89  1  0.213829  0.885943  0.628665  1
  O  O90  1  0.726816  0.958716  0.598900  1
  O  O91  1  0.514164  0.619942  0.749889  1
  O  O92  1  0.613761  0.437932  0.841612  1
  O  O93  1  0.003783  0.565557  0.806920  1
  O  O94  1  0.327224  0.369731  0.897399  1
  O  O95  1  0.620809  0.767928  0.874059  1
  O  O96  1  0.251427  0.653589  0.950013  1
  O  O97  1  0.917989  0.663260  0.950974  1
  O  O98  1  0.331751  0.881481  0.983542  1
  O  O99  1  0.076124  0.897096  0.965796  1
