# generated using pymatgen
data_Nb3Sb(PO4)6
_symmetry_space_group_name_H-M   'P 1'
_cell_length_a   9.12933737
_cell_length_b   9.12933718
_cell_length_c   9.12933760
_cell_angle_alpha   58.52819453
_cell_angle_beta   58.52819674
_cell_angle_gamma   58.52819461
_symmetry_Int_Tables_number   1
_chemical_formula_structural   Nb3Sb(PO4)6
_chemical_formula_sum   'Nb3 Sb1 P6 O24'
_cell_volume   519.91359492
_cell_formula_units_Z   1
loop_
 _symmetry_equiv_pos_site_id
 _symmetry_equiv_pos_as_xyz
  1  'x, y, z'
loop_
 _atom_site_type_symbol
 _atom_site_label
 _atom_site_symmetry_multiplicity
 _atom_site_fract_x
 _atom_site_fract_y
 _atom_site_fract_z
 _atom_site_occupancy
  Nb  Nb0  1  0.140558  0.140558  0.140558  1
  Nb  Nb1  1  0.357316  0.357316  0.357316  1
  Nb  Nb2  1  0.641342  0.641342  0.641342  1
  Sb  Sb3  1  0.859799  0.859799  0.859799  1
  P  P4  1  0.037492  0.750549  0.458907  1
  P  P5  1  0.458907  0.037492  0.750549  1
  P  P6  1  0.750549  0.458907  0.037492  1
  P  P7  1  0.256920  0.529322  0.965597  1
  P  P8  1  0.529322  0.965597  0.256920  1
  P  P9  1  0.965597  0.256920  0.529322  1
  O  O10  1  0.128682  0.302212  0.483787  1
  O  O11  1  0.302212  0.483787  0.128682  1
  O  O12  1  0.062323  0.923382  0.283062  1
  O  O13  1  0.483787  0.128682  0.302212  1
  O  O14  1  0.210461  0.585380  0.412648  1
  O  O15  1  0.032814  0.766858  0.616601  1
  O  O16  1  0.283062  0.062323  0.923382  1
  O  O17  1  0.412648  0.210461  0.585380  1
  O  O18  1  0.585380  0.412648  0.210461  1
  O  O19  1  0.220658  0.363955  0.997194  1
  O  O20  1  0.098748  0.706698  0.947428  1
  O  O21  1  0.363955  0.997194  0.220658  1
  O  O22  1  0.616601  0.032814  0.766858  1
  O  O23  1  0.923382  0.283062  0.062323  1
  O  O24  1  0.766858  0.616601  0.032814  1
  O  O25  1  0.432306  0.550860  0.791594  1
  O  O26  1  0.550860  0.791594  0.432306  1
  O  O27  1  0.706698  0.947428  0.098748  1
  O  O28  1  0.997194  0.220658  0.363955  1
  O  O29  1  0.791594  0.432306  0.550860  1
  O  O30  1  0.496809  0.864431  0.723303  1
  O  O31  1  0.947428  0.098748  0.706698  1
  O  O32  1  0.723303  0.496809  0.864431  1
  O  O33  1  0.864431  0.723303  0.496809  1
