# generated using pymatgen
data_LiBeH5(NF2)2
_symmetry_space_group_name_H-M   'P 1'
_cell_length_a   9.92568719
_cell_length_b   8.95719548
_cell_length_c   5.16872018
_cell_angle_alpha   90.00000000
_cell_angle_beta   90.00000000
_cell_angle_gamma   90.00000000
_symmetry_Int_Tables_number   1
_chemical_formula_structural   LiBeH5(NF2)2
_chemical_formula_sum   'Li4 Be4 H20 N8 F16'
_cell_volume   459.53189256
_cell_formula_units_Z   4
loop_
 _symmetry_equiv_pos_site_id
 _symmetry_equiv_pos_as_xyz
  1  'x, y, z'
loop_
 _atom_site_type_symbol
 _atom_site_label
 _atom_site_symmetry_multiplicity
 _atom_site_fract_x
 _atom_site_fract_y
 _atom_site_fract_z
 _atom_site_occupancy
  Li  Li0  1  0.821403  0.064825  0.260172  1
  Li  Li1  1  0.178597  0.935175  0.760172  1
  Li  Li2  1  0.678597  0.564825  0.760172  1
  Li  Li3  1  0.321403  0.435175  0.260172  1
  Be  Be4  1  0.659272  0.372144  0.255139  1
  Be  Be5  1  0.340728  0.627856  0.755139  1
  Be  Be6  1  0.840728  0.872144  0.755139  1
  Be  Be7  1  0.159272  0.127856  0.255139  1
  H  H8  1  0.618429  0.117923  0.791126  1
  H  H9  1  0.381571  0.882077  0.291126  1
  H  H10  1  0.881571  0.617923  0.291126  1
  H  H11  1  0.118429  0.382077  0.791126  1
  H  H12  1  0.519378  0.042768  0.566903  1
  H  H13  1  0.480622  0.957232  0.066903  1
  H  H14  1  0.980622  0.542768  0.066903  1
  H  H15  1  0.019378  0.457232  0.566903  1
  H  H16  1  0.842047  0.305958  0.706400  1
  H  H17  1  0.157953  0.694042  0.206400  1
  H  H18  1  0.657953  0.805958  0.206400  1
  H  H19  1  0.342047  0.194042  0.706400  1
  H  H20  1  0.947017  0.226747  0.927466  1
  H  H21  1  0.052983  0.773253  0.427466  1
  H  H22  1  0.552983  0.726747  0.427466  1
  H  H23  1  0.447017  0.273253  0.927466  1
  H  H24  1  0.973481  0.202216  0.606587  1
  H  H25  1  0.026519  0.797784  0.106587  1
  H  H26  1  0.526519  0.702216  0.106587  1
  H  H27  1  0.473481  0.297784  0.606587  1
  N  N28  1  0.521214  0.087086  0.751821  1
  N  N29  1  0.478786  0.912914  0.251821  1
  N  N30  1  0.978786  0.587086  0.251821  1
  N  N31  1  0.021214  0.412914  0.751821  1
  N  N32  1  0.941866  0.277619  0.746395  1
  N  N33  1  0.058134  0.722381  0.246395  1
  N  N34  1  0.558134  0.777619  0.246395  1
  N  N35  1  0.441866  0.222381  0.746395  1
  F  F36  1  0.695981  0.392084  0.550808  1
  F  F37  1  0.304019  0.607916  0.050808  1
  F  F38  1  0.804019  0.892084  0.050808  1
  F  F39  1  0.195981  0.107916  0.550808  1
  F  F40  1  0.499732  0.356235  0.232810  1
  F  F41  1  0.500268  0.643765  0.732810  1
  F  F42  1  0.000268  0.856235  0.732810  1
  F  F43  1  0.999732  0.143765  0.232810  1
  F  F44  1  0.724944  0.229436  0.142665  1
  F  F45  1  0.275056  0.770564  0.642665  1
  F  F46  1  0.775056  0.729436  0.642665  1
  F  F47  1  0.224944  0.270564  0.142665  1
  F  F48  1  0.796515  0.014554  0.606009  1
  F  F49  1  0.203485  0.985446  0.106009  1
  F  F50  1  0.703485  0.514554  0.106009  1
  F  F51  1  0.296515  0.485446  0.606009  1
