# generated using pymatgen
data_LiFe3(OF3)2
_symmetry_space_group_name_H-M   'P 1'
_cell_length_a   8.58545112
_cell_length_b   9.62995429
_cell_length_c   3.85036354
_cell_angle_alpha   90.00013723
_cell_angle_beta   89.99999624
_cell_angle_gamma   89.96177643
_symmetry_Int_Tables_number   1
_chemical_formula_structural   LiFe3(OF3)2
_chemical_formula_sum   'Li2 Fe6 O4 F12'
_cell_volume   318.33836794
_cell_formula_units_Z   2
loop_
 _symmetry_equiv_pos_site_id
 _symmetry_equiv_pos_as_xyz
  1  'x, y, z'
loop_
 _atom_site_type_symbol
 _atom_site_label
 _atom_site_symmetry_multiplicity
 _atom_site_fract_x
 _atom_site_fract_y
 _atom_site_fract_z
 _atom_site_occupancy
  Li  Li0  1  0.265238  0.917669  0.750000  1
  Li  Li1  1  0.765451  0.082378  0.250000  1
  Fe  Fe2  1  0.057841  0.261635  0.749997  1
  Fe  Fe3  1  0.230782  0.447661  0.249998  1
  Fe  Fe4  1  0.432905  0.244680  0.750002  1
  Fe  Fe5  1  0.557705  0.738377  0.250001  1
  Fe  Fe6  1  0.730652  0.552056  0.750001  1
  Fe  Fe7  1  0.933018  0.755316  0.249999  1
  O  O8  1  0.083448  0.292895  0.249997  1
  O  O9  1  0.261808  0.391354  0.749998  1
  O  O10  1  0.583510  0.707042  0.750002  1
  O  O11  1  0.761763  0.608602  0.250002  1
  F  F12  1  0.083957  0.895415  0.250003  1
  F  F13  1  0.098375  0.609936  0.250000  1
  F  F14  1  0.251458  0.114975  0.749999  1
  F  F15  1  0.411164  0.572160  0.249999  1
  F  F16  1  0.427123  0.264725  0.250001  1
  F  F17  1  0.395681  0.874399  0.250003  1
  F  F18  1  0.584050  0.104618  0.749998  1
  F  F19  1  0.598192  0.389897  0.750003  1
  F  F20  1  0.751437  0.885097  0.250001  1
  F  F21  1  0.911326  0.427804  0.750000  1
  F  F22  1  0.927218  0.735413  0.749998  1
  F  F23  1  0.895898  0.125897  0.749999  1
