# generated using pymatgen
data_Li2VOF4
_symmetry_space_group_name_H-M   'P 1'
_cell_length_a   7.20342132
_cell_length_b   5.44813993
_cell_length_c   9.60725539
_cell_angle_alpha   90.00000000
_cell_angle_beta   90.00000000
_cell_angle_gamma   90.00000000
_symmetry_Int_Tables_number   1
_chemical_formula_structural   Li2VOF4
_chemical_formula_sum   'Li8 V4 O4 F16'
_cell_volume   377.03911391
_cell_formula_units_Z   4
loop_
 _symmetry_equiv_pos_site_id
 _symmetry_equiv_pos_as_xyz
  1  'x, y, z'
loop_
 _atom_site_type_symbol
 _atom_site_label
 _atom_site_symmetry_multiplicity
 _atom_site_fract_x
 _atom_site_fract_y
 _atom_site_fract_z
 _atom_site_occupancy
  Li  Li0  1  0.951469  0.750515  0.280379  1
  Li  Li1  1  0.124803  0.215813  0.428224  1
  Li  Li2  1  0.375197  0.784187  0.928224  1
  Li  Li3  1  0.548531  0.249485  0.780379  1
  Li  Li4  1  0.451469  0.749485  0.219621  1
  Li  Li5  1  0.624803  0.284187  0.071776  1
  Li  Li6  1  0.875197  0.715813  0.571776  1
  Li  Li7  1  0.048531  0.250515  0.719621  1
  V  V8  1  0.198353  0.277168  0.052340  1
  V  V9  1  0.301647  0.722832  0.552340  1
  V  V10  1  0.698353  0.222832  0.447660  1
  V  V11  1  0.801647  0.777168  0.947660  1
  O  O12  1  0.149878  0.496636  0.578883  1
  O  O13  1  0.350122  0.503364  0.078883  1
  O  O14  1  0.649878  0.003364  0.921117  1
  O  O15  1  0.850122  0.996636  0.421117  1
  F  F16  1  0.015825  0.977173  0.002177  1
  F  F17  1  0.984175  0.477173  0.997823  1
  F  F18  1  0.101945  0.243796  0.235461  1
  F  F19  1  0.139659  0.000545  0.589310  1
  F  F20  1  0.238705  0.764262  0.351850  1
  F  F21  1  0.261295  0.235738  0.851850  1
  F  F22  1  0.360341  0.999455  0.089310  1
  F  F23  1  0.398055  0.756204  0.735461  1
  F  F24  1  0.484175  0.022827  0.502177  1
  F  F25  1  0.515825  0.522827  0.497823  1
  F  F26  1  0.601945  0.256204  0.264539  1
  F  F27  1  0.639659  0.499455  0.910690  1
  F  F28  1  0.738705  0.735738  0.148150  1
  F  F29  1  0.761295  0.264262  0.648150  1
  F  F30  1  0.860341  0.500545  0.410690  1
  F  F31  1  0.898055  0.743796  0.764539  1
