# generated using pymatgen
data_V3OF11
_symmetry_space_group_name_H-M   'P 1'
_cell_length_a   5.46193486
_cell_length_b   5.25931904
_cell_length_c   14.75146364
_cell_angle_alpha   90.02948560
_cell_angle_beta   100.27448617
_cell_angle_gamma   90.25236283
_symmetry_Int_Tables_number   1
_chemical_formula_structural   V3OF11
_chemical_formula_sum   'V6 O2 F22'
_cell_volume   416.95195171
_cell_formula_units_Z   2
loop_
 _symmetry_equiv_pos_site_id
 _symmetry_equiv_pos_as_xyz
  1  'x, y, z'
loop_
 _atom_site_type_symbol
 _atom_site_label
 _atom_site_symmetry_multiplicity
 _atom_site_fract_x
 _atom_site_fract_y
 _atom_site_fract_z
 _atom_site_occupancy
  V  V0  1  0.041414  0.974612  0.003216  1
  V  V1  1  0.155160  0.508302  0.334235  1
  V  V2  1  0.333333  0.000000  0.666667  1
  V  V3  1  0.511506  0.491698  0.999098  1
  V  V4  1  0.625252  0.025388  0.330117  1
  V  V5  1  0.833333  0.500000  0.666667  1
  O  O6  1  0.374073  0.204706  0.310326  1
  O  O7  1  0.292593  0.795294  0.023007  1
  F  F8  1  0.022260  0.196981  0.641636  1
  F  F9  1  0.196510  0.286385  0.975719  1
  F  F10  1  0.144745  0.696637  0.691144  1
  F  F11  1  0.030682  0.093728  0.114949  1
  F  F12  1  0.216523  0.410315  0.450719  1
  F  F13  1  0.372200  0.087303  0.784119  1
  F  F14  1  0.129661  0.577020  0.215305  1
  F  F15  1  0.294466  0.912697  0.549214  1
  F  F16  1  0.450144  0.589685  0.882614  1
  F  F17  1  0.521922  0.303363  0.642190  1
  F  F18  1  0.692750  0.206532  0.975912  1
  F  F19  1  0.470157  0.713615  0.357613  1
  F  F20  1  0.644406  0.803019  0.691697  1
  F  F21  1  0.537006  0.422980  0.118029  1
  F  F22  1  0.727066  0.073623  0.449424  1
  F  F23  1  0.875596  0.414479  0.784239  1
  F  F24  1  0.635985  0.906272  0.218384  1
  F  F25  1  0.791071  0.585521  0.549094  1
  F  F26  1  0.939601  0.926377  0.883909  1
  F  F27  1  0.855469  0.291602  0.308363  1
  F  F28  1  0.811198  0.708399  0.024970  1
  F  F29  1  0.973916  0.793468  0.357422  1
