# generated using pymatgen
data_Li2Si4Ni5O14
_symmetry_space_group_name_H-M   'P 1'
_cell_length_a   7.49245795
_cell_length_b   7.92382318
_cell_length_c   5.42059442
_cell_angle_alpha   91.01032656
_cell_angle_beta   105.24879219
_cell_angle_gamma   114.33913638
_symmetry_Int_Tables_number   1
_chemical_formula_structural   Li2Si4Ni5O14
_chemical_formula_sum   'Li2 Si4 Ni5 O14'
_cell_volume   279.96684795
_cell_formula_units_Z   1
loop_
 _symmetry_equiv_pos_site_id
 _symmetry_equiv_pos_as_xyz
  1  'x, y, z'
loop_
 _atom_site_type_symbol
 _atom_site_label
 _atom_site_symmetry_multiplicity
 _atom_site_fract_x
 _atom_site_fract_y
 _atom_site_fract_z
 _atom_site_occupancy
  Li  Li0  1  0.103974  0.452974  0.228810  1
  Li  Li1  1  0.896026  0.547026  0.771190  1
  Si  Si2  1  0.225485  0.860656  0.498234  1
  Si  Si3  1  0.212429  0.392234  0.790999  1
  Si  Si4  1  0.787571  0.607766  0.209001  1
  Si  Si5  1  0.774515  0.139344  0.501766  1
  Ni  Ni6  1  0.000000  0.000000  0.000000  1
  Ni  Ni7  1  0.398622  0.810138  0.077538  1
  Ni  Ni8  1  0.583382  0.703720  0.632720  1
  Ni  Ni9  1  0.416618  0.296280  0.367280  1
  Ni  Ni10  1  0.601378  0.189862  0.922462  1
  O  O11  1  0.183729  0.573153  0.884811  1
  O  O12  1  0.342701  0.958888  0.797543  1
  O  O13  1  0.017029  0.276239  0.527106  1
  O  O14  1  0.329056  0.732610  0.403221  1
  O  O15  1  0.192387  0.267306  0.030668  1
  O  O16  1  0.411667  0.434492  0.689335  1
  O  O17  1  0.226309  0.017776  0.305718  1
  O  O18  1  0.773691  0.982224  0.694282  1
  O  O19  1  0.588333  0.565508  0.310665  1
  O  O20  1  0.807613  0.732694  0.969332  1
  O  O21  1  0.670944  0.267390  0.596779  1
  O  O22  1  0.982971  0.723761  0.472894  1
  O  O23  1  0.657299  0.041112  0.202457  1
  O  O24  1  0.816271  0.426847  0.115189  1
