# generated using pymatgen
data_NdH32C8N4Cl7
_symmetry_space_group_name_H-M   'P 1'
_cell_length_a   8.84582504
_cell_length_b   10.57203856
_cell_length_c   13.62024985
_cell_angle_alpha   90.00000000
_cell_angle_beta   90.00000000
_cell_angle_gamma   90.00000000
_symmetry_Int_Tables_number   1
_chemical_formula_structural   NdH32C8N4Cl7
_chemical_formula_sum   'Nd2 H64 C16 N8 Cl14'
_cell_volume   1273.74402012
_cell_formula_units_Z   2
loop_
 _symmetry_equiv_pos_site_id
 _symmetry_equiv_pos_as_xyz
  1  'x, y, z'
loop_
 _atom_site_type_symbol
 _atom_site_label
 _atom_site_symmetry_multiplicity
 _atom_site_fract_x
 _atom_site_fract_y
 _atom_site_fract_z
 _atom_site_occupancy
  Nd  Nd0  1  0.070116  0.500000  0.500000  1
  Nd  Nd1  1  0.929884  0.000000  0.000000  1
  H  H2  1  0.035223  0.895668  0.755755  1
  H  H3  1  0.035223  0.104332  0.244245  1
  H  H4  1  0.964777  0.604332  0.255755  1
  H  H5  1  0.964777  0.395668  0.744245  1
  H  H6  1  0.017806  0.775392  0.677501  1
  H  H7  1  0.017806  0.224608  0.322499  1
  H  H8  1  0.982194  0.724608  0.177501  1
  H  H9  1  0.982194  0.275392  0.822499  1
  H  H10  1  0.376653  0.678356  0.433376  1
  H  H11  1  0.376653  0.321644  0.566624  1
  H  H12  1  0.623347  0.821644  0.933376  1
  H  H13  1  0.623347  0.178356  0.066624  1
  H  H14  1  0.457640  0.822742  0.442332  1
  H  H15  1  0.457640  0.177258  0.557668  1
  H  H16  1  0.542360  0.677258  0.942332  1
  H  H17  1  0.542360  0.322742  0.057668  1
  H  H18  1  0.168231  0.882765  0.555867  1
  H  H19  1  0.168231  0.117235  0.444133  1
  H  H20  1  0.831769  0.617235  0.055867  1
  H  H21  1  0.831769  0.382765  0.944133  1
  H  H22  1  0.266799  0.866732  0.669489  1
  H  H23  1  0.266799  0.133268  0.330511  1
  H  H24  1  0.733201  0.633268  0.169489  1
  H  H25  1  0.733201  0.366732  0.830511  1
  H  H26  1  0.182396  0.015364  0.637690  1
  H  H27  1  0.182396  0.984636  0.362310  1
  H  H28  1  0.817604  0.484636  0.137690  1
  H  H29  1  0.817604  0.515364  0.862310  1
  H  H30  1  0.901681  0.034743  0.640550  1
  H  H31  1  0.901681  0.965257  0.359450  1
  H  H32  1  0.098319  0.465257  0.140550  1
  H  H33  1  0.098319  0.534743  0.859450  1
  H  H34  1  0.791985  0.904434  0.684058  1
  H  H35  1  0.791985  0.095566  0.315942  1
  H  H36  1  0.208015  0.595566  0.184058  1
  H  H37  1  0.208015  0.404434  0.815942  1
  H  H38  1  0.874027  0.898527  0.564256  1
  H  H39  1  0.874027  0.101473  0.435744  1
  H  H40  1  0.125973  0.601473  0.064256  1
  H  H41  1  0.125973  0.398527  0.935744  1
  H  H42  1  0.538337  0.814172  0.273531  1
  H  H43  1  0.538337  0.185828  0.726469  1
  H  H44  1  0.461663  0.685828  0.773531  1
  H  H45  1  0.461663  0.314172  0.226469  1
  H  H46  1  0.338781  0.792731  0.284384  1
  H  H47  1  0.338781  0.207269  0.715616  1
  H  H48  1  0.661219  0.707269  0.784384  1
  H  H49  1  0.661219  0.292731  0.215616  1
  H  H50  1  0.458107  0.658710  0.263648  1
  H  H51  1  0.458107  0.341290  0.736352  1
  H  H52  1  0.541893  0.841290  0.763648  1
  H  H53  1  0.541893  0.158710  0.236352  1
  H  H54  1  0.616948  0.578136  0.408179  1
  H  H55  1  0.616948  0.421864  0.591821  1
  H  H56  1  0.383052  0.921864  0.908179  1
  H  H57  1  0.383052  0.078136  0.091821  1
  H  H58  1  0.613685  0.668665  0.518998  1
  H  H59  1  0.613685  0.331335  0.481002  1
  H  H60  1  0.386315  0.831335  0.018998  1
  H  H61  1  0.386315  0.168665  0.981002  1
  H  H62  1  0.704527  0.730907  0.412345  1
  H  H63  1  0.704527  0.269093  0.587655  1
  H  H64  1  0.295473  0.769093  0.912345  1
  H  H65  1  0.295473  0.230907  0.087655  1
  C  C66  1  0.171802  0.913023  0.632499  1
  C  C67  1  0.171802  0.086977  0.367501  1
  C  C68  1  0.828198  0.586977  0.132499  1
  C  C69  1  0.828198  0.413023  0.867501  1
  C  C70  1  0.889460  0.932118  0.639436  1
  C  C71  1  0.889460  0.067882  0.360564  1
  C  C72  1  0.110540  0.567882  0.139436  1
  C  C73  1  0.110540  0.432118  0.860564  1
  C  C74  1  0.449535  0.750705  0.299864  1
  C  C75  1  0.449535  0.249295  0.700136  1
  C  C76  1  0.550465  0.749295  0.799864  1
  C  C77  1  0.550465  0.250705  0.200136  1
  C  C78  1  0.610122  0.673472  0.438666  1
  C  C79  1  0.610122  0.326528  0.561334  1
  C  C80  1  0.389878  0.826528  0.938666  1
  C  C81  1  0.389878  0.173472  0.061334  1
  N  N82  1  0.028746  0.873023  0.681577  1
  N  N83  1  0.028746  0.126977  0.318423  1
  N  N84  1  0.971254  0.626977  0.181577  1
  N  N85  1  0.971254  0.373023  0.818423  1
  N  N86  1  0.465019  0.732982  0.407869  1
  N  N87  1  0.465019  0.267018  0.592131  1
  N  N88  1  0.534981  0.767018  0.907869  1
  N  N89  1  0.534981  0.232982  0.092131  1
  Cl  Cl90  1  0.060880  0.731905  0.405891  1
  Cl  Cl91  1  0.060880  0.268095  0.594109  1
  Cl  Cl92  1  0.939119  0.768095  0.905891  1
  Cl  Cl93  1  0.939119  0.231905  0.094109  1
  Cl  Cl94  1  0.872084  0.587577  0.642678  1
  Cl  Cl95  1  0.872084  0.412423  0.357322  1
  Cl  Cl96  1  0.127916  0.912423  0.142678  1
  Cl  Cl97  1  0.127916  0.087577  0.857322  1
  Cl  Cl98  1  0.302358  0.578647  0.619996  1
  Cl  Cl99  1  0.302358  0.421353  0.380004  1
  Cl  Cl100  1  0.697642  0.921353  0.119996  1
  Cl  Cl101  1  0.697642  0.078647  0.880004  1
  Cl  Cl102  1  0.515209  0.000000  0.500000  1
  Cl  Cl103  1  0.484791  0.500000  0.000000  1
