# generated using pymatgen
data_NbFe3Co2(PO4)6
_symmetry_space_group_name_H-M   'P 1'
_cell_length_a   8.58044610
_cell_length_b   8.69140017
_cell_length_c   8.69140012
_cell_angle_alpha   59.99999782
_cell_angle_beta   59.57131588
_cell_angle_gamma   59.57131141
_symmetry_Int_Tables_number   1
_chemical_formula_structural   NbFe3Co2(PO4)6
_chemical_formula_sum   'Nb1 Fe3 Co2 P6 O24'
_cell_volume   455.33360010
_cell_formula_units_Z   1
loop_
 _symmetry_equiv_pos_site_id
 _symmetry_equiv_pos_as_xyz
  1  'x, y, z'
loop_
 _atom_site_type_symbol
 _atom_site_label
 _atom_site_symmetry_multiplicity
 _atom_site_fract_x
 _atom_site_fract_y
 _atom_site_fract_z
 _atom_site_occupancy
  Nb  Nb0  1  0.573348  0.142218  0.142218  1
  Fe  Fe1  1  0.066509  0.644497  0.644497  1
  Fe  Fe2  1  0.438940  0.853687  0.853687  1
  Fe  Fe3  1  0.932236  0.355921  0.355921  1
  Co  Co4  1  0.021215  0.992929  0.992929  1
  Co  Co5  1  0.501074  0.499642  0.499642  1
  P  P6  1  0.243145  0.253602  0.550678  1
  P  P7  1  0.243145  0.952575  0.253602  1
  P  P8  1  0.243145  0.550678  0.952575  1
  P  P9  1  0.750209  0.461093  0.045561  1
  P  P10  1  0.750209  0.045561  0.743138  1
  P  P11  1  0.750209  0.743138  0.461093  1
  O  O12  1  0.067385  0.111268  0.316953  1
  O  O13  1  0.067385  0.504393  0.111268  1
  O  O14  1  0.067385  0.316953  0.504393  1
  O  O15  1  0.228983  0.089991  0.741944  1
  O  O16  1  0.425666  0.183512  0.385673  1
  O  O17  1  0.277212  0.408741  0.555692  1
  O  O18  1  0.228983  0.939083  0.089991  1
  O  O19  1  0.277212  0.758355  0.408741  1
  O  O20  1  0.567753  0.612152  0.004192  1
  O  O21  1  0.277212  0.555692  0.758355  1
  O  O22  1  0.768591  0.260944  0.062639  1
  O  O23  1  0.567753  0.004192  0.815904  1
  O  O24  1  0.425666  0.005149  0.183512  1
  O  O25  1  0.228983  0.741944  0.939083  1
  O  O26  1  0.726964  0.442062  0.242208  1
  O  O27  1  0.425666  0.385673  0.005149  1
  O  O28  1  0.726964  0.242208  0.588765  1
  O  O29  1  0.768591  0.062639  0.907826  1
  O  O30  1  0.726964  0.588765  0.442062  1
  O  O31  1  0.567753  0.815904  0.612152  1
  O  O32  1  0.768591  0.907826  0.260944  1
  O  O33  1  0.932982  0.685209  0.494431  1
  O  O34  1  0.932982  0.494431  0.887378  1
  O  O35  1  0.932982  0.887378  0.685209  1
