# generated using pymatgen
data_Li3Cr(BO3)2
_symmetry_space_group_name_H-M   'P 1'
_cell_length_a   5.26296843
_cell_length_b   8.70554584
_cell_length_c   9.65537863
_cell_angle_alpha   89.99989492
_cell_angle_beta   92.76796429
_cell_angle_gamma   89.99969071
_symmetry_Int_Tables_number   1
_chemical_formula_structural   Li3Cr(BO3)2
_chemical_formula_sum   'Li12 Cr4 B8 O24'
_cell_volume   441.86447906
_cell_formula_units_Z   4
loop_
 _symmetry_equiv_pos_site_id
 _symmetry_equiv_pos_as_xyz
  1  'x, y, z'
loop_
 _atom_site_type_symbol
 _atom_site_label
 _atom_site_symmetry_multiplicity
 _atom_site_fract_x
 _atom_site_fract_y
 _atom_site_fract_z
 _atom_site_occupancy
  Li  Li0  1  0.125152  0.957514  0.647661  1
  Li  Li1  1  0.183526  0.652155  0.623755  1
  Li  Li2  1  0.318106  0.154411  0.875727  1
  Li  Li3  1  0.190871  0.969237  0.113615  1
  Li  Li4  1  0.375052  0.457908  0.847338  1
  Li  Li5  1  0.309400  0.469584  0.380795  1
  Li  Li6  1  0.690870  0.530759  0.613613  1
  Li  Li7  1  0.625148  0.542490  0.147653  1
  Li  Li8  1  0.809397  0.030416  0.880798  1
  Li  Li9  1  0.683526  0.847831  0.123755  1
  Li  Li10  1  0.818105  0.345587  0.375724  1
  Li  Li11  1  0.875060  0.042088  0.347337  1
  Cr  Cr12  1  0.111011  0.290138  0.124499  1
  Cr  Cr13  1  0.611076  0.209884  0.624487  1
  Cr  Cr14  1  0.390012  0.789895  0.375839  1
  Cr  Cr15  1  0.889986  0.710098  0.875774  1
  B  B16  1  0.167019  0.304857  0.618074  1
  B  B17  1  0.164724  0.643016  0.134813  1
  B  B18  1  0.333930  0.805211  0.882193  1
  B  B19  1  0.335785  0.142053  0.365894  1
  B  B20  1  0.664725  0.856995  0.634816  1
  B  B21  1  0.666990  0.195136  0.118073  1
  B  B22  1  0.835783  0.357950  0.865894  1
  B  B23  1  0.833942  0.694784  0.382190  1
  O  O24  1  0.082112  0.325070  0.915415  1
  O  O25  1  0.134973  0.910649  0.892891  1
  O  O26  1  0.083291  0.655951  0.409713  1
  O  O27  1  0.251691  0.659081  0.843570  1
  O  O28  1  0.165959  0.262290  0.332611  1
  O  O29  1  0.249337  0.158709  0.656844  1
  O  O30  1  0.239543  0.996669  0.347420  1
  O  O31  1  0.260204  0.497449  0.154400  1
  O  O32  1  0.365915  0.410545  0.608384  1
  O  O33  1  0.334781  0.763186  0.167571  1
  O  O34  1  0.418732  0.824059  0.584833  1
  O  O35  1  0.417746  0.156460  0.090352  1
  O  O36  1  0.583284  0.844048  0.909705  1
  O  O37  1  0.582126  0.174934  0.415418  1
  O  O38  1  0.665963  0.237715  0.832606  1
  O  O39  1  0.634984  0.589348  0.392902  1
  O  O40  1  0.739530  0.503330  0.847407  1
  O  O41  1  0.760207  0.002551  0.654396  1
  O  O42  1  0.751696  0.840918  0.343575  1
  O  O43  1  0.834781  0.736813  0.667548  1
  O  O44  1  0.749309  0.341296  0.156851  1
  O  O45  1  0.917768  0.343558  0.590348  1
  O  O46  1  0.865909  0.089458  0.108391  1
  O  O47  1  0.918727  0.675937  0.084805  1
