# generated using pymatgen
data_Li3Ni5OF11
_symmetry_space_group_name_H-M   'P 1'
_cell_length_a   5.10352109
_cell_length_b   5.49247080
_cell_length_c   9.14332809
_cell_angle_alpha   85.70039535
_cell_angle_beta   72.80018998
_cell_angle_gamma   116.93064424
_symmetry_Int_Tables_number   1
_chemical_formula_structural   Li3Ni5OF11
_chemical_formula_sum   'Li3 Ni5 O1 F11'
_cell_volume   211.61541213
_cell_formula_units_Z   1
loop_
 _symmetry_equiv_pos_site_id
 _symmetry_equiv_pos_as_xyz
  1  'x, y, z'
loop_
 _atom_site_type_symbol
 _atom_site_label
 _atom_site_symmetry_multiplicity
 _atom_site_fract_x
 _atom_site_fract_y
 _atom_site_fract_z
 _atom_site_occupancy
  Li  Li0  1  0.019500  0.533038  0.500516  1
  Li  Li1  1  0.503676  0.265197  0.258584  1
  Li  Li2  1  0.528006  0.793253  0.767420  1
  Ni  Ni3  1  0.308844  0.747767  0.149085  1
  Ni  Ni4  1  0.982785  0.991827  0.996697  1
  Ni  Ni5  1  0.313333  0.276364  0.647710  1
  Ni  Ni6  1  0.810013  0.014388  0.407154  1
  Ni  Ni7  1  0.778270  0.510487  0.903497  1
  O  O8  1  0.602673  0.755691  0.957168  1
  F  F9  1  0.087547  0.842356  0.348834  1
  F  F10  1  0.203970  0.399388  0.299165  1
  F  F11  1  0.215757  0.916753  0.789437  1
  F  F12  1  0.387151  0.147925  0.043448  1
  F  F13  1  0.409583  0.657831  0.539012  1
  F  F14  1  0.081453  0.350090  0.851830  1
  F  F15  1  0.903855  0.589250  0.104704  1
  F  F16  1  0.585475  0.241704  0.452232  1
  F  F17  1  0.710410  0.003984  0.206795  1
  F  F18  1  0.704372  0.492243  0.698947  1
  F  F19  1  0.913090  0.094866  0.602642  1
