# generated using pymatgen
data_LiCr(PO3)4
_symmetry_space_group_name_H-M   'P 1'
_cell_length_a   7.34562270
_cell_length_b   12.99766268
_cell_length_c   9.14876921
_cell_angle_alpha   90.00000000
_cell_angle_beta   92.62099980
_cell_angle_gamma   90.00000000
_symmetry_Int_Tables_number   1
_chemical_formula_structural   LiCr(PO3)4
_chemical_formula_sum   'Li4 Cr4 P16 O48'
_cell_volume   872.57343740
_cell_formula_units_Z   4
loop_
 _symmetry_equiv_pos_site_id
 _symmetry_equiv_pos_as_xyz
  1  'x, y, z'
loop_
 _atom_site_type_symbol
 _atom_site_label
 _atom_site_symmetry_multiplicity
 _atom_site_fract_x
 _atom_site_fract_y
 _atom_site_fract_z
 _atom_site_occupancy
  Li  Li0  1  0.984578  0.226565  0.052499  1
  Li  Li1  1  0.515422  0.726565  0.447501  1
  Li  Li2  1  0.484578  0.273435  0.552499  1
  Li  Li3  1  0.015422  0.773435  0.947501  1
  Cr  Cr4  1  0.960030  0.297941  0.436684  1
  Cr  Cr5  1  0.539970  0.797941  0.063316  1
  Cr  Cr6  1  0.460030  0.202059  0.936684  1
  Cr  Cr7  1  0.039970  0.702059  0.563316  1
  P  P8  1  0.073043  0.614011  0.241115  1
  P  P9  1  0.113590  0.130238  0.694599  1
  P  P10  1  0.171918  0.911273  0.703005  1
  P  P11  1  0.297623  0.899541  0.226201  1
  P  P12  1  0.202377  0.399541  0.273799  1
  P  P13  1  0.328082  0.411273  0.796995  1
  P  P14  1  0.386410  0.630238  0.805401  1
  P  P15  1  0.426957  0.114011  0.258885  1
  P  P16  1  0.573043  0.885989  0.741115  1
  P  P17  1  0.613590  0.369762  0.194599  1
  P  P18  1  0.671918  0.588727  0.203005  1
  P  P19  1  0.797623  0.600459  0.726201  1
  P  P20  1  0.702377  0.100459  0.773799  1
  P  P21  1  0.828082  0.088727  0.296995  1
  P  P22  1  0.886410  0.869762  0.305401  1
  P  P23  1  0.926957  0.385989  0.758885  1
  O  O24  1  0.091017  0.878409  0.252838  1
  O  O25  1  0.044406  0.895344  0.821123  1
  O  O26  1  0.125818  0.428247  0.729362  1
  O  O27  1  0.078764  0.314395  0.212915  1
  O  O28  1  0.075853  0.685656  0.115501  1
  O  O29  1  0.237882  0.137830  0.828979  1
  O  O30  1  0.154165  0.648165  0.388573  1
  O  O31  1  0.336703  0.905747  0.064721  1
  O  O32  1  0.173769  0.507922  0.194123  1
  O  O33  1  0.141679  0.020942  0.618518  1
  O  O34  1  0.129011  0.213496  0.580984  1
  O  O35  1  0.322690  0.333440  0.920503  1
  O  O36  1  0.177310  0.833440  0.579497  1
  O  O37  1  0.326231  0.007922  0.305877  1
  O  O38  1  0.370989  0.713496  0.919016  1
  O  O39  1  0.163297  0.405747  0.435279  1
  O  O40  1  0.358321  0.520942  0.881482  1
  O  O41  1  0.345835  0.148165  0.111427  1
  O  O42  1  0.262118  0.637830  0.671021  1
  O  O43  1  0.424147  0.185656  0.384499  1
  O  O44  1  0.421236  0.814395  0.287085  1
  O  O45  1  0.374182  0.928247  0.770638  1
  O  O46  1  0.408983  0.378409  0.247162  1
  O  O47  1  0.455594  0.395344  0.678877  1
  O  O48  1  0.544406  0.604656  0.321123  1
  O  O49  1  0.591017  0.621591  0.752838  1
  O  O50  1  0.625818  0.071753  0.229362  1
  O  O51  1  0.578764  0.185605  0.712915  1
  O  O52  1  0.575853  0.814344  0.615501  1
  O  O53  1  0.737882  0.362170  0.328979  1
  O  O54  1  0.654165  0.851835  0.888573  1
  O  O55  1  0.641679  0.479058  0.118518  1
  O  O56  1  0.836703  0.594253  0.564721  1
  O  O57  1  0.629011  0.286504  0.080984  1
  O  O58  1  0.673769  0.992078  0.694123  1
  O  O59  1  0.822690  0.166560  0.420503  1
  O  O60  1  0.677310  0.666560  0.079497  1
  O  O61  1  0.870989  0.786504  0.419016  1
  O  O62  1  0.858321  0.979058  0.381482  1
  O  O63  1  0.826231  0.492078  0.805877  1
  O  O64  1  0.663297  0.094253  0.935279  1
  O  O65  1  0.845835  0.351835  0.611427  1
  O  O66  1  0.762118  0.862170  0.171021  1
  O  O67  1  0.924147  0.314344  0.884499  1
  O  O68  1  0.921236  0.685605  0.787085  1
  O  O69  1  0.874182  0.571753  0.270638  1
  O  O70  1  0.955594  0.104656  0.178877  1
  O  O71  1  0.908983  0.121591  0.747162  1
