# generated using pymatgen
data_KB5(H2O3)4
_symmetry_space_group_name_H-M   'P 1'
_cell_length_a   11.17699414
_cell_length_b   7.21114692
_cell_length_c   7.21114692
_cell_angle_alpha   101.88430899
_cell_angle_beta   90.00000000
_cell_angle_gamma   90.00000000
_symmetry_Int_Tables_number   1
_chemical_formula_structural   KB5(H2O3)4
_chemical_formula_sum   'K2 B10 H16 O24'
_cell_volume   568.75283713
_cell_formula_units_Z   2
loop_
 _symmetry_equiv_pos_site_id
 _symmetry_equiv_pos_as_xyz
  1  'x, y, z'
loop_
 _atom_site_type_symbol
 _atom_site_label
 _atom_site_symmetry_multiplicity
 _atom_site_fract_x
 _atom_site_fract_y
 _atom_site_fract_z
 _atom_site_occupancy
  K  K0  1  0.500000  0.492771  0.492771  1
  K  K1  1  0.000000  0.992771  0.992771  1
  B  B2  1  0.500000  0.894814  0.894814  1
  B  B3  1  0.000000  0.394814  0.394814  1
  B  B4  1  0.688251  0.704626  0.895671  1
  B  B5  1  0.311749  0.895671  0.704626  1
  B  B6  1  0.811749  0.204626  0.395671  1
  B  B7  1  0.188251  0.395671  0.204626  1
  B  B8  1  0.704714  0.041129  0.930318  1
  B  B9  1  0.295286  0.930318  0.041129  1
  B  B10  1  0.795286  0.541129  0.430318  1
  B  B11  1  0.204714  0.430318  0.541129  1
  H  H12  1  0.489007  0.008785  0.527438  1
  H  H13  1  0.510993  0.527438  0.008785  1
  H  H14  1  0.010993  0.508785  0.027438  1
  H  H15  1  0.989007  0.027438  0.508785  1
  H  H16  1  0.480021  0.013375  0.308093  1
  H  H17  1  0.519979  0.308093  0.013375  1
  H  H18  1  0.019979  0.513375  0.808093  1
  H  H19  1  0.980021  0.808093  0.513375  1
  H  H20  1  0.666093  0.049588  0.398010  1
  H  H21  1  0.333907  0.398010  0.049588  1
  H  H22  1  0.833907  0.549588  0.898010  1
  H  H23  1  0.166093  0.898010  0.549588  1
  H  H24  1  0.746268  0.314172  0.939188  1
  H  H25  1  0.253732  0.939188  0.314172  1
  H  H26  1  0.753732  0.814172  0.439188  1
  H  H27  1  0.246268  0.439188  0.814172  1
  O  O28  1  0.566007  0.712681  0.884610  1
  O  O29  1  0.433993  0.884610  0.712681  1
  O  O30  1  0.933993  0.212681  0.384610  1
  O  O31  1  0.066007  0.384610  0.212681  1
  O  O32  1  0.582844  0.058158  0.922426  1
  O  O33  1  0.417156  0.922426  0.058158  1
  O  O34  1  0.917156  0.558158  0.422426  1
  O  O35  1  0.082844  0.422426  0.558158  1
  O  O36  1  0.759440  0.865957  0.918109  1
  O  O37  1  0.240560  0.918109  0.865957  1
  O  O38  1  0.740560  0.365957  0.418109  1
  O  O39  1  0.259440  0.418109  0.365957  1
  O  O40  1  0.744091  0.533676  0.886334  1
  O  O41  1  0.255909  0.886334  0.533676  1
  O  O42  1  0.755909  0.033676  0.386334  1
  O  O43  1  0.244091  0.386334  0.033676  1
  O  O44  1  0.781389  0.191693  0.953676  1
  O  O45  1  0.218611  0.953676  0.191693  1
  O  O46  1  0.718611  0.691693  0.453676  1
  O  O47  1  0.281389  0.453676  0.691693  1
  O  O48  1  0.520240  0.071790  0.427913  1
  O  O49  1  0.479760  0.427913  0.071790  1
  O  O50  1  0.979760  0.571790  0.927913  1
  O  O51  1  0.020240  0.927913  0.571790  1
