# generated using pymatgen
data_Fe3O5F
_symmetry_space_group_name_H-M   'P 1'
_cell_length_a   4.64545617
_cell_length_b   7.58329801
_cell_length_c   5.55344901
_cell_angle_alpha   94.47058592
_cell_angle_beta   92.59685549
_cell_angle_gamma   88.84993918
_symmetry_Int_Tables_number   1
_chemical_formula_structural   Fe3O5F
_chemical_formula_sum   'Fe6 O10 F2'
_cell_volume   194.81383508
_cell_formula_units_Z   2
loop_
 _symmetry_equiv_pos_site_id
 _symmetry_equiv_pos_as_xyz
  1  'x, y, z'
loop_
 _atom_site_type_symbol
 _atom_site_label
 _atom_site_symmetry_multiplicity
 _atom_site_fract_x
 _atom_site_fract_y
 _atom_site_fract_z
 _atom_site_occupancy
  Fe  Fe0  1  0.520817  0.674980  0.154614  1
  Fe  Fe1  1  0.479178  0.991683  0.512054  1
  Fe  Fe2  1  0.500003  0.333331  0.833329  1
  Fe  Fe3  1  0.988033  0.665876  0.679218  1
  Fe  Fe4  1  0.000006  0.333328  0.333337  1
  Fe  Fe5  1  0.011959  0.000798  0.987453  1
  O  O6  1  0.816420  0.436895  0.622969  1
  O  O7  1  0.810030  0.777848  0.965993  1
  O  O8  1  0.691176  0.102238  0.794749  1
  O  O9  1  0.694014  0.767568  0.461553  1
  O  O10  1  0.696293  0.436998  0.130418  1
  O  O11  1  0.308820  0.564430  0.871912  1
  O  O12  1  0.303711  0.229667  0.536251  1
  O  O13  1  0.305988  0.899100  0.205116  1
  O  O14  1  0.183580  0.229769  0.043696  1
  O  O15  1  0.189972  0.888822  0.700671  1
  F  F16  1  0.796934  0.097572  0.298696  1
  F  F17  1  0.203066  0.569095  0.367971  1
