# generated using pymatgen
data_Li3Cr3(CoO6)2
_symmetry_space_group_name_H-M   'P 1'
_cell_length_a   8.78147681
_cell_length_b   12.44331069
_cell_length_c   9.25763180
_cell_angle_alpha   90.00000000
_cell_angle_beta   90.00000000
_cell_angle_gamma   91.40584816
_symmetry_Int_Tables_number   1
_chemical_formula_structural   Li3Cr3(CoO6)2
_chemical_formula_sum   'Li12 Cr12 Co8 O48'
_cell_volume   1011.28289406
_cell_formula_units_Z   4
loop_
 _symmetry_equiv_pos_site_id
 _symmetry_equiv_pos_as_xyz
  1  'x, y, z'
loop_
 _atom_site_type_symbol
 _atom_site_label
 _atom_site_symmetry_multiplicity
 _atom_site_fract_x
 _atom_site_fract_y
 _atom_site_fract_z
 _atom_site_occupancy
  Li  Li0  1  0.077780  0.696772  0.086620  1
  Li  Li1  1  0.060372  0.342646  0.508725  1
  Li  Li2  1  0.165773  0.179116  0.771812  1
  Li  Li3  1  0.334227  0.320884  0.271812  1
  Li  Li4  1  0.422220  0.803228  0.586620  1
  Li  Li5  1  0.439628  0.157354  0.008725  1
  Li  Li6  1  0.560372  0.842646  0.991275  1
  Li  Li7  1  0.577780  0.196772  0.413380  1
  Li  Li8  1  0.665773  0.679116  0.728188  1
  Li  Li9  1  0.834227  0.820884  0.228188  1
  Li  Li10  1  0.939628  0.657354  0.491275  1
  Li  Li11  1  0.922220  0.303228  0.913380  1
  Cr  Cr12  1  0.042421  0.491880  0.248726  1
  Cr  Cr13  1  0.117929  0.851599  0.381378  1
  Cr  Cr14  1  0.116261  0.145942  0.112830  1
  Cr  Cr15  1  0.382071  0.648401  0.881378  1
  Cr  Cr16  1  0.383739  0.354058  0.612830  1
  Cr  Cr17  1  0.457579  0.008120  0.748726  1
  Cr  Cr18  1  0.542421  0.991880  0.251274  1
  Cr  Cr19  1  0.616261  0.645942  0.387170  1
  Cr  Cr20  1  0.617929  0.351599  0.118622  1
  Cr  Cr21  1  0.883739  0.854058  0.887170  1
  Cr  Cr22  1  0.882071  0.148401  0.618622  1
  Cr  Cr23  1  0.957579  0.508120  0.751274  1
  Co  Co24  1  0.242488  0.889394  0.030378  1
  Co  Co25  1  0.257512  0.610606  0.530378  1
  Co  Co26  1  0.262430  0.383492  0.966489  1
  Co  Co27  1  0.237570  0.116508  0.466489  1
  Co  Co28  1  0.762430  0.883492  0.533511  1
  Co  Co29  1  0.737570  0.616508  0.033511  1
  Co  Co30  1  0.742488  0.389394  0.469622  1
  Co  Co31  1  0.757512  0.110606  0.969622  1
  O  O32  1  0.056279  0.443522  0.877484  1
  O  O33  1  0.057502  0.906087  0.882935  1
  O  O34  1  0.058504  0.604330  0.665503  1
  O  O35  1  0.070936  0.194446  0.576939  1
  O  O36  1  0.098119  0.586703  0.367172  1
  O  O37  1  0.114311  0.833439  0.192104  1
  O  O38  1  0.132474  0.983243  0.413904  1
  O  O39  1  0.121460  0.246042  0.988395  1
  O  O40  1  0.173543  0.194223  0.273581  1
  O  O41  1  0.195332  0.435372  0.176945  1
  O  O42  1  0.243934  0.772845  0.470529  1
  O  O43  1  0.256066  0.727155  0.970529  1
  O  O44  1  0.244151  0.056862  0.055569  1
  O  O45  1  0.255849  0.443138  0.555569  1
  O  O46  1  0.304668  0.064628  0.676945  1
  O  O47  1  0.326457  0.305777  0.773581  1
  O  O48  1  0.367526  0.516757  0.913904  1
  O  O49  1  0.378540  0.253958  0.488395  1
  O  O50  1  0.385689  0.666561  0.692104  1
  O  O51  1  0.401881  0.913297  0.867172  1
  O  O52  1  0.441496  0.895670  0.165503  1
  O  O53  1  0.442498  0.593913  0.382935  1
  O  O54  1  0.429064  0.305554  0.076939  1
  O  O55  1  0.443721  0.056478  0.377484  1
  O  O56  1  0.556279  0.943522  0.622516  1
  O  O57  1  0.570936  0.694446  0.923061  1
  O  O58  1  0.557502  0.406087  0.617065  1
  O  O59  1  0.558504  0.104330  0.834497  1
  O  O60  1  0.598119  0.086703  0.132828  1
  O  O61  1  0.614311  0.333439  0.307896  1
  O  O62  1  0.621460  0.746042  0.511605  1
  O  O63  1  0.632474  0.483243  0.086096  1
  O  O64  1  0.673543  0.694223  0.226419  1
  O  O65  1  0.695332  0.935372  0.323055  1
  O  O66  1  0.744151  0.556862  0.444431  1
  O  O67  1  0.755849  0.943138  0.944431  1
  O  O68  1  0.743934  0.272845  0.029471  1
  O  O69  1  0.756066  0.227155  0.529471  1
  O  O70  1  0.804668  0.564628  0.823055  1
  O  O71  1  0.826457  0.805777  0.726419  1
  O  O72  1  0.878540  0.753958  0.011605  1
  O  O73  1  0.867526  0.016757  0.586096  1
  O  O74  1  0.885689  0.166561  0.807896  1
  O  O75  1  0.901881  0.413297  0.632828  1
  O  O76  1  0.929064  0.805554  0.423061  1
  O  O77  1  0.941496  0.395670  0.334497  1
  O  O78  1  0.942498  0.093913  0.117065  1
  O  O79  1  0.943721  0.556478  0.122516  1
