# generated using pymatgen
data_CuO2
_symmetry_space_group_name_H-M   'P 1'
_cell_length_a   4.53172493
_cell_length_b   6.94439654
_cell_length_c   6.37626768
_cell_angle_alpha   96.65455747
_cell_angle_beta   69.17815576
_cell_angle_gamma   109.04634975
_symmetry_Int_Tables_number   1
_chemical_formula_structural   CuO2
_chemical_formula_sum   'Cu2 O4'
_cell_volume   177.28876949
_cell_formula_units_Z   2
loop_
 _symmetry_equiv_pos_site_id
 _symmetry_equiv_pos_as_xyz
  1  'x, y, z'
loop_
 _atom_site_type_symbol
 _atom_site_label
 _atom_site_symmetry_multiplicity
 _atom_site_fract_x
 _atom_site_fract_y
 _atom_site_fract_z
 _atom_site_occupancy
  Cu  Cu0  1  -0.000001  0.500006  0.000002  1
  Cu  Cu1  1  0.500000  0.500002  0.999997  1
  O  O2  1  0.797479  0.094909  0.999978  1
  O  O3  1  0.202527  0.905094  0.000018  1
  O  O4  1  0.297460  0.094903  0.999983  1
  O  O5  1  0.702535  0.905086  0.000022  1
