# generated using pymatgen
data_Mn6O7F5
_symmetry_space_group_name_H-M   'P 1'
_cell_length_a   4.58756245
_cell_length_b   5.67141501
_cell_length_c   15.31632496
_cell_angle_alpha   90.04375550
_cell_angle_beta   89.63088461
_cell_angle_gamma   89.69334055
_symmetry_Int_Tables_number   1
_chemical_formula_structural   Mn6O7F5
_chemical_formula_sum   'Mn12 O14 F10'
_cell_volume   398.48558779
_cell_formula_units_Z   2
loop_
 _symmetry_equiv_pos_site_id
 _symmetry_equiv_pos_as_xyz
  1  'x, y, z'
loop_
 _atom_site_type_symbol
 _atom_site_label
 _atom_site_symmetry_multiplicity
 _atom_site_fract_x
 _atom_site_fract_y
 _atom_site_fract_z
 _atom_site_occupancy
  Mn  Mn0  1  0.001843  0.151882  0.409229  1
  Mn  Mn1  1  0.014306  0.845773  0.240413  1
  Mn  Mn2  1  0.021768  0.163038  0.079337  1
  Mn  Mn3  1  0.030200  0.162310  0.743183  1
  Mn  Mn4  1  0.019293  0.839479  0.579218  1
  Mn  Mn5  1  0.024934  0.855782  0.911929  1
  Mn  Mn6  1  0.504519  0.361079  0.592088  1
  Mn  Mn7  1  0.494709  0.339804  0.921551  1
  Mn  Mn8  1  0.496916  0.347933  0.254611  1
  Mn  Mn9  1  0.507026  0.633173  0.093640  1
  Mn  Mn10  1  0.510447  0.650657  0.424281  1
  Mn  Mn11  1  0.479365  0.637801  0.751097  1
  O  O12  1  0.218053  0.111421  0.300199  1
  O  O13  1  0.232595  0.115233  0.635822  1
  O  O14  1  0.219104  0.117996  0.970629  1
  O  O15  1  0.235860  0.884460  0.134762  1
  O  O16  1  0.217910  0.883911  0.468775  1
  O  O17  1  0.237162  0.886787  0.801084  1
  O  O18  1  0.280190  0.398162  0.146616  1
  O  O19  1  0.277057  0.603628  0.645216  1
  O  O20  1  0.276485  0.397798  0.812955  1
  O  O21  1  0.727397  0.384642  0.027936  1
  O  O22  1  0.725575  0.615247  0.196199  1
  O  O23  1  0.715453  0.380423  0.364085  1
  O  O24  1  0.726452  0.612649  0.531176  1
  O  O25  1  0.724641  0.386044  0.694888  1
  F  F26  1  0.253572  0.616717  0.320572  1
  F  F27  1  0.258341  0.377967  0.486302  1
  F  F28  1  0.269739  0.618358  0.984514  1
  F  F29  1  0.728257  0.625154  0.861453  1
  F  F30  1  0.768015  0.121625  0.181759  1
  F  F31  1  0.752752  0.123680  0.524699  1
  F  F32  1  0.756644  0.880808  0.346537  1
  F  F33  1  0.755034  0.868406  0.022735  1
  F  F34  1  0.774998  0.127438  0.849557  1
  F  F35  1  0.763388  0.872734  0.690952  1
