# generated using pymatgen
data_H12C4N2O9
_symmetry_space_group_name_H-M   'P 1'
_cell_length_a   11.32714852
_cell_length_b   12.49471785
_cell_length_c   6.98272139
_cell_angle_alpha   90.00000000
_cell_angle_beta   90.00000000
_cell_angle_gamma   90.00000000
_symmetry_Int_Tables_number   1
_chemical_formula_structural   H12C4N2O9
_chemical_formula_sum   'H48 C16 N8 O36'
_cell_volume   988.26124015
_cell_formula_units_Z   4
loop_
 _symmetry_equiv_pos_site_id
 _symmetry_equiv_pos_as_xyz
  1  'x, y, z'
loop_
 _atom_site_type_symbol
 _atom_site_label
 _atom_site_symmetry_multiplicity
 _atom_site_fract_x
 _atom_site_fract_y
 _atom_site_fract_z
 _atom_site_occupancy
  H  H0  1  0.283207  0.495686  0.300429  1
  H  H1  1  0.783207  0.004314  0.199571  1
  H  H2  1  0.716793  0.995686  0.699571  1
  H  H3  1  0.216793  0.504314  0.800429  1
  H  H4  1  0.716793  0.504314  0.699571  1
  H  H5  1  0.216793  0.995686  0.800429  1
  H  H6  1  0.283207  0.004314  0.300429  1
  H  H7  1  0.783207  0.495686  0.199571  1
  H  H8  1  0.658563  0.186975  0.861383  1
  H  H9  1  0.158563  0.313025  0.638617  1
  H  H10  1  0.341437  0.686975  0.138617  1
  H  H11  1  0.841437  0.813025  0.361383  1
  H  H12  1  0.341437  0.813025  0.138617  1
  H  H13  1  0.841437  0.686975  0.361383  1
  H  H14  1  0.658563  0.313025  0.861383  1
  H  H15  1  0.158563  0.186975  0.638617  1
  H  H16  1  0.886891  0.317796  0.486434  1
  H  H17  1  0.386891  0.182204  0.013566  1
  H  H18  1  0.113109  0.817796  0.513566  1
  H  H19  1  0.613109  0.682204  0.986434  1
  H  H20  1  0.113109  0.682204  0.513566  1
  H  H21  1  0.613109  0.817796  0.986434  1
  H  H22  1  0.886891  0.182204  0.486434  1
  H  H23  1  0.386891  0.317796  0.013566  1
  H  H24  1  0.787293  0.250000  0.617431  1
  H  H25  1  0.287293  0.250000  0.882569  1
  H  H26  1  0.212707  0.750000  0.382569  1
  H  H27  1  0.712707  0.750000  0.117431  1
  H  H28  1  0.774721  0.250000  0.378535  1
  H  H29  1  0.274720  0.250000  0.121465  1
  H  H30  1  0.225279  0.750000  0.621465  1
  H  H31  1  0.725279  0.750000  0.878535  1
  H  H32  1  0.853783  0.250000  0.954443  1
  H  H33  1  0.353783  0.250000  0.545557  1
  H  H34  1  0.146217  0.750000  0.045557  1
  H  H35  1  0.646217  0.750000  0.454443  1
  H  H36  1  0.994235  0.250000  0.876942  1
  H  H37  1  0.494235  0.250000  0.623058  1
  H  H38  1  0.005765  0.750000  0.123058  1
  H  H39  1  0.505765  0.750000  0.376942  1
  H  H40  1  0.960693  0.318353  0.077307  1
  H  H41  1  0.460693  0.181647  0.422693  1
  H  H42  1  0.039307  0.818353  0.922693  1
  H  H43  1  0.539307  0.681647  0.577307  1
  H  H44  1  0.039307  0.681647  0.922693  1
  H  H45  1  0.539307  0.818353  0.577307  1
  H  H46  1  0.960693  0.181647  0.077307  1
  H  H47  1  0.460693  0.318353  0.422693  1
  C  C48  1  0.990440  0.511371  0.267382  1
  C  C49  1  0.490440  0.988629  0.232618  1
  C  C50  1  0.009560  0.011371  0.732618  1
  C  C51  1  0.509560  0.488629  0.767382  1
  C  C52  1  0.009560  0.488629  0.732618  1
  C  C53  1  0.509560  0.011371  0.767382  1
  C  C54  1  0.990440  0.988629  0.267382  1
  C  C55  1  0.490440  0.511371  0.232618  1
  C  C56  1  0.117295  0.464299  0.250393  1
  C  C57  1  0.617295  0.035701  0.249607  1
  C  C58  1  0.882705  0.964299  0.749607  1
  C  C59  1  0.382705  0.535701  0.750393  1
  C  C60  1  0.882705  0.535701  0.749607  1
  C  C61  1  0.382705  0.964299  0.750393  1
  C  C62  1  0.117295  0.035701  0.250393  1
  C  C63  1  0.617295  0.464299  0.249607  1
  N  N64  1  0.835055  0.250000  0.489129  1
  N  N65  1  0.335055  0.250000  0.010871  1
  N  N66  1  0.164945  0.750000  0.510871  1
  N  N67  1  0.664945  0.750000  0.989129  1
  N  N68  1  0.942279  0.250000  0.997083  1
  N  N69  1  0.442279  0.250000  0.502917  1
  N  N70  1  0.057721  0.750000  0.002917  1
  N  N71  1  0.557721  0.750000  0.497083  1
  O  O72  1  0.977517  0.603383  0.338301  1
  O  O73  1  0.477517  0.896617  0.161699  1
  O  O74  1  0.022483  0.103383  0.661699  1
  O  O75  1  0.522483  0.396617  0.838301  1
  O  O76  1  0.022483  0.396617  0.661699  1
  O  O77  1  0.522483  0.103383  0.838301  1
  O  O78  1  0.977517  0.896617  0.338301  1
  O  O79  1  0.477517  0.603383  0.161699  1
  O  O80  1  0.909276  0.449334  0.205596  1
  O  O81  1  0.409276  0.050666  0.294404  1
  O  O82  1  0.090724  0.949334  0.794404  1
  O  O83  1  0.590724  0.550666  0.705596  1
  O  O84  1  0.090724  0.550666  0.794404  1
  O  O85  1  0.590724  0.949334  0.705596  1
  O  O86  1  0.909276  0.050666  0.205596  1
  O  O87  1  0.409276  0.449334  0.294404  1
  O  O88  1  0.199867  0.530120  0.313840  1
  O  O89  1  0.699867  0.969880  0.186160  1
  O  O90  1  0.800133  0.030120  0.686160  1
  O  O91  1  0.300133  0.469880  0.813840  1
  O  O92  1  0.800133  0.469880  0.686160  1
  O  O93  1  0.300133  0.030120  0.813840  1
  O  O94  1  0.199867  0.969880  0.313840  1
  O  O95  1  0.699867  0.530120  0.186160  1
  O  O96  1  0.135002  0.374440  0.183608  1
  O  O97  1  0.635002  0.125560  0.316392  1
  O  O98  1  0.864998  0.874440  0.816392  1
  O  O99  1  0.364998  0.625560  0.683608  1
  O  O100  1  0.864998  0.625560  0.816392  1
  O  O101  1  0.364998  0.874440  0.683608  1
  O  O102  1  0.135002  0.125560  0.183608  1
  O  O103  1  0.635002  0.374440  0.316392  1
  O  O104  1  0.711271  0.250000  0.849773  1
  O  O105  1  0.211271  0.250000  0.650227  1
  O  O106  1  0.288729  0.750000  0.150227  1
  O  O107  1  0.788729  0.750000  0.349773  1
