# generated using pymatgen
data_Hf2N2O
_symmetry_space_group_name_H-M   'P 1'
_cell_length_a   8.74826824
_cell_length_b   8.72188408
_cell_length_c   8.71948008
_cell_angle_alpha   109.18316465
_cell_angle_beta   109.57872151
_cell_angle_gamma   109.66943745
_symmetry_Int_Tables_number   1
_chemical_formula_structural   Hf2N2O
_chemical_formula_sum   'Hf16 N16 O8'
_cell_volume   512.03514972
_cell_formula_units_Z   8
loop_
 _symmetry_equiv_pos_site_id
 _symmetry_equiv_pos_as_xyz
  1  'x, y, z'
loop_
 _atom_site_type_symbol
 _atom_site_label
 _atom_site_symmetry_multiplicity
 _atom_site_fract_x
 _atom_site_fract_y
 _atom_site_fract_z
 _atom_site_occupancy
  Hf  Hf0  1  0.498851  0.989708  0.987537  1
  Hf  Hf1  1  0.756750  0.293535  0.545266  1
  Hf  Hf2  1  0.720215  0.470685  0.249694  1
  Hf  Hf3  1  0.210266  0.954034  0.241648  1
  Hf  Hf4  1  0.250681  0.214645  0.955234  1
  Hf  Hf5  1  0.027138  0.741762  0.774431  1
  Hf  Hf6  1  0.533645  0.748616  0.282020  1
  Hf  Hf7  1  0.966106  0.258411  0.217497  1
  Hf  Hf8  1  0.503858  0.509946  0.512323  1
  Hf  Hf9  1  0.999217  0.997841  0.507966  1
  Hf  Hf10  1  0.469329  0.255987  0.724991  1
  Hf  Hf11  1  0.997538  0.508223  0.997639  1
  Hf  Hf12  1  0.744507  0.781127  0.033522  1
  Hf  Hf13  1  0.284558  0.535673  0.749975  1
  Hf  Hf14  1  0.779689  0.029900  0.754068  1
  Hf  Hf15  1  0.250368  0.706394  0.463122  1
  N  N16  1  0.733147  0.994865  0.961954  1
  N  N17  1  0.511071  0.241027  0.972009  1
  N  N18  1  0.772939  0.729775  0.266392  1
  N  N19  1  0.725251  0.254889  0.767485  1
  N  N20  1  0.486349  0.761836  0.033218  1
  N  N21  1  0.766890  0.537583  0.527390  1
  N  N22  1  0.273230  0.743400  0.229223  1
  N  N23  1  0.538545  0.772277  0.544032  1
  N  N24  1  0.958005  0.732195  0.989860  1
  N  N25  1  0.990005  0.958865  0.731165  1
  N  N26  1  0.225098  0.269565  0.736677  1
  N  N27  1  0.549857  0.532116  0.773161  1
  N  N28  1  0.228452  0.451273  0.462399  1
  N  N29  1  0.962261  0.504251  0.234765  1
  N  N30  1  0.032182  0.484807  0.758816  1
  N  N31  1  0.261888  0.780546  0.725329  1
  O  O32  1  0.764383  0.036416  0.481985  1
  O  O33  1  0.279918  0.016186  0.054494  1
  O  O34  1  0.741662  0.221123  0.277747  1
  O  O35  1  0.054520  0.277300  0.019608  1
  O  O36  1  0.013977  0.047073  0.277616  1
  O  O37  1  0.445113  0.465574  0.222629  1
  O  O38  1  0.233502  0.967469  0.505440  1
  O  O39  1  0.459044  0.223101  0.449671  1
