# generated using pymatgen
data_Mn2OF3
_symmetry_space_group_name_H-M   'P 1'
_cell_length_a   3.12612978
_cell_length_b   5.07250773
_cell_length_c   10.45728762
_cell_angle_alpha   90.00000000
_cell_angle_beta   90.01919478
_cell_angle_gamma   90.00000000
_symmetry_Int_Tables_number   1
_chemical_formula_structural   Mn2OF3
_chemical_formula_sum   'Mn4 O2 F6'
_cell_volume   165.82452025
_cell_formula_units_Z   2
loop_
 _symmetry_equiv_pos_site_id
 _symmetry_equiv_pos_as_xyz
  1  'x, y, z'
loop_
 _atom_site_type_symbol
 _atom_site_label
 _atom_site_symmetry_multiplicity
 _atom_site_fract_x
 _atom_site_fract_y
 _atom_site_fract_z
 _atom_site_occupancy
  Mn  Mn0  1  0.244069  0.522500  0.851011  1
  Mn  Mn1  1  0.244069  0.977500  0.351011  1
  Mn  Mn2  1  0.744964  0.081057  0.639429  1
  Mn  Mn3  1  0.744964  0.418943  0.139429  1
  O  O4  1  0.245976  0.278336  0.702046  1
  O  O5  1  0.245976  0.221664  0.202046  1
  F  F6  1  0.242509  0.861777  0.558857  1
  F  F7  1  0.242509  0.638223  0.058857  1
  F  F8  1  0.744445  0.305866  0.938364  1
  F  F9  1  0.743838  0.773181  0.790792  1
  F  F10  1  0.744445  0.194134  0.438364  1
  F  F11  1  0.743838  0.726819  0.290792  1
