# generated using pymatgen
data_Ba2YI7
_symmetry_space_group_name_H-M   'P 1'
_cell_length_a   14.12696914
_cell_length_b   13.08309391
_cell_length_c   14.12696914
_cell_angle_alpha   94.16772805
_cell_angle_beta   117.81388550
_cell_angle_gamma   120.21733713
_symmetry_Int_Tables_number   1
_chemical_formula_structural   Ba2YI7
_chemical_formula_sum   'Ba8 Y4 I28'
_cell_volume   1826.91565889
_cell_formula_units_Z   4
loop_
 _symmetry_equiv_pos_site_id
 _symmetry_equiv_pos_as_xyz
  1  'x, y, z'
loop_
 _atom_site_type_symbol
 _atom_site_label
 _atom_site_symmetry_multiplicity
 _atom_site_fract_x
 _atom_site_fract_y
 _atom_site_fract_z
 _atom_site_occupancy
  Ba  Ba0  1  0.709442  0.105230  0.256718  1
  Ba  Ba1  1  0.798159  0.738721  0.320619  1
  Ba  Ba2  1  0.418103  0.238721  0.440562  1
  Ba  Ba3  1  0.151487  0.394770  0.104212  1
  Ba  Ba4  1  0.848513  0.605230  0.895788  1
  Ba  Ba5  1  0.581897  0.761279  0.559438  1
  Ba  Ba6  1  0.201841  0.261279  0.679381  1
  Ba  Ba7  1  0.290558  0.894770  0.743282  1
  Y  Y8  1  0.341304  0.172410  0.012821  1
  Y  Y9  1  0.840411  0.327590  0.668894  1
  Y  Y10  1  0.159589  0.672410  0.331106  1
  Y  Y11  1  0.658696  0.827590  0.987179  1
  I  I12  1  0.920060  0.040094  0.226440  1
  I  I13  1  0.914608  0.451471  0.092983  1
  I  I14  1  0.696334  0.620561  0.035367  1
  I  I15  1  0.016283  0.648216  0.447590  1
  I  I16  1  0.627400  0.349052  0.225806  1
  I  I17  1  0.585193  0.120561  0.424228  1
  I  I18  1  0.200625  0.148216  0.131931  1
  I  I19  1  0.876755  0.150948  0.778348  1
  I  I20  1  0.542663  0.769520  0.127624  1
  I  I21  1  0.813653  0.540094  0.620034  1
  I  I22  1  0.641896  0.269520  0.726858  1
  I  I23  1  0.514734  0.531781  0.351361  1
  I  I24  1  0.641513  0.048529  0.963138  1
  I  I25  1  0.180420  0.031781  0.517046  1
  I  I26  1  0.819580  0.968219  0.482954  1
  I  I27  1  0.358487  0.951471  0.036862  1
  I  I28  1  0.485266  0.468219  0.648639  1
  I  I29  1  0.358104  0.730480  0.273142  1
  I  I30  1  0.186347  0.459906  0.379966  1
  I  I31  1  0.457337  0.230480  0.872376  1
  I  I32  1  0.123245  0.849052  0.221652  1
  I  I33  1  0.799375  0.851784  0.868069  1
  I  I34  1  0.414807  0.879439  0.575772  1
  I  I35  1  0.372600  0.650948  0.774194  1
  I  I36  1  0.983717  0.351784  0.552410  1
  I  I37  1  0.303666  0.379439  0.964633  1
  I  I38  1  0.085392  0.548529  0.907017  1
  I  I39  1  0.079940  0.959906  0.773560  1
