# generated using pymatgen
data_Li7Mn3(WO8)2
_symmetry_space_group_name_H-M   'P 1'
_cell_length_a   5.90758614
_cell_length_b   5.86206279
_cell_length_c   9.65178707
_cell_angle_alpha   89.99995260
_cell_angle_beta   89.83416264
_cell_angle_gamma   119.74500719
_symmetry_Int_Tables_number   1
_chemical_formula_structural   Li7Mn3(WO8)2
_chemical_formula_sum   'Li7 Mn3 W2 O16'
_cell_volume   290.20618484
_cell_formula_units_Z   1
loop_
 _symmetry_equiv_pos_site_id
 _symmetry_equiv_pos_as_xyz
  1  'x, y, z'
loop_
 _atom_site_type_symbol
 _atom_site_label
 _atom_site_symmetry_multiplicity
 _atom_site_fract_x
 _atom_site_fract_y
 _atom_site_fract_z
 _atom_site_occupancy
  Li  Li0  1  0.161755  0.826738  0.207479  1
  Li  Li1  1  0.347790  0.673900  0.903153  1
  Li  Li2  1  0.986076  0.993052  0.997685  1
  Li  Li3  1  0.996423  0.998245  0.484160  1
  Li  Li4  1  0.161768  0.335053  0.207481  1
  Li  Li5  1  0.341237  0.170618  0.715170  1
  Li  Li6  1  0.667566  0.333794  0.408411  1
  Mn  Mn7  1  0.642267  0.821150  0.232857  1
  Mn  Mn8  1  0.823412  0.660094  0.716602  1
  Mn  Mn9  1  0.823406  0.163318  0.716606  1
  W  W10  1  0.293663  0.646839  0.484959  1
  W  W11  1  0.657167  0.328599  0.992377  1
  O  O12  1  0.165550  0.827956  0.590160  1
  O  O13  1  0.034434  0.517222  0.356320  1
  O  O14  1  0.384660  0.692347  0.112008  1
  O  O15  1  0.966750  0.983391  0.292239  1
  O  O16  1  0.985895  0.992951  0.805208  1
  O  O17  1  0.165548  0.337617  0.590166  1
  O  O18  1  0.499469  0.961435  0.355606  1
  O  O19  1  0.499477  0.538065  0.355603  1
  O  O20  1  0.338129  0.169079  0.073310  1
  O  O21  1  0.669594  0.834802  0.603232  1
  O  O22  1  0.544806  0.501418  0.842283  1
  O  O23  1  0.544799  0.043400  0.842287  1
  O  O24  1  0.689641  0.344827  0.612086  1
  O  O25  1  0.820910  0.649257  0.088632  1
  O  O26  1  0.966885  0.483443  0.833123  1
  O  O27  1  0.820922  0.171695  0.088636  1
