# generated using pymatgen
data_Ca2In2O5
_symmetry_space_group_name_H-M   'P 1'
_cell_length_a   5.89627383
_cell_length_b   15.16024076
_cell_length_c   5.91809792
_cell_angle_alpha   90.01458761
_cell_angle_beta   90.00343256
_cell_angle_gamma   89.99144419
_symmetry_Int_Tables_number   1
_chemical_formula_structural   Ca2In2O5
_chemical_formula_sum   'Ca8 In8 O20'
_cell_volume   529.01242154
_cell_formula_units_Z   4
loop_
 _symmetry_equiv_pos_site_id
 _symmetry_equiv_pos_as_xyz
  1  'x, y, z'
loop_
 _atom_site_type_symbol
 _atom_site_label
 _atom_site_symmetry_multiplicity
 _atom_site_fract_x
 _atom_site_fract_y
 _atom_site_fract_z
 _atom_site_occupancy
  Ca  Ca0  1  0.019430  0.111561  0.441801  1
  Ca  Ca1  1  0.019447  0.388440  0.441746  1
  Ca  Ca2  1  0.480579  0.111541  0.941817  1
  Ca  Ca3  1  0.480573  0.388489  0.941748  1
  Ca  Ca4  1  0.519468  0.611541  0.058271  1
  Ca  Ca5  1  0.519452  0.888467  0.058246  1
  Ca  Ca6  1  0.980523  0.611557  0.558264  1
  Ca  Ca7  1  0.980470  0.888453  0.558233  1
  In  In8  1  0.000060  -0.000013  0.000002  1
  In  In9  1  0.000087  0.500013  -0.000019  1
  In  In10  1  0.047597  0.749974  0.070413  1
  In  In11  1  0.452487  0.750067  0.570567  1
  In  In12  1  0.499979  0.000043  0.499959  1
  In  In13  1  0.499981  0.499991  0.500020  1
  In  In14  1  0.547747  0.249895  0.429493  1
  In  In15  1  0.952401  0.250002  0.929462  1
  O  O16  1  0.113019  0.140168  0.059564  1
  O  O17  1  0.113047  0.359810  0.059451  1
  O  O18  1  0.118054  0.749956  0.424562  1
  O  O19  1  0.193886  0.530327  0.302552  1
  O  O20  1  0.193891  0.969706  0.302545  1
  O  O21  1  0.306095  0.530312  0.802599  1
  O  O22  1  0.306026  0.969693  0.802537  1
  O  O23  1  0.381883  0.749976  0.924349  1
  O  O24  1  0.386781  0.140170  0.559486  1
  O  O25  1  0.386737  0.359842  0.559485  1
  O  O26  1  0.613086  0.640174  0.440395  1
  O  O27  1  0.613170  0.859832  0.440457  1
  O  O28  1  0.618204  0.250009  0.075612  1
  O  O29  1  0.693880  0.030306  0.197434  1
  O  O30  1  0.693966  0.469682  0.197452  1
  O  O31  1  0.806142  0.469694  0.697491  1
  O  O32  1  0.806125  0.030329  0.697442  1
  O  O33  1  0.881936  0.249984  0.575666  1
  O  O34  1  0.886912  0.640191  0.940520  1
  O  O35  1  0.886881  0.859821  0.940378  1
