# generated using pymatgen
data_MnOF
_symmetry_space_group_name_H-M   'P 1'
_cell_length_a   4.62341542
_cell_length_b   11.53986498
_cell_length_c   5.12350471
_cell_angle_alpha   89.61361955
_cell_angle_beta   89.88012023
_cell_angle_gamma   87.25296966
_symmetry_Int_Tables_number   1
_chemical_formula_structural   MnOF
_chemical_formula_sum   'Mn8 O8 F8'
_cell_volume   273.03660863
_cell_formula_units_Z   8
loop_
 _symmetry_equiv_pos_site_id
 _symmetry_equiv_pos_as_xyz
  1  'x, y, z'
loop_
 _atom_site_type_symbol
 _atom_site_label
 _atom_site_symmetry_multiplicity
 _atom_site_fract_x
 _atom_site_fract_y
 _atom_site_fract_z
 _atom_site_occupancy
  Mn  Mn0  1  0.997897  0.422368  0.735531  1
  Mn  Mn1  1  0.026401  0.078758  0.231888  1
  Mn  Mn2  1  0.996638  0.572377  0.228153  1
  Mn  Mn3  1  0.057060  0.927682  0.726838  1
  Mn  Mn4  1  0.498223  0.824721  0.229895  1
  Mn  Mn5  1  0.521412  0.176904  0.790279  1
  Mn  Mn6  1  0.508589  0.325695  0.286881  1
  Mn  Mn7  1  0.474641  0.672583  0.774184  1
  O  O8  1  0.250366  0.065806  0.923007  1
  O  O9  1  0.212188  0.441946  0.413810  1
  O  O10  1  0.196734  0.550545  0.907866  1
  O  O11  1  0.247946  0.942475  0.397939  1
  O  O12  1  0.271451  0.807740  0.915333  1
  O  O13  1  0.731097  0.193147  0.111135  1
  O  O14  1  0.720910  0.308156  0.606253  1
  O  O15  1  0.706768  0.688564  0.075800  1
  F  F16  1  0.272210  0.189160  0.473109  1
  F  F17  1  0.257774  0.309849  0.974099  1
  F  F18  1  0.251910  0.691289  0.447804  1
  F  F19  1  0.730585  0.811113  0.549593  1
  F  F20  1  0.790727  0.052442  0.561270  1
  F  F21  1  0.746103  0.440546  0.052127  1
  F  F22  1  0.741317  0.567113  0.556866  1
  F  F23  1  0.791054  0.939024  0.030336  1
