# generated using pymatgen
data_Li2MnO2F
_symmetry_space_group_name_H-M   'P 1'
_cell_length_a   4.07361014
_cell_length_b   8.93285264
_cell_length_c   5.92596580
_cell_angle_alpha   90.00002225
_cell_angle_beta   90.00256057
_cell_angle_gamma   89.99997985
_symmetry_Int_Tables_number   1
_chemical_formula_structural   Li2MnO2F
_chemical_formula_sum   'Li8 Mn4 O8 F4'
_cell_volume   215.63972657
_cell_formula_units_Z   4
loop_
 _symmetry_equiv_pos_site_id
 _symmetry_equiv_pos_as_xyz
  1  'x, y, z'
loop_
 _atom_site_type_symbol
 _atom_site_label
 _atom_site_symmetry_multiplicity
 _atom_site_fract_x
 _atom_site_fract_y
 _atom_site_fract_z
 _atom_site_occupancy
  Li  Li0  1  0.250181  0.745927  0.862927  1
  Li  Li1  1  0.250181  0.754073  0.362926  1
  Li  Li2  1  0.249833  0.414449  0.885042  1
  Li  Li3  1  0.249833  0.085551  0.385042  1
  Li  Li4  1  0.750167  0.914449  0.614958  1
  Li  Li5  1  0.750167  0.585551  0.114958  1
  Li  Li6  1  0.749819  0.245927  0.637073  1
  Li  Li7  1  0.749819  0.254073  0.137073  1
  Mn  Mn8  1  0.250009  0.097997  0.886619  1
  Mn  Mn9  1  0.250009  0.402002  0.386616  1
  Mn  Mn10  1  0.749991  0.597998  0.613384  1
  Mn  Mn11  1  0.749991  0.902003  0.113381  1
  O  O12  1  0.250033  0.573852  0.605606  1
  O  O13  1  0.250034  0.926148  0.105606  1
  O  O14  1  0.249845  0.241919  0.650924  1
  O  O15  1  0.249845  0.258080  0.150924  1
  O  O16  1  0.750155  0.741920  0.849076  1
  O  O17  1  0.750155  0.758081  0.349076  1
  O  O18  1  0.749966  0.073852  0.894394  1
  O  O19  1  0.749967  0.426148  0.394394  1
  F  F20  1  0.250103  0.920888  0.617473  1
  F  F21  1  0.250102  0.579112  0.117473  1
  F  F22  1  0.749898  0.420888  0.882527  1
  F  F23  1  0.749897  0.079112  0.382527  1
