# generated using pymatgen
data_Li4VCr3O8
_symmetry_space_group_name_H-M   'P 1'
_cell_length_a   5.14755987
_cell_length_b   5.95200772
_cell_length_c   10.28911967
_cell_angle_alpha   89.76496652
_cell_angle_beta   80.30404057
_cell_angle_gamma   73.00072135
_symmetry_Int_Tables_number   1
_chemical_formula_structural   Li4VCr3O8
_chemical_formula_sum   'Li8 V2 Cr6 O16'
_cell_volume   296.82068851
_cell_formula_units_Z   2
loop_
 _symmetry_equiv_pos_site_id
 _symmetry_equiv_pos_as_xyz
  1  'x, y, z'
loop_
 _atom_site_type_symbol
 _atom_site_label
 _atom_site_symmetry_multiplicity
 _atom_site_fract_x
 _atom_site_fract_y
 _atom_site_fract_z
 _atom_site_occupancy
  Li  Li0  1  -0.000017  0.999698  0.001100  1
  Li  Li1  1  0.002034  0.998509  0.499348  1
  Li  Li2  1  0.000009  0.249996  0.249985  1
  Li  Li3  1  0.999971  0.249975  0.750034  1
  Li  Li4  1  0.998026  0.501450  0.000620  1
  Li  Li5  1  0.000039  0.500331  0.498859  1
  Li  Li6  1  0.000002  0.750003  0.249995  1
  Li  Li7  1  0.999936  0.750060  0.750026  1
  V  V8  1  0.499745  0.127510  0.873618  1
  V  V9  1  0.500246  0.372514  0.626375  1
  Cr  Cr10  1  0.499795  0.124121  0.375139  1
  Cr  Cr11  1  0.500213  0.375866  0.124854  1
  Cr  Cr12  1  0.500292  0.623938  0.374926  1
  Cr  Cr13  1  0.499612  0.627952  0.875553  1
  Cr  Cr14  1  0.499720  0.876053  0.125076  1
  Cr  Cr15  1  0.500373  0.872078  0.624449  1
  O  O16  1  0.274577  0.183259  0.060461  1
  O  O17  1  0.272734  0.177547  0.560101  1
  O  O18  1  0.724911  0.068451  0.189347  1
  O  O19  1  0.731656  0.062922  0.687747  1
  O  O20  1  0.275088  0.431526  0.310659  1
  O  O21  1  0.725458  0.316717  0.439532  1
  O  O22  1  0.268342  0.437064  0.812288  1
  O  O23  1  0.727305  0.322518  0.939921  1
  O  O24  1  0.274651  0.683339  0.060992  1
  O  O25  1  0.724671  0.568823  0.189647  1
  O  O26  1  0.275130  0.679765  0.560428  1
  O  O27  1  0.727690  0.568966  0.691182  1
  O  O28  1  0.275337  0.931147  0.310361  1
  O  O29  1  0.725348  0.816656  0.439010  1
  O  O30  1  0.272261  0.930996  0.808799  1
  O  O31  1  0.724845  0.820254  0.939567  1
