# generated using pymatgen
data_LiCuF4
_symmetry_space_group_name_H-M   'P 1'
_cell_length_a   10.19683958
_cell_length_b   7.27337855
_cell_length_c   7.43919323
_cell_angle_alpha   89.96465892
_cell_angle_beta   90.02586419
_cell_angle_gamma   90.21597411
_symmetry_Int_Tables_number   1
_chemical_formula_structural   LiCuF4
_chemical_formula_sum   'Li8 Cu8 F32'
_cell_volume   551.72721422
_cell_formula_units_Z   8
loop_
 _symmetry_equiv_pos_site_id
 _symmetry_equiv_pos_as_xyz
  1  'x, y, z'
loop_
 _atom_site_type_symbol
 _atom_site_label
 _atom_site_symmetry_multiplicity
 _atom_site_fract_x
 _atom_site_fract_y
 _atom_site_fract_z
 _atom_site_occupancy
  Li  Li0  1  0.020495  0.750187  0.374138  1
  Li  Li1  1  0.029992  0.749928  0.901124  1
  Li  Li2  1  0.470044  0.249749  0.400647  1
  Li  Li3  1  0.479467  0.250027  0.874555  1
  Li  Li4  1  0.520464  0.750117  0.125628  1
  Li  Li5  1  0.530009  0.750521  0.599190  1
  Li  Li6  1  0.970085  0.249912  0.099077  1
  Li  Li7  1  0.979474  0.249465  0.625690  1
  Cu  Cu8  1  0.247598  0.001131  0.123546  1
  Cu  Cu9  1  0.247814  0.498802  0.123487  1
  Cu  Cu10  1  0.252164  0.998736  0.623503  1
  Cu  Cu11  1  0.252533  0.501106  0.623489  1
  Cu  Cu12  1  0.747776  0.001208  0.376466  1
  Cu  Cu13  1  0.747666  0.498822  0.376492  1
  Cu  Cu14  1  0.752042  0.501246  0.876434  1
  Cu  Cu15  1  0.752232  0.998763  0.876501  1
  F  F16  1  0.074415  0.578579  0.141152  1
  F  F17  1  0.073984  0.920963  0.141399  1
  F  F18  1  0.082043  0.579990  0.601417  1
  F  F19  1  0.081943  0.919953  0.601667  1
  F  F20  1  0.172756  0.250661  0.092836  1
  F  F21  1  0.180813  0.250532  0.654415  1
  F  F22  1  0.237345  0.953872  0.873522  1
  F  F23  1  0.237433  0.546158  0.873781  1
  F  F24  1  0.262645  0.046224  0.373265  1
  F  F25  1  0.262648  0.453924  0.372981  1
  F  F26  1  0.319120  0.749387  0.154358  1
  F  F27  1  0.327282  0.749462  0.592820  1
  F  F28  1  0.418142  0.080243  0.101569  1
  F  F29  1  0.417602  0.420360  0.101847  1
  F  F30  1  0.426029  0.078892  0.641318  1
  F  F31  1  0.425678  0.421200  0.641495  1
  F  F32  1  0.574292  0.578823  0.358575  1
  F  F33  1  0.573936  0.921163  0.358767  1
  F  F34  1  0.582335  0.579821  0.898196  1
  F  F35  1  0.581975  0.920012  0.898398  1
  F  F36  1  0.672734  0.250860  0.407180  1
  F  F37  1  0.680935  0.250780  0.845573  1
  F  F38  1  0.737426  0.546043  0.626953  1
  F  F39  1  0.737348  0.953743  0.627004  1
  F  F40  1  0.762712  0.046235  0.126257  1
  F  F41  1  0.762559  0.453920  0.126341  1
  F  F42  1  0.819183  0.749104  0.345602  1
  F  F43  1  0.827163  0.749173  0.907156  1
  F  F44  1  0.918169  0.080038  0.398348  1
  F  F45  1  0.917835  0.420045  0.398545  1
  F  F46  1  0.925928  0.078873  0.858586  1
  F  F47  1  0.925741  0.421245  0.858713  1
