# generated using pymatgen
data_Ti3CoSn2(PO4)6
_symmetry_space_group_name_H-M   'P 1'
_cell_length_a   9.05123889
_cell_length_b   8.65796916
_cell_length_c   8.65796898
_cell_angle_alpha   59.99999394
_cell_angle_beta   61.42717379
_cell_angle_gamma   61.42717320
_symmetry_Int_Tables_number   1
_chemical_formula_structural   Ti3CoSn2(PO4)6
_chemical_formula_sum   'Ti3 Co1 Sn2 P6 O24'
_cell_volume   489.85122536
_cell_formula_units_Z   1
loop_
 _symmetry_equiv_pos_site_id
 _symmetry_equiv_pos_as_xyz
  1  'x, y, z'
loop_
 _atom_site_type_symbol
 _atom_site_label
 _atom_site_symmetry_multiplicity
 _atom_site_fract_x
 _atom_site_fract_y
 _atom_site_fract_z
 _atom_site_occupancy
  Ti  Ti0  1  0.056309  0.647897  0.647897  1
  Ti  Ti1  1  0.433952  0.855349  0.855349  1
  Ti  Ti2  1  0.954454  0.348515  0.348515  1
  Co  Co3  1  0.549878  0.150040  0.150040  1
  Sn  Sn4  1  0.962694  0.012435  0.012435  1
  Sn  Sn5  1  0.507680  0.497440  0.497440  1
  P  P6  1  0.255180  0.249109  0.537273  1
  P  P7  1  0.255180  0.958438  0.249109  1
  P  P8  1  0.255180  0.537273  0.958438  1
  P  P9  1  0.749613  0.465950  0.037727  1
  P  P10  1  0.749613  0.037727  0.746711  1
  P  P11  1  0.749613  0.746711  0.465950  1
  O  O12  1  0.084326  0.129228  0.284130  1
  O  O13  1  0.084326  0.502316  0.129228  1
  O  O14  1  0.084326  0.284130  0.502316  1
  O  O15  1  0.267632  0.075571  0.721064  1
  O  O16  1  0.422799  0.222290  0.375553  1
  O  O17  1  0.225961  0.422016  0.574284  1
  O  O18  1  0.267632  0.935733  0.075571  1
  O  O19  1  0.225961  0.777738  0.422016  1
  O  O20  1  0.580006  0.629353  0.003092  1
  O  O21  1  0.225961  0.574284  0.777738  1
  O  O22  1  0.745276  0.281385  0.056559  1
  O  O23  1  0.580006  0.003092  0.787548  1
  O  O24  1  0.422799  0.979358  0.222290  1
  O  O25  1  0.267632  0.721064  0.935733  1
  O  O26  1  0.762716  0.443798  0.221870  1
  O  O27  1  0.422799  0.375553  0.979358  1
  O  O28  1  0.762716  0.221870  0.571615  1
  O  O29  1  0.745276  0.056559  0.916781  1
  O  O30  1  0.762716  0.571615  0.443798  1
  O  O31  1  0.580006  0.787548  0.629353  1
  O  O32  1  0.745276  0.916781  0.281385  1
  O  O33  1  0.918169  0.699872  0.506392  1
  O  O34  1  0.918169  0.506392  0.875567  1
  O  O35  1  0.918169  0.875567  0.699872  1
