# generated using pymatgen
data_Ba2Ca7I18
_symmetry_space_group_name_H-M   'P 1'
_cell_length_a   10.37157698
_cell_length_b   11.48205927
_cell_length_c   11.21524615
_cell_angle_alpha   95.69014135
_cell_angle_beta   94.90516541
_cell_angle_gamma   115.89143283
_symmetry_Int_Tables_number   1
_chemical_formula_structural   Ba2Ca7I18
_chemical_formula_sum   'Ba2 Ca7 I18'
_cell_volume   1183.16741682
_cell_formula_units_Z   1
loop_
 _symmetry_equiv_pos_site_id
 _symmetry_equiv_pos_as_xyz
  1  'x, y, z'
loop_
 _atom_site_type_symbol
 _atom_site_label
 _atom_site_symmetry_multiplicity
 _atom_site_fract_x
 _atom_site_fract_y
 _atom_site_fract_z
 _atom_site_occupancy
  Ba  Ba0  1  0.307723  0.768327  0.609902  1
  Ba  Ba1  1  0.692277  0.231673  0.390098  1
  Ca  Ca2  1  0.204997  0.882624  0.181716  1
  Ca  Ca3  1  0.000000  0.000000  0.500000  1
  Ca  Ca4  1  0.200508  0.388653  0.210518  1
  Ca  Ca5  1  0.406244  0.296799  0.886517  1
  Ca  Ca6  1  0.593756  0.703201  0.113483  1
  Ca  Ca7  1  0.799492  0.611347  0.789482  1
  Ca  Ca8  1  0.795003  0.117376  0.818284  1
  I  I9  1  0.121177  0.757851  0.912841  1
  I  I10  1  0.136840  0.628739  0.301540  1
  I  I11  1  0.059948  0.279526  0.439324  1
  I  I12  1  0.082012  0.101753  0.777572  1
  I  I13  1  0.291567  0.499275  0.970674  1
  I  I14  1  0.524873  0.939756  0.182073  1
  I  I15  1  0.511414  0.574147  0.341028  1
  I  I16  1  0.337764  0.190631  0.142692  1
  I  I17  1  0.685611  0.970410  0.540592  1
  I  I18  1  0.314389  0.029590  0.459408  1
  I  I19  1  0.662236  0.809369  0.857308  1
  I  I20  1  0.488586  0.425853  0.658972  1
  I  I21  1  0.475127  0.060244  0.817927  1
  I  I22  1  0.708433  0.500725  0.029326  1
  I  I23  1  0.917988  0.898247  0.222428  1
  I  I24  1  0.940052  0.720474  0.560676  1
  I  I25  1  0.863160  0.371261  0.698460  1
  I  I26  1  0.878823  0.242149  0.087159  1
