# generated using pymatgen
data_Cu4OF6
_symmetry_space_group_name_H-M   'P 1'
_cell_length_a   6.86526375
_cell_length_b   6.86696749
_cell_length_c   5.14219259
_cell_angle_alpha   89.90796934
_cell_angle_beta   89.96257412
_cell_angle_gamma   89.99930806
_symmetry_Int_Tables_number   1
_chemical_formula_structural   Cu4OF6
_chemical_formula_sum   'Cu8 O2 F12'
_cell_volume   242.42081298
_cell_formula_units_Z   2
loop_
 _symmetry_equiv_pos_site_id
 _symmetry_equiv_pos_as_xyz
  1  'x, y, z'
loop_
 _atom_site_type_symbol
 _atom_site_label
 _atom_site_symmetry_multiplicity
 _atom_site_fract_x
 _atom_site_fract_y
 _atom_site_fract_z
 _atom_site_occupancy
  Cu  Cu0  1  0.993594  0.250021  0.564627  1
  Cu  Cu1  1  0.250019  0.993627  0.064816  1
  Cu  Cu2  1  0.250011  0.506336  0.064817  1
  Cu  Cu3  1  0.506449  0.250021  0.564767  1
  Cu  Cu4  1  0.493605  0.749989  0.435295  1
  Cu  Cu5  1  0.750010  0.493630  0.935244  1
  Cu  Cu6  1  0.750012  0.006353  0.935420  1
  Cu  Cu7  1  0.006374  0.750008  0.435312  1
  O  O8  1  0.250067  0.749821  0.250021  1
  O  O9  1  0.749956  0.250142  0.750061  1
  F  F10  1  0.038985  0.960973  0.749997  1
  F  F11  1  0.038950  0.539135  0.750089  1
  F  F12  1  0.250015  0.250041  0.924852  1
  F  F13  1  0.250025  0.250054  0.424799  1
  F  F14  1  0.460957  0.539196  0.750079  1
  F  F15  1  0.460925  0.960911  0.749983  1
  F  F16  1  0.539036  0.038860  0.249914  1
  F  F17  1  0.539017  0.461075  0.249845  1
  F  F18  1  0.749967  0.749883  0.075057  1
  F  F19  1  0.749935  0.749987  0.575078  1
  F  F20  1  0.961033  0.038943  0.249999  1
  F  F21  1  0.961058  0.460996  0.249927  1
