# generated using pymatgen
data_Li3Co2O2F3
_symmetry_space_group_name_H-M   'P 1'
_cell_length_a   2.95054516
_cell_length_b   2.95054516
_cell_length_c   10.60525321
_cell_angle_alpha   97.99621707
_cell_angle_beta   82.00378293
_cell_angle_gamma   90.00000000
_symmetry_Int_Tables_number   1
_chemical_formula_structural   Li3Co2O2F3
_chemical_formula_sum   'Li3 Co2 O2 F3'
_cell_volume   90.52209841
_cell_formula_units_Z   1
loop_
 _symmetry_equiv_pos_site_id
 _symmetry_equiv_pos_as_xyz
  1  'x, y, z'
loop_
 _atom_site_type_symbol
 _atom_site_label
 _atom_site_symmetry_multiplicity
 _atom_site_fract_x
 _atom_site_fract_y
 _atom_site_fract_z
 _atom_site_occupancy
  Li  Li0  1  0.003480  0.996520  0.993041  1
  Li  Li1  1  0.196520  0.803480  0.606959  1
  Li  Li2  1  0.600000  0.400000  0.800000  1
  Co  Co3  1  0.393068  0.606932  0.213864  1
  Co  Co4  1  0.806932  0.193068  0.386136  1
  O  O5  1  0.905047  0.094953  0.189904  1
  O  O6  1  0.294953  0.705047  0.410096  1
  F  F7  1  0.504179  0.495821  0.991642  1
  F  F8  1  0.695821  0.304179  0.608358  1
  F  F9  1  0.100000  0.900000  0.800000  1
