# generated using pymatgen
data_Li4Co3Sn5O16
_symmetry_space_group_name_H-M   'P 1'
_cell_length_a   6.08109023
_cell_length_b   6.16383843
_cell_length_c   9.82617407
_cell_angle_alpha   89.38948327
_cell_angle_beta   89.35839102
_cell_angle_gamma   120.58527100
_symmetry_Int_Tables_number   1
_chemical_formula_structural   Li4Co3Sn5O16
_chemical_formula_sum   'Li4 Co3 Sn5 O16'
_cell_volume   316.99364162
_cell_formula_units_Z   1
loop_
 _symmetry_equiv_pos_site_id
 _symmetry_equiv_pos_as_xyz
  1  'x, y, z'
loop_
 _atom_site_type_symbol
 _atom_site_label
 _atom_site_symmetry_multiplicity
 _atom_site_fract_x
 _atom_site_fract_y
 _atom_site_fract_z
 _atom_site_occupancy
  Li  Li0  1  0.343908  0.677773  0.887396  1
  Li  Li1  1  0.960526  0.978457  0.985818  1
  Li  Li2  1  0.977376  0.985188  0.501212  1
  Li  Li3  1  0.671485  0.339274  0.407865  1
  Co  Co4  1  0.658692  0.828998  0.215841  1
  Co  Co5  1  0.830388  0.657997  0.714438  1
  Co  Co6  1  0.832169  0.168509  0.712889  1
  Sn  Sn7  1  0.169003  0.831594  0.214834  1
  Sn  Sn8  1  0.343760  0.666601  0.500980  1
  Sn  Sn9  1  0.168261  0.337292  0.215492  1
  Sn  Sn10  1  0.339319  0.166606  0.714160  1
  Sn  Sn11  1  0.681655  0.343291  0.980735  1
  O  O12  1  0.155109  0.831800  0.594124  1
  O  O13  1  0.031534  0.514325  0.344752  1
  O  O14  1  0.352936  0.678124  0.105719  1
  O  O15  1  0.978423  0.987283  0.313094  1
  O  O16  1  0.988719  0.977920  0.804946  1
  O  O17  1  0.163641  0.315922  0.588510  1
  O  O18  1  0.495456  0.962513  0.336338  1
  O  O19  1  0.495943  0.531914  0.334071  1
  O  O20  1  0.322813  0.164749  0.094660  1
  O  O21  1  0.673884  0.823878  0.604436  1
  O  O22  1  0.531193  0.497416  0.837765  1
  O  O23  1  0.516064  0.037442  0.850157  1
  O  O24  1  0.676968  0.352322  0.607648  1
  O  O25  1  0.830036  0.679024  0.103276  1
  O  O26  1  0.975899  0.507693  0.836082  1
  O  O27  1  0.834839  0.156396  0.100599  1
