# generated using pymatgen
data_Li4MnV3(P2O7)4
_symmetry_space_group_name_H-M   'P 1'
_cell_length_a   4.87222239
_cell_length_b   8.28664248
_cell_length_c   26.67940812
_cell_angle_alpha   90.42782381
_cell_angle_beta   88.57274917
_cell_angle_gamma   89.59048210
_symmetry_Int_Tables_number   1
_chemical_formula_structural   Li4MnV3(P2O7)4
_chemical_formula_sum   'Li8 Mn2 V6 P16 O56'
_cell_volume   1076.77098481
_cell_formula_units_Z   2
loop_
 _symmetry_equiv_pos_site_id
 _symmetry_equiv_pos_as_xyz
  1  'x, y, z'
loop_
 _atom_site_type_symbol
 _atom_site_label
 _atom_site_symmetry_multiplicity
 _atom_site_fract_x
 _atom_site_fract_y
 _atom_site_fract_z
 _atom_site_occupancy
  Li  Li0  1  0.160263  0.361421  0.331225  1
  Li  Li1  1  0.160712  0.360513  0.831128  1
  Li  Li2  1  0.338784  0.862966  0.419061  1
  Li  Li3  1  0.337140  0.862177  0.918388  1
  Li  Li4  1  0.660254  0.361378  0.081113  1
  Li  Li5  1  0.661290  0.360734  0.581302  1
  Li  Li6  1  0.838756  0.862164  0.168685  1
  Li  Li7  1  0.837091  0.862229  0.668817  1
  Mn  Mn8  1  0.149841  0.999080  0.816994  1
  Mn  Mn9  1  0.649268  0.999380  0.567198  1
  V  V10  1  0.148327  0.999845  0.317945  1
  V  V11  1  0.350746  0.500219  0.432110  1
  V  V12  1  0.351499  0.498682  0.931835  1
  V  V13  1  0.648431  0.999452  0.067619  1
  V  V14  1  0.851005  0.499533  0.182061  1
  V  V15  1  0.851577  0.499380  0.681836  1
  P  P16  1  0.138730  0.179652  0.130474  1
  P  P17  1  0.170756  0.783477  0.021397  1
  P  P18  1  0.140901  0.177623  0.630576  1
  P  P19  1  0.168980  0.784568  0.522185  1
  P  P20  1  0.330562  0.284077  0.228544  1
  P  P21  1  0.361254  0.681001  0.119430  1
  P  P22  1  0.332505  0.287099  0.728341  1
  P  P23  1  0.361146  0.680576  0.620660  1
  P  P24  1  0.638775  0.180309  0.380881  1
  P  P25  1  0.670522  0.784119  0.271584  1
  P  P26  1  0.640914  0.177202  0.880212  1
  P  P27  1  0.669448  0.783998  0.771978  1
  P  P28  1  0.832347  0.286714  0.478568  1
  P  P29  1  0.860451  0.681005  0.369551  1
  P  P30  1  0.830865  0.284238  0.978435  1
  P  P31  1  0.861480  0.680368  0.870531  1
  O  O32  1  0.004420  0.843866  0.373711  1
  O  O33  1  0.054873  0.538852  0.379351  1
  O  O34  1  0.094395  0.678033  0.151338  1
  O  O35  1  0.001872  0.842056  0.876174  1
  O  O36  1  0.053728  0.535799  0.879267  1
  O  O37  1  0.143076  0.434274  0.229260  1
  O  O38  1  0.090474  0.674873  0.651335  1
  O  O39  1  0.125343  0.325925  0.461597  1
  O  O40  1  0.219199  0.152855  0.188222  1
  O  O41  1  0.142481  0.436166  0.728080  1
  O  O42  1  0.186905  0.695449  0.471735  1
  O  O43  1  0.124361  0.324417  0.962776  1
  O  O44  1  0.282704  0.652870  0.061716  1
  O  O45  1  0.222534  0.153012  0.688281  1
  O  O46  1  0.190566  0.695287  0.971368  1
  O  O47  1  0.310321  0.196934  0.278564  1
  O  O48  1  0.355228  0.933063  0.020979  1
  O  O49  1  0.281746  0.655450  0.562124  1
  O  O50  1  0.375625  0.824012  0.287364  1
  O  O51  1  0.317116  0.204013  0.778690  1
  O  O52  1  0.405585  0.177591  0.098760  1
  O  O53  1  0.353304  0.934230  0.520619  1
  O  O54  1  0.369343  0.824235  0.786156  1
  O  O55  1  0.407099  0.176172  0.597834  1
  O  O56  1  0.446081  0.038526  0.370735  1
  O  O57  1  0.504915  0.843856  0.123630  1
  O  O58  1  0.494235  0.343826  0.376591  1
  O  O59  1  0.448480  0.035424  0.870361  1
  O  O60  1  0.555152  0.538351  0.129371  1
  O  O61  1  0.501240  0.842109  0.626315  1
  O  O62  1  0.496329  0.341364  0.876332  1
  O  O63  1  0.553606  0.536447  0.629392  1
  O  O64  1  0.593710  0.678373  0.401265  1
  O  O65  1  0.624551  0.324046  0.212740  1
  O  O66  1  0.643080  0.436540  0.478575  1
  O  O67  1  0.590757  0.674694  0.901348  1
  O  O68  1  0.689747  0.696754  0.221203  1
  O  O69  1  0.624418  0.327065  0.711572  1
  O  O70  1  0.720101  0.153895  0.438394  1
  O  O71  1  0.642456  0.433751  0.979066  1
  O  O72  1  0.688185  0.693718  0.721942  1
  O  O73  1  0.810463  0.196951  0.028543  1
  O  O74  1  0.782295  0.653106  0.311566  1
  O  O75  1  0.721653  0.152175  0.938103  1
  O  O76  1  0.875907  0.823644  0.037247  1
  O  O77  1  0.817425  0.203606  0.528740  1
  O  O78  1  0.855604  0.933424  0.271091  1
  O  O79  1  0.782247  0.655133  0.812289  1
  O  O80  1  0.868957  0.824532  0.536338  1
  O  O81  1  0.905457  0.177738  0.348804  1
  O  O82  1  0.853611  0.933748  0.770551  1
  O  O83  1  0.946140  0.038130  0.120508  1
  O  O84  1  0.993776  0.343271  0.126477  1
  O  O85  1  0.907475  0.175830  0.847796  1
  O  O86  1  0.948405  0.035787  0.620610  1
  O  O87  1  0.996626  0.341898  0.626541  1
