# generated using pymatgen
data_Ca4Al2H22CO20
_symmetry_space_group_name_H-M   'P 1'
_cell_length_a   5.83272961
_cell_length_b   8.57765222
_cell_length_c   10.00233802
_cell_angle_alpha   64.34601709
_cell_angle_beta   82.95741386
_cell_angle_gamma   81.46966990
_symmetry_Int_Tables_number   1
_chemical_formula_structural   Ca4Al2H22CO20
_chemical_formula_sum   'Ca4 Al2 H22 C1 O20'
_cell_volume   445.15031595
_cell_formula_units_Z   1
loop_
 _symmetry_equiv_pos_site_id
 _symmetry_equiv_pos_as_xyz
  1  'x, y, z'
loop_
 _atom_site_type_symbol
 _atom_site_label
 _atom_site_symmetry_multiplicity
 _atom_site_fract_x
 _atom_site_fract_y
 _atom_site_fract_z
 _atom_site_occupancy
  Ca  Ca0  1  0.521733  0.117255  0.806705  1
  Ca  Ca1  1  0.483854  0.882148  0.195053  1
  Ca  Ca2  1  0.018085  0.616582  0.312255  1
  Ca  Ca3  1  0.980534  0.378015  0.695332  1
  Al  Al4  1  0.001079  0.997677  0.001680  1
  Al  Al5  1  0.494295  0.503422  0.506776  1
  H  H6  1  0.181769  0.255364  0.992450  1
  H  H7  1  0.835867  0.723917  0.027032  1
  H  H8  1  0.319122  0.783871  0.961803  1
  H  H9  1  0.692907  0.217310  0.034128  1
  H  H10  1  0.344279  0.233981  0.518276  1
  H  H11  1  0.663071  0.760764  0.499877  1
  H  H12  1  0.807652  0.299252  0.452077  1
  H  H13  1  0.169800  0.722675  0.533045  1
  H  H14  1  0.990582  0.991824  0.257328  1
  H  H15  1  0.019368  0.009966  0.740536  1
  H  H16  1  0.506895  0.503281  0.251455  1
  H  H17  1  0.482680  0.479619  0.772088  1
  H  H18  1  0.690901  0.791346  0.738606  1
  H  H19  1  0.434254  0.857644  0.690863  1
  H  H20  1  0.293817  0.210389  0.269860  1
  H  H21  1  0.560148  0.142671  0.310384  1
  H  H22  1  0.060636  0.631343  0.810323  1
  H  H23  1  0.863251  0.528208  0.922863  1
  H  H24  1  0.491828  0.501934  0.998607  1
  H  H25  1  0.227339  0.500174  0.037256  1
  H  H26  1  0.979331  0.992687  0.520848  1
  H  H27  1  0.242836  0.997171  0.476182  1
  C  C28  1  0.883524  0.330914  0.199601  1
  O  O29  1  0.149016  0.208748  0.924537  1
  O  O30  1  0.846840  0.787261  0.085925  1
  O  O31  1  0.304790  0.891596  0.975085  1
  O  O32  1  0.695980  0.110888  0.019947  1
  O  O33  1  0.343746  0.290594  0.584011  1
  O  O34  1  0.640812  0.715244  0.429173  1
  O  O35  1  0.797779  0.394262  0.482813  1
  O  O36  1  0.187675  0.610643  0.526085  1
  O  O37  1  0.074825  0.925621  0.204747  1
  O  O38  1  0.928169  0.065236  0.799993  1
  O  O39  1  0.425099  0.570752  0.303503  1
  O  O40  1  0.571176  0.429860  0.707838  1
  O  O41  1  0.583020  0.897965  0.689317  1
  O  O42  1  0.402971  0.102658  0.314620  1
  O  O43  1  0.903022  0.602953  0.813524  1
  O  O44  1  0.343062  0.549362  0.950222  1
  O  O45  1  0.129876  0.933472  0.559988  1
  O  O46  1  0.756899  0.410951  0.085451  1
  O  O47  1  0.079658  0.389038  0.198798  1
  O  O48  1  0.816097  0.196393  0.314092  1
