# generated using pymatgen
data_LiCuPO4
_symmetry_space_group_name_H-M   'P 1'
_cell_length_a   7.37079561
_cell_length_b   14.07005470
_cell_length_c   5.87591502
_cell_angle_alpha   90.00000000
_cell_angle_beta   90.00000000
_cell_angle_gamma   90.00000000
_symmetry_Int_Tables_number   1
_chemical_formula_structural   LiCuPO4
_chemical_formula_sum   'Li8 Cu8 P8 O32'
_cell_volume   609.37644175
_cell_formula_units_Z   8
loop_
 _symmetry_equiv_pos_site_id
 _symmetry_equiv_pos_as_xyz
  1  'x, y, z'
loop_
 _atom_site_type_symbol
 _atom_site_label
 _atom_site_symmetry_multiplicity
 _atom_site_fract_x
 _atom_site_fract_y
 _atom_site_fract_z
 _atom_site_occupancy
  Li  Li0  1  0.196711  0.217218  0.157097  1
  Li  Li1  1  0.196711  0.282782  0.657097  1
  Li  Li2  1  0.303289  0.782782  0.657097  1
  Li  Li3  1  0.303289  0.717218  0.157097  1
  Li  Li4  1  0.696711  0.217218  0.342903  1
  Li  Li5  1  0.696711  0.282782  0.842903  1
  Li  Li6  1  0.803289  0.717218  0.342903  1
  Li  Li7  1  0.803289  0.782782  0.842903  1
  Cu  Cu8  1  0.180584  0.531055  0.378729  1
  Cu  Cu9  1  0.180584  0.968945  0.878729  1
  Cu  Cu10  1  0.319416  0.031055  0.378729  1
  Cu  Cu11  1  0.319416  0.468945  0.878729  1
  Cu  Cu12  1  0.680584  0.531055  0.121271  1
  Cu  Cu13  1  0.680584  0.968945  0.621271  1
  Cu  Cu14  1  0.819416  0.031055  0.121271  1
  Cu  Cu15  1  0.819416  0.468945  0.621271  1
  P  P16  1  0.032037  0.625501  0.904723  1
  P  P17  1  0.032037  0.874499  0.404723  1
  P  P18  1  0.467963  0.125501  0.904723  1
  P  P19  1  0.467963  0.374499  0.404723  1
  P  P20  1  0.532037  0.625501  0.595277  1
  P  P21  1  0.532037  0.874499  0.095277  1
  P  P22  1  0.967963  0.125501  0.595277  1
  P  P23  1  0.967963  0.374499  0.095277  1
  O  O24  1  0.991034  0.061942  0.812886  1
  O  O25  1  0.991034  0.438058  0.312886  1
  O  O26  1  0.091422  0.774252  0.344733  1
  O  O27  1  0.091422  0.725748  0.844733  1
  O  O28  1  0.147940  0.131703  0.457695  1
  O  O29  1  0.147940  0.368297  0.957695  1
  O  O30  1  0.185786  0.578736  0.057763  1
  O  O31  1  0.185786  0.921264  0.557763  1
  O  O32  1  0.314214  0.078736  0.057763  1
  O  O33  1  0.314214  0.421264  0.557763  1
  O  O34  1  0.352061  0.631703  0.457695  1
  O  O35  1  0.352061  0.868297  0.957695  1
  O  O36  1  0.408578  0.225748  0.844733  1
  O  O37  1  0.408578  0.274252  0.344733  1
  O  O38  1  0.508966  0.561942  0.812886  1
  O  O39  1  0.508966  0.938058  0.312886  1
  O  O40  1  0.491034  0.438058  0.187114  1
  O  O41  1  0.491034  0.061942  0.687114  1
  O  O42  1  0.591422  0.725748  0.655267  1
  O  O43  1  0.591422  0.774252  0.155267  1
  O  O44  1  0.647939  0.131703  0.042305  1
  O  O45  1  0.647939  0.368297  0.542305  1
  O  O46  1  0.685786  0.578736  0.442237  1
  O  O47  1  0.685786  0.921264  0.942237  1
  O  O48  1  0.814214  0.078736  0.442237  1
  O  O49  1  0.814214  0.421264  0.942237  1
  O  O50  1  0.852061  0.631703  0.042305  1
  O  O51  1  0.852061  0.868297  0.542305  1
  O  O52  1  0.908578  0.225748  0.655267  1
  O  O53  1  0.908578  0.274252  0.155267  1
  O  O54  1  0.008966  0.561942  0.687114  1
  O  O55  1  0.008966  0.938058  0.187114  1
