# generated using pymatgen
data_Li3MnSi2O7
_symmetry_space_group_name_H-M   'P 1'
_cell_length_a   8.75544658
_cell_length_b   8.59223638
_cell_length_c   13.04681486
_cell_angle_alpha   89.74827281
_cell_angle_beta   89.71535138
_cell_angle_gamma   121.04683509
_symmetry_Int_Tables_number   1
_chemical_formula_structural   Li3MnSi2O7
_chemical_formula_sum   'Li18 Mn6 Si12 O42'
_cell_volume   840.85562808
_cell_formula_units_Z   6
loop_
 _symmetry_equiv_pos_site_id
 _symmetry_equiv_pos_as_xyz
  1  'x, y, z'
loop_
 _atom_site_type_symbol
 _atom_site_label
 _atom_site_symmetry_multiplicity
 _atom_site_fract_x
 _atom_site_fract_y
 _atom_site_fract_z
 _atom_site_occupancy
  Li  Li0  1  0.026714  0.688793  0.899408  1
  Li  Li1  1  0.027048  0.692662  0.564258  1
  Li  Li2  1  0.330554  0.674748  0.217864  1
  Li  Li3  1  0.338505  0.658325  0.733486  1
  Li  Li4  1  0.998277  0.000552  0.463927  1
  Li  Li5  1  0.002811  0.999347  0.963898  1
  Li  Li6  1  0.313041  0.330632  0.567561  1
  Li  Li7  1  0.310829  0.330473  0.894830  1
  Li  Li8  1  0.668180  0.972490  0.899903  1
  Li  Li9  1  0.669493  0.973707  0.564759  1
  Li  Li10  1  0.330874  0.026519  0.064292  1
  Li  Li11  1  0.331737  0.027436  0.398300  1
  Li  Li12  1  0.686141  0.667462  0.395934  1
  Li  Li13  1  0.689879  0.671650  0.068453  1
  Li  Li14  1  0.659678  0.340011  0.233768  1
  Li  Li15  1  0.669580  0.325493  0.718067  1
  Li  Li16  1  0.974489  0.310809  0.064102  1
  Li  Li17  1  0.971908  0.307824  0.399957  1
  Mn  Mn18  1  0.016817  0.991332  0.231186  1
  Mn  Mn19  1  0.981898  0.008667  0.731158  1
  Mn  Mn20  1  0.334399  0.666921  0.508662  1
  Mn  Mn21  1  0.335365  0.667868  0.956436  1
  Mn  Mn22  1  0.665479  0.332867  0.456490  1
  Mn  Mn23  1  0.665174  0.332651  0.008922  1
  Si  Si24  1  0.021680  0.674820  0.346166  1
  Si  Si25  1  0.020206  0.673145  0.120701  1
  Si  Si26  1  0.325314  0.358388  0.121108  1
  Si  Si27  1  0.323962  0.359024  0.343416  1
  Si  Si28  1  0.652807  0.982147  0.118799  1
  Si  Si29  1  0.648019  0.977707  0.346435  1
  Si  Si30  1  0.350188  0.021511  0.847285  1
  Si  Si31  1  0.349623  0.018980  0.619166  1
  Si  Si32  1  0.675654  0.640010  0.844074  1
  Si  Si33  1  0.674905  0.642743  0.621792  1
  Si  Si34  1  0.980416  0.325864  0.619648  1
  Si  Si35  1  0.977080  0.325537  0.845076  1
  O  O36  1  0.137047  0.929973  0.848917  1
  O  O37  1  0.137305  0.927887  0.620922  1
  O  O38  1  0.120989  0.691128  0.233104  1
  O  O39  1  0.181636  0.760648  0.037412  1
  O  O40  1  0.179883  0.763399  0.429382  1
  O  O41  1  0.127072  0.542075  0.603378  1
  O  O42  1  0.125878  0.540671  0.859348  1
  O  O43  1  0.072420  0.203305  0.838947  1
  O  O44  1  0.420610  0.877989  0.864201  1
  O  O45  1  0.078996  0.208192  0.628965  1
  O  O46  1  0.421957  0.878082  0.601837  1
  O  O47  1  0.244935  0.436751  0.033705  1
  O  O48  1  0.242476  0.432995  0.432253  1
  O  O49  1  0.292948  0.436569  0.231910  1
  O  O50  1  0.199053  0.135420  0.342134  1
  O  O51  1  0.563631  0.881266  0.232682  1
  O  O52  1  0.203494  0.135833  0.124648  1
  O  O53  1  0.560357  0.807135  0.430153  1
  O  O54  1  0.565259  0.812064  0.036412  1
  O  O55  1  0.465671  0.572838  0.611818  1
  O  O56  1  0.467588  0.575124  0.855507  1
  O  O57  1  0.532279  0.425227  0.353241  1
  O  O58  1  0.533953  0.426901  0.109855  1
  O  O59  1  0.440584  0.191750  0.536360  1
  O  O60  1  0.436585  0.190781  0.929772  1
  O  O61  1  0.796737  0.865510  0.625036  1
  O  O62  1  0.436441  0.117779  0.732560  1
  O  O63  1  0.799843  0.863339  0.841766  1
  O  O64  1  0.706271  0.562955  0.732726  1
  O  O65  1  0.757195  0.565127  0.932269  1
  O  O66  1  0.756123  0.566622  0.533798  1
  O  O67  1  0.578345  0.122004  0.101505  1
  O  O68  1  0.923619  0.793135  0.128862  1
  O  O69  1  0.579138  0.121681  0.362791  1
  O  O70  1  0.924824  0.795246  0.338824  1
  O  O71  1  0.873080  0.458991  0.362299  1
  O  O72  1  0.873222  0.457946  0.105492  1
  O  O73  1  0.818094  0.237283  0.929604  1
  O  O74  1  0.821043  0.238324  0.537039  1
  O  O75  1  0.878002  0.307367  0.732268  1
  O  O76  1  0.865517  0.075462  0.121425  1
  O  O77  1  0.861178  0.068111  0.348087  1
