# generated using pymatgen
data_K2BiPCO7
_symmetry_space_group_name_H-M   'P 1'
_cell_length_a   9.90633653
_cell_length_b   7.28143740
_cell_length_c   5.89232815
_cell_angle_alpha   90.00000000
_cell_angle_beta   94.39506245
_cell_angle_gamma   90.00000000
_symmetry_Int_Tables_number   1
_chemical_formula_structural   K2BiPCO7
_chemical_formula_sum   'K4 Bi2 P2 C2 O14'
_cell_volume   423.77773712
_cell_formula_units_Z   2
loop_
 _symmetry_equiv_pos_site_id
 _symmetry_equiv_pos_as_xyz
  1  'x, y, z'
loop_
 _atom_site_type_symbol
 _atom_site_label
 _atom_site_symmetry_multiplicity
 _atom_site_fract_x
 _atom_site_fract_y
 _atom_site_fract_z
 _atom_site_occupancy
  K  K0  1  0.222178  0.487259  0.247316  1
  K  K1  1  0.222178  0.012741  0.247316  1
  K  K2  1  0.777822  0.512741  0.752684  1
  K  K3  1  0.777822  0.987259  0.752684  1
  Bi  Bi4  1  0.379995  0.750000  0.788411  1
  Bi  Bi5  1  0.620005  0.250000  0.211589  1
  P  P6  1  0.418169  0.250000  0.717589  1
  P  P7  1  0.581831  0.750000  0.282411  1
  C  C8  1  0.098261  0.750000  0.722660  1
  C  C9  1  0.901739  0.250000  0.277340  1
  O  O10  1  0.028130  0.250000  0.291729  1
  O  O11  1  0.170584  0.750000  0.923702  1
  O  O12  1  0.171972  0.750000  0.544924  1
  O  O13  1  0.344613  0.076471  0.802870  1
  O  O14  1  0.344613  0.423529  0.802870  1
  O  O15  1  0.429141  0.750000  0.180193  1
  O  O16  1  0.419230  0.250000  0.454387  1
  O  O17  1  0.580770  0.750000  0.545613  1
  O  O18  1  0.570859  0.250000  0.819807  1
  O  O19  1  0.655387  0.576471  0.197130  1
  O  O20  1  0.655387  0.923529  0.197130  1
  O  O21  1  0.828028  0.250000  0.455076  1
  O  O22  1  0.829416  0.250000  0.076298  1
  O  O23  1  0.971870  0.750000  0.708271  1
