# generated using pymatgen
data_H4CN2O
_symmetry_space_group_name_H-M   'P 1'
_cell_length_a   7.30734571
_cell_length_b   7.30734571
_cell_length_c   18.25229141
_cell_angle_alpha   90.00000000
_cell_angle_beta   90.00000000
_cell_angle_gamma   90.00000000
_symmetry_Int_Tables_number   1
_chemical_formula_structural   H4CN2O
_chemical_formula_sum   'H48 C12 N24 O12'
_cell_volume   974.62310430
_cell_formula_units_Z   12
loop_
 _symmetry_equiv_pos_site_id
 _symmetry_equiv_pos_as_xyz
  1  'x, y, z'
loop_
 _atom_site_type_symbol
 _atom_site_label
 _atom_site_symmetry_multiplicity
 _atom_site_fract_x
 _atom_site_fract_y
 _atom_site_fract_z
 _atom_site_occupancy
  H  H0  1  0.384412  0.569448  0.674220  1
  H  H1  1  0.615588  0.430552  0.174220  1
  H  H2  1  0.069448  0.115588  0.424220  1
  H  H3  1  0.930552  0.884412  0.924220  1
  H  H4  1  0.430552  0.615588  0.825780  1
  H  H5  1  0.569448  0.384412  0.325780  1
  H  H6  1  0.115588  0.069448  0.575780  1
  H  H7  1  0.884412  0.930552  0.075780  1
  H  H8  1  0.801733  0.173849  0.835472  1
  H  H9  1  0.198267  0.826151  0.335472  1
  H  H10  1  0.673849  0.698267  0.585472  1
  H  H11  1  0.326151  0.301733  0.085472  1
  H  H12  1  0.826151  0.198267  0.664528  1
  H  H13  1  0.173849  0.801733  0.164528  1
  H  H14  1  0.698267  0.673849  0.414528  1
  H  H15  1  0.301733  0.326151  0.914528  1
  H  H16  1  0.660545  0.300759  0.896226  1
  H  H17  1  0.339455  0.699241  0.396226  1
  H  H18  1  0.800759  0.839455  0.646226  1
  H  H19  1  0.199241  0.160545  0.146226  1
  H  H20  1  0.699241  0.339455  0.603774  1
  H  H21  1  0.300759  0.660545  0.103774  1
  H  H22  1  0.839455  0.800759  0.353774  1
  H  H23  1  0.160545  0.199241  0.853774  1
  H  H24  1  0.738316  0.739711  0.919285  1
  H  H25  1  0.261684  0.260289  0.419285  1
  H  H26  1  0.239711  0.761684  0.669285  1
  H  H27  1  0.760289  0.238316  0.169285  1
  H  H28  1  0.260289  0.261684  0.580715  1
  H  H29  1  0.739711  0.738316  0.080715  1
  H  H30  1  0.761684  0.239711  0.330715  1
  H  H31  1  0.238316  0.760289  0.830715  1
  H  H32  1  0.560055  0.886451  0.994164  1
  H  H33  1  0.439945  0.113549  0.494164  1
  H  H34  1  0.386451  0.939945  0.744164  1
  H  H35  1  0.613549  0.060055  0.244164  1
  H  H36  1  0.113549  0.439945  0.505836  1
  H  H37  1  0.886451  0.560055  0.005836  1
  H  H38  1  0.939945  0.386451  0.255836  1
  H  H39  1  0.060055  0.613549  0.755836  1
  H  H40  1  0.832445  0.868328  0.844814  1
  H  H41  1  0.167555  0.131672  0.344814  1
  H  H42  1  0.368328  0.667555  0.594814  1
  H  H43  1  0.631672  0.332445  0.094814  1
  H  H44  1  0.131672  0.167555  0.655186  1
  H  H45  1  0.868328  0.832445  0.155186  1
  H  H46  1  0.667555  0.368328  0.405186  1
  H  H47  1  0.332445  0.631672  0.905186  1
  C  C48  1  0.042217  0.957783  0.750000  1
  C  C49  1  0.957783  0.042217  0.250000  1
  C  C50  1  0.457783  0.457783  0.500000  1
  C  C51  1  0.542217  0.542217  0.000000  1
  C  C52  1  0.684193  0.030261  0.920882  1
  C  C53  1  0.315807  0.969739  0.420882  1
  C  C54  1  0.530261  0.815807  0.670882  1
  C  C55  1  0.469739  0.184193  0.170882  1
  C  C56  1  0.969739  0.315807  0.579118  1
  C  C57  1  0.030261  0.684193  0.079118  1
  C  C58  1  0.815807  0.530261  0.329118  1
  C  C59  1  0.184193  0.469739  0.829118  1
  N  N60  1  0.563519  0.014661  0.971370  1
  N  N61  1  0.436481  0.985339  0.471370  1
  N  N62  1  0.514661  0.936481  0.721370  1
  N  N63  1  0.485339  0.063519  0.221370  1
  N  N64  1  0.985339  0.436481  0.528630  1
  N  N65  1  0.014661  0.563519  0.028630  1
  N  N66  1  0.936481  0.514661  0.278630  1
  N  N67  1  0.063519  0.485339  0.778630  1
  N  N68  1  0.726909  0.181946  0.883408  1
  N  N69  1  0.273091  0.818054  0.383408  1
  N  N70  1  0.681946  0.773091  0.633408  1
  N  N71  1  0.318054  0.226909  0.133408  1
  N  N72  1  0.818054  0.273091  0.616592  1
  N  N73  1  0.181946  0.726909  0.116592  1
  N  N74  1  0.773091  0.681946  0.366592  1
  N  N75  1  0.226909  0.318054  0.866592  1
  N  N76  1  0.804206  0.870352  0.900173  1
  N  N77  1  0.195794  0.129648  0.400173  1
  N  N78  1  0.370352  0.695794  0.650173  1
  N  N79  1  0.629648  0.304206  0.150173  1
  N  N80  1  0.129648  0.195794  0.599827  1
  N  N81  1  0.870352  0.804206  0.099827  1
  N  N82  1  0.695794  0.370352  0.349827  1
  N  N83  1  0.304206  0.629648  0.849827  1
  O  O84  1  0.136695  0.924665  0.810229  1
  O  O85  1  0.863305  0.075335  0.310229  1
  O  O86  1  0.424665  0.363305  0.560229  1
  O  O87  1  0.575335  0.636695  0.060229  1
  O  O88  1  0.075335  0.863305  0.689771  1
  O  O89  1  0.924665  0.136695  0.189771  1
  O  O90  1  0.363305  0.424665  0.439771  1
  O  O91  1  0.636695  0.575335  0.939771  1
  O  O92  1  0.919186  0.080814  0.750000  1
  O  O93  1  0.080814  0.919186  0.250000  1
  O  O94  1  0.580814  0.580814  0.500000  1
  O  O95  1  0.419186  0.419186  0.000000  1
