# generated using pymatgen
data_KH2SeNO3
_symmetry_space_group_name_H-M   'P 1'
_cell_length_a   8.18429973
_cell_length_b   7.44143402
_cell_length_c   7.63695681
_cell_angle_alpha   90.00000000
_cell_angle_beta   96.40472199
_cell_angle_gamma   90.00000000
_symmetry_Int_Tables_number   1
_chemical_formula_structural   KH2SeNO3
_chemical_formula_sum   'K4 H8 Se4 N4 O12'
_cell_volume   462.21012220
_cell_formula_units_Z   4
loop_
 _symmetry_equiv_pos_site_id
 _symmetry_equiv_pos_as_xyz
  1  'x, y, z'
loop_
 _atom_site_type_symbol
 _atom_site_label
 _atom_site_symmetry_multiplicity
 _atom_site_fract_x
 _atom_site_fract_y
 _atom_site_fract_z
 _atom_site_occupancy
  K  K0  1  0.353087  0.875283  0.615221  1
  K  K1  1  0.646913  0.375283  0.884779  1
  K  K2  1  0.646913  0.124717  0.384779  1
  K  K3  1  0.353087  0.624717  0.115221  1
  H  H4  1  0.972964  0.323676  0.615443  1
  H  H5  1  0.027036  0.823676  0.884557  1
  H  H6  1  0.027036  0.676324  0.384557  1
  H  H7  1  0.972964  0.176324  0.115443  1
  H  H8  1  0.101627  0.172834  0.726234  1
  H  H9  1  0.898373  0.672834  0.773766  1
  H  H10  1  0.898373  0.827166  0.273766  1
  H  H11  1  0.101627  0.327166  0.226234  1
  Se  Se12  1  0.250008  0.394112  0.595127  1
  Se  Se13  1  0.749992  0.894112  0.904873  1
  Se  Se14  1  0.749992  0.605888  0.404873  1
  Se  Se15  1  0.250008  0.105888  0.095127  1
  N  N16  1  0.075359  0.242311  0.608733  1
  N  N17  1  0.924641  0.742311  0.891267  1
  N  N18  1  0.924641  0.757689  0.391267  1
  N  N19  1  0.075359  0.257689  0.108733  1
  O  O20  1  0.274058  0.541215  0.759412  1
  O  O21  1  0.725942  0.041215  0.740588  1
  O  O22  1  0.725942  0.458785  0.240588  1
  O  O23  1  0.274058  0.958785  0.259412  1
  O  O24  1  0.411032  0.258793  0.596767  1
  O  O25  1  0.588968  0.758793  0.903233  1
  O  O26  1  0.588968  0.741207  0.403233  1
  O  O27  1  0.411032  0.241207  0.096767  1
  O  O28  1  0.204453  0.502235  0.404015  1
  O  O29  1  0.795547  0.002235  0.095985  1
  O  O30  1  0.795547  0.497765  0.595985  1
  O  O31  1  0.204453  0.997765  0.904015  1
