# generated using pymatgen
data_Ba10LiW7O30
_symmetry_space_group_name_H-M   'P 1'
_cell_length_a   5.89751886
_cell_length_b   5.89812087
_cell_length_c   24.94210646
_cell_angle_alpha   89.96826952
_cell_angle_beta   89.96590925
_cell_angle_gamma   60.16786941
_symmetry_Int_Tables_number   1
_chemical_formula_structural   Ba10LiW7O30
_chemical_formula_sum   'Ba10 Li1 W7 O30'
_cell_volume   752.62532091
_cell_formula_units_Z   1
loop_
 _symmetry_equiv_pos_site_id
 _symmetry_equiv_pos_as_xyz
  1  'x, y, z'
loop_
 _atom_site_type_symbol
 _atom_site_label
 _atom_site_symmetry_multiplicity
 _atom_site_fract_x
 _atom_site_fract_y
 _atom_site_fract_z
 _atom_site_occupancy
  Ba  Ba0  1  0.334298  0.334335  0.460696  1
  Ba  Ba1  1  0.332019  0.331576  0.031041  1
  Ba  Ba2  1  0.333271  0.333379  0.759505  1
  Ba  Ba3  1  0.999727  0.999474  0.148021  1
  Ba  Ba4  1  0.001530  0.001668  0.351720  1
  Ba  Ba5  1  0.000066  0.000135  0.649458  1
  Ba  Ba6  1  0.999856  0.999881  0.858904  1
  Ba  Ba7  1  0.666984  0.667034  0.251038  1
  Ba  Ba8  1  0.667160  0.667259  0.550977  1
  Ba  Ba9  1  0.666241  0.666157  0.942442  1
  Li  Li10  1  0.666904  0.667015  0.818814  1
  W  W11  1  0.334190  0.334252  0.196282  1
  W  W12  1  0.333197  0.333215  0.897246  1
  W  W13  1  0.666039  0.665608  0.100345  1
  W  W14  1  0.668166  0.668367  0.400329  1
  W  W15  1  0.666526  0.666558  0.700897  1
  W  W16  1  0.333496  0.333582  0.305114  1
  W  W17  1  0.333508  0.333583  0.599929  1
  O  O18  1  0.997228  0.501410  0.647722  1
  O  O19  1  0.018107  0.490788  0.850571  1
  O  O20  1  0.510560  0.983298  0.347199  1
  O  O21  1  0.502080  0.994642  0.156317  1
  O  O22  1  0.355842  0.821496  0.738410  1
  O  O23  1  0.177020  0.643844  0.247759  1
  O  O24  1  0.355603  0.822040  0.064478  1
  O  O25  1  0.354976  0.820635  0.437546  1
  O  O26  1  0.182037  0.637689  0.558199  1
  O  O27  1  0.180641  0.638202  0.942987  1
  O  O28  1  0.503283  0.503498  0.347088  1
  O  O29  1  0.180136  0.180122  0.942951  1
  O  O30  1  0.822860  0.822712  0.065277  1
  O  O31  1  0.822286  0.822107  0.438925  1
  O  O32  1  0.181266  0.181364  0.558178  1
  O  O33  1  0.504911  0.504854  0.155910  1
  O  O34  1  0.501277  0.501275  0.647809  1
  O  O35  1  0.491116  0.491121  0.850600  1
  O  O36  1  0.822135  0.822111  0.738436  1
  O  O37  1  0.179555  0.179452  0.249776  1
  O  O38  1  0.822265  0.355418  0.064426  1
  O  O39  1  0.820692  0.354966  0.437500  1
  O  O40  1  0.637658  0.182078  0.558203  1
  O  O41  1  0.638257  0.180592  0.942982  1
  O  O42  1  0.821516  0.355857  0.738397  1
  O  O43  1  0.643755  0.177022  0.247861  1
  O  O44  1  0.501439  0.997142  0.647713  1
  O  O45  1  0.490722  0.018170  0.850566  1
  O  O46  1  0.994260  0.502290  0.156304  1
  O  O47  1  0.983595  0.510475  0.347159  1
