# generated using pymatgen
data_LiV2P2H5O11
_symmetry_space_group_name_H-M   'P 1'
_cell_length_a   9.97650662
_cell_length_b   9.65278368
_cell_length_c   9.78668327
_cell_angle_alpha   90.00000000
_cell_angle_beta   102.97937553
_cell_angle_gamma   90.00000000
_symmetry_Int_Tables_number   1
_chemical_formula_structural   LiV2P2H5O11
_chemical_formula_sum   'Li4 V8 P8 H20 O44'
_cell_volume   918.38883837
_cell_formula_units_Z   4
loop_
 _symmetry_equiv_pos_site_id
 _symmetry_equiv_pos_as_xyz
  1  'x, y, z'
loop_
 _atom_site_type_symbol
 _atom_site_label
 _atom_site_symmetry_multiplicity
 _atom_site_fract_x
 _atom_site_fract_y
 _atom_site_fract_z
 _atom_site_occupancy
  Li  Li0  1  0.032416  0.300658  0.499916  1
  Li  Li1  1  0.532416  0.199342  0.999916  1
  Li  Li2  1  0.467584  0.800658  0.000084  1
  Li  Li3  1  0.967584  0.699342  0.500084  1
  V  V4  1  0.092848  0.268969  0.805580  1
  V  V5  1  0.103126  0.055485  0.133621  1
  V  V6  1  0.407152  0.768969  0.694420  1
  V  V7  1  0.396874  0.555485  0.366379  1
  V  V8  1  0.603126  0.444515  0.633621  1
  V  V9  1  0.592848  0.231031  0.305580  1
  V  V10  1  0.896874  0.944515  0.866379  1
  V  V11  1  0.907152  0.731031  0.194420  1
  P  P12  1  0.210104  0.970061  0.860349  1
  P  P13  1  0.209632  0.828740  0.380689  1
  P  P14  1  0.289896  0.470061  0.639651  1
  P  P15  1  0.290368  0.328740  0.119311  1
  P  P16  1  0.709632  0.671260  0.880689  1
  P  P17  1  0.710104  0.529939  0.360349  1
  P  P18  1  0.790368  0.171260  0.619311  1
  P  P19  1  0.789896  0.029939  0.139651  1
  H  H20  1  0.048390  0.532283  0.879242  1
  H  H21  1  0.214798  0.643303  0.876305  1
  H  H22  1  0.075923  0.796155  0.035495  1
  H  H23  1  0.108743  0.523818  0.183423  1
  H  H24  1  0.285202  0.143303  0.623695  1
  H  H25  1  0.273462  0.088951  0.468221  1
  H  H26  1  0.226538  0.588951  0.031779  1
  H  H27  1  0.391257  0.023818  0.316577  1
  H  H28  1  0.424077  0.296155  0.464505  1
  H  H29  1  0.451610  0.032283  0.620758  1
  H  H30  1  0.548390  0.967717  0.379242  1
  H  H31  1  0.575923  0.703845  0.535495  1
  H  H32  1  0.608743  0.976182  0.683423  1
  H  H33  1  0.773462  0.411049  0.968221  1
  H  H34  1  0.726538  0.911049  0.531779  1
  H  H35  1  0.714798  0.856697  0.376305  1
  H  H36  1  0.891257  0.476182  0.816577  1
  H  H37  1  0.924077  0.203845  0.964505  1
  H  H38  1  0.785202  0.356697  0.123695  1
  H  H39  1  0.951610  0.467717  0.120758  1
  O  O40  1  0.069580  0.896476  0.806698  1
  O  O41  1  0.010356  0.544005  0.173677  1
  O  O42  1  0.169206  0.645014  0.956186  1
  O  O43  1  0.059128  0.773567  0.362110  1
  O  O44  1  0.007020  0.856571  0.064624  1
  O  O45  1  0.235369  0.343016  0.959507  1
  O  O46  1  0.168469  0.376633  0.654380  1
  O  O47  1  0.210723  0.108357  0.776541  1
  O  O48  1  0.289277  0.608357  0.723459  1
  O  O49  1  0.331531  0.876633  0.845620  1
  O  O50  1  0.206131  0.979244  0.318072  1
  O  O51  1  0.264631  0.843016  0.540493  1
  O  O52  1  0.202853  0.238727  0.193202  1
  O  O53  1  0.263134  0.503974  0.480576  1
  O  O54  1  0.330794  0.145014  0.543814  1
  O  O55  1  0.236866  0.003974  0.019424  1
  O  O56  1  0.297147  0.738727  0.306798  1
  O  O57  1  0.293869  0.479243  0.181928  1
  O  O58  1  0.430420  0.396476  0.693302  1
  O  O59  1  0.510356  0.955995  0.673677  1
  O  O60  1  0.559128  0.726433  0.862110  1
  O  O61  1  0.507020  0.643429  0.564624  1
  O  O62  1  0.492980  0.356571  0.435376  1
  O  O63  1  0.440872  0.273567  0.137890  1
  O  O64  1  0.489644  0.044005  0.326323  1
  O  O65  1  0.569580  0.603524  0.306698  1
  O  O66  1  0.706131  0.520756  0.818072  1
  O  O67  1  0.702853  0.261273  0.693202  1
  O  O68  1  0.763134  0.996026  0.980576  1
  O  O69  1  0.669206  0.854986  0.456186  1
  O  O70  1  0.736866  0.496026  0.519424  1
  O  O71  1  0.797147  0.761273  0.806798  1
  O  O72  1  0.735369  0.156984  0.459507  1
  O  O73  1  0.793869  0.020757  0.681928  1
  O  O74  1  0.668469  0.123367  0.154380  1
  O  O75  1  0.710723  0.391643  0.276541  1
  O  O76  1  0.789277  0.891643  0.223459  1
  O  O77  1  0.831531  0.623367  0.345620  1
  O  O78  1  0.764631  0.656984  0.040493  1
  O  O79  1  0.992980  0.143429  0.935376  1
  O  O80  1  0.940872  0.226433  0.637890  1
  O  O81  1  0.830794  0.354986  0.043814  1
  O  O82  1  0.989644  0.455995  0.826323  1
  O  O83  1  0.930420  0.103524  0.193302  1
