# generated using pymatgen
data_Li2Si6Ni3O16
_symmetry_space_group_name_H-M   'P 1'
_cell_length_a   9.64783093
_cell_length_b   10.04554012
_cell_length_c   6.89854701
_cell_angle_alpha   69.57893243
_cell_angle_beta   98.05080693
_cell_angle_gamma   84.53702817
_symmetry_Int_Tables_number   1
_chemical_formula_structural   Li2Si6Ni3O16
_chemical_formula_sum   'Li4 Si12 Ni6 O32'
_cell_volume   612.87417045
_cell_formula_units_Z   2
loop_
 _symmetry_equiv_pos_site_id
 _symmetry_equiv_pos_as_xyz
  1  'x, y, z'
loop_
 _atom_site_type_symbol
 _atom_site_label
 _atom_site_symmetry_multiplicity
 _atom_site_fract_x
 _atom_site_fract_y
 _atom_site_fract_z
 _atom_site_occupancy
  Li  Li0  1  0.115851  0.532474  0.358186  1
  Li  Li1  1  0.415656  0.200177  0.640500  1
  Li  Li2  1  0.584344  0.799823  0.359500  1
  Li  Li3  1  0.884149  0.467526  0.641814  1
  Si  Si4  1  0.138141  0.237250  0.757639  1
  Si  Si5  1  0.135647  0.229136  0.314807  1
  Si  Si6  1  0.324499  0.051172  0.161726  1
  Si  Si7  1  0.382832  0.649344  0.610490  1
  Si  Si8  1  0.396145  0.876062  0.774457  1
  Si  Si9  1  0.392333  0.621063  0.172037  1
  Si  Si10  1  0.607667  0.378937  0.827963  1
  Si  Si11  1  0.603855  0.123938  0.225543  1
  Si  Si12  1  0.617168  0.350656  0.389510  1
  Si  Si13  1  0.675501  0.948828  0.838274  1
  Si  Si14  1  0.864353  0.770864  0.685193  1
  Si  Si15  1  0.861859  0.762750  0.242361  1
  Ni  Ni16  1  0.134857  0.527713  0.896098  1
  Ni  Ni17  1  0.108855  0.902338  0.946362  1
  Ni  Ni18  1  0.116964  0.892368  0.459452  1
  Ni  Ni19  1  0.883036  0.107632  0.540548  1
  Ni  Ni20  1  0.891145  0.097662  0.053638  1
  Ni  Ni21  1  0.865143  0.472287  0.103902  1
  O  O22  1  0.022960  0.125050  0.814464  1
  O  O23  1  0.024749  0.113961  0.329961  1
  O  O24  1  0.084511  0.398466  0.735979  1
  O  O25  1  0.069843  0.385703  0.146770  1
  O  O26  1  0.190799  0.256988  0.532571  1
  O  O27  1  0.292520  0.156722  0.912243  1
  O  O28  1  0.215878  0.654376  0.621668  1
  O  O29  1  0.286649  0.159204  0.283325  1
  O  O30  1  0.230081  0.935119  0.715745  1
  O  O31  1  0.226821  0.615750  0.104669  1
  O  O32  1  0.234682  0.920801  0.206159  1
  O  O33  1  0.498729  0.001074  0.235360  1
  O  O34  1  0.554215  0.239835  0.986925  1
  O  O35  1  0.430337  0.646015  0.394430  1
  O  O36  1  0.438218  0.799157  0.612565  1
  O  O37  1  0.491922  0.518683  0.797860  1
  O  O38  1  0.508078  0.481317  0.202140  1
  O  O39  1  0.561782  0.200843  0.387435  1
  O  O40  1  0.569663  0.353985  0.605570  1
  O  O41  1  0.445785  0.760165  0.013075  1
  O  O42  1  0.501271  0.998926  0.764640  1
  O  O43  1  0.765318  0.079199  0.793841  1
  O  O44  1  0.773179  0.384250  0.895331  1
  O  O45  1  0.769919  0.064881  0.284255  1
  O  O46  1  0.713351  0.840796  0.716675  1
  O  O47  1  0.784122  0.345624  0.378332  1
  O  O48  1  0.707480  0.843278  0.087757  1
  O  O49  1  0.809201  0.743012  0.467429  1
  O  O50  1  0.930157  0.614297  0.853229  1
  O  O51  1  0.915489  0.601534  0.264021  1
  O  O52  1  0.975251  0.886039  0.670039  1
  O  O53  1  0.977040  0.874950  0.185536  1
