# generated using pymatgen
data_NaCa2LuSi2O7F2
_symmetry_space_group_name_H-M   'P 1'
_cell_length_a   9.27841104
_cell_length_b   10.19614730
_cell_length_c   9.42976547
_cell_angle_alpha   84.32993943
_cell_angle_beta   108.43834096
_cell_angle_gamma   87.92341376
_symmetry_Int_Tables_number   1
_chemical_formula_structural   NaCa2LuSi2O7F2
_chemical_formula_sum   'Na4 Ca8 Lu4 Si8 O28 F8'
_cell_volume   840.00273396
_cell_formula_units_Z   4
loop_
 _symmetry_equiv_pos_site_id
 _symmetry_equiv_pos_as_xyz
  1  'x, y, z'
loop_
 _atom_site_type_symbol
 _atom_site_label
 _atom_site_symmetry_multiplicity
 _atom_site_fract_x
 _atom_site_fract_y
 _atom_site_fract_z
 _atom_site_occupancy
  Na  Na0  1  0.270872  0.974335  0.683020  1
  Na  Na1  1  0.431065  0.311161  0.013226  1
  Na  Na2  1  0.756130  0.445647  0.916776  1
  Na  Na3  1  0.824063  0.059334  0.418315  1
  Ca  Ca4  1  0.164948  0.368373  0.316956  1
  Ca  Ca5  1  0.281521  0.614633  0.173204  1
  Ca  Ca6  1  0.504687  0.150614  0.453156  1
  Ca  Ca7  1  0.452910  0.944825  0.102255  1
  Ca  Ca8  1  0.484448  0.817062  0.472715  1
  Ca  Ca9  1  0.462164  0.676054  0.845517  1
  Ca  Ca10  1  0.017182  0.578954  0.802622  1
  Ca  Ca11  1  0.897065  0.885600  0.144050  1
  Lu  Lu12  1  0.040047  0.175422  0.910335  1
  Lu  Lu13  1  0.491965  0.451137  0.611368  1
  Lu  Lu14  1  0.633095  0.079535  0.826205  1
  Lu  Lu15  1  0.627699  0.502402  0.312539  1
  Si  Si16  1  0.208653  0.360210  0.701012  1
  Si  Si17  1  0.046892  0.885122  0.915041  1
  Si  Si18  1  0.141074  0.080131  0.285623  1
  Si  Si19  1  0.180503  0.634625  0.511841  1
  Si  Si20  1  0.765939  0.309315  0.582540  1
  Si  Si21  1  0.814365  0.860183  0.655879  1
  Si  Si22  1  0.829884  0.197705  0.128584  1
  Si  Si23  1  0.902577  0.612310  0.248141  1
  O  O24  1  0.000972  0.803229  0.760910  1
  O  O25  1  0.118499  0.518735  0.618453  1
  O  O26  1  0.032197  0.697483  0.356296  1
  O  O27  1  0.058108  0.046376  0.117626  1
  O  O28  1  0.276331  0.739388  0.612084  1
  O  O29  1  0.286557  0.312557  0.580590  1
  O  O30  1  0.285143  0.554354  0.433932  1
  O  O31  1  0.468562  0.092160  0.928127  1
  O  O32  1  0.105829  0.785354  0.067176  1
  O  O33  1  0.272026  0.180922  0.301256  1
  O  O34  1  0.164517  0.994288  0.888779  1
  O  O35  1  0.423125  0.416556  0.254962  1
  O  O36  1  0.504503  0.990496  0.643719  1
  O  O37  1  0.488405  0.463772  0.823052  1
  O  O38  1  0.494816  0.686845  0.284082  1
  O  O39  1  0.636044  0.258502  0.665177  1
  O  O40  1  0.601126  0.670649  0.681579  1
  O  O41  1  0.756677  0.061835  0.157415  1
  O  O42  1  0.763372  0.704921  0.739645  1
  O  O43  1  0.832098  0.227607  0.955276  1
  O  O44  1  0.654593  0.778683  0.052464  1
  O  O45  1  0.715158  0.471014  0.557633  1
  O  O46  1  0.738054  0.704812  0.205434  1
  O  O47  1  0.712488  0.259900  0.418297  1
  O  O48  1  0.874974  0.960297  0.892385  1
  O  O49  1  0.941022  0.268752  0.686347  1
  O  O50  1  0.893619  0.468378  0.317692  1
  O  O51  1  0.988706  0.212719  0.264960  1
  F  F52  1  0.063625  0.407931  0.000347  1
  F  F53  1  0.086792  0.007678  0.428680  1
  F  F54  1  0.271243  0.936545  0.325077  1
  F  F55  1  0.708019  0.327198  0.122373  1
  F  F56  1  0.263468  0.615592  0.924862  1
  F  F57  1  0.561353  0.989811  0.334238  1
  F  F58  1  0.811643  0.800869  0.489754  1
  F  F59  1  0.916588  0.609106  0.078405  1
