# generated using pymatgen
data_Tm(CuO2)2
_symmetry_space_group_name_H-M   'P 1'
_cell_length_a   5.64823489
_cell_length_b   6.20181254
_cell_length_c   6.20181254
_cell_angle_alpha   101.21620923
_cell_angle_beta   63.68738666
_cell_angle_gamma   63.68738666
_symmetry_Int_Tables_number   1
_chemical_formula_structural   Tm(CuO2)2
_chemical_formula_sum   'Tm2 Cu4 O8'
_cell_volume   152.49818542
_cell_formula_units_Z   2
loop_
 _symmetry_equiv_pos_site_id
 _symmetry_equiv_pos_as_xyz
  1  'x, y, z'
loop_
 _atom_site_type_symbol
 _atom_site_label
 _atom_site_symmetry_multiplicity
 _atom_site_fract_x
 _atom_site_fract_y
 _atom_site_fract_z
 _atom_site_occupancy
  Tm  Tm0  1  0.750000  0.124829  0.375171  1
  Tm  Tm1  1  0.250000  0.875171  0.624829  1
  Cu  Cu2  1  0.500000  0.000000  0.000000  1
  Cu  Cu3  1  0.500000  0.500000  0.000000  1
  Cu  Cu4  1  0.000000  0.500000  0.000000  1
  Cu  Cu5  1  0.000000  0.500000  0.500000  1
  O  O6  1  0.703027  0.166929  0.024541  1
  O  O7  1  0.796973  0.475459  0.333071  1
  O  O8  1  0.900798  0.277803  0.634043  1
  O  O9  1  0.400798  0.134043  0.777803  1
  O  O10  1  0.599202  0.865957  0.222197  1
  O  O11  1  0.099202  0.722197  0.365957  1
  O  O12  1  0.203027  0.524541  0.666929  1
  O  O13  1  0.296973  0.833071  0.975459  1
