# generated using pymatgen
data_K2GaPCO7
_symmetry_space_group_name_H-M   'P 1'
_cell_length_a   9.68115119
_cell_length_b   6.75370519
_cell_length_c   5.48791225
_cell_angle_alpha   90.00000000
_cell_angle_beta   90.63858581
_cell_angle_gamma   90.00000000
_symmetry_Int_Tables_number   1
_chemical_formula_structural   K2GaPCO7
_chemical_formula_sum   'K4 Ga2 P2 C2 O14'
_cell_volume   358.79739859
_cell_formula_units_Z   2
loop_
 _symmetry_equiv_pos_site_id
 _symmetry_equiv_pos_as_xyz
  1  'x, y, z'
loop_
 _atom_site_type_symbol
 _atom_site_label
 _atom_site_symmetry_multiplicity
 _atom_site_fract_x
 _atom_site_fract_y
 _atom_site_fract_z
 _atom_site_occupancy
  K  K0  1  0.240929  0.474295  0.243437  1
  K  K1  1  0.240929  0.025705  0.243437  1
  K  K2  1  0.759071  0.525705  0.756563  1
  K  K3  1  0.759071  0.974295  0.756563  1
  Ga  Ga4  1  0.358149  0.750000  0.766847  1
  Ga  Ga5  1  0.641851  0.250000  0.233153  1
  P  P6  1  0.434642  0.250000  0.722666  1
  P  P7  1  0.565358  0.750000  0.277334  1
  C  C8  1  0.103353  0.750000  0.729389  1
  C  C9  1  0.896647  0.250000  0.270611  1
  O  O10  1  0.024831  0.250000  0.293097  1
  O  O11  1  0.171219  0.750000  0.939421  1
  O  O12  1  0.190057  0.750000  0.542868  1
  O  O13  1  0.345350  0.062232  0.760608  1
  O  O14  1  0.345350  0.437768  0.760608  1
  O  O15  1  0.438638  0.750000  0.099053  1
  O  O16  1  0.486095  0.250000  0.450848  1
  O  O17  1  0.513905  0.750000  0.549152  1
  O  O18  1  0.561362  0.250000  0.900947  1
  O  O19  1  0.654650  0.562232  0.239392  1
  O  O20  1  0.654650  0.937768  0.239392  1
  O  O21  1  0.809943  0.250000  0.457132  1
  O  O22  1  0.828781  0.250000  0.060579  1
  O  O23  1  0.975169  0.750000  0.706903  1
