# generated using pymatgen
data_Fe3O4
_symmetry_space_group_name_H-M   'P 1'
_cell_length_a   6.41613500
_cell_length_b   6.41613484
_cell_length_c   6.44909344
_cell_angle_alpha   60.16891189
_cell_angle_beta   119.83109428
_cell_angle_gamma   120.00000727
_symmetry_Int_Tables_number   1
_chemical_formula_structural   Fe3O4
_chemical_formula_sum   'Fe6 O8'
_cell_volume   188.20653352
_cell_formula_units_Z   2
loop_
 _symmetry_equiv_pos_site_id
 _symmetry_equiv_pos_as_xyz
  1  'x, y, z'
loop_
 _atom_site_type_symbol
 _atom_site_label
 _atom_site_symmetry_multiplicity
 _atom_site_fract_x
 _atom_site_fract_y
 _atom_site_fract_z
 _atom_site_occupancy
  Fe  Fe0  1  0.001917  0.998083  0.005750  1
  Fe  Fe1  1  0.498348  0.501652  0.495043  1
  Fe  Fe2  1  0.355785  0.644215  0.067356  1
  Fe  Fe3  1  0.360915  0.073046  0.648785  1
  Fe  Fe4  1  0.360915  0.639085  0.648785  1
  Fe  Fe5  1  0.926954  0.639085  0.648785  1
  O  O6  1  0.612004  0.387996  0.836012  1
  O  O7  1  0.167941  0.390733  0.386475  1
  O  O8  1  0.609267  0.390733  0.386475  1
  O  O9  1  0.609267  0.832059  0.386475  1
  O  O10  1  0.124545  0.381376  0.867715  1
  O  O11  1  0.128971  0.871029  0.386914  1
  O  O12  1  0.618624  0.875455  0.867715  1
  O  O13  1  0.124545  0.875455  0.867715  1
