# generated using pymatgen
data_Y5U2O12
_symmetry_space_group_name_H-M   'P 1'
_cell_length_a   6.61848392
_cell_length_b   6.57995318
_cell_length_c   19.83647211
_cell_angle_alpha   98.94073572
_cell_angle_beta   99.36468570
_cell_angle_gamma   99.39135472
_symmetry_Int_Tables_number   1
_chemical_formula_structural   Y5U2O12
_chemical_formula_sum   'Y15 U6 O36'
_cell_volume   826.10498634
_cell_formula_units_Z   3
loop_
 _symmetry_equiv_pos_site_id
 _symmetry_equiv_pos_as_xyz
  1  'x, y, z'
loop_
 _atom_site_type_symbol
 _atom_site_label
 _atom_site_symmetry_multiplicity
 _atom_site_fract_x
 _atom_site_fract_y
 _atom_site_fract_z
 _atom_site_occupancy
  Y  Y0  1  0.389542  0.855530  0.563161  1
  Y  Y1  1  0.389490  0.856913  0.896713  1
  Y  Y2  1  0.394189  0.859859  0.230805  1
  Y  Y3  1  0.306211  0.605892  0.713303  1
  Y  Y4  1  0.305161  0.604868  0.379564  1
  Y  Y5  1  0.314227  0.606446  0.045034  1
  Y  Y6  1  0.143178  0.315424  0.869682  1
  Y  Y7  1  0.143643  0.315786  0.536883  1
  Y  Y8  1  0.144733  0.308982  0.203075  1
  Y  Y9  1  0.865897  0.688304  0.797973  1
  Y  Y10  1  0.865410  0.687939  0.464703  1
  Y  Y11  1  0.686674  0.391570  0.952155  1
  Y  Y12  1  0.687395  0.393483  0.619098  1
  Y  Y13  1  0.683680  0.392527  0.284926  1
  Y  Y14  1  0.607280  0.141978  0.103634  1
  U  U15  1  0.996161  -0.000108  0.665757  1
  U  U16  1  0.996125  0.000062  0.333615  1
  U  U17  1  0.000032  0.002127  0.999867  1
  U  U18  1  0.861419  0.690778  0.131959  1
  U  U19  1  0.603300  0.139263  0.769953  1
  U  U20  1  0.603255  0.139431  0.436877  1
  O  O21  1  0.055532  0.924804  0.895363  1
  O  O22  1  0.056285  0.922556  0.562139  1
  O  O23  1  0.057190  0.922618  0.227746  1
  O  O24  1  0.316443  0.944129  0.358881  1
  O  O25  1  0.316097  0.945294  0.692639  1
  O  O26  1  0.314849  0.944667  0.025800  1
  O  O27  1  0.181210  0.588081  0.810239  1
  O  O28  1  0.181484  0.586655  0.476867  1
  O  O29  1  0.166968  0.588002  0.141273  1
  O  O30  1  0.577100  0.834258  0.803905  1
  O  O31  1  0.579348  0.813184  0.140005  1
  O  O32  1  0.576340  0.833617  0.470832  1
  O  O33  1  0.078121  0.316245  0.982197  1
  O  O34  1  0.075097  0.313458  0.648308  1
  O  O35  1  0.074798  0.311730  0.314047  1
  O  O36  1  0.416450  0.568885  0.940769  1
  O  O37  1  0.417914  0.569349  0.608690  1
  O  O38  1  0.413970  0.568053  0.273920  1
  O  O39  1  0.582920  0.422819  0.728872  1
  O  O40  1  0.582067  0.423007  0.395015  1
  O  O41  1  0.591495  0.432180  0.060180  1
  O  O42  1  0.924196  0.684393  0.685241  1
  O  O43  1  0.924230  0.684674  0.352320  1
  O  O44  1  0.921361  0.686279  0.018174  1
  O  O45  1  0.429182  0.176997  0.525208  1
  O  O46  1  0.429050  0.177052  0.858314  1
  O  O47  1  0.430985  0.174873  0.193506  1
  O  O48  1  0.821504  0.410479  0.856030  1
  O  O49  1  0.820838  0.412024  0.523145  1
  O  O50  1  0.824162  0.423018  0.190435  1
  O  O51  1  0.686210  0.054941  0.973992  1
  O  O52  1  0.680334  0.058085  0.642397  1
  O  O53  1  0.680757  0.058348  0.310023  1
  O  O54  1  0.943844  0.078375  0.770658  1
  O  O55  1  0.942916  0.078815  0.438593  1
  O  O56  1  0.941750  0.070998  0.105546  1
