# generated using pymatgen
data_Bi2SeO6
_symmetry_space_group_name_H-M   'P 1'
_cell_length_a   5.36883135
_cell_length_b   8.49876797
_cell_length_c   5.37973517
_cell_angle_alpha   90.00033617
_cell_angle_beta   89.99962669
_cell_angle_gamma   108.39967517
_symmetry_Int_Tables_number   1
_chemical_formula_structural   Bi2SeO6
_chemical_formula_sum   'Bi4 Se2 O12'
_cell_volume   232.92007338
_cell_formula_units_Z   2
loop_
 _symmetry_equiv_pos_site_id
 _symmetry_equiv_pos_as_xyz
  1  'x, y, z'
loop_
 _atom_site_type_symbol
 _atom_site_label
 _atom_site_symmetry_multiplicity
 _atom_site_fract_x
 _atom_site_fract_y
 _atom_site_fract_z
 _atom_site_occupancy
  Bi  Bi0  1  0.168633  0.336909  0.502109  1
  Bi  Bi1  1  0.668629  0.336910  0.997902  1
  Bi  Bi2  1  0.331339  0.663022  0.002139  1
  Bi  Bi3  1  0.831345  0.663025  0.497876  1
  Se  Se4  1  -0.000022  0.000167  0.000138  1
  Se  Se5  1  0.500010  0.000246  0.500073  1
  O  O6  1  0.282169  0.065352  0.749668  1
  O  O7  1  0.105571  0.211710  0.070290  1
  O  O8  1  0.782117  0.065350  0.750252  1
  O  O9  1  0.605577  0.211732  0.429682  1
  O  O10  1  0.000137  0.500176  0.750010  1
  O  O11  1  0.999911  0.499883  0.250006  1
  O  O12  1  0.500133  0.500179  0.749991  1
  O  O13  1  0.499905  0.499887  0.249997  1
  O  O14  1  0.394381  0.788140  0.570307  1
  O  O15  1  0.217868  0.934598  0.249722  1
  O  O16  1  0.894389  0.788121  0.929650  1
  O  O17  1  0.717908  0.934593  0.250188  1
