# generated using pymatgen
data_Li2Ti3MnO8
_symmetry_space_group_name_H-M   'P 1'
_cell_length_a   8.52650279
_cell_length_b   8.52660690
_cell_length_c   8.52681365
_cell_angle_alpha   89.99987119
_cell_angle_beta   89.99962310
_cell_angle_gamma   90.00022726
_symmetry_Int_Tables_number   1
_chemical_formula_structural   Li2Ti3MnO8
_chemical_formula_sum   'Li8 Ti12 Mn4 O32'
_cell_volume   619.91757860
_cell_formula_units_Z   4
loop_
 _symmetry_equiv_pos_site_id
 _symmetry_equiv_pos_as_xyz
  1  'x, y, z'
loop_
 _atom_site_type_symbol
 _atom_site_label
 _atom_site_symmetry_multiplicity
 _atom_site_fract_x
 _atom_site_fract_y
 _atom_site_fract_z
 _atom_site_occupancy
  Li  Li0  1  0.126331  0.873675  0.373684  1
  Li  Li1  1  0.247263  0.747265  0.752741  1
  Li  Li2  1  0.252740  0.252737  0.252742  1
  Li  Li3  1  0.373672  0.126331  0.873681  1
  Li  Li4  1  0.626332  0.626328  0.626319  1
  Li  Li5  1  0.747262  0.752740  0.247261  1
  Li  Li6  1  0.752737  0.247265  0.747259  1
  Li  Li7  1  0.873671  0.373672  0.126322  1
  Ti  Ti8  1  0.117062  0.622160  0.128549  1
  Ti  Ti9  1  0.122153  0.371462  0.882952  1
  Ti  Ti10  1  0.128536  0.117072  0.622154  1
  Ti  Ti11  1  0.371459  0.882940  0.122147  1
  Ti  Ti12  1  0.377851  0.628542  0.382940  1
  Ti  Ti13  1  0.382936  0.377854  0.628540  1
  Ti  Ti14  1  0.617063  0.877844  0.871458  1
  Ti  Ti15  1  0.622161  0.128539  0.117055  1
  Ti  Ti16  1  0.628541  0.382934  0.377848  1
  Ti  Ti17  1  0.871459  0.617064  0.877854  1
  Ti  Ti18  1  0.877848  0.871462  0.617054  1
  Ti  Ti19  1  0.882938  0.122158  0.371459  1
  Mn  Mn20  1  0.001444  0.498549  0.501445  1
  Mn  Mn21  1  0.498556  0.501437  0.001443  1
  Mn  Mn22  1  0.501451  0.001449  0.498568  1
  Mn  Mn23  1  0.998543  0.998550  0.998570  1
  O  O24  1  0.103445  0.128762  0.392507  1
  O  O25  1  0.107494  0.896563  0.628772  1
  O  O26  1  0.111350  0.611349  0.888661  1
  O  O27  1  0.128762  0.392504  0.103451  1
  O  O28  1  0.123673  0.147142  0.857511  1
  O  O29  1  0.139447  0.360553  0.639431  1
  O  O30  1  0.142491  0.623674  0.352851  1
  O  O31  1  0.147137  0.857510  0.123677  1
  O  O32  1  0.352862  0.142498  0.623675  1
  O  O33  1  0.357505  0.376332  0.852847  1
  O  O34  1  0.360553  0.639449  0.139427  1
  O  O35  1  0.376323  0.852866  0.357506  1
  O  O36  1  0.371236  0.607500  0.603446  1
  O  O37  1  0.388651  0.388656  0.388656  1
  O  O38  1  0.392505  0.103443  0.128759  1
  O  O39  1  0.396555  0.871239  0.892505  1
  O  O40  1  0.603444  0.371241  0.607496  1
  O  O41  1  0.607498  0.603443  0.371233  1
  O  O42  1  0.611352  0.888655  0.111340  1
  O  O43  1  0.628768  0.107497  0.896550  1
  O  O44  1  0.623685  0.352861  0.142493  1
  O  O45  1  0.639442  0.139450  0.360574  1
  O  O46  1  0.642491  0.876330  0.647150  1
  O  O47  1  0.647135  0.642492  0.876327  1
  O  O48  1  0.852866  0.357508  0.376329  1
  O  O49  1  0.857509  0.123674  0.147154  1
  O  O50  1  0.860548  0.860547  0.860572  1
  O  O51  1  0.876321  0.647140  0.642495  1
  O  O52  1  0.871235  0.892503  0.396555  1
  O  O53  1  0.888646  0.111350  0.611341  1
  O  O54  1  0.892505  0.396558  0.871242  1
  O  O55  1  0.896553  0.628766  0.107500  1
