# generated using pymatgen
data_Li4Mn3F10
_symmetry_space_group_name_H-M   'P 1'
_cell_length_a   7.92719761
_cell_length_b   5.19631027
_cell_length_c   5.50635922
_cell_angle_alpha   78.06474645
_cell_angle_beta   67.62461018
_cell_angle_gamma   96.91304641
_symmetry_Int_Tables_number   1
_chemical_formula_structural   Li4Mn3F10
_chemical_formula_sum   'Li4 Mn3 F10'
_cell_volume   200.17725902
_cell_formula_units_Z   1
loop_
 _symmetry_equiv_pos_site_id
 _symmetry_equiv_pos_as_xyz
  1  'x, y, z'
loop_
 _atom_site_type_symbol
 _atom_site_label
 _atom_site_symmetry_multiplicity
 _atom_site_fract_x
 _atom_site_fract_y
 _atom_site_fract_z
 _atom_site_occupancy
  Li  Li0  1  0.347768  0.008682  0.948195  1
  Li  Li1  1  0.203912  0.492299  0.158003  1
  Li  Li2  1  0.796088  0.507701  0.841997  1
  Li  Li3  1  0.652232  0.991318  0.051805  1
  Mn  Mn4  1  0.144270  0.822053  0.614290  1
  Mn  Mn5  1  0.500000  0.500000  0.500000  1
  Mn  Mn6  1  0.855730  0.177947  0.385710  1
  F  F7  1  0.155826  0.105923  0.247639  1
  F  F8  1  0.000000  0.500000  0.500000  1
  F  F9  1  0.000000  0.500000  0.000000  1
  F  F10  1  0.267855  0.171221  0.676274  1
  F  F11  1  0.359387  0.699018  0.790584  1
  F  F12  1  0.389711  0.753101  0.248414  1
  F  F13  1  0.610289  0.246899  0.751586  1
  F  F14  1  0.640613  0.300982  0.209416  1
  F  F15  1  0.732145  0.828779  0.323726  1
  F  F16  1  0.844175  0.894077  0.752361  1
