# generated using pymatgen
data_Ba2CaI6
_symmetry_space_group_name_H-M   'P 1'
_cell_length_a   8.50829095
_cell_length_b   8.50928951
_cell_length_c   7.19669457
_cell_angle_alpha   89.99663126
_cell_angle_beta   90.00673147
_cell_angle_gamma   119.99611820
_symmetry_Int_Tables_number   1
_chemical_formula_structural   Ba2CaI6
_chemical_formula_sum   'Ba2 Ca1 I6'
_cell_volume   451.24906926
_cell_formula_units_Z   1
loop_
 _symmetry_equiv_pos_site_id
 _symmetry_equiv_pos_as_xyz
  1  'x, y, z'
loop_
 _atom_site_type_symbol
 _atom_site_label
 _atom_site_symmetry_multiplicity
 _atom_site_fract_x
 _atom_site_fract_y
 _atom_site_fract_z
 _atom_site_occupancy
  Ba  Ba0  1  0.333242  0.666666  0.500008  1
  Ba  Ba1  1  0.666575  0.333334  0.500008  1
  Ca  Ca2  1  0.000040  0.000000  0.000008  1
  I  I3  1  -0.000039  0.680591  0.766010  1
  I  I4  1  0.999947  0.319327  0.234061  1
  I  I5  1  0.319370  0.319409  0.766010  1
  I  I6  1  0.680620  0.680673  0.234061  1
  I  I7  1  0.319517  0.000000  0.233937  1
  I  I8  1  0.680630  0.000000  0.765895  1
