# generated using pymatgen
data_Li2FeBO4
_symmetry_space_group_name_H-M   'P 1'
_cell_length_a   5.86078608
_cell_length_b   10.54072648
_cell_length_c   5.00108218
_cell_angle_alpha   90.00000000
_cell_angle_beta   90.00000000
_cell_angle_gamma   90.00000000
_symmetry_Int_Tables_number   1
_chemical_formula_structural   Li2FeBO4
_chemical_formula_sum   'Li8 Fe4 B4 O16'
_cell_volume   308.95156891
_cell_formula_units_Z   4
loop_
 _symmetry_equiv_pos_site_id
 _symmetry_equiv_pos_as_xyz
  1  'x, y, z'
loop_
 _atom_site_type_symbol
 _atom_site_label
 _atom_site_symmetry_multiplicity
 _atom_site_fract_x
 _atom_site_fract_y
 _atom_site_fract_z
 _atom_site_occupancy
  Li  Li0  1  0.004468  0.331498  0.176148  1
  Li  Li1  1  0.004468  0.831498  0.323852  1
  Li  Li2  1  0.495532  0.331498  0.176148  1
  Li  Li3  1  0.495532  0.831498  0.323852  1
  Li  Li4  1  0.504468  0.168502  0.676148  1
  Li  Li5  1  0.504468  0.668502  0.823852  1
  Li  Li6  1  0.995532  0.668502  0.823852  1
  Li  Li7  1  0.995532  0.168502  0.676148  1
  Fe  Fe8  1  0.250000  0.423678  0.678669  1
  Fe  Fe9  1  0.250000  0.923678  0.821331  1
  Fe  Fe10  1  0.750000  0.076322  0.178669  1
  Fe  Fe11  1  0.750000  0.576322  0.321331  1
  B  B12  1  0.250000  0.088609  0.171352  1
  B  B13  1  0.250000  0.588609  0.328648  1
  B  B14  1  0.750000  0.411391  0.671352  1
  B  B15  1  0.750000  0.911391  0.828648  1
  O  O16  1  0.039076  0.148481  0.283998  1
  O  O17  1  0.039076  0.648481  0.216002  1
  O  O18  1  0.250000  0.102984  0.869282  1
  O  O19  1  0.250000  0.445419  0.289066  1
  O  O20  1  0.250000  0.945419  0.210934  1
  O  O21  1  0.250000  0.602984  0.630718  1
  O  O22  1  0.460924  0.148481  0.283998  1
  O  O23  1  0.460924  0.648481  0.216002  1
  O  O24  1  0.539076  0.851519  0.716002  1
  O  O25  1  0.539076  0.351519  0.783998  1
  O  O26  1  0.750000  0.054581  0.789066  1
  O  O27  1  0.750000  0.397016  0.369282  1
  O  O28  1  0.750000  0.554581  0.710934  1
  O  O29  1  0.750000  0.897016  0.130718  1
  O  O30  1  0.960924  0.351519  0.783998  1
  O  O31  1  0.960924  0.851519  0.716002  1
