# generated using pymatgen
data_BiO2
_symmetry_space_group_name_H-M   'P 1'
_cell_length_a   4.29476208
_cell_length_b   4.29481227
_cell_length_c   6.65201619
_cell_angle_alpha   72.06655037
_cell_angle_beta   70.46901824
_cell_angle_gamma   90.17418078
_symmetry_Int_Tables_number   1
_chemical_formula_structural   BiO2
_chemical_formula_sum   'Bi2 O4'
_cell_volume   109.24837352
_cell_formula_units_Z   2
loop_
 _symmetry_equiv_pos_site_id
 _symmetry_equiv_pos_as_xyz
  1  'x, y, z'
loop_
 _atom_site_type_symbol
 _atom_site_label
 _atom_site_symmetry_multiplicity
 _atom_site_fract_x
 _atom_site_fract_y
 _atom_site_fract_z
 _atom_site_occupancy
  Bi  Bi0  1  0.120717  0.870035  0.749925  1
  Bi  Bi1  1  0.879283  0.129965  0.250075  1
  O  O2  1  0.061310  0.314970  0.862937  1
  O  O3  1  0.321702  0.077249  0.362746  1
  O  O4  1  0.678298  0.922751  0.637254  1
  O  O5  1  0.938690  0.685030  0.137063  1
