# generated using pymatgen
data_LiCo2OF3
_symmetry_space_group_name_H-M   'P 1'
_cell_length_a   6.09332953
_cell_length_b   6.09251547
_cell_length_c   8.61754787
_cell_angle_alpha   89.99471879
_cell_angle_beta   89.98603811
_cell_angle_gamma   89.99291581
_symmetry_Int_Tables_number   1
_chemical_formula_structural   LiCo2OF3
_chemical_formula_sum   'Li4 Co8 O4 F12'
_cell_volume   319.91528655
_cell_formula_units_Z   4
loop_
 _symmetry_equiv_pos_site_id
 _symmetry_equiv_pos_as_xyz
  1  'x, y, z'
loop_
 _atom_site_type_symbol
 _atom_site_label
 _atom_site_symmetry_multiplicity
 _atom_site_fract_x
 _atom_site_fract_y
 _atom_site_fract_z
 _atom_site_occupancy
  Li  Li0  1  0.253560  0.505627  0.250155  1
  Li  Li1  1  0.494431  0.253633  0.000141  1
  Li  Li2  1  0.505627  0.746386  0.500092  1
  Li  Li3  1  0.746355  0.494464  0.750084  1
  Co  Co4  1  0.010598  0.246207  0.984927  1
  Co  Co5  1  0.989466  0.753738  0.485038  1
  Co  Co6  1  0.225822  0.255573  0.635772  1
  Co  Co7  1  0.255584  0.774213  0.885768  1
  Co  Co8  1  0.246204  0.989411  0.234982  1
  Co  Co9  1  0.753779  0.010616  0.734931  1
  Co  Co10  1  0.744350  0.225766  0.385733  1
  Co  Co11  1  0.774299  0.744400  0.135799  1
  O  O12  1  0.026519  0.755311  0.260564  1
  O  O13  1  0.244717  0.026518  0.010512  1
  O  O14  1  0.755270  0.973434  0.510477  1
  O  O15  1  0.973446  0.244744  0.760469  1
  F  F16  1  0.006164  0.265523  0.240359  1
  F  F17  1  0.265480  0.993829  0.490373  1
  F  F18  1  0.259081  0.495458  0.008128  1
  F  F19  1  0.249801  0.517742  0.495126  1
  F  F20  1  0.504489  0.259079  0.758114  1
  F  F21  1  0.517736  0.750234  0.745126  1
  F  F22  1  0.482214  0.249742  0.245143  1
  F  F23  1  0.495494  0.740921  0.258132  1
  F  F24  1  0.740890  0.504506  0.508129  1
  F  F25  1  0.750250  0.482266  0.995160  1
  F  F26  1  0.734509  0.006127  0.990365  1
  F  F27  1  0.993867  0.734530  0.740403  1
