# generated using pymatgen
data_Li2Ti2MnCr2(PO4)6
_symmetry_space_group_name_H-M   'P 1'
_cell_length_a   8.64346868
_cell_length_b   8.62235445
_cell_length_c   17.22728592
_cell_angle_alpha   60.19571819
_cell_angle_beta   60.10359189
_cell_angle_gamma   60.08101717
_symmetry_Int_Tables_number   1
_chemical_formula_structural   Li2Ti2MnCr2(PO4)6
_chemical_formula_sum   'Li4 Ti4 Mn2 Cr4 P12 O48'
_cell_volume   910.45888500
_cell_formula_units_Z   2
loop_
 _symmetry_equiv_pos_site_id
 _symmetry_equiv_pos_as_xyz
  1  'x, y, z'
loop_
 _atom_site_type_symbol
 _atom_site_label
 _atom_site_symmetry_multiplicity
 _atom_site_fract_x
 _atom_site_fract_y
 _atom_site_fract_z
 _atom_site_occupancy
  Li  Li0  1  0.010732  0.991331  0.001587  1
  Li  Li1  1  0.487994  0.510482  0.750795  1
  Li  Li2  1  0.641350  0.256364  0.929435  1
  Li  Li3  1  0.851949  0.640536  0.625547  1
  Ti  Ti4  1  0.140055  0.141035  0.071722  1
  Ti  Ti5  1  0.360908  0.356146  0.680177  1
  Ti  Ti6  1  0.648669  0.647441  0.321133  1
  Ti  Ti7  1  0.862129  0.848925  0.927823  1
  Mn  Mn8  1  0.002950  0.013040  0.493596  1
  Mn  Mn9  1  0.498627  0.494954  0.251243  1
  Cr  Cr10  1  0.354012  0.357837  0.179625  1
  Cr  Cr11  1  0.146278  0.140558  0.570401  1
  Cr  Cr12  1  0.856070  0.859098  0.428182  1
  Cr  Cr13  1  0.639338  0.643856  0.822076  1
  P  P14  1  0.045182  0.750407  0.229739  1
  P  P15  1  0.459648  0.044208  0.374795  1
  P  P16  1  0.747167  0.453732  0.021584  1
  P  P17  1  0.251448  0.537989  0.479722  1
  P  P18  1  0.538571  0.960355  0.125103  1
  P  P19  1  0.039591  0.750242  0.725845  1
  P  P20  1  0.959277  0.249721  0.271134  1
  P  P21  1  0.459056  0.041671  0.875458  1
  P  P22  1  0.751990  0.458561  0.522420  1
  P  P23  1  0.250483  0.539068  0.980896  1
  P  P24  1  0.540136  0.958356  0.625563  1
  P  P25  1  0.961492  0.249364  0.769262  1
  O  O26  1  0.115072  0.307454  0.254948  1
  O  O27  1  0.301127  0.509292  0.061000  1
  O  O28  1  0.058424  0.913183  0.133712  1
  O  O29  1  0.505063  0.119754  0.152478  1
  O  O30  1  0.007863  0.803799  0.310653  1
  O  O31  1  0.236082  0.584836  0.221232  1
  O  O32  1  0.265382  0.055199  0.455732  1
  O  O33  1  0.440817  0.235994  0.292678  1
  O  O34  1  0.195580  0.380720  0.495601  1
  O  O35  1  0.584504  0.445244  0.118083  1
  O  O36  1  0.079111  0.727852  0.479852  1
  O  O37  1  0.373300  0.000704  0.098175  1
  O  O38  1  0.616190  0.008241  0.403994  1
  O  O39  1  0.126052  0.303316  0.749501  1
  O  O40  1  0.914714  0.266655  0.031955  1
  O  O41  1  0.412968  0.564964  0.382149  1
  O  O42  1  0.802921  0.624184  0.995937  1
  O  O43  1  0.310006  0.495971  0.561321  1
  O  O44  1  0.561526  0.764049  0.205395  1
  O  O45  1  0.058506  0.916505  0.630755  1
  O  O46  1  0.499888  0.122430  0.653387  1
  O  O47  1  0.990873  0.807735  0.810008  1
  O  O48  1  0.724516  0.951816  0.037824  1
  O  O49  1  0.231137  0.586275  0.720545  1
  O  O50  1  0.763672  0.414203  0.279363  1
  O  O51  1  0.268160  0.062764  0.958309  1
  O  O52  1  0.000133  0.190859  0.190108  1
  O  O53  1  0.503847  0.879939  0.344225  1
  O  O54  1  0.940375  0.085441  0.368252  1
  O  O55  1  0.440708  0.233518  0.792566  1
  O  O56  1  0.696173  0.508261  0.437649  1
  O  O57  1  0.191846  0.374820  0.002984  1
  O  O58  1  0.585067  0.436780  0.616496  1
  O  O59  1  0.086890  0.731991  0.966335  1
  O  O60  1  0.879860  0.691767  0.250965  1
  O  O61  1  0.384059  0.991337  0.597134  1
  O  O62  1  0.621017  0.010228  0.903202  1
  O  O63  1  0.915022  0.265328  0.527049  1
  O  O64  1  0.423428  0.537304  0.887436  1
  O  O65  1  0.806871  0.614546  0.510563  1
  O  O66  1  0.570429  0.761130  0.704537  1
  O  O67  1  0.740566  0.934910  0.545993  1
  O  O68  1  0.770178  0.418052  0.776821  1
  O  O69  1  0.995358  0.197485  0.688494  1
  O  O70  1  0.495857  0.878931  0.849697  1
  O  O71  1  0.927982  0.093924  0.868445  1
  O  O72  1  0.693009  0.478133  0.943105  1
  O  O73  1  0.882769  0.693895  0.739991  1
