# generated using pymatgen
data_ZrH16C5N2O3F4
_symmetry_space_group_name_H-M   'P 1'
_cell_length_a   15.47013011
_cell_length_b   9.72138719
_cell_length_c   9.72138719
_cell_angle_alpha   60.77098517
_cell_angle_beta   90.00000000
_cell_angle_gamma   90.00000000
_symmetry_Int_Tables_number   1
_chemical_formula_structural   ZrH16C5N2O3F4
_chemical_formula_sum   'Zr4 H64 C20 N8 O12 F16'
_cell_volume   1275.85975597
_cell_formula_units_Z   4
loop_
 _symmetry_equiv_pos_site_id
 _symmetry_equiv_pos_as_xyz
  1  'x, y, z'
loop_
 _atom_site_type_symbol
 _atom_site_label
 _atom_site_symmetry_multiplicity
 _atom_site_fract_x
 _atom_site_fract_y
 _atom_site_fract_z
 _atom_site_occupancy
  Zr  Zr0  1  0.602021  0.401239  0.593186  1
  Zr  Zr1  1  0.397979  0.593186  0.401239  1
  Zr  Zr2  1  0.897979  0.901239  0.093186  1
  Zr  Zr3  1  0.102021  0.093186  0.901239  1
  H  H4  1  0.779578  0.283632  0.644454  1
  H  H5  1  0.220422  0.644454  0.283632  1
  H  H6  1  0.720422  0.783632  0.144454  1
  H  H7  1  0.279578  0.144454  0.783632  1
  H  H8  1  0.748943  0.184770  0.820396  1
  H  H9  1  0.251057  0.820396  0.184770  1
  H  H10  1  0.751057  0.684770  0.320396  1
  H  H11  1  0.248943  0.320396  0.684770  1
  H  H12  1  0.918483  0.531209  0.460949  1
  H  H13  1  0.081517  0.460949  0.531209  1
  H  H14  1  0.581517  0.031209  0.960949  1
  H  H15  1  0.418483  0.960949  0.031209  1
  H  H16  1  0.848244  0.471407  0.588808  1
  H  H17  1  0.151756  0.588808  0.471407  1
  H  H18  1  0.651756  0.971407  0.088808  1
  H  H19  1  0.348244  0.088808  0.971407  1
  H  H20  1  0.619290  0.306117  0.968714  1
  H  H21  1  0.380710  0.968714  0.306117  1
  H  H22  1  0.880710  0.806117  0.468714  1
  H  H23  1  0.119290  0.468714  0.806117  1
  H  H24  1  0.525348  0.324398  0.064088  1
  H  H25  1  0.474652  0.064088  0.324398  1
  H  H26  1  0.974652  0.824398  0.564088  1
  H  H27  1  0.025348  0.564088  0.824398  1
  H  H28  1  0.627737  0.311186  0.150781  1
  H  H29  1  0.372263  0.150781  0.311186  1
  H  H30  1  0.872263  0.811186  0.650781  1
  H  H31  1  0.127737  0.650781  0.811186  1
  H  H32  1  0.570881  0.728927  0.982515  1
  H  H33  1  0.429119  0.982515  0.728927  1
  H  H34  1  0.929119  0.228927  0.482515  1
  H  H35  1  0.070881  0.482515  0.228927  1
  H  H36  1  0.612621  0.561335  0.152550  1
  H  H37  1  0.387379  0.152550  0.561335  1
  H  H38  1  0.887379  0.061335  0.652550  1
  H  H39  1  0.112621  0.652550  0.061335  1
  H  H40  1  0.506380  0.556694  0.089942  1
  H  H41  1  0.493620  0.089942  0.556694  1
  H  H42  1  0.993620  0.056694  0.589942  1
  H  H43  1  0.006380  0.589942  0.056694  1
  H  H44  1  0.586957  0.794816  0.497441  1
  H  H45  1  0.413043  0.497441  0.794816  1
  H  H46  1  0.913043  0.294816  0.997441  1
  H  H47  1  0.086957  0.997441  0.294816  1
  H  H48  1  0.695617  0.859615  0.488358  1
  H  H49  1  0.304383  0.488358  0.859615  1
  H  H50  1  0.804383  0.359615  0.988358  1
  H  H51  1  0.195617  0.988358  0.359615  1
  H  H52  1  0.610257  0.970306  0.509037  1
  H  H53  1  0.389743  0.509037  0.970306  1
  H  H54  1  0.889743  0.470306  0.009037  1
  H  H55  1  0.110257  0.009037  0.470306  1
  H  H56  1  0.697113  0.774687  0.905681  1
  H  H57  1  0.302887  0.905681  0.774687  1
  H  H58  1  0.802887  0.274687  0.405681  1
  H  H59  1  0.197113  0.405681  0.274687  1
  H  H60  1  0.659364  0.957416  0.749248  1
  H  H61  1  0.340636  0.749248  0.957416  1
  H  H62  1  0.840636  0.457416  0.249248  1
  H  H63  1  0.159364  0.249248  0.457416  1
  H  H64  1  0.753611  0.866100  0.723713  1
  H  H65  1  0.246389  0.723713  0.866100  1
  H  H66  1  0.746389  0.366100  0.223713  1
  H  H67  1  0.253611  0.223713  0.366100  1
  C  C68  1  0.615901  0.607240  0.795135  1
  C  C69  1  0.384099  0.795135  0.607240  1
  C  C70  1  0.884099  0.107240  0.295135  1
  C  C71  1  0.115901  0.295135  0.107240  1
  C  C72  1  0.593737  0.358354  0.037406  1
  C  C73  1  0.406263  0.037406  0.358354  1
  C  C74  1  0.906263  0.858354  0.537406  1
  C  C75  1  0.093737  0.537406  0.858354  1
  C  C76  1  0.571992  0.600568  0.047208  1
  C  C77  1  0.428008  0.047208  0.600568  1
  C  C78  1  0.928008  0.100568  0.547208  1
  C  C79  1  0.071992  0.547208  0.100568  1
  C  C80  1  0.631842  0.850048  0.542878  1
  C  C81  1  0.368158  0.542878  0.850048  1
  C  C82  1  0.868158  0.350048  0.042878  1
  C  C83  1  0.131842  0.042878  0.350048  1
  C  C84  1  0.689158  0.843885  0.778401  1
  C  C85  1  0.310842  0.778401  0.843885  1
  C  C86  1  0.810842  0.343885  0.278401  1
  C  C87  1  0.189158  0.278401  0.343885  1
  N  N88  1  0.602498  0.529800  0.953378  1
  N  N89  1  0.397502  0.953378  0.529800  1
  N  N90  1  0.897502  0.029800  0.453378  1
  N  N91  1  0.102498  0.453378  0.029800  1
  N  N92  1  0.637446  0.762131  0.714966  1
  N  N93  1  0.362554  0.714966  0.762131  1
  N  N94  1  0.862554  0.262131  0.214966  1
  N  N95  1  0.137446  0.214966  0.262131  1
  O  O96  1  0.607144  0.531250  0.718587  1
  O  O97  1  0.392856  0.718587  0.531250  1
  O  O98  1  0.892856  0.031250  0.218587  1
  O  O99  1  0.107144  0.218587  0.031250  1
  O  O100  1  0.732372  0.274965  0.715515  1
  O  O101  1  0.267628  0.715515  0.274965  1
  O  O102  1  0.767628  0.774965  0.215515  1
  O  O103  1  0.232372  0.215515  0.774965  1
  O  O104  1  0.894794  0.433260  0.548564  1
  O  O105  1  0.105206  0.548564  0.433260  1
  O  O106  1  0.605206  0.933260  0.048564  1
  O  O107  1  0.394794  0.048564  0.933260  1
  F  F108  1  0.705250  0.537139  0.463950  1
  F  F109  1  0.294750  0.463950  0.537139  1
  F  F110  1  0.794750  0.037139  0.963950  1
  F  F111  1  0.205250  0.963950  0.037139  1
  F  F112  1  0.571637  0.210436  0.797624  1
  F  F113  1  0.428363  0.797624  0.210436  1
  F  F114  1  0.928363  0.710436  0.297624  1
  F  F115  1  0.071637  0.297624  0.710436  1
  F  F116  1  0.603803  0.286933  0.470328  1
  F  F117  1  0.396197  0.470328  0.286933  1
  F  F118  1  0.896197  0.786933  0.970328  1
  F  F119  1  0.103803  0.970328  0.786933  1
  F  F120  1  0.540182  0.603855  0.401682  1
  F  F121  1  0.459818  0.401682  0.603855  1
  F  F122  1  0.959818  0.103855  0.901682  1
  F  F123  1  0.040182  0.901682  0.103855  1
