# generated using pymatgen
data_LiMnF3
_symmetry_space_group_name_H-M   'P 1'
_cell_length_a   15.56412070
_cell_length_b   7.16530129
_cell_length_c   7.24248755
_cell_angle_alpha   90.00000000
_cell_angle_beta   95.89126579
_cell_angle_gamma   90.00000000
_symmetry_Int_Tables_number   1
_chemical_formula_structural   LiMnF3
_chemical_formula_sum   'Li12 Mn12 F36'
_cell_volume   803.42804596
_cell_formula_units_Z   12
loop_
 _symmetry_equiv_pos_site_id
 _symmetry_equiv_pos_as_xyz
  1  'x, y, z'
loop_
 _atom_site_type_symbol
 _atom_site_label
 _atom_site_symmetry_multiplicity
 _atom_site_fract_x
 _atom_site_fract_y
 _atom_site_fract_z
 _atom_site_occupancy
  Li  Li0  1  0.083930  0.614338  0.754610  1
  Li  Li1  1  0.086175  0.135128  0.759361  1
  Li  Li2  1  0.204872  0.873382  0.549800  1
  Li  Li3  1  0.295128  0.373382  0.450200  1
  Li  Li4  1  0.413825  0.635128  0.240639  1
  Li  Li5  1  0.416070  0.114338  0.245390  1
  Li  Li6  1  0.583930  0.885662  0.754610  1
  Li  Li7  1  0.586175  0.364872  0.759361  1
  Li  Li8  1  0.704872  0.626618  0.549800  1
  Li  Li9  1  0.795128  0.126618  0.450200  1
  Li  Li10  1  0.913825  0.864872  0.240639  1
  Li  Li11  1  0.916070  0.385662  0.245390  1
  Mn  Mn12  1  0.114320  0.123847  0.255126  1
  Mn  Mn13  1  0.106761  0.631657  0.248280  1
  Mn  Mn14  1  0.230822  0.374182  0.959038  1
  Mn  Mn15  1  0.269178  0.874182  0.040962  1
  Mn  Mn16  1  0.393239  0.131657  0.751720  1
  Mn  Mn17  1  0.385680  0.623847  0.744874  1
  Mn  Mn18  1  0.614320  0.376153  0.255126  1
  Mn  Mn19  1  0.606761  0.868343  0.248280  1
  Mn  Mn20  1  0.730822  0.125818  0.959038  1
  Mn  Mn21  1  0.769178  0.625818  0.040962  1
  Mn  Mn22  1  0.893239  0.368343  0.751720  1
  Mn  Mn23  1  0.885680  0.876153  0.744874  1
  F  F24  1  0.032216  0.887434  0.212603  1
  F  F25  1  0.036339  0.369614  0.232625  1
  F  F26  1  0.108168  0.375939  0.815996  1
  F  F27  1  0.159585  0.675115  0.988212  1
  F  F28  1  0.128424  0.666602  0.532073  1
  F  F29  1  0.165930  0.081667  0.988937  1
  F  F30  1  0.132554  0.084450  0.539370  1
  F  F31  1  0.210893  0.875386  0.292693  1
  F  F32  1  0.206576  0.376083  0.250156  1
  F  F33  1  0.293424  0.876083  0.749844  1
  F  F34  1  0.289107  0.375386  0.707307  1
  F  F35  1  0.367446  0.584450  0.460630  1
  F  F36  1  0.334070  0.581667  0.011063  1
  F  F37  1  0.371576  0.166602  0.467927  1
  F  F38  1  0.340415  0.175115  0.011788  1
  F  F39  1  0.391832  0.875940  0.184004  1
  F  F40  1  0.463661  0.869614  0.767375  1
  F  F41  1  0.467784  0.387434  0.787397  1
  F  F42  1  0.532216  0.612566  0.212603  1
  F  F43  1  0.536339  0.130386  0.232625  1
  F  F44  1  0.608168  0.124061  0.815996  1
  F  F45  1  0.659585  0.824885  0.988212  1
  F  F46  1  0.628424  0.833398  0.532073  1
  F  F47  1  0.665930  0.418333  0.988937  1
  F  F48  1  0.632554  0.415550  0.539370  1
  F  F49  1  0.710893  0.624614  0.292693  1
  F  F50  1  0.706576  0.123918  0.250156  1
  F  F51  1  0.793424  0.623917  0.749844  1
  F  F52  1  0.789107  0.124614  0.707307  1
  F  F53  1  0.867446  0.915550  0.460630  1
  F  F54  1  0.834070  0.918333  0.011063  1
  F  F55  1  0.871576  0.333398  0.467927  1
  F  F56  1  0.840415  0.324885  0.011788  1
  F  F57  1  0.891832  0.624060  0.184004  1
  F  F58  1  0.963661  0.630386  0.767375  1
  F  F59  1  0.967784  0.112566  0.787397  1
