# generated using pymatgen
data_LiTiSiO4
_symmetry_space_group_name_H-M   'P 1'
_cell_length_a   5.72459382
_cell_length_b   5.72459382
_cell_length_c   5.72459382
_cell_angle_alpha   59.42813314
_cell_angle_beta   89.76348818
_cell_angle_gamma   119.16021387
_symmetry_Int_Tables_number   1
_chemical_formula_structural   LiTiSiO4
_chemical_formula_sum   'Li2 Ti2 Si2 O8'
_cell_volume   132.89588039
_cell_formula_units_Z   2
loop_
 _symmetry_equiv_pos_site_id
 _symmetry_equiv_pos_as_xyz
  1  'x, y, z'
loop_
 _atom_site_type_symbol
 _atom_site_label
 _atom_site_symmetry_multiplicity
 _atom_site_fract_x
 _atom_site_fract_y
 _atom_site_fract_z
 _atom_site_occupancy
  Li  Li0  1  0.500000  0.000000  0.500000  1
  Li  Li1  1  0.000000  0.500000  0.500000  1
  Ti  Ti2  1  0.500000  0.000000  0.000000  1
  Ti  Ti3  1  0.500000  0.500000  0.500000  1
  Si  Si4  1  0.133815  0.250000  0.116185  1
  Si  Si5  1  0.866185  0.750000  0.883815  1
  O  O6  1  0.746737  0.513038  0.240225  1
  O  O7  1  0.746737  0.986962  0.766302  1
  O  O8  1  0.753821  0.515663  0.761842  1
  O  O9  1  0.222495  0.984337  0.761842  1
  O  O10  1  0.246179  0.484337  0.238158  1
  O  O11  1  0.777505  0.015663  0.238158  1
  O  O12  1  0.253263  0.013038  0.233698  1
  O  O13  1  0.253263  0.486962  0.759775  1
