# generated using pymatgen
data_Zr32N17O39
_symmetry_space_group_name_H-M   'P 1'
_cell_length_a   8.90171445
_cell_length_b   8.90022461
_cell_length_c   14.58841562
_cell_angle_alpha   90.00107518
_cell_angle_beta   90.01026022
_cell_angle_gamma   110.04736142
_symmetry_Int_Tables_number   1
_chemical_formula_structural   Zr32N17O39
_chemical_formula_sum   'Zr32 N17 O39'
_cell_volume   1085.76973099
_cell_formula_units_Z   1
loop_
 _symmetry_equiv_pos_site_id
 _symmetry_equiv_pos_as_xyz
  1  'x, y, z'
loop_
 _atom_site_type_symbol
 _atom_site_label
 _atom_site_symmetry_multiplicity
 _atom_site_fract_x
 _atom_site_fract_y
 _atom_site_fract_z
 _atom_site_occupancy
  Zr  Zr0  1  0.380316  0.108213  0.103225  1
  Zr  Zr1  1  0.006980  0.996046  0.000031  1
  Zr  Zr2  1  0.711400  0.211895  0.250000  1
  Zr  Zr3  1  0.496463  0.497618  0.000209  1
  Zr  Zr4  1  0.852708  0.639039  0.137452  1
  Zr  Zr5  1  0.495069  0.451329  0.249772  1
  Zr  Zr6  1  0.139705  0.354492  0.136887  1
  Zr  Zr7  1  0.611699  0.884346  0.105775  1
  Zr  Zr8  1  0.852950  0.639688  0.362840  1
  Zr  Zr9  1  0.384315  0.109803  0.392737  1
  Zr  Zr10  1  0.952804  0.996051  0.249660  1
  Zr  Zr11  1  0.224890  0.731322  0.020143  1
  Zr  Zr12  1  0.723738  0.223738  0.521558  1
  Zr  Zr13  1  0.139202  0.352934  0.362766  1
  Zr  Zr14  1  0.883965  0.609423  0.607012  1
  Zr  Zr15  1  0.711379  0.212178  0.749984  1
  Zr  Zr16  1  0.997913  0.997644  0.500022  1
  Zr  Zr17  1  0.497304  0.497338  0.499992  1
  Zr  Zr18  1  0.210885  0.710669  0.249838  1
  Zr  Zr19  1  0.609562  0.883766  0.393072  1
  Zr  Zr20  1  0.353611  0.139931  0.637923  1
  Zr  Zr21  1  0.995394  0.952755  0.750139  1
  Zr  Zr22  1  0.224015  0.724308  0.478523  1
  Zr  Zr23  1  0.725412  0.223527  0.978618  1
  Zr  Zr24  1  0.109408  0.383877  0.607031  1
  Zr  Zr25  1  0.639669  0.852972  0.637364  1
  Zr  Zr26  1  0.349567  0.135952  0.866192  1
  Zr  Zr27  1  0.881732  0.608846  0.893581  1
  Zr  Zr28  1  0.452519  0.494579  0.750349  1
  Zr  Zr29  1  0.640854  0.854745  0.863422  1
  Zr  Zr30  1  0.212710  0.712815  0.749935  1
  Zr  Zr31  1  0.110038  0.382858  0.894330  1
  N  N32  1  0.633369  0.133345  0.113343  1
  N  N33  1  0.965352  0.246729  0.250523  1
  N  N34  1  0.745941  0.465931  0.250400  1
  N  N35  1  0.997034  0.770438  0.250501  1
  N  N36  1  0.634533  0.133941  0.386838  1
  N  N37  1  0.270479  0.496825  0.250253  1
  N  N38  1  0.856423  0.356499  0.639940  1
  N  N39  1  0.357211  0.855536  0.141603  1
  N  N40  1  0.856241  0.356380  0.859851  1
  N  N41  1  0.356149  0.855923  0.359830  1
  N  N42  1  0.498282  0.271203  0.749182  1
  N  N43  1  0.134623  0.634664  0.613326  1
  N  N44  1  0.770236  0.996984  0.749524  1
  N  N45  1  0.465953  0.745997  0.749925  1
  N  N46  1  0.245835  0.965734  0.749055  1
  N  N47  1  0.132467  0.632670  0.886416  1
  N  N48  1  0.247687  0.981975  0.983844  1
  O  O49  1  0.982839  0.249556  0.016208  1
  O  O50  1  0.749364  0.481993  0.016752  1
  O  O51  1  0.986002  0.745481  0.015923  1
  O  O52  1  0.386440  0.353606  0.119979  1
  O  O53  1  0.446830  0.191114  0.250949  1
  O  O54  1  0.131716  0.101325  0.136437  1
  O  O55  1  0.982287  0.248953  0.483838  1
  O  O56  1  0.855348  0.886314  0.120283  1
  O  O57  1  0.250269  0.490320  0.016166  1
  O  O58  1  0.599252  0.631705  0.133561  1
  O  O59  1  0.131880  0.099488  0.366929  1
  O  O60  1  0.748889  0.482368  0.483874  1
  O  O61  1  0.990464  0.749859  0.483753  1
  O  O62  1  0.386292  0.354329  0.380029  1
  O  O63  1  0.599358  0.631861  0.366867  1
  O  O64  1  0.568084  0.067835  0.627554  1
  O  O65  1  0.068238  0.569082  0.128610  1
  O  O66  1  0.690596  0.946211  0.249843  1
  O  O67  1  0.490491  0.249992  0.516196  1
  O  O68  1  0.853964  0.886594  0.379851  1
  O  O69  1  0.249796  0.490610  0.483818  1
  O  O70  1  0.886594  0.853932  0.620162  1
  O  O71  1  0.570034  0.069271  0.871064  1
  O  O72  1  0.067776  0.567803  0.372473  1
  O  O73  1  0.946101  0.689799  0.749788  1
  O  O74  1  0.632092  0.599371  0.633292  1
  O  O75  1  0.750033  0.990403  0.516350  1
  O  O76  1  0.353970  0.386927  0.620233  1
  O  O77  1  0.099186  0.132324  0.633012  1
  O  O78  1  0.482375  0.749066  0.516095  1
  O  O79  1  0.631615  0.599275  0.866602  1
  O  O80  1  0.886705  0.853919  0.879303  1
  O  O81  1  0.495044  0.253699  0.982619  1
  O  O82  1  0.096932  0.133352  0.863932  1
  O  O83  1  0.248869  0.982256  0.516072  1
  O  O84  1  0.190404  0.446526  0.749979  1
  O  O85  1  0.353412  0.385781  0.879796  1
  O  O86  1  0.748638  0.990362  0.983794  1
  O  O87  1  0.482669  0.748703  0.983680  1
