# generated using pymatgen
data_Li2Co3OF6
_symmetry_space_group_name_H-M   'P 1'
_cell_length_a   5.04985554
_cell_length_b   11.85745958
_cell_length_c   10.39978513
_cell_angle_alpha   64.96208836
_cell_angle_beta   87.41901622
_cell_angle_gamma   101.81744024
_symmetry_Int_Tables_number   1
_chemical_formula_structural   Li2Co3OF6
_chemical_formula_sum   'Li8 Co12 O4 F24'
_cell_volume   546.12221342
_cell_formula_units_Z   4
loop_
 _symmetry_equiv_pos_site_id
 _symmetry_equiv_pos_as_xyz
  1  'x, y, z'
loop_
 _atom_site_type_symbol
 _atom_site_label
 _atom_site_symmetry_multiplicity
 _atom_site_fract_x
 _atom_site_fract_y
 _atom_site_fract_z
 _atom_site_occupancy
  Li  Li0  1  0.995879  0.004067  0.244833  1
  Li  Li1  1  0.028496  0.214045  0.310069  1
  Li  Li2  1  0.339544  0.791325  0.029526  1
  Li  Li3  1  0.272997  0.496304  0.353261  1
  Li  Li4  1  0.501651  0.009402  0.743177  1
  Li  Li5  1  0.670776  0.216491  0.818646  1
  Li  Li6  1  0.941208  0.788467  0.527374  1
  Li  Li7  1  0.702995  0.501125  0.834409  1
  Co  Co8  1  0.628836  0.227222  0.126605  1
  Co  Co9  1  0.216167  0.491731  0.035100  1
  Co  Co10  1  0.500713  0.952413  0.510092  1
  Co  Co11  1  0.824003  0.646566  0.189219  1
  Co  Co12  1  0.690241  0.358556  0.317652  1
  Co  Co13  1  0.407924  0.797352  0.337776  1
  Co  Co14  1  0.108178  0.194700  0.619556  1
  Co  Co15  1  0.740807  0.504632  0.517040  1
  Co  Co16  1  0.032192  0.027154  0.974614  1
  Co  Co17  1  0.209070  0.358151  0.811244  1
  Co  Co18  1  0.366711  0.645101  0.663565  1
  Co  Co19  1  0.892481  0.787844  0.838496  1
  O  O20  1  0.913083  0.351296  0.159849  1
  O  O21  1  0.911797  0.501891  0.346372  1
  O  O22  1  0.583774  0.800793  0.499335  1
  O  O23  1  0.513292  0.493711  0.678606  1
  F  F24  1  0.290689  0.093287  0.083249  1
  F  F25  1  0.756847  0.077665  0.310414  1
  F  F26  1  0.082294  0.657835  0.007568  1
  F  F27  1  0.390063  0.222045  0.292570  1
  F  F28  1  0.471107  0.507661  0.178928  1
  F  F29  1  0.164126  0.783425  0.192897  1
  F  F30  1  0.859915  0.209812  0.476526  1
  F  F31  1  0.752264  0.931772  0.151093  1
  F  F32  1  0.304068  0.061727  0.590867  1
  F  F33  1  0.401735  0.352811  0.480648  1
  F  F34  1  0.540258  0.641586  0.345016  1
  F  F35  1  0.204002  0.923143  0.378954  1
  F  F36  1  0.803483  0.081462  0.807117  1
  F  F37  1  0.945434  0.341795  0.667091  1
  F  F38  1  0.064123  0.648215  0.517650  1
  F  F39  1  0.313826  0.189989  0.789438  1
  F  F40  1  0.128655  0.778240  0.686492  1
  F  F41  1  0.871593  0.225110  0.960530  1
  F  F42  1  0.070744  0.506549  0.841414  1
  F  F43  1  0.699626  0.913164  0.692863  1
  F  F44  1  0.431786  0.361964  0.978815  1
  F  F45  1  0.574047  0.634248  0.851188  1
  F  F46  1  0.198403  0.920751  0.891324  1
  F  F47  1  0.688099  0.775410  0.015133  1
