# generated using pymatgen
data_NaCa8SmTi10(SiO5)10
_symmetry_space_group_name_H-M   'P 1'
_cell_length_a   5.50587492
_cell_length_b   27.55307097
_cell_length_c   7.87453277
_cell_angle_alpha   61.31624313
_cell_angle_beta   114.24887667
_cell_angle_gamma   105.88249578
_symmetry_Int_Tables_number   1
_chemical_formula_structural   NaCa8SmTi10(SiO5)10
_chemical_formula_sum   'Na1 Ca8 Sm1 Ti10 Si10 O50'
_cell_volume   951.14870869
_cell_formula_units_Z   1
loop_
 _symmetry_equiv_pos_site_id
 _symmetry_equiv_pos_as_xyz
  1  'x, y, z'
loop_
 _atom_site_type_symbol
 _atom_site_label
 _atom_site_symmetry_multiplicity
 _atom_site_fract_x
 _atom_site_fract_y
 _atom_site_fract_z
 _atom_site_occupancy
  Na  Na0  1  0.828348  0.982912  0.250272  1
  Ca  Ca1  1  0.170625  0.816522  0.750247  1
  Ca  Ca2  1  0.170009  0.616168  0.749587  1
  Ca  Ca3  1  0.170294  0.416125  0.749691  1
  Ca  Ca4  1  0.170705  0.216466  0.749250  1
  Ca  Ca5  1  0.830619  0.784228  0.248879  1
  Ca  Ca6  1  0.830495  0.584114  0.249496  1
  Ca  Ca7  1  0.830275  0.384180  0.249441  1
  Ca  Ca8  1  0.831186  0.184614  0.250377  1
  Sm  Sm9  1  0.167800  0.014637  0.753198  1
  Ti  Ti10  1  0.501131  0.800138  0.501738  1
  Ti  Ti11  1  0.508200  0.900115  0.003871  1
  Ti  Ti12  1  0.500226  0.600095  0.499835  1
  Ti  Ti13  1  0.499872  0.700004  0.000243  1
  Ti  Ti14  1  0.500277  0.400118  0.499899  1
  Ti  Ti15  1  0.499813  0.500157  0.999609  1
  Ti  Ti16  1  0.500821  0.200296  0.501786  1
  Ti  Ti17  1  0.499958  0.300037  0.000321  1
  Ti  Ti18  1  0.485807  0.997784  0.489733  1
  Ti  Ti19  1  0.508305  0.100234  0.004648  1
  Si  Si20  1  0.179258  0.913598  0.245529  1
  Si  Si21  1  0.182489  0.713555  0.250413  1
  Si  Si22  1  0.818515  0.885822  0.752347  1
  Si  Si23  1  0.182322  0.513514  0.250385  1
  Si  Si24  1  0.817694  0.686520  0.749852  1
  Si  Si25  1  0.182248  0.313683  0.250101  1
  Si  Si26  1  0.817821  0.486452  0.750083  1
  Si  Si27  1  0.185021  0.113197  0.254050  1
  Si  Si28  1  0.818074  0.286564  0.750357  1
  Si  Si29  1  0.817167  0.087041  0.746998  1
  O  O30  1  0.119848  0.867914  0.908506  1
  O  O31  1  0.429365  0.964188  0.748592  1
  O  O32  1  0.118299  0.667996  0.910186  1
  O  O33  1  0.258520  0.940369  0.411169  1
  O  O34  1  0.185514  0.845384  0.378867  1
  O  O35  1  0.607481  0.860099  0.883115  1
  O  O36  1  0.428331  0.763628  0.749723  1
  O  O37  1  0.118475  0.468072  0.910019  1
  O  O38  1  0.250544  0.741856  0.409438  1
  O  O39  1  0.377830  0.940666  0.103969  1
  O  O40  1  0.185862  0.645230  0.381944  1
  O  O41  1  0.815897  0.954378  0.628703  1
  O  O42  1  0.607640  0.660772  0.881782  1
  O  O43  1  0.746764  0.857557  0.592471  1
  O  O44  1  0.430153  0.563806  0.750145  1
  O  O45  1  0.118228  0.268008  0.910004  1
  O  O46  1  0.571412  0.836779  0.250379  1
  O  O47  1  0.250269  0.541701  0.409964  1
  O  O48  1  0.392632  0.739064  0.118758  1
  O  O49  1  0.185750  0.445254  0.381931  1
  O  O50  1  0.814168  0.754756  0.618500  1
  O  O51  1  0.607866  0.460807  0.881776  1
  O  O52  1  0.749380  0.658186  0.590514  1
  O  O53  1  0.430104  0.363750  0.750073  1
  O  O54  1  0.118727  0.068400  0.907320  1
  O  O55  1  0.881400  0.932080  0.082810  1
  O  O56  1  0.569127  0.635977  0.250004  1
  O  O57  1  0.250244  0.341736  0.410068  1
  O  O58  1  0.392337  0.539172  0.118590  1
  O  O59  1  0.185652  0.245369  0.382219  1
  O  O60  1  0.814428  0.554744  0.618453  1
  O  O61  1  0.608360  0.260757  0.882124  1
  O  O62  1  0.749446  0.458233  0.590413  1
  O  O63  1  0.431958  0.164482  0.751147  1
  O  O64  1  0.881220  0.731672  0.090224  1
  O  O65  1  0.569205  0.436044  0.250056  1
  O  O66  1  0.248478  0.141710  0.411904  1
  O  O67  1  0.392165  0.339197  0.118608  1
  O  O68  1  0.192762  0.045397  0.395145  1
  O  O69  1  0.814645  0.354814  0.618554  1
  O  O70  1  0.596098  0.062814  0.868681  1
  O  O71  1  0.749580  0.258545  0.589885  1
  O  O72  1  0.881466  0.531785  0.090422  1
  O  O73  1  0.567712  0.235927  0.250077  1
  O  O74  1  0.393416  0.138713  0.120923  1
  O  O75  1  0.815976  0.155279  0.617678  1
  O  O76  1  0.757999  0.058087  0.591323  1
  O  O77  1  0.881442  0.331771  0.090563  1
  O  O78  1  0.566146  0.036711  0.249149  1
  O  O79  1  0.884303  0.131477  0.090903  1
