# generated using pymatgen
data_LiV2P4(HO8)2
_symmetry_space_group_name_H-M   'P 1'
_cell_length_a   9.76170511
_cell_length_b   7.90623293
_cell_length_c   7.35948439
_cell_angle_alpha   90.00000000
_cell_angle_beta   104.43688065
_cell_angle_gamma   90.00000000
_symmetry_Int_Tables_number   1
_chemical_formula_structural   LiV2P4(HO8)2
_chemical_formula_sum   'Li2 V4 P8 H4 O32'
_cell_volume   550.05703031
_cell_formula_units_Z   2
loop_
 _symmetry_equiv_pos_site_id
 _symmetry_equiv_pos_as_xyz
  1  'x, y, z'
loop_
 _atom_site_type_symbol
 _atom_site_label
 _atom_site_symmetry_multiplicity
 _atom_site_fract_x
 _atom_site_fract_y
 _atom_site_fract_z
 _atom_site_occupancy
  Li  Li0  1  0.050372  0.370171  0.649419  1
  Li  Li1  1  0.699628  0.870171  0.850581  1
  V  V2  1  0.254267  0.506117  0.010574  1
  V  V3  1  0.495733  0.006117  0.489426  1
  V  V4  1  0.750158  0.495166  0.007176  1
  V  V5  1  -0.000158  0.995166  0.492824  1
  P  P6  1  0.062732  0.349009  0.266423  1
  P  P7  1  0.182458  0.855694  0.226025  1
  P  P8  1  0.310636  0.149867  0.767792  1
  P  P9  1  0.439364  0.649867  0.732208  1
  P  P10  1  0.567542  0.355694  0.273975  1
  P  P11  1  0.687268  0.849009  0.233577  1
  P  P12  1  0.812971  0.156473  0.761605  1
  P  P13  1  0.937029  0.656473  0.738395  1
  H  H14  1  0.267014  0.509962  0.509402  1
  H  H15  1  0.482986  0.009962  0.990598  1
  H  H16  1  0.768509  0.507903  0.515035  1
  H  H17  1  0.981491  0.007903  0.984965  1
  O  O18  1  0.070274  0.554814  0.846656  1
  O  O19  1  0.021433  0.169573  0.308863  1
  O  O20  1  0.087911  0.826194  0.361750  1
  O  O21  1  0.129744  0.443281  0.445421  1
  O  O22  1  0.178302  0.056762  0.652931  1
  O  O23  1  0.261028  0.328182  0.814637  1
  O  O24  1  0.119382  0.952415  0.051072  1
  O  O25  1  0.166428  0.343378  0.133019  1
  O  O26  1  0.334386  0.660880  0.861503  1
  O  O27  1  0.378234  0.057903  0.951101  1
  O  O28  1  0.232210  0.675139  0.171559  1
  O  O29  1  0.322115  0.941017  0.347352  1
  O  O30  1  0.371766  0.557903  0.548899  1
  O  O31  1  0.415614  0.160880  0.638497  1
  O  O32  1  0.488972  0.828182  0.685363  1
  O  O33  1  0.571698  0.556762  0.847069  1
  O  O34  1  0.427885  0.441017  0.152648  1
  O  O35  1  0.517790  0.175139  0.328441  1
  O  O36  1  0.583572  0.843378  0.366981  1
  O  O37  1  0.630618  0.452415  0.448928  1
  O  O38  1  0.679726  0.054814  0.653344  1
  O  O39  1  0.770666  0.329177  0.818603  1
  O  O40  1  0.620256  0.943281  0.054579  1
  O  O41  1  0.662089  0.326194  0.138250  1
  O  O42  1  0.831459  0.675773  0.862714  1
  O  O43  1  0.872399  0.044020  0.936391  1
  O  O44  1  0.728567  0.669573  0.191137  1
  O  O45  1  0.821335  0.943867  0.347803  1
  O  O46  1  0.877601  0.544020  0.563609  1
  O  O47  1  0.918541  0.175773  0.637286  1
  O  O48  1  0.979334  0.829177  0.681397  1
  O  O49  1  0.928665  0.443867  0.152197  1
