# generated using pymatgen
data_Li2VO2F
_symmetry_space_group_name_H-M   'P 1'
_cell_length_a   6.00786674
_cell_length_b   6.02346301
_cell_length_c   7.92565725
_cell_angle_alpha   100.70539816
_cell_angle_beta   67.72254266
_cell_angle_gamma   119.91117115
_symmetry_Int_Tables_number   1
_chemical_formula_structural   Li2VO2F
_chemical_formula_sum   'Li8 V4 O8 F4'
_cell_volume   230.05257466
_cell_formula_units_Z   4
loop_
 _symmetry_equiv_pos_site_id
 _symmetry_equiv_pos_as_xyz
  1  'x, y, z'
loop_
 _atom_site_type_symbol
 _atom_site_label
 _atom_site_symmetry_multiplicity
 _atom_site_fract_x
 _atom_site_fract_y
 _atom_site_fract_z
 _atom_site_occupancy
  Li  Li0  1  0.097925  0.851669  0.135543  1
  Li  Li1  1  0.080597  0.306650  0.145599  1
  Li  Li2  1  0.617955  0.851437  0.135557  1
  Li  Li3  1  0.588425  0.320830  0.143868  1
  Li  Li4  1  0.408934  0.664988  0.847547  1
  Li  Li5  1  0.381735  0.157012  0.855410  1
  Li  Li6  1  0.915165  0.690402  0.859839  1
  Li  Li7  1  0.919845  0.156683  0.855538  1
  V  V8  1  0.237190  0.496777  0.508429  1
  V  V9  1  0.250397  0.000064  0.499340  1
  V  V10  1  0.751565  0.497136  0.507112  1
  V  V11  1  0.751069  0.007824  0.505741  1
  O  O12  1  0.155037  0.664588  0.354960  1
  O  O13  1  0.999604  0.999850  0.000636  1
  O  O14  1  0.156002  0.169945  0.353431  1
  O  O15  1  0.347502  0.831083  0.646799  1
  O  O16  1  0.345827  0.337232  0.645663  1
  O  O17  1  0.833973  0.828796  0.646804  1
  O  O18  1  0.663276  0.172440  0.353383  1
  O  O19  1  0.837855  0.332420  0.658039  1
  F  F20  1  0.999639  0.501262  0.002328  1
  F  F21  1  0.499526  0.501073  0.002494  1
  F  F22  1  0.661648  0.661781  0.336301  1
  F  F23  1  0.499266  0.998057  0.999639  1
