# generated using pymatgen
data_Li2Fe3SbO8
_symmetry_space_group_name_H-M   'P 1'
_cell_length_a   8.60689015
_cell_length_b   8.60685699
_cell_length_c   8.60782532
_cell_angle_alpha   89.99971570
_cell_angle_beta   89.99956785
_cell_angle_gamma   90.00018426
_symmetry_Int_Tables_number   1
_chemical_formula_structural   Li2Fe3SbO8
_chemical_formula_sum   'Li8 Fe12 Sb4 O32'
_cell_volume   637.65283096
_cell_formula_units_Z   4
loop_
 _symmetry_equiv_pos_site_id
 _symmetry_equiv_pos_as_xyz
  1  'x, y, z'
loop_
 _atom_site_type_symbol
 _atom_site_label
 _atom_site_symmetry_multiplicity
 _atom_site_fract_x
 _atom_site_fract_y
 _atom_site_fract_z
 _atom_site_occupancy
  Li  Li0  1  0.001584  0.001587  0.001584  1
  Li  Li1  1  0.248428  0.248429  0.248415  1
  Li  Li2  1  0.251589  0.751593  0.748414  1
  Li  Li3  1  0.498419  0.998416  0.501583  1
  Li  Li4  1  0.501586  0.498421  0.998417  1
  Li  Li5  1  0.748431  0.251577  0.751591  1
  Li  Li6  1  0.751579  0.748426  0.251591  1
  Li  Li7  1  0.998426  0.501581  0.498429  1
  Fe  Fe8  1  0.116293  0.133687  0.625024  1
  Fe  Fe9  1  0.125017  0.383727  0.866314  1
  Fe  Fe10  1  0.133701  0.625027  0.116287  1
  Fe  Fe11  1  0.366306  0.374984  0.616307  1
  Fe  Fe12  1  0.374984  0.616276  0.366325  1
  Fe  Fe13  1  0.383724  0.866294  0.125025  1
  Fe  Fe14  1  0.616287  0.366305  0.374983  1
  Fe  Fe15  1  0.625018  0.116290  0.133683  1
  Fe  Fe16  1  0.633696  0.874983  0.883710  1
  Fe  Fe17  1  0.866302  0.125027  0.383706  1
  Fe  Fe18  1  0.874987  0.883722  0.633678  1
  Fe  Fe19  1  0.883717  0.633711  0.874985  1
  Sb  Sb20  1  0.124954  0.875055  0.375037  1
  Sb  Sb21  1  0.375018  0.124985  0.875022  1
  Sb  Sb22  1  0.624947  0.624937  0.624955  1
  Sb  Sb23  1  0.875010  0.375020  0.125000  1
  O  O24  1  0.113763  0.109769  0.386348  1
  O  O25  1  0.113675  0.886242  0.609743  1
  O  O26  1  0.116472  0.616494  0.883543  1
  O  O27  1  0.140272  0.136241  0.863703  1
  O  O28  1  0.109773  0.386335  0.113738  1
  O  O29  1  0.133520  0.366485  0.633565  1
  O  O30  1  0.136272  0.640266  0.363743  1
  O  O31  1  0.136234  0.863715  0.140255  1
  O  O32  1  0.363772  0.136283  0.640273  1
  O  O33  1  0.363716  0.359734  0.863754  1
  O  O34  1  0.366474  0.633515  0.133543  1
  O  O35  1  0.390241  0.613681  0.613738  1
  O  O36  1  0.359731  0.863762  0.363692  1
  O  O37  1  0.383518  0.383530  0.383549  1
  O  O38  1  0.386319  0.113759  0.109756  1
  O  O39  1  0.386244  0.890226  0.886355  1
  O  O40  1  0.613761  0.390232  0.613658  1
  O  O41  1  0.613675  0.613759  0.390258  1
  O  O42  1  0.616475  0.883520  0.116451  1
  O  O43  1  0.640273  0.363762  0.136301  1
  O  O44  1  0.609770  0.113677  0.886260  1
  O  O45  1  0.633521  0.133510  0.366445  1
  O  O46  1  0.636274  0.859736  0.636258  1
  O  O47  1  0.636240  0.636284  0.859747  1
  O  O48  1  0.863763  0.363724  0.359737  1
  O  O49  1  0.863720  0.140280  0.136259  1
  O  O50  1  0.866472  0.866486  0.866453  1
  O  O51  1  0.890232  0.886319  0.386272  1
  O  O52  1  0.859740  0.636238  0.636309  1
  O  O53  1  0.883526  0.116469  0.616462  1
  O  O54  1  0.886318  0.386254  0.890250  1
  O  O55  1  0.886241  0.609788  0.113652  1
