# generated using pymatgen
data_V2(OF)3
_symmetry_space_group_name_H-M   'P 1'
_cell_length_a   5.28289989
_cell_length_b   7.37414899
_cell_length_c   5.41681933
_cell_angle_alpha   92.35772914
_cell_angle_beta   90.00000000
_cell_angle_gamma   90.00000000
_symmetry_Int_Tables_number   1
_chemical_formula_structural   V2(OF)3
_chemical_formula_sum   'V4 O6 F6'
_cell_volume   210.84379897
_cell_formula_units_Z   2
loop_
 _symmetry_equiv_pos_site_id
 _symmetry_equiv_pos_as_xyz
  1  'x, y, z'
loop_
 _atom_site_type_symbol
 _atom_site_label
 _atom_site_symmetry_multiplicity
 _atom_site_fract_x
 _atom_site_fract_y
 _atom_site_fract_z
 _atom_site_occupancy
  V  V0  1  0.473492  0.481030  0.533856  1
  V  V1  1  0.473492  0.018970  0.466144  1
  V  V2  1  0.983483  0.517356  0.044578  1
  V  V3  1  0.983483  0.982644  0.955422  1
  O  O4  1  0.801095  0.538421  0.291603  1
  O  O5  1  0.801095  0.961579  0.708397  1
  O  O6  1  0.586657  0.250000  0.500000  1
  O  O7  1  0.221041  0.040062  0.288823  1
  O  O8  1  0.221041  0.459938  0.711177  1
  O  O9  1  0.065056  0.750000  0.000000  1
  F  F10  1  0.927272  0.250000  0.000000  1
  F  F11  1  0.715804  0.958560  0.204959  1
  F  F12  1  0.715804  0.541440  0.795041  1
  F  F13  1  0.437566  0.750000  0.500000  1
  F  F14  1  0.296809  0.458329  0.214180  1
  F  F15  1  0.296809  0.041671  0.785820  1
