# generated using pymatgen
data_Li5Co3(SnO5)2
_symmetry_space_group_name_H-M   'P 1'
_cell_length_a   5.26638688
_cell_length_b   5.27315049
_cell_length_c   8.01865477
_cell_angle_alpha   107.78389987
_cell_angle_beta   101.87734212
_cell_angle_gamma   100.79038658
_symmetry_Int_Tables_number   1
_chemical_formula_structural   Li5Co3(SnO5)2
_chemical_formula_sum   'Li5 Co3 Sn2 O10'
_cell_volume   199.88893765
_cell_formula_units_Z   1
loop_
 _symmetry_equiv_pos_site_id
 _symmetry_equiv_pos_as_xyz
  1  'x, y, z'
loop_
 _atom_site_type_symbol
 _atom_site_label
 _atom_site_symmetry_multiplicity
 _atom_site_fract_x
 _atom_site_fract_y
 _atom_site_fract_z
 _atom_site_occupancy
  Li  Li0  1  0.221862  0.915239  0.401140  1
  Li  Li1  1  0.417270  0.292596  0.797068  1
  Li  Li2  1  0.500000  0.500000  0.500000  1
  Li  Li3  1  0.582730  0.707404  0.202932  1
  Li  Li4  1  0.778138  0.084761  0.598860  1
  Co  Co5  1  0.000000  0.500000  0.000000  1
  Co  Co6  1  0.702897  0.898615  0.899225  1
  Co  Co7  1  0.297103  0.101385  0.100775  1
  Sn  Sn8  1  0.107378  0.707090  0.698626  1
  Sn  Sn9  1  0.892622  0.292910  0.301374  1
  O  O10  1  0.059236  0.089084  0.851414  1
  O  O11  1  0.324077  0.696615  0.950653  1
  O  O12  1  0.142489  0.314903  0.546195  1
  O  O13  1  0.215433  0.485591  0.222983  1
  O  O14  1  0.458642  0.890528  0.661079  1
  O  O15  1  0.541358  0.109472  0.338921  1
  O  O16  1  0.784567  0.514409  0.777017  1
  O  O17  1  0.857511  0.685097  0.453805  1
  O  O18  1  0.675923  0.303385  0.049347  1
  O  O19  1  0.940764  0.910916  0.148586  1
