# generated using pymatgen
data_Li3Ti(CoO2)4
_symmetry_space_group_name_H-M   'P 1'
_cell_length_a   5.93743362
_cell_length_b   5.93743344
_cell_length_c   5.97839314
_cell_angle_alpha   90.64214723
_cell_angle_beta   60.33955617
_cell_angle_gamma   60.63032332
_symmetry_Int_Tables_number   1
_chemical_formula_structural   Li3Ti(CoO2)4
_chemical_formula_sum   'Li3 Ti1 Co4 O8'
_cell_volume   150.36519819
_cell_formula_units_Z   1
loop_
 _symmetry_equiv_pos_site_id
 _symmetry_equiv_pos_as_xyz
  1  'x, y, z'
loop_
 _atom_site_type_symbol
 _atom_site_label
 _atom_site_symmetry_multiplicity
 _atom_site_fract_x
 _atom_site_fract_y
 _atom_site_fract_z
 _atom_site_occupancy
  Li  Li0  1  0.000000  0.000000  0.500000  1
  Li  Li1  1  0.500000  0.000000  0.500000  1
  Li  Li2  1  0.500000  0.500000  0.500000  1
  Ti  Ti3  1  0.500000  0.500000  0.000000  1
  Co  Co4  1  0.000000  0.500000  0.500000  1
  Co  Co5  1  0.000000  0.000000  0.000000  1
  Co  Co6  1  0.500000  0.000000  0.000000  1
  Co  Co7  1  0.000000  0.500000  0.000000  1
  O  O8  1  0.489794  0.263295  0.773502  1
  O  O9  1  0.973885  0.261826  0.762361  1
  O  O10  1  0.499465  0.736245  0.762361  1
  O  O11  1  0.985272  0.750942  0.765671  1
  O  O12  1  0.014728  0.249058  0.234329  1
  O  O13  1  0.500535  0.263755  0.237639  1
  O  O14  1  0.026115  0.738174  0.237639  1
  O  O15  1  0.510206  0.736705  0.226498  1
