# generated using pymatgen
data_Zr2N2O
_symmetry_space_group_name_H-M   'P 1'
_cell_length_a   8.89227770
_cell_length_b   8.88495976
_cell_length_c   8.86061477
_cell_angle_alpha   109.38128313
_cell_angle_beta   109.44180850
_cell_angle_gamma   109.66540969
_symmetry_Int_Tables_number   1
_chemical_formula_structural   Zr2N2O
_chemical_formula_sum   'Zr16 N16 O8'
_cell_volume   538.40173642
_cell_formula_units_Z   8
loop_
 _symmetry_equiv_pos_site_id
 _symmetry_equiv_pos_as_xyz
  1  'x, y, z'
loop_
 _atom_site_type_symbol
 _atom_site_label
 _atom_site_symmetry_multiplicity
 _atom_site_fract_x
 _atom_site_fract_y
 _atom_site_fract_z
 _atom_site_occupancy
  Zr  Zr0  1  0.498475  0.997658  0.986795  1
  Zr  Zr1  1  0.757734  0.294469  0.546217  1
  Zr  Zr2  1  0.213369  0.954901  0.250094  1
  Zr  Zr3  1  0.719978  0.472823  0.250638  1
  Zr  Zr4  1  0.248056  0.212434  0.954892  1
  Zr  Zr5  1  0.030430  0.743355  0.777405  1
  Zr  Zr6  1  0.535852  0.749792  0.290846  1
  Zr  Zr7  1  0.964499  0.258533  0.217206  1
  Zr  Zr8  1  0.008150  0.997583  0.507741  1
  Zr  Zr9  1  0.503220  0.508326  0.512206  1
  Zr  Zr10  1  0.464322  0.249676  0.720231  1
  Zr  Zr11  1  0.996479  0.506814  0.996491  1
  Zr  Zr12  1  0.750603  0.782814  0.033221  1
  Zr  Zr13  1  0.283146  0.533037  0.742941  1
  Zr  Zr14  1  0.780827  0.031925  0.752546  1
  Zr  Zr15  1  0.249678  0.712635  0.462420  1
  N  N16  1  0.728975  0.992862  0.959349  1
  N  N17  1  0.509727  0.237463  0.970641  1
  N  N18  1  0.767799  0.728275  0.260211  1
  N  N19  1  0.768292  0.539294  0.528315  1
  N  N20  1  0.726834  0.257552  0.768922  1
  N  N21  1  0.235151  0.966538  0.507716  1
  N  N22  1  0.275657  0.739791  0.223967  1
  N  N23  1  0.226380  0.448762  0.462941  1
  N  N24  1  0.958218  0.731220  0.992407  1
  N  N25  1  0.989958  0.958654  0.730189  1
  N  N26  1  0.225755  0.272830  0.741058  1
  N  N27  1  0.546428  0.535230  0.772846  1
  N  N28  1  0.538100  0.770767  0.542495  1
  N  N29  1  0.963044  0.505352  0.235858  1
  N  N30  1  0.032295  0.485782  0.758840  1
  N  N31  1  0.265598  0.776875  0.731351  1
  O  O32  1  0.758876  0.034399  0.482120  1
  O  O33  1  0.278302  0.013815  0.051950  1
  O  O34  1  0.739385  0.220570  0.275975  1
  O  O35  1  0.051304  0.275008  0.017899  1
  O  O36  1  0.011007  0.046588  0.273688  1
  O  O37  1  0.446698  0.464875  0.223739  1
  O  O38  1  0.461683  0.225713  0.449443  1
  O  O39  1  0.489721  0.765015  0.036185  1
