# generated using pymatgen
data_Mn6OF11
_symmetry_space_group_name_H-M   'P 1'
_cell_length_a   5.28401611
_cell_length_b   5.28401611
_cell_length_c   15.57780270
_cell_angle_alpha   92.10924653
_cell_angle_beta   92.10924653
_cell_angle_gamma   88.53846490
_symmetry_Int_Tables_number   1
_chemical_formula_structural   Mn6OF11
_chemical_formula_sum   'Mn12 O2 F22'
_cell_volume   434.22890521
_cell_formula_units_Z   2
loop_
 _symmetry_equiv_pos_site_id
 _symmetry_equiv_pos_as_xyz
  1  'x, y, z'
loop_
 _atom_site_type_symbol
 _atom_site_label
 _atom_site_symmetry_multiplicity
 _atom_site_fract_x
 _atom_site_fract_y
 _atom_site_fract_z
 _atom_site_occupancy
  Mn  Mn0  1  0.056598  0.056598  0.000112  1
  Mn  Mn1  1  0.985799  0.482529  0.163002  1
  Mn  Mn2  1  0.999736  0.999736  0.330291  1
  Mn  Mn3  1  0.999355  0.501514  0.499882  1
  Mn  Mn4  1  0.008215  0.008215  0.666997  1
  Mn  Mn5  1  0.016591  0.513521  0.836841  1
  Mn  Mn6  1  0.482529  0.985799  0.163002  1
  Mn  Mn7  1  0.443121  0.443121  0.999406  1
  Mn  Mn8  1  0.499512  0.499512  0.669586  1
  Mn  Mn9  1  0.501514  0.999355  0.499882  1
  Mn  Mn10  1  0.491219  0.491219  0.332950  1
  Mn  Mn11  1  0.513521  0.016591  0.836841  1
  O  O12  1  0.243540  0.243540  0.918815  1
  O  O13  1  0.256632  0.256632  0.080809  1
  F  F14  1  0.227030  0.227030  0.249955  1
  F  F15  1  0.145734  0.767371  0.081063  1
  F  F16  1  0.233003  0.233003  0.581930  1
  F  F17  1  0.230521  0.766671  0.416740  1
  F  F18  1  0.225148  0.773820  0.754886  1
  F  F19  1  0.274368  0.726989  0.246215  1
  F  F20  1  0.269192  0.734064  0.584518  1
  F  F21  1  0.354127  0.734030  0.919800  1
  F  F22  1  0.272746  0.272746  0.749300  1
  F  F23  1  0.267006  0.267006  0.417166  1
  F  F24  1  0.734030  0.354127  0.919800  1
  F  F25  1  0.734064  0.269192  0.584518  1
  F  F26  1  0.726989  0.274368  0.246215  1
  F  F27  1  0.639286  0.639286  0.083892  1
  F  F28  1  0.731607  0.731607  0.414371  1
  F  F29  1  0.725003  0.725003  0.757601  1
  F  F30  1  0.766671  0.230521  0.416740  1
  F  F31  1  0.767371  0.145734  0.081063  1
  F  F32  1  0.773820  0.225148  0.754886  1
  F  F33  1  0.768816  0.768816  0.584004  1
  F  F34  1  0.860432  0.860432  0.915737  1
  F  F35  1  0.775153  0.775153  0.241186  1
