# generated using pymatgen
data_Li4Cu3Ni2Sb3O16
_symmetry_space_group_name_H-M   'P 1'
_cell_length_a   6.04545241
_cell_length_b   6.04763209
_cell_length_c   9.72395123
_cell_angle_alpha   90.04366102
_cell_angle_beta   88.88046331
_cell_angle_gamma   120.04175942
_symmetry_Int_Tables_number   1
_chemical_formula_structural   Li4Cu3Ni2Sb3O16
_chemical_formula_sum   'Li4 Cu3 Ni2 Sb3 O16'
_cell_volume   307.67922656
_cell_formula_units_Z   1
loop_
 _symmetry_equiv_pos_site_id
 _symmetry_equiv_pos_as_xyz
  1  'x, y, z'
loop_
 _atom_site_type_symbol
 _atom_site_label
 _atom_site_symmetry_multiplicity
 _atom_site_fract_x
 _atom_site_fract_y
 _atom_site_fract_z
 _atom_site_occupancy
  Li  Li0  1  0.335050  0.667618  0.896909  1
  Li  Li1  1  0.022681  0.011485  0.004214  1
  Li  Li2  1  0.051178  0.025600  0.490806  1
  Li  Li3  1  0.662637  0.331403  0.378450  1
  Cu  Cu4  1  0.166467  0.830089  0.215090  1
  Cu  Cu5  1  0.167040  0.336640  0.214930  1
  Cu  Cu6  1  0.334487  0.167116  0.718265  1
  Ni  Ni7  1  0.308821  0.654317  0.479145  1
  Ni  Ni8  1  0.658670  0.329237  0.002725  1
  Sb  Sb9  1  0.657964  0.829047  0.215327  1
  Sb  Sb10  1  0.828517  0.661163  0.714458  1
  Sb  Sb11  1  0.828611  0.167452  0.714473  1
  O  O12  1  0.152268  0.834575  0.604264  1
  O  O13  1  0.036633  0.518434  0.329894  1
  O  O14  1  0.332798  0.666588  0.107378  1
  O  O15  1  0.994258  0.996937  0.310720  1
  O  O16  1  0.980414  0.990309  0.820483  1
  O  O17  1  0.151888  0.317866  0.604118  1
  O  O18  1  0.479681  0.961564  0.338917  1
  O  O19  1  0.480530  0.518872  0.339059  1
  O  O20  1  0.320219  0.159947  0.106458  1
  O  O21  1  0.689095  0.844443  0.599567  1
  O  O22  1  0.521175  0.486636  0.835060  1
  O  O23  1  0.521603  0.034409  0.835210  1
  O  O24  1  0.684614  0.342238  0.599022  1
  O  O25  1  0.833167  0.682297  0.099125  1
  O  O26  1  0.967006  0.483698  0.834708  1
  O  O27  1  0.832530  0.150320  0.099064  1
