# generated using pymatgen
data_Cs3DyO3
_symmetry_space_group_name_H-M   'P 1'
_cell_length_a   7.63432424
_cell_length_b   7.63432424
_cell_length_c   7.66759326
_cell_angle_alpha   84.08284117
_cell_angle_beta   95.91715883
_cell_angle_gamma   63.62415538
_symmetry_Int_Tables_number   1
_chemical_formula_structural   Cs3DyO3
_chemical_formula_sum   'Cs6 Dy2 O6'
_cell_volume   392.63702176
_cell_formula_units_Z   2
loop_
 _symmetry_equiv_pos_site_id
 _symmetry_equiv_pos_as_xyz
  1  'x, y, z'
loop_
 _atom_site_type_symbol
 _atom_site_label
 _atom_site_symmetry_multiplicity
 _atom_site_fract_x
 _atom_site_fract_y
 _atom_site_fract_z
 _atom_site_occupancy
  Cs  Cs0  1  0.358058  0.641942  0.649700  1
  Cs  Cs1  1  0.211061  0.211061  0.500000  1
  Cs  Cs2  1  0.788939  0.788939  0.500000  1
  Cs  Cs3  1  0.261353  0.261353  0.000000  1
  Cs  Cs4  1  0.738647  0.738647  0.000000  1
  Cs  Cs5  1  0.641942  0.358058  0.350300  1
  Dy  Dy6  1  0.173541  0.826459  0.150223  1
  Dy  Dy7  1  0.826459  0.173541  0.849777  1
  O  O8  1  0.100047  0.899953  0.856735  1
  O  O9  1  0.168486  0.561719  0.265583  1
  O  O10  1  0.438281  0.831514  0.265583  1
  O  O11  1  0.561719  0.168486  0.734417  1
  O  O12  1  0.831514  0.438281  0.734417  1
  O  O13  1  0.899953  0.100047  0.143265  1
