# generated using pymatgen
data_Li3Co4CuO8
_symmetry_space_group_name_H-M   'P 1'
_cell_length_a   5.92523794
_cell_length_b   5.92523786
_cell_length_c   5.77136798
_cell_angle_alpha   87.04591139
_cell_angle_beta   58.44848589
_cell_angle_gamma   57.28089004
_symmetry_Int_Tables_number   1
_chemical_formula_structural   Li3Co4CuO8
_chemical_formula_sum   'Li3 Co4 Cu1 O8'
_cell_volume   137.50484725
_cell_formula_units_Z   1
loop_
 _symmetry_equiv_pos_site_id
 _symmetry_equiv_pos_as_xyz
  1  'x, y, z'
loop_
 _atom_site_type_symbol
 _atom_site_label
 _atom_site_symmetry_multiplicity
 _atom_site_fract_x
 _atom_site_fract_y
 _atom_site_fract_z
 _atom_site_occupancy
  Li  Li0  1  0.000000  0.000000  0.500000  1
  Li  Li1  1  0.500000  0.000000  0.500000  1
  Li  Li2  1  0.500000  0.500000  0.500000  1
  Co  Co3  1  0.000000  0.500000  0.500000  1
  Co  Co4  1  0.000000  0.000000  0.000000  1
  Co  Co5  1  0.500000  0.000000  0.000000  1
  Co  Co6  1  0.000000  0.500000  0.000000  1
  Cu  Cu7  1  0.500000  0.500000  0.000000  1
  O  O8  1  0.481498  0.242077  0.760579  1
  O  O9  1  0.994673  0.277864  0.770076  1
  O  O10  1  0.507788  0.764749  0.770076  1
  O  O11  1  0.981375  0.732455  0.751080  1
  O  O12  1  0.018625  0.267545  0.248920  1
  O  O13  1  0.492212  0.235251  0.229924  1
  O  O14  1  0.005327  0.722136  0.229924  1
  O  O15  1  0.518502  0.757923  0.239421  1
