# generated using pymatgen
data_UP3HO11
_symmetry_space_group_name_H-M   'P 1'
_cell_length_a   9.92462837
_cell_length_b   21.03153846
_cell_length_c   8.78477609
_cell_angle_alpha   90.00000000
_cell_angle_beta   90.00000000
_cell_angle_gamma   94.14276704
_symmetry_Int_Tables_number   1
_chemical_formula_structural   UP3HO11
_chemical_formula_sum   'U8 P24 H8 O88'
_cell_volume   1828.85702810
_cell_formula_units_Z   8
loop_
 _symmetry_equiv_pos_site_id
 _symmetry_equiv_pos_as_xyz
  1  'x, y, z'
loop_
 _atom_site_type_symbol
 _atom_site_label
 _atom_site_symmetry_multiplicity
 _atom_site_fract_x
 _atom_site_fract_y
 _atom_site_fract_z
 _atom_site_occupancy
  U  U0  1  0.697367  0.097247  0.380822  1
  U  U1  1  0.302633  0.402753  0.880822  1
  U  U2  1  0.302633  0.902753  0.619178  1
  U  U3  1  0.697367  0.597247  0.119178  1
  U  U4  1  0.210224  0.643479  0.383398  1
  U  U5  1  0.789776  0.856521  0.883398  1
  U  U6  1  0.789776  0.356521  0.616602  1
  U  U7  1  0.210224  0.143479  0.116602  1
  P  P8  1  0.861112  0.946877  0.250397  1
  P  P9  1  0.138888  0.553123  0.750397  1
  P  P10  1  0.138888  0.053123  0.749603  1
  P  P11  1  0.861112  0.446877  0.249603  1
  P  P12  1  0.791689  0.833655  0.455042  1
  P  P13  1  0.208311  0.666345  0.955042  1
  P  P14  1  0.208311  0.166345  0.544958  1
  P  P15  1  0.791689  0.333655  0.044958  1
  P  P16  1  0.379286  0.809726  0.280491  1
  P  P17  1  0.620714  0.690274  0.780491  1
  P  P18  1  0.620714  0.190274  0.719509  1
  P  P19  1  0.379286  0.309726  0.219509  1
  P  P20  1  0.647870  0.764966  0.209526  1
  P  P21  1  0.352130  0.735034  0.709526  1
  P  P22  1  0.352130  0.235034  0.790474  1
  P  P23  1  0.647870  0.264966  0.290474  1
  P  P24  1  0.295358  0.901079  0.049051  1
  P  P25  1  0.704642  0.598921  0.549051  1
  P  P26  1  0.704642  0.098921  0.950949  1
  P  P27  1  0.295358  0.401079  0.450949  1
  P  P28  1  0.151981  0.979153  0.278285  1
  P  P29  1  0.848019  0.520847  0.778285  1
  P  P30  1  0.848019  0.020847  0.721715  1
  P  P31  1  0.151981  0.479153  0.221715  1
  H  H32  1  0.010675  0.824228  0.487417  1
  H  H33  1  0.989325  0.675772  0.987417  1
  H  H34  1  0.989325  0.175772  0.512583  1
  H  H35  1  0.010675  0.324228  0.012583  1
  H  H36  1  0.510458  0.924746  0.015189  1
  H  H37  1  0.489542  0.575254  0.515189  1
  H  H38  1  0.489542  0.075254  0.984811  1
  H  H39  1  0.510458  0.424746  0.484811  1
  O  O40  1  0.129021  0.546208  0.266146  1
  O  O41  1  0.870979  0.953792  0.766146  1
  O  O42  1  0.870979  0.453792  0.733854  1
  O  O43  1  0.129021  0.046208  0.233854  1
  O  O44  1  0.540814  0.553021  0.158910  1
  O  O45  1  0.459186  0.946979  0.658910  1
  O  O46  1  0.459186  0.446979  0.841090  1
  O  O47  1  0.540814  0.053021  0.341090  1
  O  O48  1  0.774493  0.895285  0.353536  1
  O  O49  1  0.225507  0.604715  0.853536  1
  O  O50  1  0.225507  0.104715  0.646464  1
  O  O51  1  0.774493  0.395285  0.146464  1
  O  O52  1  0.856324  0.643138  0.075374  1
  O  O53  1  0.143676  0.856862  0.575374  1
  O  O54  1  0.143676  0.356862  0.924626  1
  O  O55  1  0.856324  0.143138  0.424626  1
  O  O56  1  0.406090  0.859075  0.402343  1
  O  O57  1  0.593910  0.640925  0.902343  1
  O  O58  1  0.593910  0.140925  0.597657  1
  O  O59  1  0.406090  0.359075  0.097657  1
  O  O60  1  0.738907  0.614330  0.388527  1
  O  O61  1  0.261093  0.885670  0.888527  1
  O  O62  1  0.261093  0.385670  0.611473  1
  O  O63  1  0.738907  0.114330  0.111473  1
  O  O64  1  0.516075  0.804027  0.184000  1
  O  O65  1  0.483925  0.695973  0.684000  1
  O  O66  1  0.483925  0.195973  0.816000  1
  O  O67  1  0.516075  0.304027  0.316000  1
  O  O68  1  0.685010  0.781062  0.387057  1
  O  O69  1  0.314990  0.718938  0.887057  1
  O  O70  1  0.314990  0.218938  0.612943  1
  O  O71  1  0.685010  0.281062  0.112943  1
  O  O72  1  0.375111  0.612097  0.410631  1
  O  O73  1  0.624889  0.887903  0.910631  1
  O  O74  1  0.624889  0.387903  0.589369  1
  O  O75  1  0.375111  0.112097  0.089369  1
  O  O76  1  0.757783  0.795620  0.111568  1
  O  O77  1  0.242217  0.704380  0.611568  1
  O  O78  1  0.242217  0.204380  0.888432  1
  O  O79  1  0.757783  0.295620  0.388432  1
  O  O80  1  0.009318  0.942624  0.324862  1
  O  O81  1  0.990682  0.557376  0.824862  1
  O  O82  1  0.990682  0.057376  0.675138  1
  O  O83  1  0.009318  0.442624  0.175138  1
  O  O84  1  0.046419  0.673228  0.362714  1
  O  O85  1  0.953581  0.826772  0.862714  1
  O  O86  1  0.953581  0.326772  0.637286  1
  O  O87  1  0.046419  0.173228  0.137286  1
  O  O88  1  0.930919  0.807757  0.423069  1
  O  O89  1  0.069081  0.692243  0.923069  1
  O  O90  1  0.069081  0.192243  0.576931  1
  O  O91  1  0.930919  0.307757  0.076931  1
  O  O92  1  0.244714  0.652945  0.115082  1
  O  O93  1  0.755286  0.847055  0.615082  1
  O  O94  1  0.755286  0.347055  0.884918  1
  O  O95  1  0.244714  0.152945  0.384918  1
  O  O96  1  0.863763  0.924275  0.088803  1
  O  O97  1  0.136237  0.575725  0.588803  1
  O  O98  1  0.136237  0.075725  0.911197  1
  O  O99  1  0.863763  0.424275  0.411197  1
  O  O100  1  0.809345  0.510331  0.216471  1
  O  O101  1  0.190655  0.989669  0.716471  1
  O  O102  1  0.190655  0.489669  0.783529  1
  O  O103  1  0.809345  0.010331  0.283529  1
  O  O104  1  0.433823  0.938479  0.080356  1
  O  O105  1  0.566177  0.561521  0.580356  1
  O  O106  1  0.566177  0.061521  0.919644  1
  O  O107  1  0.433823  0.438479  0.419644  1
  O  O108  1  0.185776  0.942519  0.121359  1
  O  O109  1  0.814224  0.557481  0.621359  1
  O  O110  1  0.814224  0.057481  0.878641  1
  O  O111  1  0.185776  0.442519  0.378641  1
  O  O112  1  0.285577  0.836865  0.147806  1
  O  O113  1  0.714423  0.663135  0.647806  1
  O  O114  1  0.714423  0.163135  0.852194  1
  O  O115  1  0.285577  0.336865  0.352194  1
  O  O116  1  0.609238  0.695064  0.199044  1
  O  O117  1  0.390762  0.804936  0.699044  1
  O  O118  1  0.390762  0.304936  0.800956  1
  O  O119  1  0.609238  0.195064  0.300956  1
  O  O120  1  0.318237  0.745493  0.323989  1
  O  O121  1  0.681763  0.754507  0.823989  1
  O  O122  1  0.681763  0.254507  0.676011  1
  O  O123  1  0.318237  0.245493  0.176011  1
  O  O124  1  0.250669  0.965811  0.400523  1
  O  O125  1  0.749331  0.534189  0.900523  1
  O  O126  1  0.749331  0.034189  0.599477  1
  O  O127  1  0.250669  0.465811  0.099477  1
