# generated using pymatgen
data_Li3CrB4O9
_symmetry_space_group_name_H-M   'P 1'
_cell_length_a   5.89267560
_cell_length_b   8.54380316
_cell_length_c   6.70440198
_cell_angle_alpha   90.00000000
_cell_angle_beta   103.38170837
_cell_angle_gamma   90.00000000
_symmetry_Int_Tables_number   1
_chemical_formula_structural   Li3CrB4O9
_chemical_formula_sum   'Li6 Cr2 B8 O18'
_cell_volume   328.37464259
_cell_formula_units_Z   2
loop_
 _symmetry_equiv_pos_site_id
 _symmetry_equiv_pos_as_xyz
  1  'x, y, z'
loop_
 _atom_site_type_symbol
 _atom_site_label
 _atom_site_symmetry_multiplicity
 _atom_site_fract_x
 _atom_site_fract_y
 _atom_site_fract_z
 _atom_site_occupancy
  Li  Li0  1  0.237919  0.564395  0.160080  1
  Li  Li1  1  0.237919  0.935605  0.160080  1
  Li  Li2  1  0.414309  0.250000  0.501875  1
  Li  Li3  1  0.585691  0.750000  0.498125  1
  Li  Li4  1  0.762081  0.064395  0.839920  1
  Li  Li5  1  0.762081  0.435605  0.839920  1
  Cr  Cr6  1  0.248357  0.250000  0.887012  1
  Cr  Cr7  1  0.751643  0.750000  0.112988  1
  B  B8  1  0.001620  0.250000  0.231283  1
  B  B9  1  0.136056  0.750000  0.458836  1
  B  B10  1  0.282724  0.542581  0.716741  1
  B  B11  1  0.282724  0.957419  0.716741  1
  B  B12  1  0.717276  0.042581  0.283259  1
  B  B13  1  0.717276  0.457419  0.283259  1
  B  B14  1  0.863944  0.250000  0.541164  1
  B  B15  1  0.998380  0.750000  0.768717  1
  O  O16  1  0.145663  0.604140  0.842790  1
  O  O17  1  0.145663  0.895860  0.842790  1
  O  O18  1  0.066582  0.250000  0.453738  1
  O  O19  1  0.080172  0.750000  0.236029  1
  O  O20  1  0.290443  0.610549  0.532109  1
  O  O21  1  0.290443  0.889451  0.532109  1
  O  O22  1  0.211640  0.250000  0.155178  1
  O  O23  1  0.417055  0.088925  0.778245  1
  O  O24  1  0.417055  0.411075  0.778245  1
  O  O25  1  0.582945  0.911075  0.221755  1
  O  O26  1  0.582945  0.588925  0.221755  1
  O  O27  1  0.788360  0.750000  0.844822  1
  O  O28  1  0.709557  0.110549  0.467891  1
  O  O29  1  0.709557  0.389451  0.467891  1
  O  O30  1  0.919828  0.250000  0.763971  1
  O  O31  1  0.933418  0.750000  0.546262  1
  O  O32  1  0.854337  0.104140  0.157210  1
  O  O33  1  0.854337  0.395860  0.157210  1
