# generated using pymatgen
data_FeH16C4(NCl2)2
_symmetry_space_group_name_H-M   'P 1'
_cell_length_a   7.98915577
_cell_length_b   11.42494121
_cell_length_c   14.67443781
_cell_angle_alpha   90.00000000
_cell_angle_beta   95.59560050
_cell_angle_gamma   90.00000000
_symmetry_Int_Tables_number   1
_chemical_formula_structural   FeH16C4(NCl2)2
_chemical_formula_sum   'Fe4 H64 C16 N8 Cl16'
_cell_volume   1333.03615147
_cell_formula_units_Z   4
loop_
 _symmetry_equiv_pos_site_id
 _symmetry_equiv_pos_as_xyz
  1  'x, y, z'
loop_
 _atom_site_type_symbol
 _atom_site_label
 _atom_site_symmetry_multiplicity
 _atom_site_fract_x
 _atom_site_fract_y
 _atom_site_fract_z
 _atom_site_occupancy
  Fe  Fe0  1  0.791051  0.796153  0.046188  1
  Fe  Fe1  1  0.291051  0.703847  0.546188  1
  Fe  Fe2  1  0.208949  0.203847  0.953812  1
  Fe  Fe3  1  0.708949  0.296153  0.453812  1
  H  H4  1  0.113081  0.726730  0.931298  1
  H  H5  1  0.613081  0.773270  0.431298  1
  H  H6  1  0.886919  0.273270  0.068702  1
  H  H7  1  0.386919  0.226730  0.568702  1
  H  H8  1  0.312279  0.726055  0.983660  1
  H  H9  1  0.812279  0.773945  0.483660  1
  H  H10  1  0.687721  0.273945  0.016340  1
  H  H11  1  0.187721  0.226055  0.516340  1
  H  H12  1  0.155919  0.042270  0.120430  1
  H  H13  1  0.655919  0.457730  0.620430  1
  H  H14  1  0.844081  0.957730  0.879570  1
  H  H15  1  0.344081  0.542270  0.379570  1
  H  H16  1  0.150904  0.902604  0.153042  1
  H  H17  1  0.650904  0.597396  0.653042  1
  H  H18  1  0.849096  0.097396  0.846958  1
  H  H19  1  0.349096  0.402604  0.346958  1
  H  H20  1  0.427223  0.689048  0.841108  1
  H  H21  1  0.927223  0.810952  0.341108  1
  H  H22  1  0.572777  0.310952  0.158892  1
  H  H23  1  0.072777  0.189048  0.658892  1
  H  H24  1  0.298616  0.817814  0.834508  1
  H  H25  1  0.798616  0.682186  0.334508  1
  H  H26  1  0.701384  0.182186  0.165492  1
  H  H27  1  0.201384  0.317814  0.665492  1
  H  H28  1  0.217574  0.683793  0.784823  1
  H  H29  1  0.717574  0.816207  0.284823  1
  H  H30  1  0.782426  0.316207  0.215177  1
  H  H31  1  0.282426  0.183793  0.715177  1
  H  H32  1  0.135446  0.524007  0.890683  1
  H  H33  1  0.635446  0.975993  0.390683  1
  H  H34  1  0.864554  0.475993  0.109317  1
  H  H35  1  0.364554  0.024007  0.609317  1
  H  H36  1  0.175742  0.547888  0.011643  1
  H  H37  1  0.675742  0.952112  0.511643  1
  H  H38  1  0.824258  0.452112  0.988357  1
  H  H39  1  0.324258  0.047888  0.488357  1
  H  H40  1  0.347026  0.524081  0.943217  1
  H  H41  1  0.847026  0.975919  0.443217  1
  H  H42  1  0.652974  0.475919  0.056783  1
  H  H43  1  0.152974  0.024081  0.556783  1
  H  H44  1  0.151850  0.956595  0.310904  1
  H  H45  1  0.651850  0.543405  0.810904  1
  H  H46  1  0.848150  0.043405  0.689096  1
  H  H47  1  0.348150  0.456595  0.189096  1
  H  H48  1  0.979269  0.021384  0.239815  1
  H  H49  1  0.479269  0.478616  0.739815  1
  H  H50  1  0.020731  0.978616  0.760185  1
  H  H51  1  0.520731  0.521384  0.260185  1
  H  H52  1  0.159471  0.107991  0.278150  1
  H  H53  1  0.659471  0.392009  0.778150  1
  H  H54  1  0.840529  0.892009  0.721850  1
  H  H55  1  0.340529  0.607991  0.221850  1
  H  H56  1  0.425995  0.070081  0.212608  1
  H  H57  1  0.925995  0.429919  0.712608  1
  H  H58  1  0.574005  0.929919  0.787392  1
  H  H59  1  0.074005  0.570081  0.287392  1
  H  H60  1  0.429583  0.967087  0.119587  1
  H  H61  1  0.929583  0.532913  0.619587  1
  H  H62  1  0.570417  0.032913  0.880413  1
  H  H63  1  0.070417  0.467087  0.380413  1
  H  H64  1  0.421532  0.915279  0.234470  1
  H  H65  1  0.921532  0.584721  0.734470  1
  H  H66  1  0.578468  0.084721  0.765530  1
  H  H67  1  0.078467  0.415279  0.265530  1
  C  C68  1  0.299023  0.722467  0.841260  1
  C  C69  1  0.799023  0.777533  0.341260  1
  C  C70  1  0.700977  0.277533  0.158740  1
  C  C71  1  0.200977  0.222467  0.658740  1
  C  C72  1  0.222198  0.562654  0.944817  1
  C  C73  1  0.722198  0.937346  0.444817  1
  C  C74  1  0.777802  0.437346  0.055183  1
  C  C75  1  0.277802  0.062654  0.555183  1
  C  C76  1  0.115576  0.020711  0.256887  1
  C  C77  1  0.615576  0.479289  0.756887  1
  C  C78  1  0.884424  0.979289  0.743113  1
  C  C79  1  0.384424  0.520711  0.243113  1
  C  C80  1  0.382242  0.984924  0.185668  1
  C  C81  1  0.882242  0.515076  0.685668  1
  C  C82  1  0.617758  0.015076  0.814332  1
  C  C83  1  0.117758  0.484924  0.314332  1
  N  N84  1  0.232723  0.691141  0.929513  1
  N  N85  1  0.732723  0.808859  0.429513  1
  N  N86  1  0.767277  0.308859  0.070487  1
  N  N87  1  0.267277  0.191141  0.570487  1
  N  N88  1  0.195261  0.985515  0.173519  1
  N  N89  1  0.695261  0.514485  0.673519  1
  N  N90  1  0.804739  0.014485  0.826481  1
  N  N91  1  0.304739  0.485515  0.326481  1
  Cl  Cl92  1  0.788485  0.995474  0.058100  1
  Cl  Cl93  1  0.288485  0.504526  0.558100  1
  Cl  Cl94  1  0.211515  0.004526  0.941900  1
  Cl  Cl95  1  0.711515  0.495474  0.441900  1
  Cl  Cl96  1  0.827446  0.736841  0.898012  1
  Cl  Cl97  1  0.327446  0.763159  0.398012  1
  Cl  Cl98  1  0.172554  0.263159  0.101988  1
  Cl  Cl99  1  0.672554  0.236841  0.601988  1
  Cl  Cl100  1  0.030657  0.728984  0.131094  1
  Cl  Cl101  1  0.530657  0.771016  0.631094  1
  Cl  Cl102  1  0.969343  0.271016  0.868906  1
  Cl  Cl103  1  0.469343  0.228984  0.368906  1
  Cl  Cl104  1  0.546662  0.717261  0.087671  1
  Cl  Cl105  1  0.046662  0.782739  0.587671  1
  Cl  Cl106  1  0.453338  0.282739  0.912329  1
  Cl  Cl107  1  0.953338  0.217261  0.412329  1
