# generated using pymatgen
data_Sr2Mg2V3O14
_symmetry_space_group_name_H-M   'P 1'
_cell_length_a   6.82042199
_cell_length_b   15.53508047
_cell_length_c   11.15334513
_cell_angle_alpha   90.00000000
_cell_angle_beta   97.62448763
_cell_angle_gamma   90.00000000
_symmetry_Int_Tables_number   1
_chemical_formula_structural   Sr2Mg2V3O14
_chemical_formula_sum   'Sr8 Mg8 V12 O56'
_cell_volume   1171.31361227
_cell_formula_units_Z   4
loop_
 _symmetry_equiv_pos_site_id
 _symmetry_equiv_pos_as_xyz
  1  'x, y, z'
loop_
 _atom_site_type_symbol
 _atom_site_label
 _atom_site_symmetry_multiplicity
 _atom_site_fract_x
 _atom_site_fract_y
 _atom_site_fract_z
 _atom_site_occupancy
  Sr  Sr0  1  0.648916  0.140304  0.014069  1
  Sr  Sr1  1  0.351084  0.640304  0.485931  1
  Sr  Sr2  1  0.351084  0.859696  0.985931  1
  Sr  Sr3  1  0.648916  0.359696  0.514069  1
  Sr  Sr4  1  0.064146  0.996965  0.277231  1
  Sr  Sr5  1  0.935854  0.496965  0.222769  1
  Sr  Sr6  1  0.935854  0.003035  0.722769  1
  Sr  Sr7  1  0.064146  0.503035  0.777231  1
  Mg  Mg8  1  0.361846  0.328053  0.926275  1
  Mg  Mg9  1  0.638154  0.828053  0.573725  1
  Mg  Mg10  1  0.638154  0.671947  0.073725  1
  Mg  Mg11  1  0.361846  0.171947  0.426275  1
  Mg  Mg12  1  0.995828  0.276156  0.272189  1
  Mg  Mg13  1  0.004172  0.776156  0.227811  1
  Mg  Mg14  1  0.004172  0.723844  0.727811  1
  Mg  Mg15  1  0.995828  0.223844  0.772189  1
  V  V16  1  0.472678  0.291296  0.185104  1
  V  V17  1  0.527322  0.791296  0.314896  1
  V  V18  1  0.527322  0.708704  0.814896  1
  V  V19  1  0.472678  0.208704  0.685104  1
  V  V20  1  0.564141  0.514669  0.795230  1
  V  V21  1  0.435859  0.014669  0.704770  1
  V  V22  1  0.435859  0.485331  0.204770  1
  V  V23  1  0.564141  0.985331  0.295230  1
  V  V24  1  0.871336  0.363907  0.972110  1
  V  V25  1  0.128664  0.863907  0.527890  1
  V  V26  1  0.128664  0.636093  0.027890  1
  V  V27  1  0.871336  0.136093  0.472110  1
  O  O28  1  0.594262  0.090423  0.793557  1
  O  O29  1  0.405738  0.590423  0.706443  1
  O  O30  1  0.405738  0.909577  0.206443  1
  O  O31  1  0.594262  0.409577  0.293557  1
  O  O32  1  0.703940  0.242900  0.208965  1
  O  O33  1  0.296060  0.742900  0.291035  1
  O  O34  1  0.296060  0.757100  0.791035  1
  O  O35  1  0.703940  0.257100  0.708965  1
  O  O36  1  0.370151  0.232445  0.060353  1
  O  O37  1  0.629849  0.732445  0.439647  1
  O  O38  1  0.629849  0.767555  0.939647  1
  O  O39  1  0.370151  0.267555  0.560353  1
  O  O40  1  0.316878  0.268730  0.294367  1
  O  O41  1  0.683122  0.768730  0.205633  1
  O  O42  1  0.683122  0.731270  0.705633  1
  O  O43  1  0.316878  0.231270  0.794367  1
  O  O44  1  0.399783  0.392296  0.094588  1
  O  O45  1  0.600217  0.892296  0.405412  1
  O  O46  1  0.600217  0.607704  0.905412  1
  O  O47  1  0.399783  0.107704  0.594588  1
  O  O48  1  0.399688  0.436339  0.824528  1
  O  O49  1  0.600312  0.936339  0.675472  1
  O  O50  1  0.600312  0.563661  0.175472  1
  O  O51  1  0.399688  0.063661  0.324528  1
  O  O52  1  0.794973  0.468320  0.931066  1
  O  O53  1  0.205027  0.968320  0.568934  1
  O  O54  1  0.205027  0.531680  0.068934  1
  O  O55  1  0.794973  0.031680  0.431066  1
  O  O56  1  0.708624  0.019488  0.186520  1
  O  O57  1  0.291376  0.519488  0.313480  1
  O  O58  1  0.291376  0.980512  0.813480  1
  O  O59  1  0.708624  0.480512  0.686520  1
  O  O60  1  0.051008  0.336276  0.875484  1
  O  O61  1  0.948992  0.836276  0.624516  1
  O  O62  1  0.948992  0.663724  0.124516  1
  O  O63  1  0.051008  0.163724  0.375484  1
  O  O64  1  0.973144  0.358688  0.123767  1
  O  O65  1  0.026856  0.858688  0.376233  1
  O  O66  1  0.026856  0.641312  0.876233  1
  O  O67  1  0.973144  0.141312  0.623767  1
  O  O68  1  0.672357  0.297104  0.951413  1
  O  O69  1  0.327643  0.797104  0.548587  1
  O  O70  1  0.327643  0.702896  0.048587  1
  O  O71  1  0.672357  0.202896  0.451413  1
  O  O72  1  0.923037  0.125442  0.880118  1
  O  O73  1  0.076963  0.625442  0.619882  1
  O  O74  1  0.076963  0.874558  0.119882  1
  O  O75  1  0.923037  0.374558  0.380118  1
  O  O76  1  0.077330  0.134566  0.094819  1
  O  O77  1  0.922670  0.634566  0.405181  1
  O  O78  1  0.922670  0.865434  0.905181  1
  O  O79  1  0.077330  0.365434  0.594819  1
  O  O80  1  0.184520  0.078564  0.056042  1
  O  O81  1  0.815480  0.578564  0.443958  1
  O  O82  1  0.815480  0.921436  0.943958  1
  O  O83  1  0.184520  0.421436  0.556042  1
