# generated using pymatgen
data_NaLi2MnPCO7
_symmetry_space_group_name_H-M   'P 1'
_cell_length_a   8.66575200
_cell_length_b   6.71940228
_cell_length_c   10.13029496
_cell_angle_alpha   90.03571012
_cell_angle_beta   88.55307681
_cell_angle_gamma   89.81484691
_symmetry_Int_Tables_number   1
_chemical_formula_structural   NaLi2MnPCO7
_chemical_formula_sum   'Na4 Li8 Mn4 P4 C4 O28'
_cell_volume   589.68233043
_cell_formula_units_Z   4
loop_
 _symmetry_equiv_pos_site_id
 _symmetry_equiv_pos_as_xyz
  1  'x, y, z'
loop_
 _atom_site_type_symbol
 _atom_site_label
 _atom_site_symmetry_multiplicity
 _atom_site_fract_x
 _atom_site_fract_y
 _atom_site_fract_z
 _atom_site_occupancy
  Na  Na0  1  0.084938  0.239552  0.376959  1
  Na  Na1  1  0.248370  0.998243  0.628610  1
  Na  Na2  1  0.251139  0.501855  0.125105  1
  Na  Na3  1  0.750502  0.500383  0.374431  1
  Li  Li4  1  0.078507  0.254081  0.871767  1
  Li  Li5  1  0.273217  0.471154  0.617293  1
  Li  Li6  1  0.275347  0.027616  0.111062  1
  Li  Li7  1  0.735240  0.524105  0.883245  1
  Li  Li8  1  0.735118  0.974449  0.883067  1
  Li  Li9  1  0.725937  0.971770  0.389012  1
  Li  Li10  1  0.911916  0.743411  0.630846  1
  Li  Li11  1  0.909688  0.773810  0.125256  1
  Mn  Mn12  1  0.353837  0.753389  0.886589  1
  Mn  Mn13  1  0.360949  0.745254  0.389891  1
  Mn  Mn14  1  0.646545  0.243631  0.615664  1
  Mn  Mn15  1  0.648957  0.250539  0.106237  1
  P  P16  1  0.407135  0.256505  0.851631  1
  P  P17  1  0.416654  0.237286  0.353717  1
  P  P18  1  0.594170  0.742704  0.649304  1
  P  P19  1  0.593280  0.760384  0.140972  1
  C  C20  1  0.037740  0.749299  0.866751  1
  C  C21  1  0.043367  0.761212  0.364218  1
  C  C22  1  0.949162  0.259493  0.643824  1
  C  C23  1  0.958247  0.240408  0.128248  1
  O  O24  1  0.096268  0.282493  0.662649  1
  O  O25  1  0.104102  0.216977  0.149137  1
  O  O26  1  0.079642  0.747747  0.988431  1
  O  O27  1  0.079340  0.756503  0.488487  1
  O  O28  1  0.140987  0.753647  0.771057  1
  O  O29  1  0.151277  0.743397  0.273239  1
  O  O30  1  0.309926  0.072248  0.896197  1
  O  O31  1  0.313462  0.439367  0.901826  1
  O  O32  1  0.318886  0.058692  0.404519  1
  O  O33  1  0.327201  0.427444  0.401003  1
  O  O34  1  0.419267  0.263293  0.697200  1
  O  O35  1  0.426608  0.729067  0.597388  1
  O  O36  1  0.425988  0.233063  0.199224  1
  O  O37  1  0.425607  0.771631  0.090116  1
  O  O38  1  0.575143  0.250299  0.902732  1
  O  O39  1  0.581773  0.755057  0.803818  1
  O  O40  1  0.583513  0.230953  0.405519  1
  O  O41  1  0.582290  0.768804  0.295293  1
  O  O42  1  0.695131  0.561422  0.607757  1
  O  O43  1  0.684063  0.925918  0.594324  1
  O  O44  1  0.681124  0.568995  0.095648  1
  O  O45  1  0.696218  0.933556  0.087046  1
  O  O46  1  0.855926  0.240230  0.745573  1
  O  O47  1  0.860774  0.253884  0.228243  1
  O  O48  1  0.893949  0.254026  0.526196  1
  O  O49  1  0.907670  0.251280  0.009003  1
  O  O50  1  0.892315  0.746828  0.836037  1
  O  O51  1  0.901590  0.782643  0.328643  1
