# generated using pymatgen
data_Li4V3P8O29
_symmetry_space_group_name_H-M   'P 1'
_cell_length_a   9.79047352
_cell_length_b   9.75412456
_cell_length_c   14.20973350
_cell_angle_alpha   89.96311872
_cell_angle_beta   90.10204762
_cell_angle_gamma   60.09521453
_symmetry_Int_Tables_number   1
_chemical_formula_structural   Li4V3P8O29
_chemical_formula_sum   'Li8 V6 P16 O58'
_cell_volume   1176.31348201
_cell_formula_units_Z   2
loop_
 _symmetry_equiv_pos_site_id
 _symmetry_equiv_pos_as_xyz
  1  'x, y, z'
loop_
 _atom_site_type_symbol
 _atom_site_label
 _atom_site_symmetry_multiplicity
 _atom_site_fract_x
 _atom_site_fract_y
 _atom_site_fract_z
 _atom_site_occupancy
  Li  Li0  1  0.773768  0.917192  0.559706  1
  Li  Li1  1  0.919017  0.303718  0.554932  1
  Li  Li2  1  0.762424  0.327503  0.061591  1
  Li  Li3  1  0.336453  0.894409  0.058055  1
  Li  Li4  1  0.322392  0.772748  0.556125  1
  Li  Li5  1  0.091036  0.683236  0.436360  1
  Li  Li6  1  0.094031  0.231276  0.943210  1
  Li  Li7  1  0.980279  0.935815  0.012606  1
  V  V8  1  0.567345  0.434490  0.251265  1
  V  V9  1  0.433607  0.564642  0.754257  1
  V  V10  1  0.564577  0.004121  0.753005  1
  V  V11  1  0.435872  0.999515  0.249776  1
  V  V12  1  0.995843  0.571761  0.244824  1
  V  V13  1  -0.000022  0.434898  0.748651  1
  P  P14  1  0.915255  0.775911  0.838514  1
  P  P15  1  0.768690  0.914101  0.343742  1
  P  P16  1  0.913262  0.318318  0.339656  1
  P  P17  1  0.662606  0.667826  0.129764  1
  P  P18  1  0.663370  0.669027  0.632259  1
  P  P19  1  0.771999  0.315456  0.845007  1
  P  P20  1  0.686222  0.228637  0.662398  1
  P  P21  1  0.314493  0.914591  0.841637  1
  P  P22  1  0.692456  0.084951  0.160781  1
  P  P23  1  0.319168  0.771792  0.341602  1
  P  P24  1  0.225041  0.691795  0.160160  1
  P  P25  1  0.332077  0.336116  0.367239  1
  P  P26  1  0.333389  0.331775  0.869747  1
  P  P27  1  0.090415  0.680564  0.657542  1
  P  P28  1  0.229546  0.086492  0.659203  1
  P  P29  1  0.088452  0.226133  0.159131  1
  O  O30  1  0.005721  0.753301  0.566861  1
  O  O31  1  0.917388  0.748394  0.337169  1
  O  O32  1  0.794541  0.002179  0.079428  1
  O  O33  1  0.741232  0.913905  0.828285  1
  O  O34  1  0.920074  0.616617  0.830305  1
  O  O35  1  0.803940  0.676527  0.171165  1
  O  O36  1  0.906451  0.477463  0.318971  1
  O  O37  1  0.002805  0.221546  0.071819  1
  O  O38  1  0.916689  0.339424  0.835766  1
  O  O39  1  0.664919  0.818387  0.673275  1
  O  O40  1  0.619463  0.900803  0.318652  1
  O  O41  1  0.813368  0.518180  0.671347  1
  O  O42  1  0.647289  0.667361  0.025552  1
  O  O43  1  0.655208  0.672531  0.527572  1
  O  O44  1  0.672807  0.511267  0.171538  1
  O  O45  1  0.473401  0.910858  0.826671  1
  O  O46  1  0.506544  0.813912  0.171966  1
  O  O47  1  0.743160  0.343670  0.329181  1
  O  O48  1  0.785819  0.203192  0.758872  1
  O  O49  1  0.774884  0.234726  0.579699  1
  O  O50  1  0.772206  0.242997  0.936962  1
  O  O51  1  0.616960  0.475602  0.825865  1
  O  O52  1  0.514589  0.668083  0.676126  1
  O  O53  1  0.654857  0.260792  0.162734  1
  O  O54  1  0.479475  0.620222  0.321955  1
  O  O55  1  0.341894  0.916937  0.334719  1
  O  O56  1  0.785622  0.012981  0.258615  1
  O  O57  1  0.752570  0.992828  0.435207  1
  O  O58  1  0.239001  0.989133  0.576845  1
  O  O59  1  0.661044  0.083410  0.661059  1
  O  O60  1  0.525664  0.382264  0.679282  1
  O  O61  1  0.340942  0.744970  0.834069  1
  O  O62  1  0.475911  0.343142  0.318843  1
  O  O63  1  0.385238  0.538578  0.169162  1
  O  O64  1  0.206508  0.797791  0.079454  1
  O  O65  1  0.247470  0.758096  0.431874  1
  O  O66  1  0.203149  0.789234  0.257452  1
  O  O67  1  0.257530  0.662080  0.660805  1
  O  O68  1  0.483738  0.187008  0.822068  1
  O  O69  1  0.538075  0.077528  0.169307  1
  O  O70  1  0.331521  0.481936  0.823746  1
  O  O71  1  0.345584  0.326493  0.973681  1
  O  O72  1  0.347367  0.323559  0.470778  1
  O  O73  1  0.181786  0.486959  0.332227  1
  O  O74  1  0.381374  0.094626  0.678126  1
  O  O75  1  0.340164  0.186037  0.317147  1
  O  O76  1  0.089125  0.654663  0.164807  1
  O  O77  1  0.995876  0.795861  0.742797  1
  O  O78  1  0.993991  0.797820  0.920486  1
  O  O79  1  0.102551  0.519169  0.677856  1
  O  O80  1  0.188368  0.323077  0.832073  1
  O  O81  1  0.093128  0.379148  0.170271  1
  O  O82  1  0.258401  0.079799  0.160857  1
  O  O83  1  0.236879  0.995151  0.932353  1
  O  O84  1  0.202734  0.010058  0.755406  1
  O  O85  1  0.084036  0.255036  0.658195  1
  O  O86  1  0.987870  0.245936  0.430109  1
  O  O87  1  0.005234  0.203477  0.251523  1
