# generated using pymatgen
data_Li2Ag3F6
_symmetry_space_group_name_H-M   'P 1'
_cell_length_a   3.85698232
_cell_length_b   3.84286941
_cell_length_c   10.06562832
_cell_angle_alpha   82.62684294
_cell_angle_beta   75.43901143
_cell_angle_gamma   90.38777716
_symmetry_Int_Tables_number   1
_chemical_formula_structural   Li2Ag3F6
_chemical_formula_sum   'Li2 Ag3 F6'
_cell_volume   143.08715540
_cell_formula_units_Z   1
loop_
 _symmetry_equiv_pos_site_id
 _symmetry_equiv_pos_as_xyz
  1  'x, y, z'
loop_
 _atom_site_type_symbol
 _atom_site_label
 _atom_site_symmetry_multiplicity
 _atom_site_fract_x
 _atom_site_fract_y
 _atom_site_fract_z
 _atom_site_occupancy
  Li  Li0  1  0.562437  0.635814  0.801796  1
  Li  Li1  1  0.437542  0.364069  0.198143  1
  Ag  Ag2  1  -0.000979  0.000330  0.000803  1
  Ag  Ag3  1  0.829887  0.803515  0.366216  1
  Ag  Ag4  1  0.167506  0.196547  0.633698  1
  F  F5  1  0.975176  0.361637  0.150736  1
  F  F6  1  0.695674  0.697686  0.607255  1
  F  F7  1  0.513135  0.125881  0.849883  1
  F  F8  1  0.488214  0.874597  0.149444  1
  F  F9  1  0.306623  0.302687  0.392995  1
  F  F10  1  0.024786  0.637238  0.849031  1
