# generated using pymatgen
data_Li6V2B4SO16
_symmetry_space_group_name_H-M   'P 1'
_cell_length_a   9.46056286
_cell_length_b   9.46056231
_cell_length_c   9.46056207
_cell_angle_alpha   90.00000009
_cell_angle_beta   60.00000075
_cell_angle_gamma   60.00000159
_symmetry_Int_Tables_number   1
_chemical_formula_structural   Li6V2B4SO16
_chemical_formula_sum   'Li12 V4 B8 S2 O32'
_cell_volume   598.73670522
_cell_formula_units_Z   2
loop_
 _symmetry_equiv_pos_site_id
 _symmetry_equiv_pos_as_xyz
  1  'x, y, z'
loop_
 _atom_site_type_symbol
 _atom_site_label
 _atom_site_symmetry_multiplicity
 _atom_site_fract_x
 _atom_site_fract_y
 _atom_site_fract_z
 _atom_site_occupancy
  Li  Li0  1  0.750000  0.904516  0.654516  1
  Li  Li1  1  0.690968  0.654516  0.904516  1
  Li  Li2  1  0.750000  0.345484  0.654516  1
  Li  Li3  1  0.750000  0.904516  0.095484  1
  Li  Li4  1  0.250000  0.654516  0.904516  1
  Li  Li5  1  0.809032  0.095484  0.345484  1
  Li  Li6  1  0.750000  0.345484  0.095484  1
  Li  Li7  1  0.190968  0.904516  0.654516  1
  Li  Li8  1  0.250000  0.654516  0.345484  1
  Li  Li9  1  0.250000  0.095484  0.904516  1
  Li  Li10  1  0.309032  0.345484  0.095484  1
  Li  Li11  1  0.250000  0.095484  0.345484  1
  V  V12  1  0.500000  0.500000  0.500000  1
  V  V13  1  0.500000  0.000000  0.500000  1
  V  V14  1  0.000000  0.500000  0.500000  1
  V  V15  1  0.000000  0.500000  0.000000  1
  B  B16  1  0.935073  0.717537  0.282463  1
  B  B17  1  0.564927  0.717537  0.652609  1
  B  B18  1  0.935073  0.347391  0.282463  1
  B  B19  1  0.564927  0.717537  0.282463  1
  B  B20  1  0.435073  0.282463  0.717537  1
  B  B21  1  0.435073  0.282463  0.347391  1
  B  B22  1  0.064927  0.652609  0.717537  1
  B  B23  1  0.064927  0.282463  0.717537  1
  S  S24  1  0.750000  0.125000  0.875000  1
  S  S25  1  0.250000  0.875000  0.125000  1
  O  O26  1  0.928959  0.654050  0.698394  1
  O  O27  1  0.928959  0.416991  0.872647  1
  O  O28  1  0.955657  0.698394  0.416991  1
  O  O29  1  0.781402  0.872647  0.301606  1
  O  O30  1  0.879241  0.060380  0.939620  1
  O  O31  1  0.718598  0.583009  0.654050  1
  O  O32  1  0.544343  0.872647  0.654050  1
  O  O33  1  0.879241  0.060380  0.681139  1
  O  O34  1  0.620759  0.318861  0.939620  1
  O  O35  1  0.955657  0.345950  0.127353  1
  O  O36  1  0.781402  0.345950  0.416991  1
  O  O37  1  0.620759  0.060380  0.939620  1
  O  O38  1  0.718598  0.698394  0.127353  1
  O  O39  1  0.428959  0.698394  0.654050  1
  O  O40  1  0.428959  0.872647  0.416991  1
  O  O41  1  0.455657  0.416991  0.698394  1
  O  O42  1  0.544343  0.583009  0.301606  1
  O  O43  1  0.571041  0.127353  0.583009  1
  O  O44  1  0.571041  0.301606  0.345950  1
  O  O45  1  0.281402  0.301606  0.872647  1
  O  O46  1  0.379241  0.939620  0.060380  1
  O  O47  1  0.218598  0.654050  0.583009  1
  O  O48  1  0.044343  0.654050  0.872647  1
  O  O49  1  0.120759  0.939620  0.318861  1
  O  O50  1  0.379241  0.681139  0.060380  1
  O  O51  1  0.455657  0.127353  0.345950  1
  O  O52  1  0.281402  0.416991  0.345950  1
  O  O53  1  0.120759  0.939620  0.060380  1
  O  O54  1  0.218598  0.127353  0.698394  1
  O  O55  1  0.044343  0.301606  0.583009  1
  O  O56  1  0.071041  0.583009  0.127353  1
  O  O57  1  0.071041  0.345950  0.301606  1
