# generated using pymatgen
data_Li8MnFe7(BO3)8
_symmetry_space_group_name_H-M   'P 1'
_cell_length_a   5.22953489
_cell_length_b   9.05502399
_cell_length_c   10.39205406
_cell_angle_alpha   91.22467974
_cell_angle_beta   90.61489679
_cell_angle_gamma   89.90841638
_symmetry_Int_Tables_number   1
_chemical_formula_structural   Li8MnFe7(BO3)8
_chemical_formula_sum   'Li8 Mn1 Fe7 B8 O24'
_cell_volume   491.95959186
_cell_formula_units_Z   1
loop_
 _symmetry_equiv_pos_site_id
 _symmetry_equiv_pos_as_xyz
  1  'x, y, z'
loop_
 _atom_site_type_symbol
 _atom_site_label
 _atom_site_symmetry_multiplicity
 _atom_site_fract_x
 _atom_site_fract_y
 _atom_site_fract_z
 _atom_site_occupancy
  Li  Li0  1  0.847391  0.825706  0.667402  1
  Li  Li1  1  0.816449  0.838109  0.166860  1
  Li  Li2  1  0.680567  0.669901  0.415316  1
  Li  Li3  1  0.663796  0.677367  0.914256  1
  Li  Li4  1  0.347053  0.326114  0.668378  1
  Li  Li5  1  0.316356  0.337022  0.165790  1
  Li  Li6  1  0.178371  0.167724  0.416229  1
  Li  Li7  1  0.164627  0.175447  0.916133  1
  Mn  Mn8  1  0.671962  0.335174  0.384471  1
  Fe  Fe9  1  0.819199  0.502405  0.132261  1
  Fe  Fe10  1  0.841649  0.156885  0.632390  1
  Fe  Fe11  1  0.660162  0.004398  0.884900  1
  Fe  Fe12  1  0.339384  0.659375  0.633219  1
  Fe  Fe13  1  0.319337  0.999634  0.133295  1
  Fe  Fe14  1  0.175645  0.831567  0.384037  1
  Fe  Fe15  1  0.161456  0.502882  0.884560  1
  B  B16  1  0.830870  0.168061  0.125287  1
  B  B17  1  0.836752  0.498616  0.627879  1
  B  B18  1  0.666277  0.000664  0.376790  1
  B  B19  1  0.672345  0.335136  0.875749  1
  B  B20  1  0.329922  0.667969  0.124548  1
  B  B21  1  0.337131  0.997835  0.626708  1
  B  B22  1  0.163800  0.503561  0.374293  1
  B  B23  1  0.171218  0.834444  0.875133  1
  O  O24  1  0.903988  0.519649  0.343707  1
  O  O25  1  0.910357  0.828534  0.861574  1
  O  O26  1  0.822052  0.210008  0.847685  1
  O  O27  1  0.806759  0.123604  0.419755  1
  O  O28  1  0.785806  0.866000  0.360969  1
  O  O29  1  0.788245  0.467672  0.915676  1
  O  O30  1  0.720660  0.635310  0.614228  1
  O  O31  1  0.709161  0.034027  0.096676  1
  O  O32  1  0.696752  0.370157  0.599010  1
  O  O33  1  0.688795  0.291564  0.164104  1
  O  O34  1  0.593299  0.680261  0.111959  1
  O  O35  1  0.591736  0.986972  0.665482  1
  O  O36  1  0.404684  0.015410  0.347018  1
  O  O37  1  0.409453  0.328235  0.862357  1
  O  O38  1  0.322257  0.710067  0.845791  1
  O  O39  1  0.305786  0.626178  0.416243  1
  O  O40  1  0.278594  0.366328  0.361881  1
  O  O41  1  0.288920  0.966480  0.916837  1
  O  O42  1  0.211282  0.532867  0.096020  1
  O  O43  1  0.222950  0.135941  0.615462  1
  O  O44  1  0.193960  0.871141  0.596335  1
  O  O45  1  0.186228  0.790409  0.163883  1
  O  O46  1  0.094453  0.178660  0.113570  1
  O  O47  1  0.092708  0.489135  0.665494  1
