# generated using pymatgen
data_Hg4HN3O10
_symmetry_space_group_name_H-M   'P 1'
_cell_length_a   11.41154786
_cell_length_b   11.41154786
_cell_length_c   11.62633469
_cell_angle_alpha   90.00000000
_cell_angle_beta   90.00000000
_cell_angle_gamma   129.74959036
_symmetry_Int_Tables_number   1
_chemical_formula_structural   Hg4HN3O10
_chemical_formula_sum   'Hg16 H4 N12 O40'
_cell_volume   1164.04969191
_cell_formula_units_Z   4
loop_
 _symmetry_equiv_pos_site_id
 _symmetry_equiv_pos_as_xyz
  1  'x, y, z'
loop_
 _atom_site_type_symbol
 _atom_site_label
 _atom_site_symmetry_multiplicity
 _atom_site_fract_x
 _atom_site_fract_y
 _atom_site_fract_z
 _atom_site_occupancy
  Hg  Hg0  1  0.473002  0.534838  0.596136  1
  Hg  Hg1  1  0.534838  0.473002  0.403864  1
  Hg  Hg2  1  0.973002  0.034838  0.903864  1
  Hg  Hg3  1  0.034838  0.973002  0.096136  1
  Hg  Hg4  1  0.442865  0.537082  0.925618  1
  Hg  Hg5  1  0.537082  0.442865  0.074382  1
  Hg  Hg6  1  0.942865  0.037082  0.574382  1
  Hg  Hg7  1  0.037082  0.942865  0.425618  1
  Hg  Hg8  1  0.288084  0.690923  0.707760  1
  Hg  Hg9  1  0.690923  0.288084  0.292240  1
  Hg  Hg10  1  0.788084  0.190923  0.792240  1
  Hg  Hg11  1  0.190923  0.788084  0.207760  1
  Hg  Hg12  1  0.252637  0.890016  0.751525  1
  Hg  Hg13  1  0.890016  0.252637  0.248475  1
  Hg  Hg14  1  0.752637  0.390016  0.748475  1
  Hg  Hg15  1  0.390016  0.752637  0.251525  1
  H  H16  1  0.050232  0.237703  0.747524  1
  H  H17  1  0.237703  0.050232  0.252476  1
  H  H18  1  0.550232  0.737703  0.752476  1
  H  H19  1  0.737703  0.550232  0.247524  1
  N  N20  1  0.306507  0.187003  0.720596  1
  N  N21  1  0.187003  0.306507  0.279404  1
  N  N22  1  0.806507  0.687003  0.779404  1
  N  N23  1  0.687003  0.806507  0.220596  1
  N  N24  1  0.072004  0.416318  0.538972  1
  N  N25  1  0.416318  0.072004  0.461028  1
  N  N26  1  0.572004  0.916318  0.961028  1
  N  N27  1  0.916318  0.572004  0.038972  1
  N  N28  1  0.593909  0.884063  0.504309  1
  N  N29  1  0.884063  0.593909  0.495691  1
  N  N30  1  0.093909  0.384063  0.995691  1
  N  N31  1  0.384063  0.093909  0.004309  1
  O  O32  1  0.451778  0.633582  0.749052  1
  O  O33  1  0.633582  0.451778  0.250948  1
  O  O34  1  0.951778  0.133582  0.750948  1
  O  O35  1  0.133582  0.951778  0.249052  1
  O  O36  1  0.788227  0.784243  0.765533  1
  O  O37  1  0.784243  0.788227  0.234467  1
  O  O38  1  0.288227  0.284243  0.734467  1
  O  O39  1  0.284243  0.288227  0.265533  1
  O  O40  1  0.195110  0.048375  0.756136  1
  O  O41  1  0.048375  0.195110  0.243864  1
  O  O42  1  0.695110  0.548375  0.743864  1
  O  O43  1  0.548375  0.695110  0.256136  1
  O  O44  1  0.421274  0.217116  0.674896  1
  O  O45  1  0.217116  0.421274  0.325104  1
  O  O46  1  0.921274  0.717116  0.825104  1
  O  O47  1  0.717116  0.921274  0.174896  1
  O  O48  1  0.091009  0.525022  0.492837  1
  O  O49  1  0.525022  0.091009  0.507163  1
  O  O50  1  0.591009  0.025022  0.007163  1
  O  O51  1  0.025022  0.591009  0.992837  1
  O  O52  1  0.153165  0.438909  0.629541  1
  O  O53  1  0.438909  0.153165  0.370459  1
  O  O54  1  0.653165  0.938909  0.870459  1
  O  O55  1  0.938909  0.653165  0.129541  1
  O  O56  1  0.975625  0.280769  0.502772  1
  O  O57  1  0.280769  0.975625  0.497228  1
  O  O58  1  0.475625  0.780769  0.997228  1
  O  O59  1  0.780769  0.475625  0.002772  1
  O  O60  1  0.665570  0.953700  0.414281  1
  O  O61  1  0.953700  0.665570  0.585719  1
  O  O62  1  0.165570  0.453700  0.085719  1
  O  O63  1  0.453700  0.165570  0.914281  1
  O  O64  1  0.664759  0.917193  0.600730  1
  O  O65  1  0.917193  0.664759  0.399270  1
  O  O66  1  0.164759  0.417193  0.899270  1
  O  O67  1  0.417193  0.164759  0.100730  1
  O  O68  1  0.450314  0.777077  0.502297  1
  O  O69  1  0.777077  0.450314  0.497703  1
  O  O70  1  0.950314  0.277077  0.997703  1
  O  O71  1  0.277077  0.950314  0.002297  1
