# generated using pymatgen
data_LiLaTi2O6
_symmetry_space_group_name_H-M   'P 1'
_cell_length_a   5.55185542
_cell_length_b   5.55939938
_cell_length_c   7.76769348
_cell_angle_alpha   90.00007501
_cell_angle_beta   90.00076092
_cell_angle_gamma   90.00005869
_symmetry_Int_Tables_number   1
_chemical_formula_structural   LiLaTi2O6
_chemical_formula_sum   'Li2 La2 Ti4 O12'
_cell_volume   239.74971596
_cell_formula_units_Z   2
loop_
 _symmetry_equiv_pos_site_id
 _symmetry_equiv_pos_as_xyz
  1  'x, y, z'
loop_
 _atom_site_type_symbol
 _atom_site_label
 _atom_site_symmetry_multiplicity
 _atom_site_fract_x
 _atom_site_fract_y
 _atom_site_fract_z
 _atom_site_occupancy
  Li  Li0  1  0.000000  0.500000  0.500000  1
  Li  Li1  1  0.000000  0.500000  0.000000  1
  La  La2  1  0.499993  0.990921  0.750000  1
  La  La3  1  0.500007  0.009079  0.250000  1
  Ti  Ti4  1  0.500000  0.500000  0.500000  1
  Ti  Ti5  1  0.000000  0.000000  0.500000  1
  Ti  Ti6  1  0.000000  0.000000  0.000000  1
  Ti  Ti7  1  0.500000  0.500000  0.000000  1
  O  O8  1  0.730962  0.231437  0.982152  1
  O  O9  1  0.250000  0.250498  0.980270  1
  O  O10  1  0.750000  0.250501  0.519730  1
  O  O11  1  0.499997  0.544561  0.749997  1
  O  O12  1  0.269043  0.231439  0.517852  1
  O  O13  1  0.730957  0.768561  0.482148  1
  O  O14  1  0.999998  0.962201  0.750000  1
  O  O15  1  0.500003  0.455439  0.250003  1
  O  O16  1  0.000002  0.037799  0.250000  1
  O  O17  1  0.250000  0.749499  0.480270  1
  O  O18  1  0.750000  0.749502  0.019730  1
  O  O19  1  0.269038  0.768563  0.017848  1
