# generated using pymatgen
data_Li5Mn5(NiO6)2
_symmetry_space_group_name_H-M   'P 1'
_cell_length_a   5.16780211
_cell_length_b   5.16780169
_cell_length_c   9.84884187
_cell_angle_alpha   84.97348804
_cell_angle_beta   95.02651281
_cell_angle_gamma   60.35675407
_symmetry_Int_Tables_number   1
_chemical_formula_structural   Li5Mn5(NiO6)2
_chemical_formula_sum   'Li5 Mn5 Ni2 O12'
_cell_volume   225.10164276
_cell_formula_units_Z   1
loop_
 _symmetry_equiv_pos_site_id
 _symmetry_equiv_pos_as_xyz
  1  'x, y, z'
loop_
 _atom_site_type_symbol
 _atom_site_label
 _atom_site_symmetry_multiplicity
 _atom_site_fract_x
 _atom_site_fract_y
 _atom_site_fract_z
 _atom_site_occupancy
  Li  Li0  1  0.175142  0.656665  0.506503  1
  Li  Li1  1  0.322090  0.843657  0.990709  1
  Li  Li2  1  0.656665  0.175142  0.993497  1
  Li  Li3  1  0.843657  0.322090  0.509291  1
  Li  Li4  1  0.921831  0.921831  0.750000  1
  Mn  Mn5  1  0.073614  0.073614  0.250000  1
  Mn  Mn6  1  0.990720  0.519324  0.993196  1
  Mn  Mn7  1  0.519324  0.990720  0.506804  1
  Mn  Mn8  1  0.416641  0.416641  0.250000  1
  Mn  Mn9  1  0.581160  0.581160  0.750000  1
  Ni  Ni10  1  0.254623  0.254623  0.750000  1
  Ni  Ni11  1  0.746057  0.746057  0.250000  1
  O  O12  1  0.939179  0.254999  0.868788  1
  O  O13  1  0.254999  0.939179  0.631212  1
  O  O14  1  0.164140  0.350112  0.377135  1
  O  O15  1  0.350112  0.164140  0.122865  1
  O  O16  1  0.305990  0.546237  0.863747  1
  O  O17  1  0.546237  0.305990  0.636253  1
  O  O18  1  0.456293  0.695684  0.362779  1
  O  O19  1  0.695684  0.456293  0.137221  1
  O  O20  1  0.627929  0.850538  0.871737  1
  O  O21  1  0.850538  0.627929  0.628263  1
  O  O22  1  0.792063  0.015312  0.382794  1
  O  O23  1  0.015312  0.792063  0.117206  1
