# generated using pymatgen
data_Li5Mn6(BO3)6
_symmetry_space_group_name_H-M   'P 1'
_cell_length_a   11.80934882
_cell_length_b   5.28214099
_cell_length_c   6.22034018
_cell_angle_alpha   87.78508987
_cell_angle_beta   94.32090413
_cell_angle_gamma   101.08966722
_symmetry_Int_Tables_number   1
_chemical_formula_structural   Li5Mn6(BO3)6
_chemical_formula_sum   'Li5 Mn6 B6 O18'
_cell_volume   379.57313823
_cell_formula_units_Z   1
loop_
 _symmetry_equiv_pos_site_id
 _symmetry_equiv_pos_as_xyz
  1  'x, y, z'
loop_
 _atom_site_type_symbol
 _atom_site_label
 _atom_site_symmetry_multiplicity
 _atom_site_fract_x
 _atom_site_fract_y
 _atom_site_fract_z
 _atom_site_occupancy
  Li  Li0  1  0.871890  0.504017  0.809299  1
  Li  Li1  1  0.459086  0.161633  0.860748  1
  Li  Li2  1  0.796504  0.828987  0.526239  1
  Li  Li3  1  0.537634  0.843668  0.141440  1
  Li  Li4  1  0.136883  0.479956  0.209469  1
  Mn  Mn5  1  0.783267  0.966630  0.977647  1
  Mn  Mn6  1  0.883896  0.366136  0.360535  1
  Mn  Mn7  1  0.549292  0.699619  0.690417  1
  Mn  Mn8  1  0.447121  0.306707  0.309935  1
  Mn  Mn9  1  0.122675  0.640455  0.638750  1
  Mn  Mn10  1  0.210172  0.017758  0.037071  1
  B  B11  1  0.663972  0.258395  0.595553  1
  B  B12  1  0.998007  0.923071  0.259096  1
  B  B13  1  0.331740  0.594209  0.930426  1
  B  B14  1  0.667541  0.408233  0.071527  1
  B  B15  1  0.003343  0.075377  0.755906  1
  B  B16  1  0.335724  0.743718  0.383187  1
  O  O17  1  0.987079  0.322656  0.694913  1
  O  O18  1  0.910331  0.878640  0.790989  1
  O  O19  1  0.684570  0.010075  0.638460  1
  O  O20  1  0.753394  0.456206  0.542804  1
  O  O21  1  0.552583  0.308582  0.616597  1
  O  O22  1  0.888382  0.976534  0.287070  1
  O  O23  1  0.344559  0.341214  0.974529  1
  O  O24  1  0.778190  0.354848  0.049928  1
  O  O25  1  0.422096  0.786260  0.876284  1
  O  O26  1  0.577546  0.213789  0.125070  1
  O  O27  1  0.222737  0.655390  0.956586  1
  O  O28  1  0.648489  0.658225  0.028856  1
  O  O29  1  0.114809  0.013419  0.764982  1
  O  O30  1  0.448808  0.698240  0.381180  1
  O  O31  1  0.249616  0.561816  0.457385  1
  O  O32  1  0.315983  0.982889  0.294984  1
  O  O33  1  0.081335  0.118602  0.182777  1
  O  O34  1  0.020819  0.677976  0.310774  1
