# generated using pymatgen
data_KCa(H2N)3
_symmetry_space_group_name_H-M   'P 1'
_cell_length_a   6.68393355
_cell_length_b   11.87149352
_cell_length_c   6.61161963
_cell_angle_alpha   90.00000000
_cell_angle_beta   106.55554981
_cell_angle_gamma   90.00000000
_symmetry_Int_Tables_number   1
_chemical_formula_structural   KCa(H2N)3
_chemical_formula_sum   'K4 Ca4 H24 N12'
_cell_volume   502.87189315
_cell_formula_units_Z   4
loop_
 _symmetry_equiv_pos_site_id
 _symmetry_equiv_pos_as_xyz
  1  'x, y, z'
loop_
 _atom_site_type_symbol
 _atom_site_label
 _atom_site_symmetry_multiplicity
 _atom_site_fract_x
 _atom_site_fract_y
 _atom_site_fract_z
 _atom_site_occupancy
  K  K0  1  0.262281  0.908054  0.867094  1
  K  K1  1  0.262281  0.591946  0.367094  1
  K  K2  1  0.737719  0.408054  0.632906  1
  K  K3  1  0.737719  0.091946  0.132906  1
  Ca  Ca4  1  0.182099  0.237859  0.915758  1
  Ca  Ca5  1  0.182099  0.262141  0.415758  1
  Ca  Ca6  1  0.817901  0.737859  0.584242  1
  Ca  Ca7  1  0.817901  0.762141  0.084242  1
  H  H8  1  0.037312  0.582863  0.913300  1
  H  H9  1  0.037312  0.917137  0.413300  1
  H  H10  1  0.125421  0.489405  0.675809  1
  H  H11  1  0.217751  0.669959  0.904610  1
  H  H12  1  0.125421  0.010595  0.175809  1
  H  H13  1  0.217751  0.830041  0.404610  1
  H  H14  1  0.343608  0.427696  0.767955  1
  H  H15  1  0.419143  0.715535  0.703454  1
  H  H16  1  0.479986  0.108370  0.655294  1
  H  H17  1  0.343608  0.072304  0.267955  1
  H  H18  1  0.520014  0.608370  0.844706  1
  H  H19  1  0.419143  0.784465  0.203454  1
  H  H20  1  0.580857  0.215535  0.796546  1
  H  H21  1  0.479986  0.391629  0.155294  1
  H  H22  1  0.656392  0.927696  0.732045  1
  H  H23  1  0.520014  0.891630  0.344706  1
  H  H24  1  0.580857  0.284465  0.296546  1
  H  H25  1  0.656392  0.572304  0.232045  1
  H  H26  1  0.782250  0.169959  0.595390  1
  H  H27  1  0.874579  0.989405  0.824191  1
  H  H28  1  0.782250  0.330041  0.095390  1
  H  H29  1  0.874579  0.510595  0.324191  1
  H  H30  1  0.962688  0.082863  0.586700  1
  H  H31  1  0.962688  0.417137  0.086700  1
  N  N32  1  0.069106  0.667671  0.921219  1
  N  N33  1  0.069106  0.832329  0.421219  1
  N  N34  1  0.196144  0.413506  0.668099  1
  N  N35  1  0.196144  0.086494  0.168099  1
  N  N36  1  0.439755  0.175889  0.733089  1
  N  N37  1  0.439755  0.324111  0.233089  1
  N  N38  1  0.560245  0.675889  0.766911  1
  N  N39  1  0.560245  0.824111  0.266911  1
  N  N40  1  0.803856  0.913506  0.831901  1
  N  N41  1  0.803856  0.586494  0.331901  1
  N  N42  1  0.930894  0.167671  0.578781  1
  N  N43  1  0.930894  0.332329  0.078781  1
