# generated using pymatgen
data_Li4Mn3NbV2(PO4)6
_symmetry_space_group_name_H-M   'P 1'
_cell_length_a   8.62418630
_cell_length_b   9.09389462
_cell_length_c   9.07289513
_cell_angle_alpha   60.06177741
_cell_angle_beta   58.62514170
_cell_angle_gamma   58.60857114
_symmetry_Int_Tables_number   1
_chemical_formula_structural   Li4Mn3NbV2(PO4)6
_chemical_formula_sum   'Li4 Mn3 Nb1 V2 P6 O24'
_cell_volume   492.59405213
_cell_formula_units_Z   1
loop_
 _symmetry_equiv_pos_site_id
 _symmetry_equiv_pos_as_xyz
  1  'x, y, z'
loop_
 _atom_site_type_symbol
 _atom_site_label
 _atom_site_symmetry_multiplicity
 _atom_site_fract_x
 _atom_site_fract_y
 _atom_site_fract_z
 _atom_site_occupancy
  Li  Li0  1  0.251468  0.851614  0.644574  1
  Li  Li1  1  0.784736  0.151954  0.356192  1
  Li  Li2  1  0.783399  0.708239  0.147562  1
  Li  Li3  1  0.784820  0.360120  0.706921  1
  Mn  Mn4  1  0.049986  0.645836  0.651423  1
  Mn  Mn5  1  0.454598  0.847797  0.850013  1
  Mn  Mn6  1  0.973920  0.343826  0.339409  1
  Nb  Nb7  1  0.541843  0.154807  0.151578  1
  V  V8  1  0.008206  0.998297  0.000807  1
  V  V9  1  0.499425  0.497011  0.499454  1
  P  P10  1  0.240331  0.254816  0.564266  1
  P  P11  1  0.242260  0.941803  0.251583  1
  P  P12  1  0.241389  0.565021  0.941143  1
  P  P13  1  0.746355  0.446322  0.055544  1
  P  P14  1  0.762779  0.052247  0.748204  1
  P  P15  1  0.731026  0.754262  0.449686  1
  O  O16  1  0.054545  0.091461  0.320101  1
  O  O17  1  0.053151  0.535319  0.088502  1
  O  O18  1  0.051407  0.329856  0.530835  1
  O  O19  1  0.225807  0.092548  0.741190  1
  O  O20  1  0.417544  0.186720  0.396978  1
  O  O21  1  0.282383  0.396884  0.568341  1
  O  O22  1  0.228347  0.920827  0.101733  1
  O  O23  1  0.283675  0.762638  0.406836  1
  O  O24  1  0.563878  0.590635  0.017215  1
  O  O25  1  0.283261  0.573310  0.749364  1
  O  O26  1  0.763769  0.245848  0.089022  1
  O  O27  1  0.594110  0.995646  0.816827  1
  O  O28  1  0.420832  0.002458  0.176988  1
  O  O29  1  0.222917  0.753214  0.919575  1
  O  O30  1  0.726572  0.427059  0.247219  1
  O  O31  1  0.420453  0.401955  0.994306  1
  O  O32  1  0.732358  0.243212  0.597269  1
  O  O33  1  0.765519  0.091261  0.902165  1
  O  O34  1  0.727461  0.598034  0.422584  1
  O  O35  1  0.534394  0.822761  0.590143  1
  O  O36  1  0.758217  0.903950  0.250267  1
  O  O37  1  0.901445  0.703791  0.495464  1
  O  O38  1  0.931226  0.473167  0.903949  1
  O  O39  1  0.960188  0.906472  0.691766  1
