# generated using pymatgen
data_Mn2H8S3(NO6)2
_symmetry_space_group_name_H-M   'P 1'
_cell_length_a   10.31505256
_cell_length_b   10.31496714
_cell_length_c   10.31498623
_cell_angle_alpha   90.00003494
_cell_angle_beta   90.00013998
_cell_angle_gamma   89.99994695
_symmetry_Int_Tables_number   1
_chemical_formula_structural   Mn2H8S3(NO6)2
_chemical_formula_sum   'Mn8 H32 S12 N8 O48'
_cell_volume   1097.50863680
_cell_formula_units_Z   4
loop_
 _symmetry_equiv_pos_site_id
 _symmetry_equiv_pos_as_xyz
  1  'x, y, z'
loop_
 _atom_site_type_symbol
 _atom_site_label
 _atom_site_symmetry_multiplicity
 _atom_site_fract_x
 _atom_site_fract_y
 _atom_site_fract_z
 _atom_site_occupancy
  Mn  Mn0  1  0.083431  0.916565  0.416578  1
  Mn  Mn1  1  0.156481  0.343511  0.656484  1
  Mn  Mn2  1  0.343517  0.656479  0.156486  1
  Mn  Mn3  1  0.416571  0.083430  0.916577  1
  Mn  Mn4  1  0.583424  0.583429  0.583431  1
  Mn  Mn5  1  0.656480  0.156479  0.343521  1
  Mn  Mn6  1  0.843522  0.843515  0.843516  1
  Mn  Mn7  1  0.916578  0.416584  0.083426  1
  H  H8  1  0.008634  0.008636  0.008735  1
  H  H9  1  0.024318  0.076341  0.157264  1
  H  H10  1  0.076310  0.157207  0.024308  1
  H  H11  1  0.157225  0.024306  0.076331  1
  H  H12  1  0.144316  0.644316  0.855784  1
  H  H13  1  0.157123  0.713567  0.709718  1
  H  H14  1  0.213601  0.790343  0.842862  1
  H  H15  1  0.209679  0.342865  0.286422  1
  H  H16  1  0.290320  0.657135  0.786421  1
  H  H17  1  0.286398  0.209657  0.342863  1
  H  H18  1  0.342877  0.286433  0.209716  1
  H  H19  1  0.355683  0.355683  0.355784  1
  H  H20  1  0.342736  0.975681  0.576343  1
  H  H21  1  0.423668  0.842774  0.524307  1
  H  H22  1  0.475694  0.923691  0.657207  1
  H  H23  1  0.491266  0.991366  0.508636  1
  H  H24  1  0.508732  0.491366  0.991366  1
  H  H25  1  0.524306  0.423690  0.842795  1
  H  H26  1  0.576331  0.342774  0.975694  1
  H  H27  1  0.657263  0.475681  0.923660  1
  H  H28  1  0.644216  0.855683  0.144318  1
  H  H29  1  0.657138  0.786399  0.290342  1
  H  H30  1  0.713579  0.709680  0.157136  1
  H  H31  1  0.709657  0.157137  0.713602  1
  H  H32  1  0.790284  0.842879  0.213567  1
  H  H33  1  0.786433  0.290284  0.657124  1
  H  H34  1  0.842864  0.213579  0.790320  1
  H  H35  1  0.855683  0.144216  0.644317  1
  H  H36  1  0.842736  0.524319  0.423659  1
  H  H37  1  0.923669  0.657227  0.475695  1
  H  H38  1  0.975694  0.576309  0.342794  1
  H  H39  1  0.991266  0.508635  0.491365  1
  S  S40  1  0.031041  0.736462  0.125373  1
  S  S41  1  0.125375  0.031040  0.736458  1
  S  S42  1  0.236462  0.374626  0.968958  1
  S  S43  1  0.263543  0.625372  0.468958  1
  S  S44  1  0.374623  0.968958  0.236456  1
  S  S45  1  0.468958  0.263538  0.625375  1
  S  S46  1  0.531043  0.763542  0.874626  1
  S  S47  1  0.625373  0.468960  0.263542  1
  S  S48  1  0.736457  0.125372  0.031042  1
  S  S49  1  0.763538  0.874628  0.531044  1
  S  S50  1  0.874624  0.531043  0.763544  1
  S  S51  1  0.968959  0.236455  0.374628  1
  N  N52  1  0.066290  0.066292  0.066322  1
  N  N53  1  0.201645  0.701645  0.798375  1
  N  N54  1  0.298354  0.298354  0.298376  1
  N  N55  1  0.433679  0.933709  0.566292  1
  N  N56  1  0.566319  0.433709  0.933710  1
  N  N57  1  0.701623  0.798355  0.201646  1
  N  N58  1  0.798355  0.201625  0.701646  1
  N  N59  1  0.933681  0.566290  0.433709  1
  O  O60  1  0.000376  0.098377  0.345907  1
  O  O61  1  0.008799  0.813672  0.245529  1
  O  O62  1  0.022952  0.944316  0.788291  1
  O  O63  1  0.055682  0.288293  0.477048  1
  O  O64  1  0.081311  0.168235  0.748419  1
  O  O65  1  0.098374  0.345905  0.000375  1
  O  O66  1  0.154095  0.999626  0.598379  1
  O  O67  1  0.168230  0.748415  0.081313  1
  O  O68  1  0.186326  0.745525  0.491202  1
  O  O69  1  0.211709  0.522950  0.555684  1
  O  O70  1  0.245525  0.008796  0.813672  1
  O  O71  1  0.248416  0.418687  0.831770  1
  O  O72  1  0.251584  0.581314  0.331768  1
  O  O73  1  0.254472  0.991203  0.313672  1
  O  O74  1  0.288289  0.477047  0.055683  1
  O  O75  1  0.313673  0.254472  0.991203  1
  O  O76  1  0.331769  0.251583  0.581313  1
  O  O77  1  0.345905  0.000375  0.098377  1
  O  O78  1  0.401622  0.654095  0.500376  1
  O  O79  1  0.418687  0.831769  0.248417  1
  O  O80  1  0.444319  0.711709  0.977049  1
  O  O81  1  0.477047  0.055685  0.288295  1
  O  O82  1  0.491203  0.186328  0.745526  1
  O  O83  1  0.499626  0.901624  0.845907  1
  O  O84  1  0.500375  0.401625  0.654092  1
  O  O85  1  0.508796  0.686328  0.754472  1
  O  O86  1  0.522954  0.555683  0.211709  1
  O  O87  1  0.555686  0.211706  0.522951  1
  O  O88  1  0.581311  0.331765  0.251583  1
  O  O89  1  0.598375  0.154094  0.999624  1
  O  O90  1  0.654092  0.500374  0.401622  1
  O  O91  1  0.668230  0.751582  0.918684  1
  O  O92  1  0.686326  0.754471  0.508797  1
  O  O93  1  0.711710  0.977049  0.444315  1
  O  O94  1  0.745529  0.491201  0.186327  1
  O  O95  1  0.748414  0.081313  0.168231  1
  O  O96  1  0.751586  0.918688  0.668231  1
  O  O97  1  0.754472  0.508798  0.686328  1
  O  O98  1  0.788291  0.022954  0.944319  1
  O  O99  1  0.813672  0.245530  0.008799  1
  O  O100  1  0.831765  0.248416  0.418687  1
  O  O101  1  0.845907  0.499626  0.901624  1
  O  O102  1  0.901621  0.845903  0.499626  1
  O  O103  1  0.918687  0.668231  0.751583  1
  O  O104  1  0.944318  0.788290  0.022956  1
  O  O105  1  0.977047  0.444317  0.711706  1
  O  O106  1  0.991200  0.313673  0.254472  1
  O  O107  1  0.999625  0.598373  0.154095  1
