# generated using pymatgen
data_Li5Mn8Fe11O32
_symmetry_space_group_name_H-M   'P 1'
_cell_length_a   5.95913536
_cell_length_b   5.94125771
_cell_length_c   19.74775913
_cell_angle_alpha   97.78424586
_cell_angle_beta   98.95454596
_cell_angle_gamma   60.00879661
_symmetry_Int_Tables_number   1
_chemical_formula_structural   Li5Mn8Fe11O32
_chemical_formula_sum   'Li5 Mn8 Fe11 O32'
_cell_volume   596.80866097
_cell_formula_units_Z   1
loop_
 _symmetry_equiv_pos_site_id
 _symmetry_equiv_pos_as_xyz
  1  'x, y, z'
loop_
 _atom_site_type_symbol
 _atom_site_label
 _atom_site_symmetry_multiplicity
 _atom_site_fract_x
 _atom_site_fract_y
 _atom_site_fract_z
 _atom_site_occupancy
  Li  Li0  1  0.835323  0.859646  0.033206  1
  Li  Li1  1  0.911855  0.898207  0.219390  1
  Li  Li2  1  0.663121  0.646095  0.473234  1
  Li  Li3  1  0.339246  0.347183  0.526089  1
  Li  Li4  1  0.089718  0.095322  0.777442  1
  Mn  Mn5  1  0.372145  0.880053  0.125593  1
  Mn  Mn6  1  0.497903  0.510619  0.001907  1
  Mn  Mn7  1  0.121129  0.630911  0.375580  1
  Mn  Mn8  1  0.247639  0.251839  0.246600  1
  Mn  Mn9  1  0.878279  0.367816  0.622698  1
  Mn  Mn10  1  0.001512  0.996134  0.499526  1
  Mn  Mn11  1  0.752330  0.746303  0.752320  1
  Mn  Mn12  1  0.628328  0.122301  0.874909  1
  Fe  Fe13  1  0.872187  0.382180  0.125045  1
  Fe  Fe14  1  0.371646  0.383684  0.125187  1
  Fe  Fe15  1  0.589553  0.602073  0.280703  1
  Fe  Fe16  1  0.877402  0.871678  0.622671  1
  Fe  Fe17  1  0.374572  0.871695  0.622202  1
  Fe  Fe18  1  0.625011  0.127821  0.377100  1
  Fe  Fe19  1  0.121553  0.127761  0.376897  1
  Fe  Fe20  1  0.411995  0.401832  0.721628  1
  Fe  Fe21  1  0.120817  0.628730  0.874577  1
  Fe  Fe22  1  0.628921  0.627647  0.874487  1
  Fe  Fe23  1  0.159891  0.155337  0.968264  1
  O  O24  1  0.212397  0.692568  0.071709  1
  O  O25  1  0.662469  0.688959  0.069853  1
  O  O26  1  0.415507  0.975746  0.312272  1
  O  O27  1  0.557313  0.566286  0.177035  1
  O  O28  1  0.662655  0.241169  0.067354  1
  O  O29  1  0.940982  0.935227  0.322082  1
  O  O30  1  0.189478  0.196260  0.073140  1
  O  O31  1  0.081939  0.522406  0.182991  1
  O  O32  1  0.831951  0.825251  0.437320  1
  O  O33  1  0.081742  0.080543  0.183431  1
  O  O34  1  0.278241  0.827293  0.437940  1
  O  O35  1  0.522918  0.080729  0.183705  1
  O  O36  1  0.970268  0.422702  0.310231  1
  O  O37  1  0.414311  0.428453  0.312027  1
  O  O38  1  0.171976  0.717122  0.562295  1
  O  O39  1  0.302194  0.321094  0.426004  1
  O  O40  1  0.697853  0.677238  0.572943  1
  O  O41  1  0.829706  0.277123  0.436935  1
  O  O42  1  0.583371  0.576531  0.688318  1
  O  O43  1  0.028076  0.575895  0.688555  1
  O  O44  1  0.475875  0.908901  0.811642  1
  O  O45  1  0.724640  0.164589  0.559489  1
  O  O46  1  0.171065  0.165089  0.559507  1
  O  O47  1  0.928096  0.908101  0.811863  1
  O  O48  1  0.918617  0.477927  0.816582  1
  O  O49  1  0.807116  0.811945  0.925963  1
  O  O50  1  0.057148  0.064892  0.676103  1
  O  O51  1  0.442487  0.443068  0.825434  1
  O  O52  1  0.331574  0.777274  0.932989  1
  O  O53  1  0.580725  0.024854  0.686888  1
  O  O54  1  0.320747  0.337542  0.936316  1
  O  O55  1  0.787739  0.333489  0.934716  1
