# generated using pymatgen
data_Mn6O5F7
_symmetry_space_group_name_H-M   'P 1'
_cell_length_a   4.79419246
_cell_length_b   7.90765769
_cell_length_c   5.74889423
_cell_angle_alpha   95.33274796
_cell_angle_beta   95.21313983
_cell_angle_gamma   87.05711061
_symmetry_Int_Tables_number   1
_chemical_formula_structural   Mn6O5F7
_chemical_formula_sum   'Mn6 O5 F7'
_cell_volume   215.90211494
_cell_formula_units_Z   1
loop_
 _symmetry_equiv_pos_site_id
 _symmetry_equiv_pos_as_xyz
  1  'x, y, z'
loop_
 _atom_site_type_symbol
 _atom_site_label
 _atom_site_symmetry_multiplicity
 _atom_site_fract_x
 _atom_site_fract_y
 _atom_site_fract_z
 _atom_site_occupancy
  Mn  Mn0  1  0.533214  0.011244  0.477601  1
  Mn  Mn1  1  0.515549  0.647714  0.171595  1
  Mn  Mn2  1  0.475510  0.348316  0.830074  1
  Mn  Mn3  1  0.996865  0.669504  0.665447  1
  Mn  Mn4  1  0.988905  0.323012  0.340137  1
  Mn  Mn5  1  0.994958  0.005334  0.012319  1
  O  O6  1  0.830042  0.097552  0.283647  1
  O  O7  1  0.704186  0.761776  0.457972  1
  O  O8  1  0.695343  0.427860  0.125037  1
  O  O9  1  0.298796  0.572283  0.873590  1
  O  O10  1  0.303334  0.238068  0.537909  1
  F  F11  1  0.801858  0.442070  0.637431  1
  F  F12  1  0.799547  0.781110  0.956475  1
  F  F13  1  0.692073  0.120955  0.804505  1
  F  F14  1  0.307629  0.874391  0.195938  1
  F  F15  1  0.177939  0.551478  0.374310  1
  F  F16  1  0.208573  0.217223  0.033470  1
  F  F17  1  0.175680  0.910112  0.722545  1
