# generated using pymatgen
data_LiFe2(PO4)2
_symmetry_space_group_name_H-M   'P 1'
_cell_length_a   10.34140741
_cell_length_b   13.73841789
_cell_length_c   5.18869943
_cell_angle_alpha   90.00000000
_cell_angle_beta   90.00000000
_cell_angle_gamma   90.00000000
_symmetry_Int_Tables_number   1
_chemical_formula_structural   LiFe2(PO4)2
_chemical_formula_sum   'Li4 Fe8 P8 O32'
_cell_volume   737.18227446
_cell_formula_units_Z   4
loop_
 _symmetry_equiv_pos_site_id
 _symmetry_equiv_pos_as_xyz
  1  'x, y, z'
loop_
 _atom_site_type_symbol
 _atom_site_label
 _atom_site_symmetry_multiplicity
 _atom_site_fract_x
 _atom_site_fract_y
 _atom_site_fract_z
 _atom_site_occupancy
  Li  Li0  1  0.212849  0.001757  0.541833  1
  Li  Li1  1  0.287152  0.501757  0.541833  1
  Li  Li2  1  0.712849  0.001757  0.458167  1
  Li  Li3  1  0.787151  0.501757  0.458167  1
  Fe  Fe4  1  0.034375  0.502096  0.918762  1
  Fe  Fe5  1  0.215019  0.749205  0.545680  1
  Fe  Fe6  1  0.284981  0.249205  0.545680  1
  Fe  Fe7  1  0.465625  0.002096  0.918762  1
  Fe  Fe8  1  0.534375  0.502096  0.081238  1
  Fe  Fe9  1  0.715019  0.749205  0.454320  1
  Fe  Fe10  1  0.784981  0.249205  0.454320  1
  Fe  Fe11  1  0.965625  0.002096  0.081238  1
  P  P12  1  0.036289  0.376091  0.435736  1
  P  P13  1  0.217565  0.127935  0.046474  1
  P  P14  1  0.282435  0.627935  0.046474  1
  P  P15  1  0.463711  0.876091  0.435736  1
  P  P16  1  0.536289  0.376091  0.564264  1
  P  P17  1  0.717565  0.127935  0.953526  1
  P  P18  1  0.782435  0.627935  0.953526  1
  P  P19  1  0.963711  0.876091  0.564264  1
  O  O20  1  0.010157  0.397955  0.145912  1
  O  O21  1  0.027568  0.781143  0.486227  1
  O  O22  1  0.027381  0.965304  0.415675  1
  O  O23  1  0.070633  0.108525  0.998654  1
  O  O24  1  0.182994  0.377605  0.496329  1
  O  O25  1  0.241583  0.723473  0.925695  1
  O  O26  1  0.212391  0.539335  0.906683  1
  O  O27  1  0.247587  0.123566  0.339028  1
  O  O28  1  0.252413  0.623566  0.339028  1
  O  O29  1  0.287609  0.039336  0.906683  1
  O  O30  1  0.258417  0.223473  0.925695  1
  O  O31  1  0.317006  0.877605  0.496329  1
  O  O32  1  0.429367  0.608525  0.998654  1
  O  O33  1  0.472619  0.465304  0.415675  1
  O  O34  1  0.472432  0.281143  0.486227  1
  O  O35  1  0.489843  0.897955  0.145912  1
  O  O36  1  0.510157  0.397955  0.854088  1
  O  O37  1  0.527568  0.781143  0.513773  1
  O  O38  1  0.527381  0.965304  0.584325  1
  O  O39  1  0.570633  0.108525  0.001346  1
  O  O40  1  0.682994  0.377605  0.503671  1
  O  O41  1  0.741583  0.723473  0.074305  1
  O  O42  1  0.712391  0.539335  0.093317  1
  O  O43  1  0.747587  0.123566  0.660972  1
  O  O44  1  0.752413  0.623566  0.660972  1
  O  O45  1  0.787609  0.039336  0.093317  1
  O  O46  1  0.758417  0.223473  0.074305  1
  O  O47  1  0.817006  0.877605  0.503671  1
  O  O48  1  0.929367  0.608525  0.001346  1
  O  O49  1  0.972619  0.465304  0.584325  1
  O  O50  1  0.972432  0.281143  0.513773  1
  O  O51  1  0.989843  0.897955  0.854088  1
