# generated using pymatgen
data_Li4Mn2(PO4)3
_symmetry_space_group_name_H-M   'P 1'
_cell_length_a   9.23860998
_cell_length_b   8.56226944
_cell_length_c   8.37664082
_cell_angle_alpha   60.37916270
_cell_angle_beta   64.51513075
_cell_angle_gamma   62.55985350
_symmetry_Int_Tables_number   1
_chemical_formula_structural   Li4Mn2(PO4)3
_chemical_formula_sum   'Li8 Mn4 P6 O24'
_cell_volume   493.29463498
_cell_formula_units_Z   2
loop_
 _symmetry_equiv_pos_site_id
 _symmetry_equiv_pos_as_xyz
  1  'x, y, z'
loop_
 _atom_site_type_symbol
 _atom_site_label
 _atom_site_symmetry_multiplicity
 _atom_site_fract_x
 _atom_site_fract_y
 _atom_site_fract_z
 _atom_site_occupancy
  Li  Li0  1  0.145630  0.662139  0.269293  1
  Li  Li1  1  0.135682  0.267610  0.927297  1
  Li  Li2  1  0.098140  0.941751  0.690740  1
  Li  Li3  1  0.591448  0.205320  0.463375  1
  Li  Li4  1  0.408552  0.794680  0.536625  1
  Li  Li5  1  0.901860  0.058249  0.309260  1
  Li  Li6  1  0.864318  0.732390  0.072703  1
  Li  Li7  1  0.854370  0.337861  0.730707  1
  Mn  Mn8  1  0.033993  0.650279  0.661035  1
  Mn  Mn9  1  0.562767  0.147011  0.136675  1
  Mn  Mn10  1  0.437233  0.852989  0.863325  1
  Mn  Mn11  1  0.966007  0.349721  0.338965  1
  P  P12  1  0.239350  0.253115  0.552398  1
  P  P13  1  0.248432  0.951898  0.262616  1
  P  P14  1  0.247447  0.550108  0.946549  1
  P  P15  1  0.752553  0.449892  0.053451  1
  P  P16  1  0.751568  0.048102  0.737384  1
  P  P17  1  0.760650  0.746885  0.447602  1
  O  O18  1  0.102282  0.150573  0.208723  1
  O  O19  1  0.102238  0.564186  0.132227  1
  O  O20  1  0.094584  0.211964  0.536715  1
  O  O21  1  0.180848  0.467536  0.515721  1
  O  O22  1  0.250578  0.129340  0.759067  1
  O  O23  1  0.407241  0.202441  0.409800  1
  O  O24  1  0.256269  0.852009  0.146986  1
  O  O25  1  0.192476  0.838894  0.481407  1
  O  O26  1  0.184928  0.504402  0.830294  1
  O  O27  1  0.592073  0.605659  0.011221  1
  O  O28  1  0.725969  0.252162  0.177145  1
  O  O29  1  0.585214  0.025739  0.773989  1
  O  O30  1  0.414786  0.974261  0.226011  1
  O  O31  1  0.274031  0.747838  0.822855  1
  O  O32  1  0.407927  0.394341  0.988779  1
  O  O33  1  0.815072  0.495598  0.169706  1
  O  O34  1  0.807524  0.161106  0.518593  1
  O  O35  1  0.743731  0.147991  0.853014  1
  O  O36  1  0.592759  0.797559  0.590200  1
  O  O37  1  0.749422  0.870660  0.240933  1
  O  O38  1  0.819152  0.532463  0.484279  1
  O  O39  1  0.905416  0.788036  0.463285  1
  O  O40  1  0.897762  0.435814  0.867773  1
  O  O41  1  0.897718  0.849427  0.791277  1
