# generated using pymatgen
data_Li3VF6
_symmetry_space_group_name_H-M   'P 1'
_cell_length_a   9.78971106
_cell_length_b   8.56740193
_cell_length_c   5.12429225
_cell_angle_alpha   90.00000000
_cell_angle_beta   90.00000000
_cell_angle_gamma   90.00000000
_symmetry_Int_Tables_number   1
_chemical_formula_structural   Li3VF6
_chemical_formula_sum   'Li12 V4 F24'
_cell_volume   429.78663514
_cell_formula_units_Z   4
loop_
 _symmetry_equiv_pos_site_id
 _symmetry_equiv_pos_as_xyz
  1  'x, y, z'
loop_
 _atom_site_type_symbol
 _atom_site_label
 _atom_site_symmetry_multiplicity
 _atom_site_fract_x
 _atom_site_fract_y
 _atom_site_fract_z
 _atom_site_occupancy
  Li  Li0  1  0.104383  0.451319  0.495830  1
  Li  Li1  1  0.125703  0.853414  0.007560  1
  Li  Li2  1  0.146467  0.048450  0.502497  1
  Li  Li3  1  0.353533  0.548450  0.002497  1
  Li  Li4  1  0.374297  0.353414  0.507560  1
  Li  Li5  1  0.395617  0.951319  0.995830  1
  Li  Li6  1  0.604383  0.048681  0.495830  1
  Li  Li7  1  0.625703  0.646586  0.007560  1
  Li  Li8  1  0.646467  0.451550  0.502497  1
  Li  Li9  1  0.853533  0.951550  0.002497  1
  Li  Li10  1  0.874297  0.146586  0.507560  1
  Li  Li11  1  0.895617  0.548681  0.995830  1
  V  V12  1  0.128142  0.240184  -0.000647  1
  V  V13  1  0.371858  0.740184  0.499353  1
  V  V14  1  0.628142  0.259816  -0.000647  1
  V  V15  1  0.871858  0.759816  0.499353  1
  F  F16  1  0.008812  0.084515  0.819646  1
  F  F17  1  0.020752  0.246698  0.329841  1
  F  F18  1  0.023914  0.408611  0.842652  1
  F  F19  1  0.227456  0.059010  0.147288  1
  F  F20  1  0.240290  0.230331  0.677734  1
  F  F21  1  0.249159  0.388480  0.184810  1
  F  F22  1  0.250841  0.888480  0.684810  1
  F  F23  1  0.259710  0.730331  0.177734  1
  F  F24  1  0.272544  0.559010  0.647288  1
  F  F25  1  0.476086  0.908611  0.342652  1
  F  F26  1  0.479248  0.746698  0.829841  1
  F  F27  1  0.491188  0.584515  0.319646  1
  F  F28  1  0.508812  0.415485  0.819646  1
  F  F29  1  0.520752  0.253302  0.329841  1
  F  F30  1  0.523914  0.091389  0.842652  1
  F  F31  1  0.727456  0.440990  0.147288  1
  F  F32  1  0.740290  0.269669  0.677734  1
  F  F33  1  0.749159  0.111520  0.184810  1
  F  F34  1  0.750841  0.611520  0.684810  1
  F  F35  1  0.759710  0.769669  0.177734  1
  F  F36  1  0.772544  0.940990  0.647288  1
  F  F37  1  0.976086  0.591389  0.342652  1
  F  F38  1  0.979248  0.753302  0.829841  1
  F  F39  1  0.991188  0.915485  0.319646  1
