# generated using pymatgen
data_Li2MnPCO7
_symmetry_space_group_name_H-M   'P 1'
_cell_length_a   8.46801415
_cell_length_b   10.03582135
_cell_length_c   6.44506921
_cell_angle_alpha   90.00000000
_cell_angle_beta   90.00000000
_cell_angle_gamma   86.42513324
_symmetry_Int_Tables_number   1
_chemical_formula_structural   Li2MnPCO7
_chemical_formula_sum   'Li8 Mn4 P4 C4 O28'
_cell_volume   546.65861677
_cell_formula_units_Z   4
loop_
 _symmetry_equiv_pos_site_id
 _symmetry_equiv_pos_as_xyz
  1  'x, y, z'
loop_
 _atom_site_type_symbol
 _atom_site_label
 _atom_site_symmetry_multiplicity
 _atom_site_fract_x
 _atom_site_fract_y
 _atom_site_fract_z
 _atom_site_occupancy
  Li  Li0  1  0.265758  0.128812  0.036682  1
  Li  Li1  1  0.261917  0.126675  0.463890  1
  Li  Li2  1  0.261917  0.626675  0.036110  1
  Li  Li3  1  0.265758  0.628812  0.463318  1
  Li  Li4  1  0.730438  0.371719  0.963427  1
  Li  Li5  1  0.730438  0.871719  0.536573  1
  Li  Li6  1  0.891375  0.110837  0.756006  1
  Li  Li7  1  0.891375  0.610837  0.743994  1
  Mn  Mn8  1  0.335700  0.403709  0.745688  1
  Mn  Mn9  1  0.335700  0.903709  0.754312  1
  Mn  Mn10  1  0.677157  0.094689  0.248859  1
  Mn  Mn11  1  0.677157  0.594689  0.251141  1
  P  P12  1  0.416709  0.366885  0.242985  1
  P  P13  1  0.416709  0.866885  0.257015  1
  P  P14  1  0.583402  0.141319  0.753233  1
  P  P15  1  0.583402  0.641319  0.746767  1
  C  C16  1  0.044726  0.354944  0.758034  1
  C  C17  1  0.044726  0.854944  0.741966  1
  C  C18  1  0.959521  0.137027  0.251080  1
  C  C19  1  0.959521  0.637027  0.248920  1
  O  O20  1  0.069910  0.480072  0.749250  1
  O  O21  1  0.100700  0.172371  0.246901  1
  O  O22  1  0.069910  0.980072  0.750750  1
  O  O23  1  0.174857  0.270988  0.742678  1
  O  O24  1  0.100700  0.672371  0.253099  1
  O  O25  1  0.174857  0.770988  0.757322  1
  O  O26  1  0.314136  0.418457  0.055204  1
  O  O27  1  0.327844  0.424358  0.437410  1
  O  O28  1  0.327844  0.924358  0.062590  1
  O  O29  1  0.314136  0.918457  0.444796  1
  O  O30  1  0.416369  0.082455  0.748491  1
  O  O31  1  0.434883  0.211798  0.248553  1
  O  O32  1  0.416369  0.582455  0.751509  1
  O  O33  1  0.434883  0.711798  0.251447  1
  O  O34  1  0.553329  0.293800  0.760721  1
  O  O35  1  0.583830  0.420854  0.225037  1
  O  O36  1  0.553329  0.793800  0.739279  1
  O  O37  1  0.583830  0.920854  0.274963  1
  O  O38  1  0.685624  0.092836  0.938808  1
  O  O39  1  0.687200  0.090601  0.568025  1
  O  O40  1  0.685624  0.592836  0.561192  1
  O  O41  1  0.687200  0.590601  0.931975  1
  O  O42  1  0.837609  0.227316  0.233775  1
  O  O43  1  0.912113  0.306107  0.781507  1
  O  O44  1  0.837609  0.727316  0.266225  1
  O  O45  1  0.918671  0.016538  0.271939  1
  O  O46  1  0.912113  0.806107  0.718493  1
  O  O47  1  0.918671  0.516538  0.228061  1
