# generated using pymatgen
data_LiCu4(PO4)3
_symmetry_space_group_name_H-M   'P 1'
_cell_length_a   9.94626536
_cell_length_b   8.31112505
_cell_length_c   6.22210258
_cell_angle_alpha   68.01747890
_cell_angle_beta   90.00000000
_cell_angle_gamma   90.00000000
_symmetry_Int_Tables_number   1
_chemical_formula_structural   LiCu4(PO4)3
_chemical_formula_sum   'Li2 Cu8 P6 O24'
_cell_volume   476.95388524
_cell_formula_units_Z   2
loop_
 _symmetry_equiv_pos_site_id
 _symmetry_equiv_pos_as_xyz
  1  'x, y, z'
loop_
 _atom_site_type_symbol
 _atom_site_label
 _atom_site_symmetry_multiplicity
 _atom_site_fract_x
 _atom_site_fract_y
 _atom_site_fract_z
 _atom_site_occupancy
  Li  Li0  1  0.244350  0.973472  0.013264  1
  Li  Li1  1  0.744350  0.026528  0.986736  1
  Cu  Cu2  1  0.063808  0.761305  0.619348  1
  Cu  Cu3  1  0.248535  0.395651  0.055504  1
  Cu  Cu4  1  0.248535  0.395651  0.548844  1
  Cu  Cu5  1  0.447233  0.738880  0.630560  1
  Cu  Cu6  1  0.563808  0.238695  0.380652  1
  Cu  Cu7  1  0.748535  0.604349  0.451156  1
  Cu  Cu8  1  0.748535  0.604349  0.944496  1
  Cu  Cu9  1  0.947233  0.261120  0.369440  1
  P  P10  1  0.033468  0.633616  0.183192  1
  P  P11  1  0.294178  0.040321  0.479840  1
  P  P12  1  0.466222  0.630318  0.184841  1
  P  P13  1  0.533468  0.366384  0.816808  1
  P  P14  1  0.794178  0.959679  0.520160  1
  P  P15  1  0.966222  0.369682  0.815159  1
  O  O16  1  0.075902  0.736834  0.326983  1
  O  O17  1  0.075902  0.736834  0.936183  1
  O  O18  1  0.107950  0.446501  0.276749  1
  O  O19  1  0.119156  0.426627  0.786687  1
  O  O20  1  0.241796  0.124717  0.228013  1
  O  O21  1  0.256227  0.842940  0.578530  1
  O  O22  1  0.241796  0.124717  0.647270  1
  O  O23  1  0.379675  0.416741  0.791629  1
  O  O24  1  0.382819  0.452489  0.273755  1
  O  O25  1  0.430722  0.738192  0.326588  1
  O  O26  1  0.430722  0.738192  0.935220  1
  O  O27  1  0.451234  0.028080  0.485960  1
  O  O28  1  0.575902  0.263166  0.063817  1
  O  O29  1  0.575902  0.263166  0.673017  1
  O  O30  1  0.607950  0.553499  0.723251  1
  O  O31  1  0.619156  0.573373  0.213313  1
  O  O32  1  0.756227  0.157060  0.421470  1
  O  O33  1  0.741796  0.875283  0.352730  1
  O  O34  1  0.741796  0.875283  0.771987  1
  O  O35  1  0.879675  0.583259  0.208371  1
  O  O36  1  0.882819  0.547511  0.726245  1
  O  O37  1  0.930722  0.261808  0.673412  1
  O  O38  1  0.930722  0.261808  0.064780  1
  O  O39  1  0.951234  0.971920  0.514040  1
