# generated using pymatgen
data_SnSb2H24C8(SCl)2
_symmetry_space_group_name_H-M   'P 1'
_cell_length_a   9.48426628
_cell_length_b   10.29394711
_cell_length_c   10.56562636
_cell_angle_alpha   90.00000000
_cell_angle_beta   98.97077814
_cell_angle_gamma   90.00000000
_symmetry_Int_Tables_number   1
_chemical_formula_structural   SnSb2H24C8(SCl)2
_chemical_formula_sum   'Sn2 Sb4 H48 C16 S4 Cl4'
_cell_volume   1018.91010726
_cell_formula_units_Z   2
loop_
 _symmetry_equiv_pos_site_id
 _symmetry_equiv_pos_as_xyz
  1  'x, y, z'
loop_
 _atom_site_type_symbol
 _atom_site_label
 _atom_site_symmetry_multiplicity
 _atom_site_fract_x
 _atom_site_fract_y
 _atom_site_fract_z
 _atom_site_occupancy
  Sn  Sn0  1  0.000000  0.000000  0.000000  1
  Sn  Sn1  1  0.500000  0.500000  0.500000  1
  Sb  Sb2  1  0.201435  0.652005  0.945463  1
  Sb  Sb3  1  0.298565  0.152005  0.554537  1
  Sb  Sb4  1  0.701435  0.847995  0.445463  1
  Sb  Sb5  1  0.798565  0.347995  0.054537  1
  H  H6  1  0.023889  0.702048  0.726283  1
  H  H7  1  0.059236  0.197369  0.655430  1
  H  H8  1  0.041969  0.265029  0.495645  1
  H  H9  1  0.027716  0.448281  0.205248  1
  H  H10  1  0.122687  0.553530  0.709639  1
  H  H11  1  0.145689  0.349147  0.628701  1
  H  H12  1  0.178686  0.915484  0.544023  1
  H  H13  1  0.160275  0.982027  0.383835  1
  H  H14  1  0.215461  0.539046  0.481690  1
  H  H15  1  0.321314  0.415484  0.955977  1
  H  H16  1  0.171478  0.413097  0.040823  1
  H  H17  1  0.200851  0.184968  0.064598  1
  H  H18  1  0.233591  0.051840  0.175792  1
  H  H19  1  0.266409  0.551840  0.324208  1
  H  H20  1  0.354311  0.849147  0.871299  1
  H  H21  1  0.299149  0.684969  0.435402  1
  H  H22  1  0.328522  0.913097  0.459177  1
  H  H23  1  0.377313  0.053530  0.790361  1
  H  H24  1  0.284539  0.039046  0.018310  1
  H  H25  1  0.458031  0.765029  0.004355  1
  H  H26  1  0.440764  0.697369  0.844570  1
  H  H27  1  0.339725  0.482027  0.116165  1
  H  H28  1  0.476111  0.202048  0.773717  1
  H  H29  1  0.527716  0.051719  0.705248  1
  H  H30  1  0.472284  0.948281  0.294752  1
  H  H31  1  0.523889  0.797952  0.226283  1
  H  H32  1  0.660275  0.517973  0.883835  1
  H  H33  1  0.559236  0.302631  0.155430  1
  H  H34  1  0.541969  0.234971  0.995645  1
  H  H35  1  0.715461  0.960954  0.981690  1
  H  H36  1  0.622687  0.946470  0.209639  1
  H  H37  1  0.671478  0.086903  0.540823  1
  H  H38  1  0.700851  0.315032  0.564598  1
  H  H39  1  0.645689  0.150853  0.128701  1
  H  H40  1  0.733591  0.448160  0.675792  1
  H  H41  1  0.766409  0.948160  0.824208  1
  H  H42  1  0.799149  0.815031  0.935402  1
  H  H43  1  0.828522  0.586903  0.959177  1
  H  H44  1  0.678686  0.584516  0.044023  1
  H  H45  1  0.784539  0.460954  0.518310  1
  H  H46  1  0.839725  0.017973  0.616165  1
  H  H47  1  0.821314  0.084516  0.455977  1
  H  H48  1  0.854311  0.650853  0.371299  1
  H  H49  1  0.877313  0.446470  0.290361  1
  H  H50  1  0.972284  0.551719  0.794752  1
  H  H51  1  0.958031  0.734971  0.504355  1
  H  H52  1  0.940764  0.802631  0.344570  1
  H  H53  1  0.976111  0.297952  0.273717  1
  C  C54  1  0.061110  0.609510  0.770459  1
  C  C55  1  0.111174  0.254402  0.588212  1
  C  C56  1  0.232793  0.966612  0.474246  1
  C  C57  1  0.207447  0.079239  0.074693  1
  C  C58  1  0.292553  0.579239  0.425307  1
  C  C59  1  0.388826  0.754402  0.911788  1
  C  C60  1  0.267207  0.466612  0.025754  1
  C  C61  1  0.438890  0.109510  0.729541  1
  C  C62  1  0.561110  0.890490  0.270459  1
  C  C63  1  0.732793  0.533388  0.974246  1
  C  C64  1  0.611174  0.245598  0.088212  1
  C  C65  1  0.707447  0.420761  0.574693  1
  C  C66  1  0.792553  0.920761  0.925307  1
  C  C67  1  0.767207  0.033388  0.525754  1
  C  C68  1  0.888826  0.745598  0.411788  1
  C  C69  1  0.938890  0.390490  0.229541  1
  S  S70  1  0.087351  0.756011  0.097753  1
  S  S71  1  0.412649  0.256011  0.402247  1
  S  S72  1  0.587351  0.743989  0.597753  1
  S  S73  1  0.912649  0.243989  0.902247  1
  Cl  Cl74  1  0.087205  0.954519  0.778668  1
  Cl  Cl75  1  0.412795  0.454519  0.721332  1
  Cl  Cl76  1  0.587205  0.545481  0.278668  1
  Cl  Cl77  1  0.912795  0.045481  0.221332  1
