# generated using pymatgen
data_ZnH16C4S4(N5O3)2
_symmetry_space_group_name_H-M   'P 1'
_cell_length_a   23.88194129
_cell_length_b   9.91191598
_cell_length_c   8.88284223
_cell_angle_alpha   90.00000000
_cell_angle_beta   90.00000000
_cell_angle_gamma   90.00000000
_symmetry_Int_Tables_number   1
_chemical_formula_structural   ZnH16C4S4(N5O3)2
_chemical_formula_sum   'Zn4 H64 C16 S16 N40 O24'
_cell_volume   2102.70906483
_cell_formula_units_Z   4
loop_
 _symmetry_equiv_pos_site_id
 _symmetry_equiv_pos_as_xyz
  1  'x, y, z'
loop_
 _atom_site_type_symbol
 _atom_site_label
 _atom_site_symmetry_multiplicity
 _atom_site_fract_x
 _atom_site_fract_y
 _atom_site_fract_z
 _atom_site_occupancy
  Zn  Zn0  1  0.478082  0.750000  0.750000  1
  Zn  Zn1  1  0.021918  0.250000  0.250000  1
  Zn  Zn2  1  0.521918  0.250000  0.250000  1
  Zn  Zn3  1  0.978082  0.750000  0.750000  1
  H  H4  1  0.691686  0.113219  0.786321  1
  H  H5  1  0.691686  0.386781  0.713679  1
  H  H6  1  0.808314  0.886781  0.286321  1
  H  H7  1  0.808314  0.613219  0.213679  1
  H  H8  1  0.308314  0.886781  0.213679  1
  H  H9  1  0.308314  0.613219  0.286321  1
  H  H10  1  0.191686  0.113219  0.713679  1
  H  H11  1  0.191686  0.386781  0.786321  1
  H  H12  1  0.631707  0.161639  0.889494  1
  H  H13  1  0.631707  0.338361  0.610506  1
  H  H14  1  0.868293  0.838361  0.389494  1
  H  H15  1  0.868293  0.661639  0.110506  1
  H  H16  1  0.368293  0.838361  0.110506  1
  H  H17  1  0.368293  0.661639  0.389494  1
  H  H18  1  0.131707  0.161639  0.610506  1
  H  H19  1  0.131707  0.338361  0.889494  1
  H  H20  1  0.625718  0.842032  0.601451  1
  H  H21  1  0.625718  0.657968  0.898549  1
  H  H22  1  0.874282  0.157968  0.101451  1
  H  H23  1  0.874282  0.342032  0.398549  1
  H  H24  1  0.374282  0.157968  0.398549  1
  H  H25  1  0.374282  0.342032  0.101451  1
  H  H26  1  0.125718  0.842032  0.898549  1
  H  H27  1  0.125718  0.657968  0.601451  1
  H  H28  1  0.689365  0.919254  0.634239  1
  H  H29  1  0.689365  0.580746  0.865761  1
  H  H30  1  0.810635  0.080746  0.134239  1
  H  H31  1  0.810635  0.419254  0.365761  1
  H  H32  1  0.310635  0.080746  0.365761  1
  H  H33  1  0.310635  0.419254  0.134239  1
  H  H34  1  0.189365  0.919254  0.865761  1
  H  H35  1  0.189365  0.580746  0.634239  1
  H  H36  1  0.421643  0.357674  0.704713  1
  H  H37  1  0.421643  0.142326  0.795287  1
  H  H38  1  0.078357  0.642326  0.204713  1
  H  H39  1  0.078357  0.857674  0.295287  1
  H  H40  1  0.578357  0.642326  0.295287  1
  H  H41  1  0.578357  0.857674  0.204713  1
  H  H42  1  0.921643  0.357674  0.795287  1
  H  H43  1  0.921643  0.142326  0.704713  1
  H  H44  1  0.439273  0.401985  0.754291  1
  H  H45  1  0.439273  0.098015  0.745709  1
  H  H46  1  0.060727  0.598015  0.254291  1
  H  H47  1  0.060727  0.901985  0.245709  1
  H  H48  1  0.560727  0.598015  0.245709  1
  H  H49  1  0.560727  0.901985  0.254291  1
  H  H50  1  0.939273  0.401985  0.745709  1
  H  H51  1  0.939273  0.098015  0.754291  1
  H  H52  1  0.300900  0.633531  0.879191  1
  H  H53  1  0.300900  0.866469  0.620809  1
  H  H54  1  0.199100  0.366469  0.379191  1
  H  H55  1  0.199100  0.133531  0.120809  1
  H  H56  1  0.699100  0.366469  0.120809  1
  H  H57  1  0.699100  0.133531  0.379191  1
  H  H58  1  0.800900  0.633531  0.620809  1
  H  H59  1  0.800900  0.866469  0.879191  1
  H  H60  1  0.315360  0.505829  0.743433  1
  H  H61  1  0.315360  0.994171  0.756567  1
  H  H62  1  0.184640  0.494171  0.243433  1
  H  H63  1  0.184640  0.005829  0.256567  1
  H  H64  1  0.684640  0.494171  0.256567  1
  H  H65  1  0.684640  0.005829  0.243433  1
  H  H66  1  0.815360  0.505829  0.756567  1
  H  H67  1  0.815360  0.994171  0.743433  1
  C  C68  1  0.383062  0.597009  0.842442  1
  C  C69  1  0.383062  0.902991  0.657558  1
  C  C70  1  0.116938  0.402991  0.342442  1
  C  C71  1  0.116938  0.097009  0.157558  1
  C  C72  1  0.616938  0.402991  0.157558  1
  C  C73  1  0.616938  0.097009  0.342442  1
  C  C74  1  0.883062  0.597009  0.657558  1
  C  C75  1  0.883062  0.902991  0.842442  1
  C  C76  1  0.621828  0.997500  0.753097  1
  C  C77  1  0.621828  0.502500  0.746903  1
  C  C78  1  0.878172  0.002500  0.253097  1
  C  C79  1  0.878172  0.497500  0.246903  1
  C  C80  1  0.378172  0.002500  0.246903  1
  C  C81  1  0.378172  0.497500  0.253097  1
  C  C82  1  0.121828  0.997500  0.746903  1
  C  C83  1  0.121828  0.502500  0.753097  1
  S  S84  1  0.422925  0.681101  0.958632  1
  S  S85  1  0.422925  0.818899  0.541368  1
  S  S86  1  0.077075  0.318899  0.458632  1
  S  S87  1  0.077075  0.181101  0.041368  1
  S  S88  1  0.577075  0.318899  0.041368  1
  S  S89  1  0.577075  0.181101  0.458632  1
  S  S90  1  0.922925  0.681101  0.541368  1
  S  S91  1  0.922925  0.818899  0.958632  1
  S  S92  1  0.532225  0.906362  0.892148  1
  S  S93  1  0.532225  0.593638  0.607852  1
  S  S94  1  0.967775  0.093638  0.392148  1
  S  S95  1  0.967775  0.406362  0.107852  1
  S  S96  1  0.467775  0.093638  0.107852  1
  S  S97  1  0.467775  0.406362  0.392148  1
  S  S98  1  0.032225  0.906362  0.607852  1
  S  S99  1  0.032225  0.593638  0.892148  1
  N  N100  1  0.651764  0.093677  0.822198  1
  N  N101  1  0.651764  0.406323  0.677802  1
  N  N102  1  0.848236  0.906323  0.322198  1
  N  N103  1  0.848236  0.593677  0.177802  1
  N  N104  1  0.348236  0.906323  0.177802  1
  N  N105  1  0.348236  0.593677  0.322198  1
  N  N106  1  0.151764  0.093677  0.677802  1
  N  N107  1  0.151764  0.406323  0.822198  1
  N  N108  1  0.648102  0.911109  0.661680  1
  N  N109  1  0.648102  0.588891  0.838320  1
  N  N110  1  0.851898  0.088891  0.161680  1
  N  N111  1  0.851898  0.411109  0.338320  1
  N  N112  1  0.351898  0.088891  0.338320  1
  N  N113  1  0.351898  0.411109  0.161680  1
  N  N114  1  0.148102  0.911109  0.838320  1
  N  N115  1  0.148102  0.588891  0.661680  1
  N  N116  1  0.565033  0.510424  0.738119  1
  N  N117  1  0.565033  0.989576  0.761881  1
  N  N118  1  0.934967  0.489576  0.238119  1
  N  N119  1  0.934967  0.010424  0.261881  1
  N  N120  1  0.434967  0.489576  0.261881  1
  N  N121  1  0.434967  0.010424  0.238119  1
  N  N122  1  0.065033  0.510424  0.761881  1
  N  N123  1  0.065033  0.989576  0.738119  1
  N  N124  1  0.330651  0.578168  0.818279  1
  N  N125  1  0.330651  0.921832  0.681721  1
  N  N126  1  0.169349  0.421832  0.318279  1
  N  N127  1  0.169349  0.078168  0.181721  1
  N  N128  1  0.669349  0.421832  0.181721  1
  N  N129  1  0.669349  0.078168  0.318279  1
  N  N130  1  0.830651  0.578168  0.681721  1
  N  N131  1  0.830651  0.921832  0.818279  1
  N  N132  1  0.780914  0.318472  0.935784  1
  N  N133  1  0.780914  0.181528  0.564216  1
  N  N134  1  0.719086  0.681528  0.435784  1
  N  N135  1  0.719086  0.818472  0.064216  1
  N  N136  1  0.219086  0.681528  0.064216  1
  N  N137  1  0.219086  0.818472  0.435784  1
  N  N138  1  0.280914  0.318472  0.564216  1
  N  N139  1  0.280914  0.181528  0.935784  1
  O  O140  1  0.760649  0.404904  0.842247  1
  O  O141  1  0.760649  0.095096  0.657753  1
  O  O142  1  0.739351  0.595096  0.342247  1
  O  O143  1  0.739351  0.904904  0.157753  1
  O  O144  1  0.239351  0.595096  0.157753  1
  O  O145  1  0.239351  0.904904  0.342247  1
  O  O146  1  0.260649  0.404904  0.657753  1
  O  O147  1  0.260649  0.095096  0.842247  1
  O  O148  1  0.832263  0.295125  0.937307  1
  O  O149  1  0.832263  0.204875  0.562693  1
  O  O150  1  0.667737  0.704875  0.437307  1
  O  O151  1  0.667737  0.795125  0.062693  1
  O  O152  1  0.167737  0.704875  0.062693  1
  O  O153  1  0.167737  0.795125  0.437307  1
  O  O154  1  0.332263  0.295125  0.562693  1
  O  O155  1  0.332263  0.204875  0.937307  1
  O  O156  1  0.747379  0.258541  0.025721  1
  O  O157  1  0.747379  0.241459  0.474279  1
  O  O158  1  0.752621  0.741459  0.525721  1
  O  O159  1  0.752621  0.758541  0.974279  1
  O  O160  1  0.252621  0.741459  0.974279  1
  O  O161  1  0.252621  0.758541  0.525721  1
  O  O162  1  0.247379  0.258541  0.474279  1
  O  O163  1  0.247379  0.241459  0.025721  1
