# generated using pymatgen
data_Na5Ni2P2(CO7)2
_symmetry_space_group_name_H-M   'P 1'
_cell_length_a   8.88201651
_cell_length_b   5.25091671
_cell_length_c   13.22588522
_cell_angle_alpha   90.02679700
_cell_angle_beta   90.13314043
_cell_angle_gamma   88.07818472
_symmetry_Int_Tables_number   1
_chemical_formula_structural   Na5Ni2P2(CO7)2
_chemical_formula_sum   'Na10 Ni4 P4 C4 O28'
_cell_volume   616.48980473
_cell_formula_units_Z   2
loop_
 _symmetry_equiv_pos_site_id
 _symmetry_equiv_pos_as_xyz
  1  'x, y, z'
loop_
 _atom_site_type_symbol
 _atom_site_label
 _atom_site_symmetry_multiplicity
 _atom_site_fract_x
 _atom_site_fract_y
 _atom_site_fract_z
 _atom_site_occupancy
  Na  Na0  1  0.079427  0.772078  0.129265  1
  Na  Na1  1  0.274331  0.257885  0.004787  1
  Na  Na2  1  0.275251  0.256967  0.244297  1
  Na  Na3  1  0.265936  0.253134  0.506831  1
  Na  Na4  1  0.265876  0.253819  0.743710  1
  Na  Na5  1  0.728057  0.747342  0.487508  1
  Na  Na6  1  0.732335  0.745539  0.754447  1
  Na  Na7  1  0.728976  0.743748  0.000322  1
  Na  Na8  1  0.917184  0.223925  0.875089  1
  Na  Na9  1  0.910563  0.218100  0.367576  1
  Ni  Ni10  1  0.344126  0.775542  0.374878  1
  Ni  Ni11  1  0.345124  0.777880  0.875270  1
  Ni  Ni12  1  0.657667  0.219657  0.129468  1
  Ni  Ni13  1  0.655535  0.222741  0.624310  1
  P  P14  1  0.421297  0.720966  0.125980  1
  P  P15  1  0.422269  0.719517  0.624586  1
  P  P16  1  0.577912  0.282700  0.375133  1
  P  P17  1  0.581873  0.281052  0.875217  1
  C  C18  1  0.067320  0.708065  0.377552  1
  C  C19  1  0.062918  0.711592  0.874753  1
  C  C20  1  0.931144  0.288666  0.624734  1
  C  C21  1  0.939677  0.288266  0.122445  1
  O  O22  1  0.083551  0.316164  0.124546  1
  O  O23  1  0.071659  0.314186  0.625046  1
  O  O24  1  0.126743  0.933501  0.373948  1
  O  O25  1  0.120590  0.936281  0.875999  1
  O  O26  1  0.163269  0.513591  0.374773  1
  O  O27  1  0.156865  0.515129  0.874190  1
  O  O28  1  0.324162  0.788313  0.530646  1
  O  O29  1  0.316752  0.787774  0.033291  1
  O  O30  1  0.318752  0.790227  0.218746  1
  O  O31  1  0.325645  0.790751  0.718049  1
  O  O32  1  0.430301  0.136207  0.375725  1
  O  O33  1  0.431899  0.140502  0.874278  1
  O  O34  1  0.456304  0.427502  0.125323  1
  O  O35  1  0.459684  0.424874  0.625261  1
  O  O36  1  0.534808  0.574050  0.379078  1
  O  O37  1  0.546567  0.575163  0.875022  1
  O  O38  1  0.572477  0.861439  0.623511  1
  O  O39  1  0.566067  0.869607  0.123929  1
  O  O40  1  0.682021  0.209795  0.781978  1
  O  O41  1  0.681600  0.210035  0.968516  1
  O  O42  1  0.677056  0.225969  0.281897  1
  O  O43  1  0.680707  0.214902  0.467433  1
  O  O44  1  0.845667  0.482370  0.121317  1
  O  O45  1  0.833136  0.479861  0.624536  1
  O  O46  1  0.869887  0.066713  0.624815  1
  O  O47  1  0.882994  0.062972  0.122969  1
  O  O48  1  0.919319  0.684395  0.875990  1
  O  O49  1  0.926395  0.682605  0.381108  1
