# generated using pymatgen
data_CuH16C4(N5O)2
_symmetry_space_group_name_H-M   'P 1'
_cell_length_a   7.24181436
_cell_length_b   22.53060343
_cell_length_c   7.14899407
_cell_angle_alpha   89.99997178
_cell_angle_beta   89.99995127
_cell_angle_gamma   89.99993939
_symmetry_Int_Tables_number   1
_chemical_formula_structural   CuH16C4(N5O)2
_chemical_formula_sum   'Cu4 H64 C16 N40 O8'
_cell_volume   1166.44736933
_cell_formula_units_Z   4
loop_
 _symmetry_equiv_pos_site_id
 _symmetry_equiv_pos_as_xyz
  1  'x, y, z'
loop_
 _atom_site_type_symbol
 _atom_site_label
 _atom_site_symmetry_multiplicity
 _atom_site_fract_x
 _atom_site_fract_y
 _atom_site_fract_z
 _atom_site_occupancy
  Cu  Cu0  1  0.000013  0.000001  0.999994  1
  Cu  Cu1  1  0.000001  0.499999  0.500001  1
  Cu  Cu2  1  0.499999  -0.000001  0.500000  1
  Cu  Cu3  1  0.500003  0.500001  0.000003  1
  H  H4  1  0.046042  0.784027  0.139730  1
  H  H5  1  0.046043  0.715973  0.639731  1
  H  H6  1  0.038652  0.638001  0.084056  1
  H  H7  1  0.038651  0.861999  0.584056  1
  H  H8  1  0.072172  0.564419  0.149796  1
  H  H9  1  0.072172  0.935581  0.649796  1
  H  H10  1  0.147796  0.179088  0.789081  1
  H  H11  1  0.147796  0.320913  0.289081  1
  H  H12  1  0.178833  0.084556  0.836386  1
  H  H13  1  0.178832  0.415444  0.336387  1
  H  H14  1  0.162096  0.000844  0.369973  1
  H  H15  1  0.162096  0.499156  0.869974  1
  H  H16  1  0.218481  0.691966  0.302097  1
  H  H17  1  0.218481  0.808034  0.802097  1
  H  H18  1  0.200866  0.204855  0.099096  1
  H  H19  1  0.200867  0.295145  0.599096  1
  H  H20  1  0.299133  0.704855  0.099097  1
  H  H21  1  0.299133  0.795145  0.599097  1
  H  H22  1  0.281518  0.191966  0.302097  1
  H  H23  1  0.281518  0.308034  0.802096  1
  H  H24  1  0.337904  0.500844  0.369974  1
  H  H25  1  0.337904  0.999157  0.869973  1
  H  H26  1  0.321167  0.584556  0.836387  1
  H  H27  1  0.321168  0.915444  0.336387  1
  H  H28  1  0.352204  0.679087  0.789081  1
  H  H29  1  0.352204  0.820913  0.289081  1
  H  H30  1  0.427827  0.064419  0.149796  1
  H  H31  1  0.427828  0.435581  0.649796  1
  H  H32  1  0.461349  0.138001  0.084056  1
  H  H33  1  0.461348  0.361999  0.584057  1
  H  H34  1  0.453957  0.284027  0.139731  1
  H  H35  1  0.453957  0.215973  0.639730  1
  H  H36  1  0.546043  0.784027  0.360270  1
  H  H37  1  0.546043  0.715973  0.860270  1
  H  H38  1  0.538651  0.638001  0.415943  1
  H  H39  1  0.538651  0.861999  0.915944  1
  H  H40  1  0.572172  0.935581  0.850204  1
  H  H41  1  0.572172  0.564419  0.350204  1
  H  H42  1  0.647796  0.320913  0.210919  1
  H  H43  1  0.647796  0.179087  0.710919  1
  H  H44  1  0.678832  0.084556  0.663614  1
  H  H45  1  0.678832  0.415444  0.163613  1
  H  H46  1  0.662096  0.000844  0.130026  1
  H  H47  1  0.662095  0.499156  0.630027  1
  H  H48  1  0.718481  0.691966  0.197903  1
  H  H49  1  0.718481  0.808034  0.697904  1
  H  H50  1  0.700866  0.295145  0.900904  1
  H  H51  1  0.700866  0.204855  0.400904  1
  H  H52  1  0.799134  0.704855  0.400904  1
  H  H53  1  0.799133  0.795145  0.900903  1
  H  H54  1  0.781518  0.308034  0.697903  1
  H  H55  1  0.781518  0.191965  0.197903  1
  H  H56  1  0.837903  0.500844  0.130027  1
  H  H57  1  0.837904  0.999156  0.630027  1
  H  H58  1  0.821167  0.584556  0.663614  1
  H  H59  1  0.821168  0.915444  0.163613  1
  H  H60  1  0.852204  0.679087  0.710918  1
  H  H61  1  0.852203  0.820913  0.210919  1
  H  H62  1  0.927827  0.064419  0.350204  1
  H  H63  1  0.927828  0.435581  0.850204  1
  H  H64  1  0.961349  0.138002  0.415944  1
  H  H65  1  0.961348  0.361999  0.915944  1
  H  H66  1  0.953957  0.284027  0.360269  1
  H  H67  1  0.953957  0.215973  0.860270  1
  C  C68  1  0.040441  0.627331  0.576314  1
  C  C69  1  0.040442  0.872669  0.076311  1
  C  C70  1  0.188213  0.084031  0.450905  1
  C  C71  1  0.188214  0.415969  0.950904  1
  C  C72  1  0.311787  0.584031  0.450904  1
  C  C73  1  0.311786  0.915969  0.950904  1
  C  C74  1  0.459558  0.127330  0.576313  1
  C  C75  1  0.459559  0.372670  0.076313  1
  C  C76  1  0.540440  0.872669  0.423687  1
  C  C77  1  0.540440  0.627330  0.923687  1
  C  C78  1  0.688215  0.084031  0.049097  1
  C  C79  1  0.688214  0.415970  0.549096  1
  C  C80  1  0.811787  0.584031  0.049096  1
  C  C81  1  0.811786  0.915969  0.549096  1
  C  C82  1  0.959559  0.127330  0.923688  1
  C  C83  1  0.959560  0.372670  0.423686  1
  N  N84  1  0.005480  0.094988  0.420623  1
  N  N85  1  0.005479  0.405013  0.920622  1
  N  N86  1  0.043597  0.181383  0.886021  1
  N  N87  1  0.043595  0.318618  0.386020  1
  N  N88  1  0.052232  0.077327  0.895928  1
  N  N89  1  0.052232  0.422671  0.395927  1
  N  N90  1  0.215264  0.632290  0.510581  1
  N  N91  1  0.215266  0.867711  0.010580  1
  N  N92  1  0.241701  0.530127  0.421004  1
  N  N93  1  0.241699  0.969873  0.921005  1
  N  N94  1  0.258299  0.030127  0.421004  1
  N  N95  1  0.258297  0.469873  0.921004  1
  N  N96  1  0.284733  0.132290  0.510579  1
  N  N97  1  0.284734  0.367710  0.010580  1
  N  N98  1  0.447766  0.577327  0.895926  1
  N  N99  1  0.447767  0.922671  0.395928  1
  N  N100  1  0.456403  0.681382  0.886021  1
  N  N101  1  0.456403  0.818618  0.386021  1
  N  N102  1  0.494520  0.594987  0.420622  1
  N  N103  1  0.494521  0.905013  0.920623  1
  N  N104  1  0.505481  0.094988  0.079377  1
  N  N105  1  0.505480  0.405013  0.579378  1
  N  N106  1  0.543596  0.318618  0.113978  1
  N  N107  1  0.543597  0.181382  0.613978  1
  N  N108  1  0.552234  0.422673  0.104073  1
  N  N109  1  0.552232  0.077328  0.604072  1
  N  N110  1  0.715267  0.632289  0.989421  1
  N  N111  1  0.715267  0.867710  0.489420  1
  N  N112  1  0.741703  0.530127  0.078996  1
  N  N113  1  0.741700  0.969873  0.578996  1
  N  N114  1  0.758299  0.030127  0.078995  1
  N  N115  1  0.758299  0.469873  0.578996  1
  N  N116  1  0.784736  0.132290  0.989420  1
  N  N117  1  0.784736  0.367711  0.489420  1
  N  N118  1  0.947766  0.577327  0.604073  1
  N  N119  1  0.947767  0.922673  0.104073  1
  N  N120  1  0.956403  0.681382  0.613980  1
  N  N121  1  0.956405  0.818617  0.113980  1
  N  N122  1  0.994520  0.905013  0.579378  1
  N  N123  1  0.994521  0.594987  0.079377  1
  O  O124  1  0.192029  0.712638  0.182472  1
  O  O125  1  0.192029  0.787362  0.682471  1
  O  O126  1  0.307971  0.212638  0.182472  1
  O  O127  1  0.307970  0.287362  0.682472  1
  O  O128  1  0.692028  0.712638  0.317528  1
  O  O129  1  0.692029  0.787362  0.817527  1
  O  O130  1  0.807971  0.287362  0.817527  1
  O  O131  1  0.807972  0.212638  0.317528  1
