# generated using pymatgen
data_TmGaO3
_symmetry_space_group_name_H-M   'P 1'
_cell_length_a   5.24091250
_cell_length_b   5.57066050
_cell_length_c   7.59972529
_cell_angle_alpha   90.00000000
_cell_angle_beta   90.00000000
_cell_angle_gamma   90.00000000
_symmetry_Int_Tables_number   1
_chemical_formula_structural   TmGaO3
_chemical_formula_sum   'Tm4 Ga4 O12'
_cell_volume   221.87659603
_cell_formula_units_Z   4
loop_
 _symmetry_equiv_pos_site_id
 _symmetry_equiv_pos_as_xyz
  1  'x, y, z'
loop_
 _atom_site_type_symbol
 _atom_site_label
 _atom_site_symmetry_multiplicity
 _atom_site_fract_x
 _atom_site_fract_y
 _atom_site_fract_z
 _atom_site_occupancy
  Tm  Tm0  1  0.021822  0.071377  0.008918  1
  Tm  Tm1  1  0.478178  0.571377  0.008918  1
  Tm  Tm2  1  0.521822  0.428623  0.508918  1
  Tm  Tm3  1  0.978178  0.928623  0.508918  1
  Ga  Ga4  1  0.000013  0.499877  0.759005  1
  Ga  Ga5  1  0.499987  0.999877  0.759005  1
  Ga  Ga6  1  0.500013  0.000123  0.259005  1
  Ga  Ga7  1  0.999987  0.500123  0.259005  1
  O  O8  1  0.120809  0.545611  0.509094  1
  O  O9  1  0.191597  0.805658  0.820440  1
  O  O10  1  0.191336  0.806175  0.197912  1
  O  O11  1  0.308664  0.306175  0.197912  1
  O  O12  1  0.308403  0.305658  0.820440  1
  O  O13  1  0.379191  0.045611  0.509094  1
  O  O14  1  0.620809  0.954389  0.009094  1
  O  O15  1  0.691597  0.694342  0.320440  1
  O  O16  1  0.691336  0.693825  0.697912  1
  O  O17  1  0.808664  0.193825  0.697912  1
  O  O18  1  0.808403  0.194342  0.320440  1
  O  O19  1  0.879191  0.454389  0.009094  1
