# generated using pymatgen
data_HgH4C4(Br2N)2
_symmetry_space_group_name_H-M   'P 1'
_cell_length_a   8.86990894
_cell_length_b   12.29487772
_cell_length_c   14.97726885
_cell_angle_alpha   90.00000000
_cell_angle_beta   89.96099828
_cell_angle_gamma   90.00000000
_symmetry_Int_Tables_number   1
_chemical_formula_structural   HgH4C4(Br2N)2
_chemical_formula_sum   'Hg4 H16 C16 Br16 N8'
_cell_volume   1633.33737663
_cell_formula_units_Z   4
loop_
 _symmetry_equiv_pos_site_id
 _symmetry_equiv_pos_as_xyz
  1  'x, y, z'
loop_
 _atom_site_type_symbol
 _atom_site_label
 _atom_site_symmetry_multiplicity
 _atom_site_fract_x
 _atom_site_fract_y
 _atom_site_fract_z
 _atom_site_occupancy
  Hg  Hg0  1  0.324004  0.847414  0.401908  1
  Hg  Hg1  1  0.824004  0.652586  0.901908  1
  Hg  Hg2  1  0.675996  0.152586  0.598092  1
  Hg  Hg3  1  0.175996  0.347414  0.098092  1
  H  H4  1  0.014446  0.738025  0.581687  1
  H  H5  1  0.514446  0.761975  0.081687  1
  H  H6  1  0.985554  0.261975  0.418313  1
  H  H7  1  0.485554  0.238025  0.918313  1
  H  H8  1  0.654553  0.687011  0.512103  1
  H  H9  1  0.154553  0.812989  0.012103  1
  H  H10  1  0.345447  0.312989  0.487897  1
  H  H11  1  0.845447  0.187011  0.987897  1
  H  H12  1  0.112796  0.196002  0.657007  1
  H  H13  1  0.612796  0.303998  0.157007  1
  H  H14  1  0.887204  0.803998  0.342993  1
  H  H15  1  0.387204  0.696002  0.842993  1
  H  H16  1  0.160353  0.969348  0.610259  1
  H  H17  1  0.660353  0.530652  0.110259  1
  H  H18  1  0.839647  0.030652  0.389741  1
  H  H19  1  0.339647  0.469348  0.889741  1
  C  C20  1  0.691171  0.646364  0.658758  1
  C  C21  1  0.191171  0.853636  0.158758  1
  C  C22  1  0.308829  0.353636  0.341242  1
  C  C23  1  0.808829  0.146364  0.841242  1
  C  C24  1  0.772403  0.563184  0.599514  1
  C  C25  1  0.272403  0.936816  0.099514  1
  C  C26  1  0.227597  0.436816  0.400486  1
  C  C27  1  0.727597  0.063184  0.900486  1
  C  C28  1  0.209992  0.995657  0.758097  1
  C  C29  1  0.709992  0.504343  0.258097  1
  C  C30  1  0.790008  0.004343  0.241903  1
  C  C31  1  0.290008  0.495657  0.741903  1
  C  C32  1  0.355002  0.003178  0.703085  1
  C  C33  1  0.855002  0.496822  0.203085  1
  C  C34  1  0.644998  0.996822  0.296915  1
  C  C35  1  0.144998  0.503178  0.796915  1
  Br  Br36  1  0.180527  0.009929  0.444366  1
  Br  Br37  1  0.680527  0.490071  0.944366  1
  Br  Br38  1  0.819473  0.990071  0.555634  1
  Br  Br39  1  0.319473  0.509929  0.055634  1
  Br  Br40  1  0.473125  0.683365  0.378445  1
  Br  Br41  1  0.973125  0.816635  0.878445  1
  Br  Br42  1  0.526875  0.316635  0.621555  1
  Br  Br43  1  0.026875  0.183365  0.121555  1
  Br  Br44  1  0.165274  0.706019  0.603786  1
  Br  Br45  1  0.665274  0.793981  0.103786  1
  Br  Br46  1  0.834726  0.293981  0.396214  1
  Br  Br47  1  0.334726  0.206019  0.896214  1
  Br  Br48  1  0.962496  0.705387  0.367716  1
  Br  Br49  1  0.462496  0.794613  0.867716  1
  Br  Br50  1  0.037504  0.294613  0.632284  1
  Br  Br51  1  0.537504  0.205387  0.132284  1
  N  N52  1  0.692352  0.648170  0.569422  1
  N  N53  1  0.192352  0.851830  0.069422  1
  N  N54  1  0.307648  0.351830  0.430578  1
  N  N55  1  0.807648  0.148170  0.930578  1
  N  N56  1  0.217956  0.983652  0.669503  1
  N  N57  1  0.717956  0.516348  0.169503  1
  N  N58  1  0.782044  0.016348  0.330497  1
  N  N59  1  0.282044  0.483652  0.830497  1
