# generated using pymatgen
data_Li3Mn2NiO6
_symmetry_space_group_name_H-M   'P 1'
_cell_length_a   15.25313531
_cell_length_b   9.80266081
_cell_length_c   9.80266097
_cell_angle_alpha   17.51081048
_cell_angle_beta   16.73845115
_cell_angle_gamma   16.73844871
_symmetry_Int_Tables_number   1
_chemical_formula_structural   Li3Mn2NiO6
_chemical_formula_sum   'Li3 Mn2 Ni1 O6'
_cell_volume   109.09439630
_cell_formula_units_Z   1
loop_
 _symmetry_equiv_pos_site_id
 _symmetry_equiv_pos_as_xyz
  1  'x, y, z'
loop_
 _atom_site_type_symbol
 _atom_site_label
 _atom_site_symmetry_multiplicity
 _atom_site_fract_x
 _atom_site_fract_y
 _atom_site_fract_z
 _atom_site_occupancy
  Li  Li0  1  0.166667  0.500000  0.500000  1
  Li  Li1  1  0.504248  0.498518  0.498518  1
  Li  Li2  1  0.829086  0.501482  0.501482  1
  Mn  Mn3  1  0.009432  0.992519  0.992519  1
  Mn  Mn4  1  0.323901  0.007481  0.007481  1
  Ni  Ni5  1  0.666667  0.000000  0.000000  1
  O  O6  1  0.226087  0.272407  0.272407  1
  O  O7  1  0.587250  0.254523  0.254523  1
  O  O8  1  0.107247  0.727593  0.727593  1
  O  O9  1  0.939961  0.237523  0.237523  1
  O  O10  1  0.393373  0.762477  0.762477  1
  O  O11  1  0.746084  0.745477  0.745477  1
