# generated using pymatgen
data_H16Ru3C6(Cl3O7)2
_symmetry_space_group_name_H-M   'P 1'
_cell_length_a   6.46335807
_cell_length_b   7.27158023
_cell_length_c   15.07208077
_cell_angle_alpha   91.68481755
_cell_angle_beta   99.16106394
_cell_angle_gamma   116.28286448
_symmetry_Int_Tables_number   1
_chemical_formula_structural   H16Ru3C6(Cl3O7)2
_chemical_formula_sum   'H16 Ru3 C6 Cl6 O14'
_cell_volume   623.03056597
_cell_formula_units_Z   1
loop_
 _symmetry_equiv_pos_site_id
 _symmetry_equiv_pos_as_xyz
  1  'x, y, z'
loop_
 _atom_site_type_symbol
 _atom_site_label
 _atom_site_symmetry_multiplicity
 _atom_site_fract_x
 _atom_site_fract_y
 _atom_site_fract_z
 _atom_site_occupancy
  H  H0  1  0.091766  0.504406  0.621625  1
  H  H1  1  0.228932  0.759250  0.519240  1
  H  H2  1  0.289215  0.862100  0.429232  1
  H  H3  1  0.054101  0.092758  0.681511  1
  H  H4  1  0.361912  0.655752  0.644551  1
  H  H5  1  0.229227  0.337806  0.419300  1
  H  H6  1  0.274535  0.404087  0.524295  1
  H  H7  1  0.303999  0.153825  0.659708  1
  H  H8  1  0.696001  0.846175  0.340292  1
  H  H9  1  0.725465  0.595913  0.475705  1
  H  H10  1  0.770773  0.662194  0.580700  1
  H  H11  1  0.638088  0.344248  0.355449  1
  H  H12  1  0.945899  0.907242  0.318489  1
  H  H13  1  0.710785  0.137900  0.570768  1
  H  H14  1  0.771068  0.240750  0.480760  1
  H  H15  1  0.908234  0.495594  0.378375  1
  Ru  Ru16  1  0.000000  0.000000  0.500000  1
  Ru  Ru17  1  0.258270  0.388717  0.174589  1
  Ru  Ru18  1  0.741730  0.611283  0.825411  1
  C  C19  1  0.072473  0.775255  0.836635  1
  C  C20  1  0.221830  0.593511  0.108928  1
  C  C21  1  0.731888  0.754600  0.929164  1
  C  C22  1  0.268112  0.245400  0.070836  1
  C  C23  1  0.778170  0.406489  0.891072  1
  C  C24  1  0.927527  0.224745  0.163365  1
  Cl  Cl25  1  0.316335  0.418421  0.810515  1
  Cl  Cl26  1  0.279042  0.582826  0.316419  1
  Cl  Cl27  1  0.678832  0.867676  0.736453  1
  Cl  Cl28  1  0.321168  0.132324  0.263547  1
  Cl  Cl29  1  0.720958  0.417174  0.683581  1
  Cl  Cl30  1  0.683665  0.581579  0.189485  1
  O  O31  1  0.272333  0.879930  0.845455  1
  O  O32  1  0.247013  0.881681  0.487089  1
  O  O33  1  0.229046  0.575874  0.593404  1
  O  O34  1  0.198135  0.717478  0.068190  1
  O  O35  1  0.137551  0.052538  0.641810  1
  O  O36  1  0.258529  0.293349  0.479144  1
  O  O37  1  0.719363  0.839777  0.992476  1
  O  O38  1  0.280637  0.160223  0.007524  1
  O  O39  1  0.741471  0.706651  0.520856  1
  O  O40  1  0.862449  0.947462  0.358190  1
  O  O41  1  0.801865  0.282522  0.931810  1
  O  O42  1  0.770954  0.424126  0.406596  1
  O  O43  1  0.752987  0.118319  0.512911  1
  O  O44  1  0.727667  0.120070  0.154545  1
