# generated using pymatgen
data_Li3Fe8(BO3)8
_symmetry_space_group_name_H-M   'P 1'
_cell_length_a   5.27561112
_cell_length_b   9.12441260
_cell_length_c   11.38503547
_cell_angle_alpha   66.14699480
_cell_angle_beta   76.96152782
_cell_angle_gamma   89.35178089
_symmetry_Int_Tables_number   1
_chemical_formula_structural   Li3Fe8(BO3)8
_chemical_formula_sum   'Li3 Fe8 B8 O24'
_cell_volume   486.33891624
_cell_formula_units_Z   1
loop_
 _symmetry_equiv_pos_site_id
 _symmetry_equiv_pos_as_xyz
  1  'x, y, z'
loop_
 _atom_site_type_symbol
 _atom_site_label
 _atom_site_symmetry_multiplicity
 _atom_site_fract_x
 _atom_site_fract_y
 _atom_site_fract_z
 _atom_site_occupancy
  Li  Li0  1  0.725283  0.749393  0.163750  1
  Li  Li1  1  0.016488  0.990753  0.661797  1
  Li  Li2  1  0.232147  0.256435  0.158299  1
  Fe  Fe3  1  0.987770  0.651185  0.377414  1
  Fe  Fe4  1  0.725945  0.065873  0.883615  1
  Fe  Fe5  1  0.536838  0.835700  0.629352  1
  Fe  Fe6  1  0.749116  0.442742  0.125309  1
  Fe  Fe7  1  0.233060  0.559831  0.877667  1
  Fe  Fe8  1  0.491382  0.146844  0.379939  1
  Fe  Fe9  1  0.019817  0.354626  0.629731  1
  Fe  Fe10  1  0.248884  0.941493  0.124819  1
  B  B11  1  0.979717  0.315967  0.377893  1
  B  B12  1  0.729686  0.395026  0.878464  1
  B  B13  1  0.514819  0.182879  0.627865  1
  B  B14  1  0.764389  0.105514  0.129681  1
  B  B15  1  0.480216  0.818072  0.372395  1
  B  B16  1  0.237687  0.896709  0.873382  1
  B  B17  1  0.038021  0.687389  0.628992  1
  B  B18  1  0.259817  0.603910  0.128001  1
  O  O19  1  0.990030  0.932943  0.855319  1
  O  O20  1  0.861306  0.289458  0.826453  1
  O  O21  1  0.869094  0.480110  0.922442  1
  O  O22  1  0.909739  0.817444  0.625733  1
  O  O23  1  0.955417  0.583754  0.576343  1
  O  O24  1  0.756954  0.162889  0.666224  1
  O  O25  1  0.747698  0.321452  0.339814  1
  O  O26  1  0.470864  0.402690  0.889231  1
  O  O27  1  0.357554  0.779058  0.841120  1
  O  O28  1  0.538288  0.922364  0.424287  1
  O  O29  1  0.653864  0.712199  0.353249  1
  O  O30  1  0.368536  0.983558  0.921347  1
  O  O31  1  0.663524  0.003932  0.080355  1
  O  O32  1  0.362478  0.301021  0.637026  1
  O  O33  1  0.429777  0.074762  0.582860  1
  O  O34  1  0.591750  0.199573  0.175937  1
  O  O35  1  0.515253  0.611625  0.129648  1
  O  O36  1  0.255134  0.649078  0.681338  1
  O  O37  1  0.247939  0.823758  0.332827  1
  O  O38  1  0.035111  0.421427  0.432322  1
  O  O39  1  0.154704  0.211660  0.358956  1
  O  O40  1  0.155330  0.498384  0.085793  1
  O  O41  1  0.089124  0.701471  0.172961  1
  O  O42  1  0.018303  0.110207  0.131842  1
