# generated using pymatgen
data_NiPH6NO5
_symmetry_space_group_name_H-M   'P 1'
_cell_length_a   5.59682532
_cell_length_b   8.84806400
_cell_length_c   4.75440878
_cell_angle_alpha   89.99999422
_cell_angle_beta   90.00004748
_cell_angle_gamma   90.00005314
_symmetry_Int_Tables_number   1
_chemical_formula_structural   NiPH6NO5
_chemical_formula_sum   'Ni2 P2 H12 N2 O10'
_cell_volume   235.44340348
_cell_formula_units_Z   2
loop_
 _symmetry_equiv_pos_site_id
 _symmetry_equiv_pos_as_xyz
  1  'x, y, z'
loop_
 _atom_site_type_symbol
 _atom_site_label
 _atom_site_symmetry_multiplicity
 _atom_site_fract_x
 _atom_site_fract_y
 _atom_site_fract_z
 _atom_site_occupancy
  Ni  Ni0  1  0.499999  0.019149  0.515684  1
  Ni  Ni1  1  0.999992  0.980856  0.015675  1
  P  P2  1  0.500001  0.809308  0.088417  1
  P  P3  1  0.000000  0.190696  0.588406  1
  H  H4  1  0.500000  0.538010  0.837480  1
  H  H5  1  0.000000  0.461989  0.337478  1
  H  H6  1  0.500000  0.544137  0.475561  1
  H  H7  1  0.000000  0.455862  0.975563  1
  H  H8  1  0.652476  0.406027  0.646764  1
  H  H9  1  0.347525  0.406027  0.646764  1
  H  H10  1  0.847525  0.593971  0.146764  1
  H  H11  1  0.152476  0.593971  0.146763  1
  H  H12  1  0.640526  0.188153  0.105858  1
  H  H13  1  0.359476  0.188153  0.105859  1
  H  H14  1  0.859475  0.811845  0.605855  1
  H  H15  1  0.140525  0.811845  0.605856  1
  N  N16  1  0.500000  0.472448  0.652150  1
  N  N17  1  0.000000  0.527550  0.152150  1
  O  O18  1  0.500001  0.833784  0.770196  1
  O  O19  1  0.000001  0.166218  0.270195  1
  O  O20  1  0.500001  0.636647  0.148805  1
  O  O21  1  0.000000  0.363348  0.648807  1
  O  O22  1  0.720634  0.886142  0.235632  1
  O  O23  1  0.279366  0.886143  0.235630  1
  O  O24  1  0.779372  0.113860  0.735631  1
  O  O25  1  0.220626  0.113861  0.735632  1
  O  O26  1  0.500001  0.202871  0.227923  1
  O  O27  1  -0.000001  0.797128  0.727922  1
