# generated using pymatgen
data_LiNiPO4
_symmetry_space_group_name_H-M   'P 1'
_cell_length_a   8.58613282
_cell_length_b   7.71743745
_cell_length_c   15.25126605
_cell_angle_alpha   90.00000000
_cell_angle_beta   87.92368580
_cell_angle_gamma   90.00000000
_symmetry_Int_Tables_number   1
_chemical_formula_structural   LiNiPO4
_chemical_formula_sum   'Li12 Ni12 P12 O48'
_cell_volume   1009.93027379
_cell_formula_units_Z   12
loop_
 _symmetry_equiv_pos_site_id
 _symmetry_equiv_pos_as_xyz
  1  'x, y, z'
loop_
 _atom_site_type_symbol
 _atom_site_label
 _atom_site_symmetry_multiplicity
 _atom_site_fract_x
 _atom_site_fract_y
 _atom_site_fract_z
 _atom_site_occupancy
  Li  Li0  1  0.230867  0.032490  0.559840  1
  Li  Li1  1  0.240670  0.960958  0.906953  1
  Li  Li2  1  0.244265  0.160326  0.254485  1
  Li  Li3  1  0.255735  0.660326  0.245515  1
  Li  Li4  1  0.259330  0.460958  0.593047  1
  Li  Li5  1  0.269133  0.532490  0.940160  1
  Li  Li6  1  0.730867  0.467510  0.059840  1
  Li  Li7  1  0.740670  0.539042  0.406953  1
  Li  Li8  1  0.744265  0.339674  0.754485  1
  Li  Li9  1  0.755735  0.839674  0.745515  1
  Li  Li10  1  0.759330  0.039042  0.093047  1
  Li  Li11  1  0.769133  0.967510  0.440160  1
  Ni  Ni12  1  0.037152  0.738926  0.088945  1
  Ni  Ni13  1  0.096315  0.769932  0.728628  1
  Ni  Ni14  1  0.120341  0.725925  0.422353  1
  Ni  Ni15  1  0.379659  0.225925  0.077647  1
  Ni  Ni16  1  0.403685  0.269932  0.771372  1
  Ni  Ni17  1  0.462848  0.238926  0.411055  1
  Ni  Ni18  1  0.537152  0.761074  0.588945  1
  Ni  Ni19  1  0.596315  0.730068  0.228628  1
  Ni  Ni20  1  0.620341  0.774075  0.922353  1
  Ni  Ni21  1  0.879659  0.274075  0.577647  1
  Ni  Ni22  1  0.903685  0.230068  0.271372  1
  Ni  Ni23  1  0.962848  0.261074  0.911055  1
  P  P24  1  0.043755  0.328262  0.091714  1
  P  P25  1  0.092065  0.176436  0.724039  1
  P  P26  1  0.113766  0.323846  0.429579  1
  P  P27  1  0.386234  0.823846  0.070421  1
  P  P28  1  0.407935  0.676436  0.775961  1
  P  P29  1  0.456245  0.828262  0.408286  1
  P  P30  1  0.543755  0.171738  0.591714  1
  P  P31  1  0.592065  0.323564  0.224039  1
  P  P32  1  0.613766  0.176154  0.929579  1
  P  P33  1  0.886234  0.676154  0.570421  1
  P  P34  1  0.907935  0.823564  0.275961  1
  P  P35  1  0.956245  0.671738  0.908286  1
  O  O36  1  0.037797  0.497554  0.887216  1
  O  O37  1  0.027833  0.641433  0.627623  1
  O  O38  1  0.071279  0.781428  0.962522  1
  O  O39  1  0.062437  0.731110  0.297818  1
  O  O40  1  0.070690  0.208093  0.510574  1
  O  O41  1  0.101204  0.001226  0.674346  1
  O  O42  1  0.101994  0.145007  0.824459  1
  O  O43  1  0.079411  0.232106  0.178811  1
  O  O44  1  0.179743  0.497345  0.464591  1
  O  O45  1  0.198159  0.355852  0.036424  1
  O  O46  1  0.244020  0.230814  0.373500  1
  O  O47  1  0.229725  0.292634  0.691690  1
  O  O48  1  0.255980  0.730814  0.126500  1
  O  O49  1  0.270275  0.792634  0.808310  1
  O  O50  1  0.301841  0.855852  0.463576  1
  O  O51  1  0.320257  0.997345  0.035409  1
  O  O52  1  0.420589  0.732106  0.321189  1
  O  O53  1  0.398006  0.645007  0.675541  1
  O  O54  1  0.398796  0.501226  0.825654  1
  O  O55  1  0.437563  0.231110  0.202182  1
  O  O56  1  0.429310  0.708093  0.989426  1
  O  O57  1  0.428721  0.281428  0.537478  1
  O  O58  1  0.472167  0.141433  0.872377  1
  O  O59  1  0.462203  0.997554  0.612784  1
  O  O60  1  0.537797  0.002446  0.387216  1
  O  O61  1  0.527833  0.858567  0.127623  1
  O  O62  1  0.571279  0.718572  0.462522  1
  O  O63  1  0.570690  0.291907  0.010574  1
  O  O64  1  0.562437  0.768890  0.797818  1
  O  O65  1  0.601204  0.498774  0.174346  1
  O  O66  1  0.601994  0.354993  0.324459  1
  O  O67  1  0.579411  0.267894  0.678811  1
  O  O68  1  0.679743  0.002655  0.964591  1
  O  O69  1  0.698159  0.144148  0.536424  1
  O  O70  1  0.729725  0.207366  0.191690  1
  O  O71  1  0.744020  0.269186  0.873500  1
  O  O72  1  0.770275  0.707366  0.308310  1
  O  O73  1  0.755980  0.769186  0.626500  1
  O  O74  1  0.801841  0.644148  0.963576  1
  O  O75  1  0.820257  0.502655  0.535409  1
  O  O76  1  0.920589  0.767894  0.821189  1
  O  O77  1  0.898006  0.854993  0.175541  1
  O  O78  1  0.898796  0.998774  0.325654  1
  O  O79  1  0.929310  0.791907  0.489426  1
  O  O80  1  0.937563  0.268890  0.702182  1
  O  O81  1  0.928721  0.218572  0.037478  1
  O  O82  1  0.972167  0.358567  0.372377  1
  O  O83  1  0.962203  0.502446  0.112784  1
