# generated using pymatgen
data_Mn6O5F7
_symmetry_space_group_name_H-M   'P 1'
_cell_length_a   4.73984153
_cell_length_b   5.73160747
_cell_length_c   15.58641743
_cell_angle_alpha   90.07409316
_cell_angle_beta   89.91214446
_cell_angle_gamma   90.16695136
_symmetry_Int_Tables_number   1
_chemical_formula_structural   Mn6O5F7
_chemical_formula_sum   'Mn12 O10 F14'
_cell_volume   423.43216982
_cell_formula_units_Z   2
loop_
 _symmetry_equiv_pos_site_id
 _symmetry_equiv_pos_as_xyz
  1  'x, y, z'
loop_
 _atom_site_type_symbol
 _atom_site_label
 _atom_site_symmetry_multiplicity
 _atom_site_fract_x
 _atom_site_fract_y
 _atom_site_fract_z
 _atom_site_occupancy
  Mn  Mn0  1  0.036646  0.165575  0.419134  1
  Mn  Mn1  1  0.004592  0.814401  0.251694  1
  Mn  Mn2  1  0.043284  0.164958  0.082904  1
  Mn  Mn3  1  0.975794  0.154871  0.744702  1
  Mn  Mn4  1  0.003903  0.864257  0.578522  1
  Mn  Mn5  1  0.054688  0.837584  0.915279  1
  Mn  Mn6  1  0.473008  0.333886  0.588619  1
  Mn  Mn7  1  0.480452  0.340263  0.920917  1
  Mn  Mn8  1  0.506123  0.373673  0.246262  1
  Mn  Mn9  1  0.511648  0.636593  0.084266  1
  Mn  Mn10  1  0.468012  0.656532  0.420324  1
  Mn  Mn11  1  0.479814  0.655847  0.750925  1
  O  O12  1  0.194494  0.108653  0.638381  1
  O  O13  1  0.236762  0.105353  0.970882  1
  O  O14  1  0.218028  0.904684  0.474289  1
  O  O15  1  0.207651  0.894985  0.800575  1
  O  O16  1  0.294057  0.390114  0.142230  1
  O  O17  1  0.290350  0.599571  0.309743  1
  O  O18  1  0.281438  0.389623  0.477819  1
  O  O19  1  0.297615  0.594848  0.978569  1
  O  O20  1  0.720276  0.609586  0.191872  1
  O  O21  1  0.686323  0.373716  0.695107  1
  F  F22  1  0.261156  0.118946  0.299627  1
  F  F23  1  0.242247  0.888642  0.141309  1
  F  F24  1  0.242595  0.608396  0.638693  1
  F  F25  1  0.233010  0.403808  0.809082  1
  F  F26  1  0.763719  0.370903  0.024726  1
  F  F27  1  0.759820  0.380359  0.357563  1
  F  F28  1  0.728789  0.634913  0.526490  1
  F  F29  1  0.731088  0.613373  0.864662  1
  F  F30  1  0.778370  0.124852  0.196102  1
  F  F31  1  0.748582  0.135798  0.524407  1
  F  F32  1  0.770080  0.892672  0.366148  1
  F  F33  1  0.788428  0.865777  0.029060  1
  F  F34  1  0.743340  0.123321  0.857443  1
  F  F35  1  0.743823  0.868670  0.681676  1
