# generated using pymatgen
data_Li2FeCuO4
_symmetry_space_group_name_H-M   'P 1'
_cell_length_a   5.15325618
_cell_length_b   10.30013082
_cell_length_c   9.86357152
_cell_angle_alpha   16.74109762
_cell_angle_beta   29.24485650
_cell_angle_gamma   33.32598619
_symmetry_Int_Tables_number   1
_chemical_formula_structural   Li2FeCuO4
_chemical_formula_sum   'Li2 Fe1 Cu1 O4'
_cell_volume   73.67590386
_cell_formula_units_Z   1
loop_
 _symmetry_equiv_pos_site_id
 _symmetry_equiv_pos_as_xyz
  1  'x, y, z'
loop_
 _atom_site_type_symbol
 _atom_site_label
 _atom_site_symmetry_multiplicity
 _atom_site_fract_x
 _atom_site_fract_y
 _atom_site_fract_z
 _atom_site_occupancy
  Li  Li0  1  0.000000  0.000000  0.000000  1
  Li  Li1  1  0.000000  0.500000  0.000000  1
  Fe  Fe2  1  0.500000  0.500000  0.500000  1
  Cu  Cu3  1  0.500000  0.000000  0.500000  1
  O  O4  1  0.246468  1.000000  0.243295  1
  O  O5  1  0.239206  0.500000  0.246167  1
  O  O6  1  0.753532  0.000000  0.756705  1
  O  O7  1  0.760794  0.500000  0.753833  1
