# generated using pymatgen
data_LiVPH2O5
_symmetry_space_group_name_H-M   'P 1'
_cell_length_a   10.61094586
_cell_length_b   16.47620545
_cell_length_c   5.21707264
_cell_angle_alpha   90.00000000
_cell_angle_beta   90.00000000
_cell_angle_gamma   90.00000000
_symmetry_Int_Tables_number   1
_chemical_formula_structural   LiVPH2O5
_chemical_formula_sum   'Li8 V8 P8 H16 O40'
_cell_volume   912.09102247
_cell_formula_units_Z   8
loop_
 _symmetry_equiv_pos_site_id
 _symmetry_equiv_pos_as_xyz
  1  'x, y, z'
loop_
 _atom_site_type_symbol
 _atom_site_label
 _atom_site_symmetry_multiplicity
 _atom_site_fract_x
 _atom_site_fract_y
 _atom_site_fract_z
 _atom_site_occupancy
  Li  Li0  1  0.167327  0.500883  0.473563  1
  Li  Li1  1  0.167327  0.000883  0.526437  1
  Li  Li2  1  0.406450  0.251790  0.916789  1
  Li  Li3  1  0.406450  0.751790  0.083211  1
  Li  Li4  1  0.667327  0.999117  0.473563  1
  Li  Li5  1  0.667327  0.499117  0.526437  1
  Li  Li6  1  0.906450  0.748210  0.083211  1
  Li  Li7  1  0.906450  0.248210  0.916789  1
  V  V8  1  0.149504  0.682439  0.408721  1
  V  V9  1  0.149504  0.182439  0.591279  1
  V  V10  1  0.421446  0.933593  0.160752  1
  V  V11  1  0.421446  0.433593  0.839248  1
  V  V12  1  0.649504  0.817561  0.408721  1
  V  V13  1  0.649504  0.317561  0.591279  1
  V  V14  1  0.921446  0.566407  0.160752  1
  V  V15  1  0.921446  0.066407  0.839248  1
  P  P16  1  0.236778  0.095740  0.023038  1
  P  P17  1  0.236778  0.595740  0.976962  1
  P  P18  1  0.334973  0.344042  0.405594  1
  P  P19  1  0.334973  0.844042  0.594406  1
  P  P20  1  0.736778  0.404260  0.023038  1
  P  P21  1  0.736778  0.904260  0.976962  1
  P  P22  1  0.834973  0.655958  0.594406  1
  P  P23  1  0.834973  0.155958  0.405594  1
  H  H24  1  0.002378  0.370482  0.079309  1
  H  H25  1  0.002378  0.870482  0.920691  1
  H  H26  1  0.054150  0.382361  0.620805  1
  H  H27  1  0.054150  0.882361  0.379195  1
  H  H28  1  0.111260  0.308347  0.140105  1
  H  H29  1  0.111260  0.808347  0.859895  1
  H  H30  1  0.449596  0.052484  0.654586  1
  H  H31  1  0.449596  0.552484  0.345414  1
  H  H32  1  0.502378  0.129518  0.079309  1
  H  H33  1  0.502378  0.629518  0.920691  1
  H  H34  1  0.554150  0.117639  0.620805  1
  H  H35  1  0.554150  0.617639  0.379195  1
  H  H36  1  0.611260  0.191653  0.140105  1
  H  H37  1  0.611260  0.691653  0.859895  1
  H  H38  1  0.949596  0.447516  0.654586  1
  H  H39  1  0.949596  0.947516  0.345414  1
  O  O40  1  0.018526  0.430997  0.538978  1
  O  O41  1  0.018526  0.930997  0.461022  1
  O  O42  1  0.045505  0.322174  0.011574  1
  O  O43  1  0.045505  0.822174  0.988426  1
  O  O44  1  0.126220  0.066293  0.839899  1
  O  O45  1  0.126220  0.566293  0.160101  1
  O  O46  1  0.190279  0.096238  0.302353  1
  O  O47  1  0.190279  0.596238  0.697647  1
  O  O48  1  0.216415  0.790532  0.577520  1
  O  O49  1  0.216415  0.290532  0.422480  1
  O  O50  1  0.266433  0.182376  0.919036  1
  O  O51  1  0.266433  0.682376  0.080964  1
  O  O52  1  0.305218  0.930764  0.488690  1
  O  O53  1  0.305218  0.430764  0.511310  1
  O  O54  1  0.354509  0.041710  0.988742  1
  O  O55  1  0.354509  0.541710  0.011258  1
  O  O56  1  0.383859  0.347913  0.128359  1
  O  O57  1  0.383859  0.847913  0.871641  1
  O  O58  1  0.443586  0.312581  0.589656  1
  O  O59  1  0.443586  0.812581  0.410344  1
  O  O60  1  0.518526  0.569003  0.461022  1
  O  O61  1  0.518526  0.069003  0.538978  1
  O  O62  1  0.545505  0.177826  0.011574  1
  O  O63  1  0.545505  0.677826  0.988426  1
  O  O64  1  0.626220  0.933707  0.160101  1
  O  O65  1  0.626220  0.433707  0.839899  1
  O  O66  1  0.690279  0.403762  0.302353  1
  O  O67  1  0.690279  0.903762  0.697647  1
  O  O68  1  0.716415  0.209468  0.422480  1
  O  O69  1  0.716415  0.709468  0.577520  1
  O  O70  1  0.766433  0.317624  0.919036  1
  O  O71  1  0.766433  0.817624  0.080964  1
  O  O72  1  0.805218  0.569236  0.488690  1
  O  O73  1  0.805218  0.069236  0.511310  1
  O  O74  1  0.854509  0.458290  0.988742  1
  O  O75  1  0.854509  0.958290  0.011258  1
  O  O76  1  0.883859  0.652087  0.871641  1
  O  O77  1  0.883859  0.152087  0.128359  1
  O  O78  1  0.943586  0.687419  0.410344  1
  O  O79  1  0.943586  0.187419  0.589656  1
