# generated using pymatgen
data_Na6Fe2P(CO4)4
_symmetry_space_group_name_H-M   'P 1'
_cell_length_a   10.20194618
_cell_length_b   10.20194632
_cell_length_c   10.20194599
_cell_angle_alpha   90.00000463
_cell_angle_beta   60.00000293
_cell_angle_gamma   60.00000401
_symmetry_Int_Tables_number   1
_chemical_formula_structural   Na6Fe2P(CO4)4
_chemical_formula_sum   'Na12 Fe4 P2 C8 O32'
_cell_volume   750.81702573
_cell_formula_units_Z   2
loop_
 _symmetry_equiv_pos_site_id
 _symmetry_equiv_pos_as_xyz
  1  'x, y, z'
loop_
 _atom_site_type_symbol
 _atom_site_label
 _atom_site_symmetry_multiplicity
 _atom_site_fract_x
 _atom_site_fract_y
 _atom_site_fract_z
 _atom_site_occupancy
  Na  Na0  1  0.750000  0.916580  0.666580  1
  Na  Na1  1  0.666842  0.666580  0.916580  1
  Na  Na2  1  0.750000  0.333420  0.666580  1
  Na  Na3  1  0.750000  0.916580  0.083420  1
  Na  Na4  1  0.250000  0.666580  0.916580  1
  Na  Na5  1  0.833158  0.083420  0.333420  1
  Na  Na6  1  0.166842  0.916580  0.666580  1
  Na  Na7  1  0.750000  0.333420  0.083420  1
  Na  Na8  1  0.250000  0.666580  0.333420  1
  Na  Na9  1  0.250000  0.083420  0.916580  1
  Na  Na10  1  0.333158  0.333420  0.083420  1
  Na  Na11  1  0.250000  0.083420  0.333420  1
  Fe  Fe12  1  0.500000  0.500000  0.500000  1
  Fe  Fe13  1  0.500000  0.000000  0.500000  1
  Fe  Fe14  1  0.000000  0.500000  0.500000  1
  Fe  Fe15  1  0.000000  0.500000  0.000000  1
  P  P16  1  0.750000  0.125000  0.875000  1
  P  P17  1  0.250000  0.875000  0.125000  1
  C  C18  1  0.932106  0.716054  0.283946  1
  C  C19  1  0.932106  0.351840  0.283946  1
  C  C20  1  0.567894  0.716054  0.648160  1
  C  C21  1  0.567894  0.716054  0.283946  1
  C  C22  1  0.432106  0.283946  0.716054  1
  C  C23  1  0.432106  0.283946  0.351840  1
  C  C24  1  0.067894  0.648160  0.716054  1
  C  C25  1  0.067894  0.283946  0.716054  1
  O  O26  1  0.952348  0.650549  0.692518  1
  O  O27  1  0.952348  0.397103  0.855134  1
  O  O28  1  0.958030  0.692518  0.397103  1
  O  O29  1  0.795415  0.855134  0.307482  1
  O  O30  1  0.875261  0.062369  0.937631  1
  O  O31  1  0.704585  0.602897  0.650549  1
  O  O32  1  0.541970  0.855134  0.650549  1
  O  O33  1  0.875261  0.062369  0.687107  1
  O  O34  1  0.624739  0.312893  0.937631  1
  O  O35  1  0.958030  0.349451  0.144866  1
  O  O36  1  0.795415  0.349451  0.397103  1
  O  O37  1  0.624739  0.062369  0.937631  1
  O  O38  1  0.704585  0.692518  0.144866  1
  O  O39  1  0.452348  0.692518  0.650549  1
  O  O40  1  0.452348  0.855134  0.397103  1
  O  O41  1  0.458030  0.397103  0.692518  1
  O  O42  1  0.541970  0.602897  0.307482  1
  O  O43  1  0.547652  0.144866  0.602897  1
  O  O44  1  0.547652  0.307482  0.349451  1
  O  O45  1  0.295415  0.307482  0.855134  1
  O  O46  1  0.375261  0.937631  0.062369  1
  O  O47  1  0.204585  0.650549  0.602897  1
  O  O48  1  0.041970  0.650549  0.855134  1
  O  O49  1  0.375261  0.687107  0.062369  1
  O  O50  1  0.124739  0.937631  0.312893  1
  O  O51  1  0.458030  0.144866  0.349451  1
  O  O52  1  0.295415  0.397103  0.349451  1
  O  O53  1  0.124739  0.937631  0.062369  1
  O  O54  1  0.204585  0.144866  0.692518  1
  O  O55  1  0.041970  0.307482  0.602897  1
  O  O56  1  0.047652  0.602897  0.144866  1
  O  O57  1  0.047652  0.349451  0.307482  1
