# generated using pymatgen
data_Co3OF5
_symmetry_space_group_name_H-M   'P 1'
_cell_length_a   4.69251752
_cell_length_b   7.84135275
_cell_length_c   5.69916605
_cell_angle_alpha   91.46677056
_cell_angle_beta   89.63385111
_cell_angle_gamma   89.66697374
_symmetry_Int_Tables_number   1
_chemical_formula_structural   Co3OF5
_chemical_formula_sum   'Co6 O2 F10'
_cell_volume   209.62798091
_cell_formula_units_Z   2
loop_
 _symmetry_equiv_pos_site_id
 _symmetry_equiv_pos_as_xyz
  1  'x, y, z'
loop_
 _atom_site_type_symbol
 _atom_site_label
 _atom_site_symmetry_multiplicity
 _atom_site_fract_x
 _atom_site_fract_y
 _atom_site_fract_z
 _atom_site_occupancy
  Co  Co0  1  0.509045  0.001356  0.513834  1
  Co  Co1  1  0.534163  0.329575  0.824463  1
  Co  Co2  1  0.490664  0.670084  0.168799  1
  Co  Co3  1  0.981947  0.650082  0.677645  1
  Co  Co4  1  0.985382  0.332135  0.348845  1
  Co  Co5  1  0.981865  0.013528  0.979335  1
  O  O6  1  0.793868  0.425272  0.638673  1
  O  O7  1  0.705828  0.110748  0.794710  1
  F  F8  1  0.804355  0.772230  0.971229  1
  F  F9  1  0.804871  0.097470  0.288528  1
  F  F10  1  0.693445  0.769735  0.467442  1
  F  F11  1  0.700609  0.438949  0.134446  1
  F  F12  1  0.318890  0.555743  0.863432  1
  F  F13  1  0.301952  0.227784  0.529165  1
  F  F14  1  0.293577  0.908350  0.197074  1
  F  F15  1  0.217027  0.237068  0.024342  1
  F  F16  1  0.194717  0.893039  0.707127  1
  F  F17  1  0.187796  0.566853  0.370915  1
