# generated using pymatgen
data_Li3MnPCO7
_symmetry_space_group_name_H-M   'P 1'
_cell_length_a   8.58625395
_cell_length_b   9.85504584
_cell_length_c   6.48146203
_cell_angle_alpha   90.00000000
_cell_angle_beta   90.00000000
_cell_angle_gamma   85.37632122
_symmetry_Int_Tables_number   1
_chemical_formula_structural   Li3MnPCO7
_chemical_formula_sum   'Li12 Mn4 P4 C4 O28'
_cell_volume   546.66303459
_cell_formula_units_Z   4
loop_
 _symmetry_equiv_pos_site_id
 _symmetry_equiv_pos_as_xyz
  1  'x, y, z'
loop_
 _atom_site_type_symbol
 _atom_site_label
 _atom_site_symmetry_multiplicity
 _atom_site_fract_x
 _atom_site_fract_y
 _atom_site_fract_z
 _atom_site_occupancy
  Li  Li0  1  0.100855  0.384918  0.252159  1
  Li  Li1  1  0.100855  0.884918  0.247841  1
  Li  Li2  1  0.283641  0.117337  0.487346  1
  Li  Li3  1  0.283641  0.617337  0.012654  1
  Li  Li4  1  0.350891  0.389722  0.753692  1
  Li  Li5  1  0.350891  0.889722  0.746308  1
  Li  Li6  1  0.649109  0.110278  0.246308  1
  Li  Li7  1  0.649109  0.610278  0.253692  1
  Li  Li8  1  0.716359  0.382663  0.512654  1
  Li  Li9  1  0.716359  0.882663  0.987346  1
  Li  Li10  1  0.899145  0.115082  0.747841  1
  Li  Li11  1  0.899145  0.615082  0.752159  1
  Mn  Mn12  1  0.270858  0.130171  0.001570  1
  Mn  Mn13  1  0.270858  0.630171  0.498430  1
  Mn  Mn14  1  0.729142  0.369829  0.998430  1
  Mn  Mn15  1  0.729142  0.869829  0.501570  1
  P  P16  1  0.407498  0.359845  0.251358  1
  P  P17  1  0.407498  0.859845  0.248642  1
  P  P18  1  0.592502  0.140155  0.748642  1
  P  P19  1  0.592502  0.640155  0.751358  1
  C  C20  1  0.041587  0.352506  0.751576  1
  C  C21  1  0.041587  0.852506  0.748424  1
  C  C22  1  0.958413  0.147494  0.248424  1
  C  C23  1  0.958413  0.647494  0.251576  1
  O  O24  1  0.070356  0.477284  0.741099  1
  O  O25  1  0.104922  0.181392  0.247647  1
  O  O26  1  0.070356  0.977283  0.758901  1
  O  O27  1  0.152507  0.254748  0.759121  1
  O  O28  1  0.104922  0.681392  0.252353  1
  O  O29  1  0.152507  0.754748  0.740879  1
  O  O30  1  0.309690  0.410298  0.061598  1
  O  O31  1  0.310172  0.412899  0.442277  1
  O  O32  1  0.310172  0.912899  0.057723  1
  O  O33  1  0.309690  0.910298  0.438402  1
  O  O34  1  0.425589  0.090113  0.744990  1
  O  O35  1  0.423321  0.200435  0.249903  1
  O  O36  1  0.425589  0.590113  0.755010  1
  O  O37  1  0.423321  0.700435  0.250097  1
  O  O38  1  0.576679  0.299565  0.750097  1
  O  O39  1  0.574411  0.409887  0.255010  1
  O  O40  1  0.576679  0.799565  0.749903  1
  O  O41  1  0.574411  0.909887  0.244990  1
  O  O42  1  0.690310  0.089702  0.938402  1
  O  O43  1  0.689828  0.087101  0.557723  1
  O  O44  1  0.690310  0.589702  0.561598  1
  O  O45  1  0.689828  0.587101  0.942277  1
  O  O46  1  0.847493  0.245252  0.240879  1
  O  O47  1  0.895078  0.318608  0.752353  1
  O  O48  1  0.847493  0.745252  0.259121  1
  O  O49  1  0.929644  0.022717  0.258901  1
  O  O50  1  0.895078  0.818608  0.747647  1
  O  O51  1  0.929644  0.522717  0.241099  1
