# generated using pymatgen
data_Na4Fe2P(CO4)4
_symmetry_space_group_name_H-M   'P 1'
_cell_length_a   9.96750327
_cell_length_b   9.77142876
_cell_length_c   9.96750298
_cell_angle_alpha   60.86347470
_cell_angle_beta   92.60045984
_cell_angle_gamma   60.86347185
_symmetry_Int_Tables_number   1
_chemical_formula_structural   Na4Fe2P(CO4)4
_chemical_formula_sum   'Na8 Fe4 P2 C8 O32'
_cell_volume   688.03904064
_cell_formula_units_Z   2
loop_
 _symmetry_equiv_pos_site_id
 _symmetry_equiv_pos_as_xyz
  1  'x, y, z'
loop_
 _atom_site_type_symbol
 _atom_site_label
 _atom_site_symmetry_multiplicity
 _atom_site_fract_x
 _atom_site_fract_y
 _atom_site_fract_z
 _atom_site_occupancy
  Na  Na0  1  0.085200  0.829599  0.835200  1
  Na  Na1  1  0.084986  0.250000  0.834986  1
  Na  Na2  1  0.334986  0.750000  0.584986  1
  Na  Na3  1  0.335200  0.329599  0.585200  1
  Na  Na4  1  0.664800  0.670401  0.414800  1
  Na  Na5  1  0.665014  0.250000  0.415014  1
  Na  Na6  1  0.915014  0.750000  0.165014  1
  Na  Na7  1  0.914800  0.170401  0.164800  1
  Fe  Fe8  1  0.000000  0.500000  0.000000  1
  Fe  Fe9  1  0.500000  0.000000  0.500000  1
  Fe  Fe10  1  0.500000  0.500000  0.000000  1
  Fe  Fe11  1  0.500000  0.000000  0.000000  1
  P  P12  1  0.125000  0.750000  0.375000  1
  P  P13  1  0.875000  0.250000  0.625000  1
  C  C14  1  0.358234  0.930087  0.778271  1
  C  C15  1  0.278271  0.430087  0.858234  1
  C  C16  1  0.711678  0.930087  0.791642  1
  C  C17  1  0.708358  0.569913  0.788322  1
  C  C18  1  0.291642  0.430087  0.211678  1
  C  C19  1  0.288322  0.069913  0.208358  1
  C  C20  1  0.721729  0.569913  0.141766  1
  C  C21  1  0.641766  0.069913  0.221729  1
  O  O22  1  0.353497  0.790174  0.889693  1
  O  O23  1  0.063063  0.882069  0.434774  1
  O  O24  1  0.363828  0.952888  0.640158  1
  O  O25  1  0.140158  0.452888  0.863828  1
  O  O26  1  0.683284  0.952888  0.906953  1
  O  O27  1  0.305229  0.550335  0.852979  1
  O  O28  1  0.054867  0.882069  0.183156  1
  O  O29  1  0.065226  0.617931  0.436937  1
  O  O30  1  0.403315  0.949665  0.355564  1
  O  O31  1  0.593047  0.547112  0.816716  1
  O  O32  1  0.389693  0.290174  0.853497  1
  O  O33  1  0.316844  0.617931  0.445133  1
  O  O34  1  0.856329  0.790174  0.820132  1
  O  O35  1  0.679868  0.709826  0.643671  1
  O  O36  1  0.352979  0.050335  0.805229  1
  O  O37  1  0.144436  0.550335  0.096685  1
  O  O38  1  0.855564  0.449665  0.903315  1
  O  O39  1  0.647021  0.949665  0.194771  1
  O  O40  1  0.320132  0.290174  0.356329  1
  O  O41  1  0.143671  0.209826  0.179868  1
  O  O42  1  0.683156  0.382069  0.554867  1
  O  O43  1  0.610307  0.709826  0.146503  1
  O  O44  1  0.406953  0.452888  0.183284  1
  O  O45  1  0.596685  0.050335  0.644436  1
  O  O46  1  0.934774  0.382069  0.563063  1
  O  O47  1  0.945133  0.117931  0.816844  1
  O  O48  1  0.694771  0.449665  0.147021  1
  O  O49  1  0.316716  0.047112  0.093047  1
  O  O50  1  0.859842  0.547112  0.136172  1
  O  O51  1  0.636172  0.047112  0.359842  1
  O  O52  1  0.936937  0.117931  0.565226  1
  O  O53  1  0.646503  0.209826  0.110307  1
