# generated using pymatgen
data_CoOF
_symmetry_space_group_name_H-M   'P 1'
_cell_length_a   4.72720572
_cell_length_b   18.48666680
_cell_length_c   2.90599643
_cell_angle_alpha   90.00000000
_cell_angle_beta   90.00000000
_cell_angle_gamma   88.40970971
_symmetry_Int_Tables_number   1
_chemical_formula_structural   CoOF
_chemical_formula_sum   'Co8 O8 F8'
_cell_volume   253.85801745
_cell_formula_units_Z   8
loop_
 _symmetry_equiv_pos_site_id
 _symmetry_equiv_pos_as_xyz
  1  'x, y, z'
loop_
 _atom_site_type_symbol
 _atom_site_label
 _atom_site_symmetry_multiplicity
 _atom_site_fract_x
 _atom_site_fract_y
 _atom_site_fract_z
 _atom_site_occupancy
  Co  Co0  1  0.942661  0.998074  0.000000  1
  Co  Co1  1  0.057339  0.251926  0.000000  1
  Co  Co2  1  0.070589  0.498227  0.000000  1
  Co  Co3  1  0.929411  0.751773  0.000000  1
  Co  Co4  1  0.500000  0.125000  0.500000  1
  Co  Co5  1  0.630178  0.375469  0.500000  1
  Co  Co6  1  0.500000  0.625000  0.500000  1
  Co  Co7  1  0.369822  0.874531  0.500000  1
  O  O8  1  0.229803  0.203302  0.500000  1
  O  O9  1  0.101025  0.947651  0.500000  1
  O  O10  1  0.343285  0.576747  0.000000  1
  O  O11  1  0.210084  0.828652  0.000000  1
  O  O12  1  0.789916  0.421348  0.000000  1
  O  O13  1  0.656715  0.673253  0.000000  1
  O  O14  1  0.770197  0.046698  0.500000  1
  O  O15  1  0.898975  0.302349  0.500000  1
  F  F16  1  0.307389  0.446251  0.500000  1
  F  F17  1  0.149711  0.701471  0.500000  1
  F  F18  1  0.284272  0.075460  0.000000  1
  F  F19  1  0.429582  0.328335  0.000000  1
  F  F20  1  0.715728  0.174540  0.000000  1
  F  F21  1  0.570418  0.921665  0.000000  1
  F  F22  1  0.850289  0.548529  0.500000  1
  F  F23  1  0.692611  0.803749  0.500000  1
