# generated using pymatgen
data_Li8Mn7Fe(BO3)8
_symmetry_space_group_name_H-M   'P 1'
_cell_length_a   6.06556572
_cell_length_b   10.50096896
_cell_length_c   8.30142478
_cell_angle_alpha   90.86111222
_cell_angle_beta   76.52876744
_cell_angle_gamma   89.33588818
_symmetry_Int_Tables_number   1
_chemical_formula_structural   Li8Mn7Fe(BO3)8
_chemical_formula_sum   'Li8 Mn7 Fe1 B8 O24'
_cell_volume   514.08598950
_cell_formula_units_Z   1
loop_
 _symmetry_equiv_pos_site_id
 _symmetry_equiv_pos_as_xyz
  1  'x, y, z'
loop_
 _atom_site_type_symbol
 _atom_site_label
 _atom_site_symmetry_multiplicity
 _atom_site_fract_x
 _atom_site_fract_y
 _atom_site_fract_z
 _atom_site_occupancy
  Li  Li0  1  0.045664  0.325156  0.281705  1
  Li  Li1  1  0.047460  0.825539  0.283148  1
  Li  Li2  1  0.452996  0.424663  0.218989  1
  Li  Li3  1  0.454066  0.923807  0.218585  1
  Li  Li4  1  0.545697  0.074823  0.781388  1
  Li  Li5  1  0.546186  0.575411  0.781678  1
  Li  Li6  1  0.953541  0.174523  0.718725  1
  Li  Li7  1  0.953275  0.675396  0.717578  1
  Mn  Mn8  1  0.185167  0.416537  0.580658  1
  Mn  Mn9  1  0.314459  0.333469  0.920039  1
  Mn  Mn10  1  0.312297  0.833761  0.917065  1
  Mn  Mn11  1  0.686244  0.166384  0.079424  1
  Mn  Mn12  1  0.685757  0.666552  0.079695  1
  Mn  Mn13  1  0.812994  0.082255  0.419654  1
  Mn  Mn14  1  0.814180  0.583941  0.420099  1
  Fe  Fe15  1  0.185508  0.919286  0.578496  1
  B  B16  1  0.166861  0.084348  0.096270  1
  B  B17  1  0.166613  0.584920  0.096204  1
  B  B18  1  0.335011  0.164093  0.404877  1
  B  B19  1  0.332689  0.666042  0.406016  1
  B  B20  1  0.666798  0.334557  0.595860  1
  B  B21  1  0.665471  0.835078  0.595346  1
  B  B22  1  0.833608  0.415325  0.903930  1
  B  B23  1  0.834626  0.915372  0.901788  1
  O  O24  1  0.174768  0.455286  0.123226  1
  O  O25  1  0.175471  0.954758  0.122615  1
  O  O26  1  0.014226  0.340265  0.812070  1
  O  O27  1  0.015325  0.841676  0.807318  1
  O  O28  1  0.163976  0.104484  0.520234  1
  O  O29  1  0.158529  0.606308  0.517054  1
  O  O30  1  0.323123  0.293423  0.378266  1
  O  O31  1  0.323669  0.796015  0.383187  1
  O  O32  1  0.514989  0.090217  0.310873  1
  O  O33  1  0.512993  0.591946  0.311782  1
  O  O34  1  0.659254  0.357010  0.016834  1
  O  O35  1  0.340548  0.143204  0.983577  1
  O  O36  1  0.662036  0.856576  0.015588  1
  O  O37  1  0.340440  0.643596  0.983419  1
  O  O38  1  0.485748  0.409079  0.688177  1
  O  O39  1  0.483985  0.909784  0.686281  1
  O  O40  1  0.675818  0.204972  0.622476  1
  O  O41  1  0.673477  0.705544  0.623166  1
  O  O42  1  0.840369  0.393353  0.483168  1
  O  O43  1  0.840979  0.892932  0.483141  1
  O  O44  1  0.985912  0.158918  0.188972  1
  O  O45  1  0.985753  0.659556  0.188420  1
  O  O46  1  0.825543  0.045104  0.876382  1
  O  O47  1  0.825898  0.544751  0.876554  1
