# generated using pymatgen
data_Li4Ti2Mn3Sn3O16
_symmetry_space_group_name_H-M   'P 1'
_cell_length_a   6.15432014
_cell_length_b   6.16047208
_cell_length_c   9.73753217
_cell_angle_alpha   90.04392048
_cell_angle_beta   89.12288465
_cell_angle_gamma   119.68224821
_symmetry_Int_Tables_number   1
_chemical_formula_structural   Li4Ti2Mn3Sn3O16
_chemical_formula_sum   'Li4 Ti2 Mn3 Sn3 O16'
_cell_volume   320.69414847
_cell_formula_units_Z   1
loop_
 _symmetry_equiv_pos_site_id
 _symmetry_equiv_pos_as_xyz
  1  'x, y, z'
loop_
 _atom_site_type_symbol
 _atom_site_label
 _atom_site_symmetry_multiplicity
 _atom_site_fract_x
 _atom_site_fract_y
 _atom_site_fract_z
 _atom_site_occupancy
  Li  Li0  1  0.353654  0.676824  0.896863  1
  Li  Li1  1  0.975704  0.988589  0.988488  1
  Li  Li2  1  0.986180  0.993339  0.499858  1
  Li  Li3  1  0.666602  0.333274  0.398124  1
  Ti  Ti4  1  0.345918  0.672139  0.499181  1
  Ti  Ti5  1  0.701419  0.350485  0.982195  1
  Mn  Mn6  1  0.653164  0.824942  0.219412  1
  Mn  Mn7  1  0.837379  0.661851  0.711975  1
  Mn  Mn8  1  0.837439  0.175586  0.711812  1
  Sn  Sn9  1  0.164936  0.829355  0.211412  1
  Sn  Sn10  1  0.164882  0.335863  0.211397  1
  Sn  Sn11  1  0.347040  0.173679  0.715716  1
  O  O12  1  0.178003  0.839307  0.591008  1
  O  O13  1  0.030032  0.516290  0.342440  1
  O  O14  1  0.319434  0.659245  0.095353  1
  O  O15  1  0.005077  0.003610  0.316836  1
  O  O16  1  0.994162  0.998178  0.801718  1
  O  O17  1  0.175541  0.337914  0.592062  1
  O  O18  1  0.481215  0.951624  0.339498  1
  O  O19  1  0.477963  0.524597  0.341452  1
  O  O20  1  0.316606  0.157587  0.091922  1
  O  O21  1  0.643115  0.821850  0.583678  1
  O  O22  1  0.526648  0.479024  0.848300  1
  O  O23  1  0.529793  0.048124  0.847817  1
  O  O24  1  0.679968  0.338526  0.604651  1
  O  O25  1  0.818692  0.666464  0.099848  1
  O  O26  1  0.968777  0.484333  0.866138  1
  O  O27  1  0.820659  0.157701  0.098685  1
