# generated using pymatgen
data_VOF
_symmetry_space_group_name_H-M   'P 1'
_cell_length_a   4.70552957
_cell_length_b   9.46895105
_cell_length_c   6.22080344
_cell_angle_alpha   90.00000000
_cell_angle_beta   90.00000000
_cell_angle_gamma   90.63185179
_symmetry_Int_Tables_number   1
_chemical_formula_structural   VOF
_chemical_formula_sum   'V8 O8 F8'
_cell_volume   277.15993354
_cell_formula_units_Z   8
loop_
 _symmetry_equiv_pos_site_id
 _symmetry_equiv_pos_as_xyz
  1  'x, y, z'
loop_
 _atom_site_type_symbol
 _atom_site_label
 _atom_site_symmetry_multiplicity
 _atom_site_fract_x
 _atom_site_fract_y
 _atom_site_fract_z
 _atom_site_occupancy
  V  V0  1  0.000000  0.500000  0.000000  1
  V  V1  1  0.000000  0.000000  0.000000  1
  V  V2  1  0.000000  0.000000  0.500000  1
  V  V3  1  0.000000  0.500000  0.500000  1
  V  V4  1  0.530052  0.235104  0.250755  1
  V  V5  1  0.469948  0.264896  0.750755  1
  V  V6  1  0.530052  0.735104  0.249245  1
  V  V7  1  0.469948  0.764896  0.749245  1
  O  O8  1  0.182699  0.410273  0.755276  1
  O  O9  1  0.182699  0.910273  0.744724  1
  O  O10  1  0.311550  0.156713  0.000504  1
  O  O11  1  0.311550  0.656713  0.499496  1
  O  O12  1  0.688450  0.343287  0.500504  1
  O  O13  1  0.688450  0.843287  0.999496  1
  O  O14  1  0.817301  0.089727  0.255276  1
  O  O15  1  0.817301  0.589727  0.244724  1
  F  F16  1  0.209834  0.396191  0.246816  1
  F  F17  1  0.209834  0.896191  0.253184  1
  F  F18  1  0.296810  0.149213  0.500395  1
  F  F19  1  0.296810  0.649213  0.999605  1
  F  F20  1  0.703190  0.350787  0.000395  1
  F  F21  1  0.703190  0.850787  0.499605  1
  F  F22  1  0.790166  0.103809  0.746816  1
  F  F23  1  0.790166  0.603809  0.753184  1
