# generated using pymatgen
data_V4O5F7
_symmetry_space_group_name_H-M   'P 1'
_cell_length_a   5.18121369
_cell_length_b   5.36764527
_cell_length_c   8.98985715
_cell_angle_alpha   73.46217917
_cell_angle_beta   90.00000000
_cell_angle_gamma   61.14244707
_symmetry_Int_Tables_number   1
_chemical_formula_structural   V4O5F7
_chemical_formula_sum   'V4 O5 F7'
_cell_volume   207.08224620
_cell_formula_units_Z   1
loop_
 _symmetry_equiv_pos_site_id
 _symmetry_equiv_pos_as_xyz
  1  'x, y, z'
loop_
 _atom_site_type_symbol
 _atom_site_label
 _atom_site_symmetry_multiplicity
 _atom_site_fract_x
 _atom_site_fract_y
 _atom_site_fract_z
 _atom_site_occupancy
  V  V0  1  0.737258  0.475241  0.253887  1
  V  V1  1  0.462499  0.024759  0.496113  1
  V  V2  1  0.255125  0.537535  0.753312  1
  V  V3  1  0.042661  0.962465  0.996688  1
  O  O4  1  0.407555  0.759563  0.074978  1
  O  O5  1  0.417117  0.740437  0.675022  1
  O  O6  1  0.593892  0.254218  0.333840  1
  O  O7  1  0.032007  0.750000  0.875000  1
  O  O8  1  0.098111  0.245782  0.416160  1
  F  F9  1  0.918397  0.744410  0.582406  1
  F  F10  1  0.912807  0.755590  0.167594  1
  F  F11  1  0.964492  0.252365  0.117784  1
  F  F12  1  0.540459  0.750000  0.375000  1
  F  F13  1  0.577716  0.245332  0.923646  1
  F  F14  1  0.466857  0.247635  0.632216  1
  F  F15  1  0.073048  0.254669  0.826354  1
