# generated using pymatgen
data_CuH4C3ClO2
_symmetry_space_group_name_H-M   'P 1'
_cell_length_a   8.72257740
_cell_length_b   6.33650167
_cell_length_c   20.60137766
_cell_angle_alpha   90.00000000
_cell_angle_beta   90.00000000
_cell_angle_gamma   90.00000000
_symmetry_Int_Tables_number   1
_chemical_formula_structural   CuH4C3ClO2
_chemical_formula_sum   'Cu8 H32 C24 Cl8 O16'
_cell_volume   1138.65104512
_cell_formula_units_Z   8
loop_
 _symmetry_equiv_pos_site_id
 _symmetry_equiv_pos_as_xyz
  1  'x, y, z'
loop_
 _atom_site_type_symbol
 _atom_site_label
 _atom_site_symmetry_multiplicity
 _atom_site_fract_x
 _atom_site_fract_y
 _atom_site_fract_z
 _atom_site_occupancy
  Cu  Cu0  1  0.656668  0.127875  0.321638  1
  Cu  Cu1  1  0.156668  0.372125  0.678362  1
  Cu  Cu2  1  0.343332  0.627875  0.178362  1
  Cu  Cu3  1  0.843332  0.872125  0.821638  1
  Cu  Cu4  1  0.343332  0.872125  0.678362  1
  Cu  Cu5  1  0.843332  0.627875  0.321638  1
  Cu  Cu6  1  0.656668  0.372125  0.821638  1
  Cu  Cu7  1  0.156668  0.127875  0.178362  1
  H  H8  1  0.604411  0.392245  0.508457  1
  H  H9  1  0.104412  0.107755  0.491543  1
  H  H10  1  0.395589  0.892245  0.991543  1
  H  H11  1  0.895589  0.607755  0.008457  1
  H  H12  1  0.395589  0.607755  0.491543  1
  H  H13  1  0.895589  0.892245  0.508457  1
  H  H14  1  0.604411  0.107755  0.008457  1
  H  H15  1  0.104412  0.392245  0.991543  1
  H  H16  1  0.374081  0.157320  0.349821  1
  H  H17  1  0.874081  0.342680  0.650179  1
  H  H18  1  0.625919  0.657320  0.150179  1
  H  H19  1  0.125919  0.842680  0.849821  1
  H  H20  1  0.625919  0.842680  0.650179  1
  H  H21  1  0.125919  0.657320  0.349821  1
  H  H22  1  0.374081  0.342680  0.849821  1
  H  H23  1  0.874081  0.157320  0.150179  1
  H  H24  1  0.623131  0.907947  0.426389  1
  H  H25  1  0.123131  0.592053  0.573611  1
  H  H26  1  0.376870  0.407947  0.073611  1
  H  H27  1  0.876869  0.092053  0.926389  1
  H  H28  1  0.376870  0.092053  0.573611  1
  H  H29  1  0.876869  0.407947  0.426389  1
  H  H30  1  0.623131  0.592053  0.926389  1
  H  H31  1  0.123131  0.907947  0.073611  1
  H  H32  1  0.506207  0.806263  0.357453  1
  H  H33  1  0.006207  0.693737  0.642547  1
  H  H34  1  0.493793  0.306263  0.142547  1
  H  H35  1  0.993793  0.193737  0.857453  1
  H  H36  1  0.493793  0.193737  0.642547  1
  H  H37  1  0.993793  0.306263  0.357453  1
  H  H38  1  0.506207  0.693737  0.857453  1
  H  H39  1  0.006207  0.806263  0.142547  1
  C  C40  1  0.489727  0.301349  0.431979  1
  C  C41  1  0.989727  0.198651  0.568021  1
  C  C42  1  0.510273  0.801349  0.068021  1
  C  C43  1  0.010273  0.698651  0.931979  1
  C  C44  1  0.510273  0.698651  0.568021  1
  C  C45  1  0.010273  0.801349  0.431979  1
  C  C46  1  0.489727  0.198651  0.931979  1
  C  C47  1  0.989727  0.301349  0.068021  1
  C  C48  1  0.472072  0.135317  0.381961  1
  C  C49  1  0.972072  0.364683  0.618039  1
  C  C50  1  0.527928  0.635317  0.118039  1
  C  C51  1  0.027928  0.864683  0.881961  1
  C  C52  1  0.527928  0.864683  0.618039  1
  C  C53  1  0.027928  0.635317  0.381961  1
  C  C54  1  0.472072  0.364683  0.881961  1
  C  C55  1  0.972072  0.135317  0.118039  1
  C  C56  1  0.546307  0.940608  0.385904  1
  C  C57  1  0.046307  0.559392  0.614096  1
  C  C58  1  0.453693  0.440608  0.114096  1
  C  C59  1  0.953693  0.059392  0.885904  1
  C  C60  1  0.453693  0.059392  0.614096  1
  C  C61  1  0.953693  0.440608  0.385904  1
  C  C62  1  0.546307  0.559392  0.885904  1
  C  C63  1  0.046307  0.940608  0.114096  1
  Cl  Cl64  1  0.850691  0.952202  0.275061  1
  Cl  Cl65  1  0.350691  0.547798  0.724939  1
  Cl  Cl66  1  0.149309  0.452202  0.224939  1
  Cl  Cl67  1  0.649309  0.047798  0.775061  1
  Cl  Cl68  1  0.149309  0.047798  0.724939  1
  Cl  Cl69  1  0.649309  0.452202  0.275061  1
  Cl  Cl70  1  0.850691  0.547798  0.775061  1
  Cl  Cl71  1  0.350691  0.952202  0.224939  1
  O  O72  1  0.607465  0.279207  0.471960  1
  O  O73  1  0.107465  0.220793  0.528040  1
  O  O74  1  0.392535  0.779207  0.028040  1
  O  O75  1  0.892535  0.720793  0.971960  1
  O  O76  1  0.392535  0.720793  0.528040  1
  O  O77  1  0.892535  0.779207  0.471960  1
  O  O78  1  0.607465  0.220793  0.971960  1
  O  O79  1  0.107465  0.279207  0.028040  1
  O  O80  1  0.394301  0.448672  0.435681  1
  O  O81  1  0.894301  0.051328  0.564319  1
  O  O82  1  0.605699  0.948672  0.064319  1
  O  O83  1  0.105699  0.551328  0.935681  1
  O  O84  1  0.605699  0.551328  0.564319  1
  O  O85  1  0.105699  0.948672  0.435681  1
  O  O86  1  0.394301  0.051328  0.935681  1
  O  O87  1  0.894301  0.448672  0.064319  1
