# generated using pymatgen
data_Li2V3P5O18
_symmetry_space_group_name_H-M   'P 1'
_cell_length_a   4.86932277
_cell_length_b   13.20787420
_cell_length_c   12.68615693
_cell_angle_alpha   87.92869330
_cell_angle_beta   89.96763387
_cell_angle_gamma   79.45055801
_symmetry_Int_Tables_number   1
_chemical_formula_structural   Li2V3P5O18
_chemical_formula_sum   'Li4 V6 P10 O36'
_cell_volume   801.55987758
_cell_formula_units_Z   2
loop_
 _symmetry_equiv_pos_site_id
 _symmetry_equiv_pos_as_xyz
  1  'x, y, z'
loop_
 _atom_site_type_symbol
 _atom_site_label
 _atom_site_symmetry_multiplicity
 _atom_site_fract_x
 _atom_site_fract_y
 _atom_site_fract_z
 _atom_site_occupancy
  Li  Li0  1  0.522922  0.667957  0.867031  1
  Li  Li1  1  0.807067  0.668281  0.369775  1
  Li  Li2  1  0.190887  0.332102  0.632794  1
  Li  Li3  1  0.473097  0.332768  0.134503  1
  V  V4  1  0.154681  0.606107  0.621200  1
  V  V5  1  0.238127  0.605742  0.121225  1
  V  V6  1  0.759713  0.394408  0.879387  1
  V  V7  1  0.843901  0.394454  0.379174  1
  V  V8  1  0.498340  0.000234  0.500527  1
  V  V9  1  0.497586  0.999581  0.000821  1
  P  P10  1  0.063499  0.863737  0.595241  1
  P  P11  1  0.067460  0.863161  0.095259  1
  P  P12  1  0.158165  0.545732  0.872735  1
  P  P13  1  0.295085  0.546172  0.372783  1
  P  P14  1  0.703431  0.454342  0.627562  1
  P  P15  1  0.838938  0.454334  0.127796  1
  P  P16  1  0.927555  0.136595  0.906632  1
  P  P17  1  0.932086  0.136502  0.405612  1
  P  P18  1  0.730474  0.000426  0.750730  1
  P  P19  1  0.265925  0.999037  0.251006  1
  O  O20  1  0.598709  0.953806  0.843758  1
  O  O21  1  0.216736  0.912025  0.006657  1
  O  O22  1  0.441440  0.952311  0.344567  1
  O  O23  1  0.982961  0.914808  0.708445  1
  O  O24  1  0.866195  0.911976  0.506264  1
  O  O25  1  0.097481  0.913596  0.208843  1
  O  O26  1  0.360643  0.874981  0.570152  1
  O  O27  1  0.759644  0.873777  0.069755  1
  O  O28  1  0.028352  0.751670  0.616858  1
  O  O29  1  0.214395  0.751178  0.116078  1
  O  O30  1  0.248527  0.608043  0.963436  1
  O  O31  1  0.235057  0.609002  0.774606  1
  O  O32  1  0.143961  0.608814  0.463621  1
  O  O33  1  0.155234  0.609480  0.274840  1
  O  O34  1  0.752835  0.566676  0.625574  1
  O  O35  1  0.838815  0.544030  0.877150  1
  O  O36  1  0.678114  0.566635  0.126111  1
  O  O37  1  0.616397  0.543998  0.377282  1
  O  O38  1  0.382413  0.456079  0.623514  1
  O  O39  1  0.319336  0.433447  0.874265  1
  O  O40  1  0.158232  0.456115  0.124145  1
  O  O41  1  0.244559  0.433989  0.374449  1
  O  O42  1  0.842555  0.391489  0.725978  1
  O  O43  1  0.856763  0.391608  0.537119  1
  O  O44  1  0.761253  0.391214  0.225947  1
  O  O45  1  0.748506  0.391974  0.037155  1
  O  O46  1  0.782803  0.248693  0.884685  1
  O  O47  1  0.964328  0.248716  0.383537  1
  O  O48  1  0.235172  0.125494  0.932667  1
  O  O49  1  0.634583  0.125446  0.430405  1
  O  O50  1  0.899086  0.085513  0.793305  1
  O  O51  1  0.129942  0.088292  0.494378  1
  O  O52  1  0.014020  0.085045  0.292812  1
  O  O53  1  0.555172  0.047231  0.657140  1
  O  O54  1  0.776921  0.087801  0.994863  1
  O  O55  1  0.396841  0.045479  0.157732  1
