# generated using pymatgen
data_Li7Mn11(Si3O16)2
_symmetry_space_group_name_H-M   'P 1'
_cell_length_a   8.26268025
_cell_length_b   8.30604662
_cell_length_c   8.25579477
_cell_angle_alpha   90.71150731
_cell_angle_beta   89.99645047
_cell_angle_gamma   91.30302958
_symmetry_Int_Tables_number   1
_chemical_formula_structural   Li7Mn11(Si3O16)2
_chemical_formula_sum   'Li7 Mn11 Si6 O32'
_cell_volume   566.40670000
_cell_formula_units_Z   1
loop_
 _symmetry_equiv_pos_site_id
 _symmetry_equiv_pos_as_xyz
  1  'x, y, z'
loop_
 _atom_site_type_symbol
 _atom_site_label
 _atom_site_symmetry_multiplicity
 _atom_site_fract_x
 _atom_site_fract_y
 _atom_site_fract_z
 _atom_site_occupancy
  Li  Li0  1  0.129916  0.881020  0.375840  1
  Li  Li1  1  0.253160  0.756138  0.748787  1
  Li  Li2  1  0.248596  0.246932  0.244083  1
  Li  Li3  1  0.375869  0.125225  0.876206  1
  Li  Li4  1  0.619058  0.622063  0.627356  1
  Li  Li5  1  0.743531  0.254318  0.757228  1
  Li  Li6  1  0.876770  0.367804  0.120627  1
  Mn  Mn7  1  0.001144  0.503186  0.491975  1
  Mn  Mn8  1  0.372592  0.619719  0.371211  1
  Mn  Mn9  1  0.503257  0.483841  0.995339  1
  Mn  Mn10  1  0.484969  0.997382  0.509958  1
  Mn  Mn11  1  0.625292  0.876357  0.883085  1
  Mn  Mn12  1  0.610575  0.365075  0.384489  1
  Mn  Mn13  1  0.758689  0.743907  0.250973  1
  Mn  Mn14  1  0.887234  0.624948  0.871922  1
  Mn  Mn15  1  0.882299  0.886555  0.632080  1
  Mn  Mn16  1  0.873007  0.125757  0.378939  1
  Mn  Mn17  1  0.015487  0.011863  0.007008  1
  Si  Si18  1  0.135638  0.619277  0.113026  1
  Si  Si19  1  0.127362  0.381976  0.871993  1
  Si  Si20  1  0.121197  0.134867  0.622665  1
  Si  Si21  1  0.375177  0.874994  0.123074  1
  Si  Si22  1  0.368810  0.380599  0.621169  1
  Si  Si23  1  0.616916  0.118111  0.130271  1
  O  O24  1  0.102263  0.139366  0.405644  1
  O  O25  1  0.126087  0.610163  0.887315  1
  O  O26  1  0.115696  0.923192  0.637191  1
  O  O27  1  0.144250  0.401840  0.084256  1
  O  O28  1  0.119962  0.168935  0.848070  1
  O  O29  1  0.139405  0.619705  0.325620  1
  O  O30  1  0.136917  0.363103  0.639073  1
  O  O31  1  0.162454  0.845510  0.112244  1
  O  O32  1  0.334125  0.158562  0.619626  1
  O  O33  1  0.360709  0.642603  0.127191  1
  O  O34  1  0.342468  0.386612  0.834857  1
  O  O35  1  0.373820  0.850086  0.341362  1
  O  O36  1  0.358379  0.597339  0.599956  1
  O  O37  1  0.396834  0.085010  0.136403  1
  O  O38  1  0.371287  0.382695  0.398193  1
  O  O39  1  0.398710  0.866472  0.907446  1
  O  O40  1  0.577553  0.366685  0.622426  1
  O  O41  1  0.604981  0.886234  0.120962  1
  O  O42  1  0.598668  0.614309  0.374935  1
  O  O43  1  0.628308  0.106330  0.918210  1
  O  O44  1  0.613515  0.326897  0.140132  1
  O  O45  1  0.643563  0.879823  0.651851  1
  O  O46  1  0.635099  0.108466  0.348867  1
  O  O47  1  0.656451  0.638351  0.881501  1
  O  O48  1  0.845968  0.354520  0.375684  1
  O  O49  1  0.867774  0.864764  0.869595  1
  O  O50  1  0.843764  0.116185  0.148081  1
  O  O51  1  0.881580  0.653669  0.641238  1
  O  O52  1  0.883451  0.892639  0.401492  1
  O  O53  1  0.911963  0.398882  0.865210  1
  O  O54  1  0.896624  0.123505  0.620393  1
  O  O55  1  0.920828  0.625655  0.105693  1
