# generated using pymatgen
data_BaLaI5
_symmetry_space_group_name_H-M   'P 1'
_cell_length_a   12.19365605
_cell_length_b   8.80269680
_cell_length_c   8.80269680
_cell_angle_alpha   70.85779891
_cell_angle_beta   69.74592912
_cell_angle_gamma   69.74592912
_symmetry_Int_Tables_number   1
_chemical_formula_structural   BaLaI5
_chemical_formula_sum   'Ba2 La2 I10'
_cell_volume   808.04911229
_cell_formula_units_Z   2
loop_
 _symmetry_equiv_pos_site_id
 _symmetry_equiv_pos_as_xyz
  1  'x, y, z'
loop_
 _atom_site_type_symbol
 _atom_site_label
 _atom_site_symmetry_multiplicity
 _atom_site_fract_x
 _atom_site_fract_y
 _atom_site_fract_z
 _atom_site_occupancy
  Ba  Ba0  1  0.750000  0.549051  0.450949  1
  Ba  Ba1  1  0.250000  0.450949  0.549051  1
  La  La2  1  0.500000  0.000000  0.000000  1
  La  La3  1  0.000000  0.000000  0.000000  1
  I  I4  1  0.876422  0.259225  0.217198  1
  I  I5  1  0.968996  0.295342  0.679242  1
  I  I6  1  0.376422  0.217198  0.259225  1
  I  I7  1  0.750000  0.903160  0.096840  1
  I  I8  1  0.531004  0.320758  0.704658  1
  I  I9  1  0.468996  0.679242  0.295342  1
  I  I10  1  0.250000  0.096840  0.903160  1
  I  I11  1  0.623578  0.782802  0.740775  1
  I  I12  1  0.031004  0.704658  0.320758  1
  I  I13  1  0.123578  0.740775  0.782802  1
