# generated using pymatgen
data_LiSi3BiO8
_symmetry_space_group_name_H-M   'P 1'
_cell_length_a   7.67730352
_cell_length_b   7.67730352
_cell_length_c   14.82538048
_cell_angle_alpha   76.63479199
_cell_angle_beta   103.36520801
_cell_angle_gamma   64.52760567
_symmetry_Int_Tables_number   1
_chemical_formula_structural   LiSi3BiO8
_chemical_formula_sum   'Li4 Si12 Bi4 O32'
_cell_volume   711.08231351
_cell_formula_units_Z   4
loop_
 _symmetry_equiv_pos_site_id
 _symmetry_equiv_pos_as_xyz
  1  'x, y, z'
loop_
 _atom_site_type_symbol
 _atom_site_label
 _atom_site_symmetry_multiplicity
 _atom_site_fract_x
 _atom_site_fract_y
 _atom_site_fract_z
 _atom_site_occupancy
  Li  Li0  1  0.187089  0.629273  0.817130  1
  Li  Li1  1  0.370727  0.812911  0.317130  1
  Li  Li2  1  0.629273  0.187089  0.682870  1
  Li  Li3  1  0.812911  0.370727  0.182870  1
  Si  Si4  1  0.465390  0.827733  0.822694  1
  Si  Si5  1  0.856471  0.850255  0.904592  1
  Si  Si6  1  0.212299  0.196210  0.885802  1
  Si  Si7  1  0.196210  0.212299  0.614198  1
  Si  Si8  1  0.850255  0.856471  0.595408  1
  Si  Si9  1  0.172267  0.534610  0.322694  1
  Si  Si10  1  0.827733  0.465390  0.677306  1
  Si  Si11  1  0.149745  0.143529  0.404592  1
  Si  Si12  1  0.803790  0.787701  0.385802  1
  Si  Si13  1  0.143529  0.149745  0.095408  1
  Si  Si14  1  0.787701  0.803790  0.114198  1
  Si  Si15  1  0.534610  0.172267  0.177306  1
  Bi  Bi16  1  0.278781  0.658532  0.566849  1
  Bi  Bi17  1  0.658532  0.278781  0.933151  1
  Bi  Bi18  1  0.341468  0.721219  0.066849  1
  Bi  Bi19  1  0.721219  0.341468  0.433151  1
  O  O20  1  0.094592  0.712048  0.919663  1
  O  O21  1  0.339673  0.961420  0.882798  1
  O  O22  1  0.098484  0.740040  0.666422  1
  O  O23  1  0.350494  0.984571  0.705372  1
  O  O24  1  0.453271  0.617818  0.840579  1
  O  O25  1  0.345785  0.310812  0.888104  1
  O  O26  1  0.711543  0.755598  0.864546  1
  O  O27  1  0.038580  0.660327  0.382798  1
  O  O28  1  0.287952  0.905408  0.419663  1
  O  O29  1  0.310812  0.345785  0.611896  1
  O  O30  1  0.755598  0.711543  0.635454  1
  O  O31  1  0.259960  0.901516  0.166422  1
  O  O32  1  0.015429  0.649506  0.205372  1
  O  O33  1  0.617818  0.453271  0.659421  1
  O  O34  1  0.864794  0.842111  0.485466  1
  O  O35  1  0.135206  0.157889  0.514534  1
  O  O36  1  0.382182  0.546729  0.340579  1
  O  O37  1  0.740040  0.098484  0.833578  1
  O  O38  1  0.984571  0.350494  0.794628  1
  O  O39  1  0.244402  0.288457  0.364546  1
  O  O40  1  0.689188  0.654215  0.388104  1
  O  O41  1  0.712048  0.094592  0.580337  1
  O  O42  1  0.961420  0.339673  0.617202  1
  O  O43  1  0.288457  0.244402  0.135454  1
  O  O44  1  0.654215  0.689188  0.111896  1
  O  O45  1  0.546729  0.382182  0.159421  1
  O  O46  1  0.157889  0.135206  0.985466  1
  O  O47  1  0.842111  0.864794  0.014534  1
  O  O48  1  0.649506  0.015429  0.294628  1
  O  O49  1  0.901516  0.259960  0.333578  1
  O  O50  1  0.660327  0.038580  0.117202  1
  O  O51  1  0.905408  0.287952  0.080337  1
