# generated using pymatgen
data_FeOF
_symmetry_space_group_name_H-M   'P 1'
_cell_length_a   14.25965308
_cell_length_b   9.48814826
_cell_length_c   3.08724847
_cell_angle_alpha   90.00000000
_cell_angle_beta   90.00000000
_cell_angle_gamma   90.11206455
_symmetry_Int_Tables_number   1
_chemical_formula_structural   FeOF
_chemical_formula_sum   'Fe12 O12 F12'
_cell_volume   417.69682635
_cell_formula_units_Z   12
loop_
 _symmetry_equiv_pos_site_id
 _symmetry_equiv_pos_as_xyz
  1  'x, y, z'
loop_
 _atom_site_type_symbol
 _atom_site_label
 _atom_site_symmetry_multiplicity
 _atom_site_fract_x
 _atom_site_fract_y
 _atom_site_fract_z
 _atom_site_occupancy
  Fe  Fe0  1  0.006643  0.009052  0.000000  1
  Fe  Fe1  1  0.005192  0.495100  0.000000  1
  Fe  Fe2  1  0.149073  0.254818  0.500000  1
  Fe  Fe3  1  0.148106  0.747241  0.500000  1
  Fe  Fe4  1  0.338044  0.005853  0.000000  1
  Fe  Fe5  1  0.341399  0.497227  0.000000  1
  Fe  Fe6  1  0.499967  0.719462  0.500000  1
  Fe  Fe7  1  0.485906  0.250484  0.500000  1
  Fe  Fe8  1  0.672995  0.993383  0.000000  1
  Fe  Fe9  1  0.669358  0.514836  0.000000  1
  Fe  Fe10  1  0.854200  0.253714  0.500000  1
  Fe  Fe11  1  0.820794  0.750578  0.500000  1
  O  O12  1  0.065428  0.410745  0.500000  1
  O  O13  1  0.064064  0.905637  0.500000  1
  O  O14  1  0.107743  0.152193  0.000000  1
  O  O15  1  0.100437  0.654070  0.000000  1
  O  O16  1  0.399754  0.400030  0.500000  1
  O  O17  1  0.433086  0.145388  0.000000  1
  O  O18  1  0.433634  0.660123  0.000000  1
  O  O19  1  0.603756  0.590127  0.500000  1
  O  O20  1  0.728631  0.907207  0.500000  1
  O  O21  1  0.770336  0.651068  0.000000  1
  O  O22  1  0.898185  0.355521  0.000000  1
  O  O23  1  0.937180  0.094302  0.500000  1
  F  F24  1  0.232872  0.343260  0.000000  1
  F  F25  1  0.237854  0.854211  0.000000  1
  F  F26  1  0.270612  0.094123  0.500000  1
  F  F27  1  0.266898  0.597880  0.500000  1
  F  F28  1  0.396566  0.902260  0.500000  1
  F  F29  1  0.566093  0.338347  0.000000  1
  F  F30  1  0.563884  0.854391  0.000000  1
  F  F31  1  0.603485  0.097404  0.500000  1
  F  F32  1  0.729434  0.394317  0.500000  1
  F  F33  1  0.767704  0.153105  0.000000  1
  F  F34  1  0.896056  0.844768  0.000000  1
  F  F35  1  0.934627  0.607777  0.500000  1
