# generated using pymatgen
data_Li4Mn3Fe3(NiO8)2
_symmetry_space_group_name_H-M   'P 1'
_cell_length_a   5.86059702
_cell_length_b   5.84505314
_cell_length_c   9.60446936
_cell_angle_alpha   90.01980333
_cell_angle_beta   90.18094421
_cell_angle_gamma   119.89679839
_symmetry_Int_Tables_number   1
_chemical_formula_structural   Li4Mn3Fe3(NiO8)2
_chemical_formula_sum   'Li4 Mn3 Fe3 Ni2 O16'
_cell_volume   285.22119578
_cell_formula_units_Z   1
loop_
 _symmetry_equiv_pos_site_id
 _symmetry_equiv_pos_as_xyz
  1  'x, y, z'
loop_
 _atom_site_type_symbol
 _atom_site_label
 _atom_site_symmetry_multiplicity
 _atom_site_fract_x
 _atom_site_fract_y
 _atom_site_fract_z
 _atom_site_occupancy
  Li  Li0  1  0.334862  0.667539  0.892079  1
  Li  Li1  1  0.998112  0.998913  0.998450  1
  Li  Li2  1  0.000070  0.000053  0.497878  1
  Li  Li3  1  0.665690  0.332996  0.391404  1
  Mn  Mn4  1  0.660104  0.830077  0.213688  1
  Mn  Mn5  1  0.831063  0.662275  0.714852  1
  Mn  Mn6  1  0.831048  0.168825  0.714878  1
  Fe  Fe7  1  0.168274  0.830519  0.214363  1
  Fe  Fe8  1  0.168276  0.337803  0.214374  1
  Fe  Fe9  1  0.336986  0.168540  0.714804  1
  Ni  Ni10  1  0.334522  0.667174  0.489344  1
  Ni  Ni11  1  0.665457  0.332523  0.987413  1
  O  O12  1  0.158132  0.838353  0.607142  1
  O  O13  1  0.036095  0.518014  0.333225  1
  O  O14  1  0.345800  0.672908  0.101225  1
  O  O15  1  0.986558  0.993376  0.313553  1
  O  O16  1  0.985680  0.992931  0.813805  1
  O  O17  1  0.157769  0.319712  0.607132  1
  O  O18  1  0.484749  0.963148  0.332421  1
  O  O19  1  0.484983  0.521886  0.332461  1
  O  O20  1  0.321573  0.160869  0.105270  1
  O  O21  1  0.683281  0.841538  0.606104  1
  O  O22  1  0.521627  0.484644  0.832020  1
  O  O23  1  0.521878  0.037001  0.832078  1
  O  O24  1  0.682168  0.341039  0.605572  1
  O  O25  1  0.836337  0.678617  0.104894  1
  O  O26  1  0.962779  0.481553  0.832566  1
  O  O27  1  0.836126  0.157471  0.104846  1
