# generated using pymatgen
data_Ti3NbCu2(PO4)6
_symmetry_space_group_name_H-M   'P 1'
_cell_length_a   8.70457105
_cell_length_b   8.70457156
_cell_length_c   8.70457120
_cell_angle_alpha   60.13465555
_cell_angle_beta   60.13465094
_cell_angle_gamma   60.13465165
_symmetry_Int_Tables_number   1
_chemical_formula_structural   Ti3NbCu2(PO4)6
_chemical_formula_sum   'Ti3 Nb1 Cu2 P6 O24'
_cell_volume   467.78886012
_cell_formula_units_Z   1
loop_
 _symmetry_equiv_pos_site_id
 _symmetry_equiv_pos_as_xyz
  1  'x, y, z'
loop_
 _atom_site_type_symbol
 _atom_site_label
 _atom_site_symmetry_multiplicity
 _atom_site_fract_x
 _atom_site_fract_y
 _atom_site_fract_z
 _atom_site_occupancy
  Ti  Ti0  1  0.142414  0.142414  0.142414  1
  Ti  Ti1  1  0.358323  0.358323  0.358323  1
  Ti  Ti2  1  0.642460  0.642460  0.642460  1
  Nb  Nb3  1  0.858790  0.858790  0.858790  1
  Cu  Cu4  1  0.002351  0.002351  0.002351  1
  Cu  Cu5  1  0.499954  0.499954  0.499954  1
  P  P6  1  0.042011  0.748550  0.455282  1
  P  P7  1  0.455282  0.042011  0.748550  1
  P  P8  1  0.255492  0.535041  0.960572  1
  P  P9  1  0.535041  0.960572  0.255492  1
  P  P10  1  0.960572  0.255492  0.535041  1
  P  P11  1  0.748550  0.455282  0.042011  1
  O  O12  1  0.125406  0.304224  0.499365  1
  O  O13  1  0.304224  0.499365  0.125406  1
  O  O14  1  0.058885  0.915989  0.269998  1
  O  O15  1  0.499365  0.125406  0.304224  1
  O  O16  1  0.003825  0.801953  0.620334  1
  O  O17  1  0.228921  0.583792  0.440363  1
  O  O18  1  0.269998  0.058885  0.915989  1
  O  O19  1  0.440363  0.228921  0.583792  1
  O  O20  1  0.197579  0.374973  0.999283  1
  O  O21  1  0.583792  0.440363  0.228921  1
  O  O22  1  0.088548  0.725338  0.942586  1
  O  O23  1  0.374973  0.999283  0.197579  1
  O  O24  1  0.620334  0.003825  0.801953  1
  O  O25  1  0.915989  0.269998  0.058885  1
  O  O26  1  0.417137  0.557275  0.771765  1
  O  O27  1  0.801953  0.620334  0.003825  1
  O  O28  1  0.557275  0.771765  0.417137  1
  O  O29  1  0.725338  0.942586  0.088548  1
  O  O30  1  0.771765  0.417137  0.557275  1
  O  O31  1  0.999283  0.197579  0.374973  1
  O  O32  1  0.498357  0.875623  0.697242  1
  O  O33  1  0.942586  0.088548  0.725338  1
  O  O34  1  0.697242  0.498357  0.875623  1
  O  O35  1  0.875623  0.697242  0.498357  1
