# generated using pymatgen
data_Sb4O5F2
_symmetry_space_group_name_H-M   'P 1'
_cell_length_a   14.12911780
_cell_length_b   5.62215541
_cell_length_c   10.94087826
_cell_angle_alpha   90.00000000
_cell_angle_beta   98.14768008
_cell_angle_gamma   90.00000000
_symmetry_Int_Tables_number   1
_chemical_formula_structural   Sb4O5F2
_chemical_formula_sum   'Sb16 O20 F8'
_cell_volume   860.32800729
_cell_formula_units_Z   4
loop_
 _symmetry_equiv_pos_site_id
 _symmetry_equiv_pos_as_xyz
  1  'x, y, z'
loop_
 _atom_site_type_symbol
 _atom_site_label
 _atom_site_symmetry_multiplicity
 _atom_site_fract_x
 _atom_site_fract_y
 _atom_site_fract_z
 _atom_site_occupancy
  Sb  Sb0  1  0.039759  0.638100  0.395382  1
  Sb  Sb1  1  0.093080  0.678702  0.732878  1
  Sb  Sb2  1  0.179274  0.270878  0.207304  1
  Sb  Sb3  1  0.225575  0.171530  0.583108  1
  Sb  Sb4  1  0.295644  0.230017  0.901173  1
  Sb  Sb5  1  0.309974  0.767277  0.356462  1
  Sb  Sb6  1  0.372613  0.681927  0.697566  1
  Sb  Sb7  1  0.424120  0.729075  0.065877  1
  Sb  Sb8  1  0.575880  0.229075  0.934123  1
  Sb  Sb9  1  0.627387  0.181927  0.302434  1
  Sb  Sb10  1  0.690026  0.267277  0.643538  1
  Sb  Sb11  1  0.704356  0.730017  0.098827  1
  Sb  Sb12  1  0.774425  0.671530  0.416892  1
  Sb  Sb13  1  0.820726  0.770878  0.792696  1
  Sb  Sb14  1  0.906920  0.178702  0.267122  1
  Sb  Sb15  1  0.960241  0.138100  0.604618  1
  O  O16  1  0.044500  0.311384  0.303188  1
  O  O17  1  0.100006  0.998231  0.607773  1
  O  O18  1  0.079450  0.492967  0.571461  1
  O  O19  1  0.207734  0.008872  0.325878  1
  O  O20  1  0.209126  0.520765  0.337172  1
  O  O21  1  0.288400  0.010331  0.745547  1
  O  O22  1  0.263799  0.464160  0.731782  1
  O  O23  1  0.294662  0.815269  0.536502  1
  O  O24  1  0.414094  0.020941  0.960074  1
  O  O25  1  0.396094  0.499996  0.924593  1
  O  O26  1  0.603906  -0.000004  0.075407  1
  O  O27  1  0.585906  0.520941  0.039926  1
  O  O28  1  0.705338  0.315269  0.463498  1
  O  O29  1  0.736201  0.964160  0.268218  1
  O  O30  1  0.711600  0.510331  0.254453  1
  O  O31  1  0.790874  0.020765  0.662828  1
  O  O32  1  0.792266  0.508872  0.674122  1
  O  O33  1  0.920550  0.992967  0.428539  1
  O  O34  1  0.899994  0.498231  0.392227  1
  O  O35  1  0.955500  0.811384  0.696812  1
  F  F36  1  0.042913  0.361415  0.802154  1
  F  F37  1  0.281037  0.753011  0.079706  1
  F  F38  1  0.323953  0.279769  0.190753  1
  F  F39  1  0.404621  0.407700  0.581572  1
  F  F40  1  0.595379  0.907700  0.418428  1
  F  F41  1  0.676047  0.779769  0.809247  1
  F  F42  1  0.718963  0.253011  0.920294  1
  F  F43  1  0.957087  0.861415  0.197846  1
