# generated using pymatgen
data_Li2VCrP2(O4F)2
_symmetry_space_group_name_H-M   'P 1'
_cell_length_a   5.22741344
_cell_length_b   5.37250041
_cell_length_c   7.40597860
_cell_angle_alpha   109.72509720
_cell_angle_beta   106.72323412
_cell_angle_gamma   98.17456939
_symmetry_Int_Tables_number   1
_chemical_formula_structural   Li2VCrP2(O4F)2
_chemical_formula_sum   'Li2 V1 Cr1 P2 O8 F2'
_cell_volume   180.77963922
_cell_formula_units_Z   1
loop_
 _symmetry_equiv_pos_site_id
 _symmetry_equiv_pos_as_xyz
  1  'x, y, z'
loop_
 _atom_site_type_symbol
 _atom_site_label
 _atom_site_symmetry_multiplicity
 _atom_site_fract_x
 _atom_site_fract_y
 _atom_site_fract_z
 _atom_site_occupancy
  Li  Li0  1  0.081937  0.427517  0.810925  1
  Li  Li1  1  0.918063  0.572483  0.189075  1
  V  V2  1  0.000000  0.000000  0.000000  1
  Cr  Cr3  1  0.500000  0.500000  0.500000  1
  P  P4  1  0.439364  0.120235  0.760140  1
  P  P5  1  0.560636  0.879765  0.239860  1
  O  O6  1  0.282173  0.161204  0.913274  1
  O  O7  1  0.356851  0.821445  0.608151  1
  O  O8  1  0.348464  0.316628  0.656653  1
  O  O9  1  0.240285  0.776626  0.111721  1
  O  O10  1  0.759715  0.223374  0.888279  1
  O  O11  1  0.651536  0.683372  0.343347  1
  O  O12  1  0.643149  0.178555  0.391849  1
  O  O13  1  0.717827  0.838796  0.086726  1
  F  F14  1  0.139417  0.338099  0.267159  1
  F  F15  1  0.860583  0.661901  0.732841  1
