# generated using pymatgen
data_Li2Fe3Si3O10
_symmetry_space_group_name_H-M   'P 1'
_cell_length_a   4.86387294
_cell_length_b   8.37485430
_cell_length_c   10.49383129
_cell_angle_alpha   93.45335783
_cell_angle_beta   90.00000000
_cell_angle_gamma   73.11896527
_symmetry_Int_Tables_number   1
_chemical_formula_structural   Li2Fe3Si3O10
_chemical_formula_sum   'Li4 Fe6 Si6 O20'
_cell_volume   408.22761981
_cell_formula_units_Z   2
loop_
 _symmetry_equiv_pos_site_id
 _symmetry_equiv_pos_as_xyz
  1  'x, y, z'
loop_
 _atom_site_type_symbol
 _atom_site_label
 _atom_site_symmetry_multiplicity
 _atom_site_fract_x
 _atom_site_fract_y
 _atom_site_fract_z
 _atom_site_occupancy
  Li  Li0  1  0.265399  0.881069  0.021818  1
  Li  Li1  1  0.853530  0.881069  0.521818  1
  Li  Li2  1  0.146470  0.118931  0.478182  1
  Li  Li3  1  0.734601  0.118931  0.978182  1
  Fe  Fe4  1  0.373082  0.687511  0.290653  1
  Fe  Fe5  1  0.939408  0.687511  0.790653  1
  Fe  Fe6  1  0.500000  0.500000  0.000000  1
  Fe  Fe7  1  0.000000  0.500000  0.500000  1
  Fe  Fe8  1  0.060592  0.312489  0.209347  1
  Fe  Fe9  1  0.626918  0.312489  0.709347  1
  Si  Si10  1  0.839617  0.691496  0.097080  1
  Si  Si11  1  0.468886  0.691496  0.597080  1
  Si  Si12  1  0.531114  0.308504  0.402920  1
  Si  Si13  1  0.160383  0.308504  0.902920  1
  Si  Si14  1  0.812453  0.000000  0.250000  1
  Si  Si15  1  0.187547  1.000000  0.750000  1
  O  O16  1  0.041835  0.907868  0.355335  1
  O  O17  1  0.652497  0.870339  0.174093  1
  O  O18  1  0.050297  0.907868  0.855335  1
  O  O19  1  0.477162  0.870339  0.674093  1
  O  O20  1  0.176630  0.688052  0.099855  1
  O  O21  1  0.610762  0.694378  0.456236  1
  O  O22  1  0.135318  0.688052  0.599855  1
  O  O23  1  0.694861  0.694378  0.956236  1
  O  O24  1  0.758520  0.542104  0.170177  1
  O  O25  1  0.699376  0.542104  0.670177  1
  O  O26  1  0.300624  0.457896  0.329823  1
  O  O27  1  0.241480  0.457896  0.829823  1
  O  O28  1  0.305139  0.305622  0.043764  1
  O  O29  1  0.864682  0.311948  0.400145  1
  O  O30  1  0.389238  0.305622  0.543764  1
  O  O31  1  0.823370  0.311948  0.900145  1
  O  O32  1  0.522837  0.129661  0.325907  1
  O  O33  1  0.949703  0.092132  0.144665  1
  O  O34  1  0.347503  0.129661  0.825907  1
  O  O35  1  0.958165  0.092132  0.644665  1
