# generated using pymatgen
data_Li6Fe3Co3O16
_symmetry_space_group_name_H-M   'P 1'
_cell_length_a   5.77218330
_cell_length_b   5.75005466
_cell_length_c   9.83798121
_cell_angle_alpha   90.36249687
_cell_angle_beta   89.33475100
_cell_angle_gamma   120.46122284
_symmetry_Int_Tables_number   1
_chemical_formula_structural   Li6Fe3Co3O16
_chemical_formula_sum   'Li6 Fe3 Co3 O16'
_cell_volume   281.43761061
_cell_formula_units_Z   1
loop_
 _symmetry_equiv_pos_site_id
 _symmetry_equiv_pos_as_xyz
  1  'x, y, z'
loop_
 _atom_site_type_symbol
 _atom_site_label
 _atom_site_symmetry_multiplicity
 _atom_site_fract_x
 _atom_site_fract_y
 _atom_site_fract_z
 _atom_site_occupancy
  Li  Li0  1  0.334763  0.662739  0.501621  1
  Li  Li1  1  0.328758  0.667030  0.888915  1
  Li  Li2  1  0.015251  0.002963  0.000247  1
  Li  Li3  1  0.012661  0.005600  0.498694  1
  Li  Li4  1  0.666881  0.334336  -0.000358  1
  Li  Li5  1  0.661530  0.333535  0.389734  1
  Fe  Fe6  1  0.662902  0.832863  0.214827  1
  Fe  Fe7  1  0.829365  0.661652  0.714530  1
  Fe  Fe8  1  0.829466  0.167065  0.715744  1
  Co  Co9  1  0.166992  0.833134  0.213724  1
  Co  Co10  1  0.170154  0.339202  0.215906  1
  Co  Co11  1  0.335672  0.167895  0.714424  1
  O  O12  1  0.157348  0.846326  0.612681  1
  O  O13  1  0.028295  0.516382  0.315517  1
  O  O14  1  0.309335  0.650805  0.105841  1
  O  O15  1  0.020953  0.014840  0.316325  1
  O  O16  1  0.006398  0.985880  0.817015  1
  O  O17  1  0.160574  0.309959  0.615702  1
  O  O18  1  0.476063  0.962576  0.319818  1
  O  O19  1  0.472438  0.509945  0.319798  1
  O  O20  1  0.314683  0.156957  0.115170  1
  O  O21  1  0.691650  0.841436  0.610685  1
  O  O22  1  0.512469  0.481969  0.819833  1
  O  O23  1  0.508458  0.031823  0.818067  1
  O  O24  1  0.660374  0.347925  0.603882  1
  O  O25  1  0.849503  0.691349  0.115130  1
  O  O26  1  0.964583  0.487341  0.821417  1
  O  O27  1  0.852479  0.156775  0.112953  1
