# generated using pymatgen
data_Li4Ti3VO8
_symmetry_space_group_name_H-M   'P 1'
_cell_length_a   5.91293336
_cell_length_b   8.45118431
_cell_length_c   10.24153098
_cell_angle_alpha   113.80406326
_cell_angle_beta   150.00219028
_cell_angle_gamma   45.60877896
_symmetry_Int_Tables_number   1
_chemical_formula_structural   Li4Ti3VO8
_chemical_formula_sum   'Li4 Ti3 V1 O8'
_cell_volume   150.72873429
_cell_formula_units_Z   1
loop_
 _symmetry_equiv_pos_site_id
 _symmetry_equiv_pos_as_xyz
  1  'x, y, z'
loop_
 _atom_site_type_symbol
 _atom_site_label
 _atom_site_symmetry_multiplicity
 _atom_site_fract_x
 _atom_site_fract_y
 _atom_site_fract_z
 _atom_site_occupancy
  Li  Li0  1  0.003938  0.496779  0.500797  1
  Li  Li1  1  0.497935  0.496430  0.996727  1
  Li  Li2  1  0.492265  0.498468  0.496387  1
  Li  Li3  1  0.006033  0.496192  0.001203  1
  Ti  Ti4  1  0.503113  0.996511  0.999223  1
  Ti  Ti5  1  0.002682  0.996718  0.499055  1
  Ti  Ti6  1  0.503034  0.996391  0.498908  1
  V  V7  1  0.002707  0.996689  0.999168  1
  O  O8  1  0.953895  0.762465  0.982943  1
  O  O9  1  0.533678  0.231050  0.015137  1
  O  O10  1  0.533698  0.231183  0.509374  1
  O  O11  1  0.990139  0.761547  0.500656  1
  O  O12  1  0.017726  0.230529  0.498160  1
  O  O13  1  0.471258  0.762349  0.982896  1
  O  O14  1  0.051369  0.230988  0.015254  1
  O  O15  1  0.472165  0.761775  0.488937  1
