# generated using pymatgen
data_Li5Ni2(PO4)3
_symmetry_space_group_name_H-M   'P 1'
_cell_length_a   8.35928286
_cell_length_b   8.36348526
_cell_length_c   9.17467472
_cell_angle_alpha   89.94659931
_cell_angle_beta   63.41982003
_cell_angle_gamma   59.66280048
_symmetry_Int_Tables_number   1
_chemical_formula_structural   Li5Ni2(PO4)3
_chemical_formula_sum   'Li10 Ni4 P6 O24'
_cell_volume   473.56887873
_cell_formula_units_Z   2
loop_
 _symmetry_equiv_pos_site_id
 _symmetry_equiv_pos_as_xyz
  1  'x, y, z'
loop_
 _atom_site_type_symbol
 _atom_site_label
 _atom_site_symmetry_multiplicity
 _atom_site_fract_x
 _atom_site_fract_y
 _atom_site_fract_z
 _atom_site_occupancy
  Li  Li0  1  0.199024  0.727791  0.133197  1
  Li  Li1  1  0.610307  0.076907  0.112086  1
  Li  Li2  1  0.967912  0.307203  0.101532  1
  Li  Li3  1  0.362202  0.100180  0.420489  1
  Li  Li4  1  0.697363  0.516198  0.408540  1
  Li  Li5  1  0.302633  0.483808  0.591462  1
  Li  Li6  1  0.637800  0.899819  0.579513  1
  Li  Li7  1  0.032086  0.692799  0.898470  1
  Li  Li8  1  0.389693  0.923095  0.887915  1
  Li  Li9  1  0.800977  0.272209  0.866801  1
  Ni  Ni10  1  0.308025  0.345630  0.043485  1
  Ni  Ni11  1  0.269548  0.857206  0.575702  1
  Ni  Ni12  1  0.730452  0.142795  0.424303  1
  Ni  Ni13  1  0.691975  0.654365  0.956515  1
  P  P14  1  0.209703  0.045167  0.248446  1
  P  P15  1  0.504539  0.453063  0.242596  1
  P  P16  1  0.798464  0.746195  0.243291  1
  P  P17  1  0.201538  0.253806  0.756710  1
  P  P18  1  0.495454  0.546938  0.757406  1
  P  P19  1  0.790299  0.954832  0.751552  1
  O  O20  1  0.350206  0.856061  0.097826  1
  O  O21  1  0.309817  0.165473  0.204575  1
  O  O22  1  0.336042  0.501111  0.193598  1
  O  O23  1  0.699694  0.452076  0.098211  1
  O  O24  1  0.743588  0.800082  0.100949  1
  O  O25  1  0.199974  0.001150  0.412174  1
  O  O26  1  0.598863  0.246419  0.266921  1
  O  O27  1  0.405885  0.593797  0.413149  1
  O  O28  1  0.959217  0.525270  0.198501  1
  O  O29  1  0.886877  0.861335  0.265945  1
  O  O30  1  0.591476  0.806632  0.416307  1
  O  O31  1  0.982214  0.163309  0.267730  1
  O  O32  1  0.017788  0.836690  0.732269  1
  O  O33  1  0.408524  0.193371  0.583695  1
  O  O34  1  0.113123  0.138668  0.734053  1
  O  O35  1  0.040781  0.474733  0.801502  1
  O  O36  1  0.594108  0.406208  0.586850  1
  O  O37  1  0.401132  0.753583  0.733083  1
  O  O38  1  0.800029  0.998846  0.587825  1
  O  O39  1  0.256410  0.199919  0.899052  1
  O  O40  1  0.300305  0.547924  0.901788  1
  O  O41  1  0.663961  0.498885  0.806399  1
  O  O42  1  0.690185  0.834524  0.795424  1
  O  O43  1  0.649796  0.143938  0.902171  1
