# generated using pymatgen
data_Li4Mn3Nb5O16
_symmetry_space_group_name_H-M   'P 1'
_cell_length_a   6.22251338
_cell_length_b   6.09450107
_cell_length_c   10.06859305
_cell_angle_alpha   89.99994695
_cell_angle_beta   89.21207633
_cell_angle_gamma   119.32208673
_symmetry_Int_Tables_number   1
_chemical_formula_structural   Li4Mn3Nb5O16
_chemical_formula_sum   'Li4 Mn3 Nb5 O16'
_cell_volume   332.87083854
_cell_formula_units_Z   1
loop_
 _symmetry_equiv_pos_site_id
 _symmetry_equiv_pos_as_xyz
  1  'x, y, z'
loop_
 _atom_site_type_symbol
 _atom_site_label
 _atom_site_symmetry_multiplicity
 _atom_site_fract_x
 _atom_site_fract_y
 _atom_site_fract_z
 _atom_site_occupancy
  Li  Li0  1  0.343681  0.671854  0.908767  1
  Li  Li1  1  0.996970  0.998494  0.987960  1
  Li  Li2  1  0.004332  0.002176  0.488859  1
  Li  Li3  1  0.684053  0.342039  0.399693  1
  Mn  Mn4  1  0.167842  0.829128  0.207275  1
  Mn  Mn5  1  0.167837  0.338715  0.207293  1
  Mn  Mn6  1  0.325334  0.162701  0.711639  1
  Nb  Nb7  1  0.319511  0.659770  0.489624  1
  Nb  Nb8  1  0.653351  0.826684  0.227289  1
  Nb  Nb9  1  0.661126  0.330571  0.998380  1
  Nb  Nb10  1  0.818193  0.635016  0.715513  1
  Nb  Nb11  1  0.818189  0.183201  0.715513  1
  O  O12  1  0.148920  0.808842  0.592655  1
  O  O13  1  0.061248  0.530632  0.355261  1
  O  O14  1  0.369298  0.684661  0.104965  1
  O  O15  1  0.985494  0.992750  0.304044  1
  O  O16  1  0.987450  0.993736  0.804790  1
  O  O17  1  0.148917  0.340100  0.592656  1
  O  O18  1  0.503549  0.972057  0.348523  1
  O  O19  1  0.503544  0.531510  0.348522  1
  O  O20  1  0.338224  0.169123  0.078184  1
  O  O21  1  0.665652  0.832833  0.594542  1
  O  O22  1  0.539643  0.493636  0.844567  1
  O  O23  1  0.539642  0.046026  0.844566  1
  O  O24  1  0.652322  0.326172  0.590127  1
  O  O25  1  0.811431  0.655518  0.094812  1
  O  O26  1  0.972809  0.486416  0.857008  1
  O  O27  1  0.811438  0.155941  0.094814  1
