# generated using pymatgen
data_Li6CrCoP2(CO7)2
_symmetry_space_group_name_H-M   'P 1'
_cell_length_a   8.55661077
_cell_length_b   5.00789098
_cell_length_c   6.46127041
_cell_angle_alpha   90.00000000
_cell_angle_beta   90.00000000
_cell_angle_gamma   85.58168159
_symmetry_Int_Tables_number   1
_chemical_formula_structural   Li6CrCoP2(CO7)2
_chemical_formula_sum   'Li6 Cr1 Co1 P2 C2 O14'
_cell_volume   276.04633776
_cell_formula_units_Z   1
loop_
 _symmetry_equiv_pos_site_id
 _symmetry_equiv_pos_as_xyz
  1  'x, y, z'
loop_
 _atom_site_type_symbol
 _atom_site_label
 _atom_site_symmetry_multiplicity
 _atom_site_fract_x
 _atom_site_fract_y
 _atom_site_fract_z
 _atom_site_occupancy
  Li  Li0  1  0.097632  0.761699  0.250000  1
  Li  Li1  1  0.274153  0.248653  0.022949  1
  Li  Li2  1  0.274153  0.248653  0.477051  1
  Li  Li3  1  0.724988  0.750260  0.523382  1
  Li  Li4  1  0.724988  0.750260  0.976618  1
  Li  Li5  1  0.906136  0.237619  0.750000  1
  Cr  Cr6  1  0.664248  0.214323  0.250000  1
  Co  Co7  1  0.331444  0.790101  0.750000  1
  P  P8  1  0.410690  0.719756  0.250000  1
  P  P9  1  0.585533  0.282101  0.750000  1
  C  C10  1  0.036461  0.703443  0.750000  1
  C  C11  1  0.967984  0.294545  0.250000  1
  O  O12  1  0.072776  0.948693  0.750000  1
  O  O13  1  0.111547  0.362097  0.250000  1
  O  O14  1  0.150905  0.514414  0.750000  1
  O  O15  1  0.310324  0.828679  0.061810  1
  O  O16  1  0.310324  0.828679  0.438190  1
  O  O17  1  0.419956  0.177593  0.750000  1
  O  O18  1  0.420366  0.408935  0.250000  1
  O  O19  1  0.567761  0.594458  0.750000  1
  O  O20  1  0.578593  0.813593  0.250000  1
  O  O21  1  0.688598  0.175304  0.935834  1
  O  O22  1  0.688598  0.175304  0.564166  1
  O  O23  1  0.853226  0.482793  0.250000  1
  O  O24  1  0.891767  0.641035  0.750000  1
  O  O25  1  0.936849  0.047008  0.250000  1
