# generated using pymatgen
data_Ba2CaI6
_symmetry_space_group_name_H-M   'P 1'
_cell_length_a   10.73390459
_cell_length_b   9.64968566
_cell_length_c   15.15839982
_cell_angle_alpha   90.00000000
_cell_angle_beta   88.42118695
_cell_angle_gamma   90.00000000
_symmetry_Int_Tables_number   1
_chemical_formula_structural   Ba2CaI6
_chemical_formula_sum   'Ba8 Ca4 I24'
_cell_volume   1569.49289183
_cell_formula_units_Z   4
loop_
 _symmetry_equiv_pos_site_id
 _symmetry_equiv_pos_as_xyz
  1  'x, y, z'
loop_
 _atom_site_type_symbol
 _atom_site_label
 _atom_site_symmetry_multiplicity
 _atom_site_fract_x
 _atom_site_fract_y
 _atom_site_fract_z
 _atom_site_occupancy
  Ba  Ba0  1  0.114544  0.788206  0.594939  1
  Ba  Ba1  1  0.147330  0.603574  0.209250  1
  Ba  Ba2  1  0.352670  0.103574  0.290750  1
  Ba  Ba3  1  0.385456  0.288206  0.905061  1
  Ba  Ba4  1  0.614544  0.711794  0.094939  1
  Ba  Ba5  1  0.647330  0.896426  0.709250  1
  Ba  Ba6  1  0.852670  0.396426  0.790750  1
  Ba  Ba7  1  0.885456  0.211794  0.405061  1
  Ca  Ca8  1  0.140050  0.854571  0.930233  1
  Ca  Ca9  1  0.359950  0.354571  0.569767  1
  Ca  Ca10  1  0.640050  0.645429  0.430233  1
  Ca  Ca11  1  0.859950  0.145429  0.069767  1
  I  I12  1  0.059858  0.164722  0.913786  1
  I  I13  1  0.067391  0.239152  0.202448  1
  I  I14  1  0.069020  0.892584  0.363866  1
  I  I15  1  0.184582  0.554087  0.978190  1
  I  I16  1  0.163412  0.439248  0.425819  1
  I  I17  1  0.176172  0.441714  0.719145  1
  I  I18  1  0.323828  0.941714  0.780855  1
  I  I19  1  0.315418  0.054087  0.521810  1
  I  I20  1  0.336588  0.939248  0.074181  1
  I  I21  1  0.430980  0.392584  0.136134  1
  I  I22  1  0.432609  0.739152  0.297552  1
  I  I23  1  0.440142  0.664722  0.586214  1
  I  I24  1  0.559858  0.335278  0.413786  1
  I  I25  1  0.567391  0.260848  0.702448  1
  I  I26  1  0.569020  0.607416  0.863866  1
  I  I27  1  0.663412  0.060752  0.925819  1
  I  I28  1  0.684582  0.945913  0.478190  1
  I  I29  1  0.676172  0.058286  0.219145  1
  I  I30  1  0.823828  0.558286  0.280855  1
  I  I31  1  0.836588  0.560752  0.574181  1
  I  I32  1  0.815418  0.445913  0.021810  1
  I  I33  1  0.930980  0.107416  0.636134  1
  I  I34  1  0.932609  0.760848  0.797552  1
  I  I35  1  0.940142  0.835278  0.086214  1
