# generated using pymatgen
data_Li4Ni3WO8
_symmetry_space_group_name_H-M   'P 1'
_cell_length_a   10.28530325
_cell_length_b   10.28530010
_cell_length_c   14.52840068
_cell_angle_alpha   19.66154931
_cell_angle_beta   19.66149756
_cell_angle_gamma   33.88252929
_symmetry_Int_Tables_number   1
_chemical_formula_structural   Li4Ni3WO8
_chemical_formula_sum   'Li4 Ni3 W1 O8'
_cell_volume   150.67452009
_cell_formula_units_Z   1
loop_
 _symmetry_equiv_pos_site_id
 _symmetry_equiv_pos_as_xyz
  1  'x, y, z'
loop_
 _atom_site_type_symbol
 _atom_site_label
 _atom_site_symmetry_multiplicity
 _atom_site_fract_x
 _atom_site_fract_y
 _atom_site_fract_z
 _atom_site_occupancy
  Li  Li0  1  -0.000000  0.000001  0.499999  1
  Li  Li1  1  0.999998  0.500000  0.500001  1
  Li  Li2  1  0.500001  0.000004  0.499996  1
  Li  Li3  1  0.499997  0.500001  0.500001  1
  Ni  Ni4  1  0.000008  0.500002  0.000000  1
  Ni  Ni5  1  0.499997  0.999995  0.000000  1
  Ni  Ni6  1  0.499999  0.499993  0.000005  1
  W  W7  1  0.000002  0.000001  0.999998  1
  O  O8  1  0.000018  0.000025  0.260121  1
  O  O9  1  0.999989  0.538495  0.229292  1
  O  O10  1  0.538497  0.999991  0.229289  1
  O  O11  1  0.999977  0.999982  0.739878  1
  O  O12  1  0.461521  0.461518  0.306252  1
  O  O13  1  0.000007  0.461502  0.770712  1
  O  O14  1  0.461506  0.000010  0.770708  1
  O  O15  1  0.538483  0.538481  0.693747  1
