# generated using pymatgen
data_Li8Mn7Fe(BO3)8
_symmetry_space_group_name_H-M   'P 1'
_cell_length_a   12.12627546
_cell_length_b   5.25475412
_cell_length_c   8.29364130
_cell_angle_alpha   90.73619877
_cell_angle_beta   76.70124209
_cell_angle_gamma   89.34498140
_symmetry_Int_Tables_number   1
_chemical_formula_structural   Li8Mn7Fe(BO3)8
_chemical_formula_sum   'Li8 Mn7 Fe1 B8 O24'
_cell_volume   514.20541766
_cell_formula_units_Z   1
loop_
 _symmetry_equiv_pos_site_id
 _symmetry_equiv_pos_as_xyz
  1  'x, y, z'
loop_
 _atom_site_type_symbol
 _atom_site_label
 _atom_site_symmetry_multiplicity
 _atom_site_fract_x
 _atom_site_fract_y
 _atom_site_fract_z
 _atom_site_occupancy
  Li  Li0  1  0.022788  0.650697  0.281572  1
  Li  Li1  1  0.227648  0.848826  0.217540  1
  Li  Li2  1  0.272962  0.151002  0.781653  1
  Li  Li3  1  0.522884  0.651427  0.282625  1
  Li  Li4  1  0.477045  0.350123  0.718580  1
  Li  Li5  1  0.726548  0.847486  0.220098  1
  Li  Li6  1  0.772182  0.150288  0.781096  1
  Li  Li7  1  0.976959  0.349466  0.718072  1
  Mn  Mn8  1  0.092618  0.832146  0.580238  1
  Mn  Mn9  1  0.157381  0.667718  0.919535  1
  Mn  Mn10  1  0.343009  0.332410  0.080350  1
  Mn  Mn11  1  0.406606  0.166232  0.419664  1
  Mn  Mn12  1  0.655914  0.668620  0.916945  1
  Mn  Mn13  1  0.842711  0.332206  0.078966  1
  Mn  Mn14  1  0.907106  0.167845  0.419813  1
  Fe  Fe15  1  0.592358  0.836283  0.578473  1
  B  B16  1  0.083197  0.169276  0.095931  1
  B  B17  1  0.166828  0.330665  0.404004  1
  B  B18  1  0.333787  0.669365  0.595694  1
  B  B19  1  0.417261  0.831407  0.901830  1
  B  B20  1  0.583640  0.169469  0.096299  1
  B  B21  1  0.667034  0.328680  0.407843  1
  B  B22  1  0.832505  0.670044  0.594957  1
  B  B23  1  0.916814  0.830476  0.904362  1
  O  O24  1  0.087708  0.910242  0.122526  1
  O  O25  1  0.007006  0.681380  0.811947  1
  O  O26  1  0.080079  0.213205  0.516727  1
  O  O27  1  0.162727  0.589608  0.377099  1
  O  O28  1  0.257063  0.181528  0.311598  1
  O  O29  1  0.331148  0.712574  0.015247  1
  O  O30  1  0.170019  0.287041  0.983337  1
  O  O31  1  0.243377  0.817900  0.687955  1
  O  O32  1  0.338208  0.410149  0.622044  1
  O  O33  1  0.420416  0.786920  0.482858  1
  O  O34  1  0.493427  0.317801  0.189481  1
  O  O35  1  0.412604  0.090924  0.877313  1
  O  O36  1  0.588100  0.910103  0.122363  1
  O  O37  1  0.507309  0.684330  0.807348  1
  O  O38  1  0.581979  0.206365  0.521943  1
  O  O39  1  0.660105  0.588184  0.385541  1
  O  O40  1  0.756493  0.183672  0.311017  1
  O  O41  1  0.830187  0.713811  0.017828  1
  O  O42  1  0.669837  0.288403  0.983289  1
  O  O43  1  0.742017  0.818641  0.686342  1
  O  O44  1  0.837144  0.411000  0.622377  1
  O  O45  1  0.919931  0.786983  0.482847  1
  O  O46  1  0.992834  0.317837  0.188252  1
  O  O47  1  0.912500  0.089240  0.876586  1
