# generated using pymatgen
data_Li2Mn3SnO8
_symmetry_space_group_name_H-M   'P 1'
_cell_length_a   5.98891810
_cell_length_b   5.98891760
_cell_length_c   5.98891770
_cell_angle_alpha   60.85005101
_cell_angle_beta   60.85005492
_cell_angle_gamma   60.85005603
_symmetry_Int_Tables_number   1
_chemical_formula_structural   Li2Mn3SnO8
_chemical_formula_sum   'Li2 Mn3 Sn1 O8'
_cell_volume   154.80154236
_cell_formula_units_Z   1
loop_
 _symmetry_equiv_pos_site_id
 _symmetry_equiv_pos_as_xyz
  1  'x, y, z'
loop_
 _atom_site_type_symbol
 _atom_site_label
 _atom_site_symmetry_multiplicity
 _atom_site_fract_x
 _atom_site_fract_y
 _atom_site_fract_z
 _atom_site_occupancy
  Li  Li0  1  0.118352  0.118352  0.118352  1
  Li  Li1  1  0.496255  0.496255  0.496255  1
  Mn  Mn2  1  0.014477  0.495633  0.495633  1
  Mn  Mn3  1  0.495633  0.014477  0.495633  1
  Mn  Mn4  1  0.495633  0.495633  0.014477  1
  Sn  Sn5  1  0.887540  0.887540  0.887540  1
  O  O6  1  0.254040  0.254040  0.254040  1
  O  O7  1  0.250941  0.250941  0.706109  1
  O  O8  1  0.250941  0.706109  0.250941  1
  O  O9  1  0.706109  0.250941  0.250941  1
  O  O10  1  0.291572  0.744388  0.744388  1
  O  O11  1  0.744388  0.291572  0.744388  1
  O  O12  1  0.744388  0.744388  0.291572  1
  O  O13  1  0.749732  0.749732  0.749732  1
