# generated using pymatgen
data_Li3MnB8O15
_symmetry_space_group_name_H-M   'P 1'
_cell_length_a   9.30286493
_cell_length_b   11.36637901
_cell_length_c   11.96710776
_cell_angle_alpha   90.00000000
_cell_angle_beta   89.62667302
_cell_angle_gamma   90.00000000
_symmetry_Int_Tables_number   1
_chemical_formula_structural   Li3MnB8O15
_chemical_formula_sum   'Li12 Mn4 B32 O60'
_cell_volume   1265.37378111
_cell_formula_units_Z   4
loop_
 _symmetry_equiv_pos_site_id
 _symmetry_equiv_pos_as_xyz
  1  'x, y, z'
loop_
 _atom_site_type_symbol
 _atom_site_label
 _atom_site_symmetry_multiplicity
 _atom_site_fract_x
 _atom_site_fract_y
 _atom_site_fract_z
 _atom_site_occupancy
  Li  Li0  1  0.076937  0.074472  0.583584  1
  Li  Li1  1  0.101148  0.667704  0.549019  1
  Li  Li2  1  0.076937  0.425528  0.083584  1
  Li  Li3  1  0.101148  0.832296  0.049019  1
  Li  Li4  1  0.476090  0.176031  0.714334  1
  Li  Li5  1  0.476090  0.323969  0.214334  1
  Li  Li6  1  0.523910  0.676031  0.785666  1
  Li  Li7  1  0.523910  0.823969  0.285666  1
  Li  Li8  1  0.898852  0.167704  0.950981  1
  Li  Li9  1  0.923063  0.574472  0.916416  1
  Li  Li10  1  0.898852  0.332296  0.450981  1
  Li  Li11  1  0.923063  0.925528  0.416416  1
  Mn  Mn12  1  0.247674  0.163577  0.976825  1
  Mn  Mn13  1  0.247674  0.336423  0.476825  1
  Mn  Mn14  1  0.752326  0.663577  0.523175  1
  Mn  Mn15  1  0.752326  0.836423  0.023175  1
  B  B16  1  0.103940  0.335647  0.884446  1
  B  B17  1  0.103940  0.164353  0.384446  1
  B  B18  1  0.136844  0.745720  0.785991  1
  B  B19  1  0.136844  0.754280  0.285991  1
  B  B20  1  0.176399  0.533065  0.814316  1
  B  B21  1  0.176399  0.966935  0.314316  1
  B  B22  1  0.189449  0.944885  0.848527  1
  B  B23  1  0.223444  0.354261  0.703985  1
  B  B24  1  0.189449  0.555115  0.348527  1
  B  B25  1  0.223444  0.145739  0.203985  1
  B  B26  1  0.278982  0.880046  0.666409  1
  B  B27  1  0.278982  0.619954  0.166409  1
  B  B28  1  0.345455  0.600152  0.967122  1
  B  B29  1  0.345455  0.899848  0.467122  1
  B  B30  1  0.508490  0.280419  0.909518  1
  B  B31  1  0.508490  0.219581  0.409518  1
  B  B32  1  0.491510  0.780419  0.590482  1
  B  B33  1  0.491510  0.719581  0.090482  1
  B  B34  1  0.654545  0.100152  0.532878  1
  B  B35  1  0.654545  0.399848  0.032878  1
  B  B36  1  0.721018  0.380046  0.833591  1
  B  B37  1  0.721018  0.119954  0.333591  1
  B  B38  1  0.776555  0.854261  0.796015  1
  B  B39  1  0.810551  0.444885  0.651473  1
  B  B40  1  0.776555  0.645739  0.296015  1
  B  B41  1  0.810551  0.055115  0.151473  1
  B  B42  1  0.823601  0.033065  0.685684  1
  B  B43  1  0.823601  0.466935  0.185684  1
  B  B44  1  0.863156  0.245720  0.714009  1
  B  B45  1  0.863156  0.254280  0.214009  1
  B  B46  1  0.896060  0.835647  0.615554  1
  B  B47  1  0.896060  0.664353  0.115554  1
  O  O48  1  0.093668  0.455482  0.894001  1
  O  O49  1  0.074180  0.265895  0.975257  1
  O  O50  1  0.082159  0.636405  0.807145  1
  O  O51  1  0.093668  0.044518  0.394001  1
  O  O52  1  0.074180  0.234105  0.475257  1
  O  O53  1  0.082159  0.863595  0.307145  1
  O  O54  1  0.152795  0.826275  0.873781  1
  O  O55  1  0.163560  0.284687  0.789721  1
  O  O56  1  0.152795  0.673725  0.373781  1
  O  O57  1  0.163560  0.215313  0.289721  1
  O  O58  1  0.159993  0.022808  0.929736  1
  O  O59  1  0.159993  0.477192  0.429736  1
  O  O60  1  0.174666  0.778013  0.679184  1
  O  O61  1  0.204177  0.474026  0.706836  1
  O  O62  1  0.174666  0.721987  0.179184  1
  O  O63  1  0.204177  0.025974  0.206837  1
  O  O64  1  0.298066  0.293006  0.623977  1
  O  O65  1  0.259286  0.931343  0.555251  1
  O  O66  1  0.298066  0.206994  0.123977  1
  O  O67  1  0.247910  0.972680  0.746953  1
  O  O68  1  0.259286  0.568657  0.055251  1
  O  O69  1  0.247910  0.527320  0.246953  1
  O  O70  1  0.320236  0.569412  0.858740  1
  O  O71  1  0.320236  0.930588  0.358740  1
  O  O72  1  0.421861  0.185806  0.892423  1
  O  O73  1  0.421861  0.314194  0.392423  1
  O  O74  1  0.423096  0.827494  0.682750  1
  O  O75  1  0.466546  0.671580  0.983870  1
  O  O76  1  0.423096  0.672506  0.182750  1
  O  O77  1  0.466546  0.828420  0.483870  1
  O  O78  1  0.533454  0.171580  0.516130  1
  O  O79  1  0.576904  0.327494  0.817250  1
  O  O80  1  0.533454  0.328420  0.016130  1
  O  O81  1  0.576904  0.172506  0.317250  1
  O  O82  1  0.578139  0.685806  0.607577  1
  O  O83  1  0.578139  0.814194  0.107577  1
  O  O84  1  0.679764  0.069412  0.641260  1
  O  O85  1  0.679764  0.430588  0.141260  1
  O  O86  1  0.752090  0.472680  0.753047  1
  O  O87  1  0.740714  0.431343  0.944749  1
  O  O88  1  0.752090  0.027320  0.253047  1
  O  O89  1  0.701934  0.793006  0.876023  1
  O  O90  1  0.740714  0.068657  0.444749  1
  O  O91  1  0.701934  0.706994  0.376023  1
  O  O92  1  0.795823  0.974026  0.793164  1
  O  O93  1  0.825334  0.278013  0.820816  1
  O  O94  1  0.795823  0.525974  0.293164  1
  O  O95  1  0.825334  0.221987  0.320816  1
  O  O96  1  0.840007  0.522808  0.570264  1
  O  O97  1  0.840007  0.977192  0.070264  1
  O  O98  1  0.836440  0.784687  0.710279  1
  O  O99  1  0.847205  0.326275  0.626219  1
  O  O100  1  0.836440  0.715313  0.210279  1
  O  O101  1  0.847205  0.173725  0.126219  1
  O  O102  1  0.917841  0.136405  0.692855  1
  O  O103  1  0.925820  0.765895  0.524743  1
  O  O104  1  0.906332  0.955482  0.605999  1
  O  O105  1  0.917841  0.363595  0.192855  1
  O  O106  1  0.925820  0.734105  0.024743  1
  O  O107  1  0.906332  0.544518  0.105999  1
