# generated using pymatgen
data_Li2Cu3F11
_symmetry_space_group_name_H-M   'P 1'
_cell_length_a   9.13346434
_cell_length_b   7.29583904
_cell_length_c   6.20153966
_cell_angle_alpha   90.00000000
_cell_angle_beta   93.58824263
_cell_angle_gamma   90.00000000
_symmetry_Int_Tables_number   1
_chemical_formula_structural   Li2Cu3F11
_chemical_formula_sum   'Li4 Cu6 F22'
_cell_volume   412.43743516
_cell_formula_units_Z   2
loop_
 _symmetry_equiv_pos_site_id
 _symmetry_equiv_pos_as_xyz
  1  'x, y, z'
loop_
 _atom_site_type_symbol
 _atom_site_label
 _atom_site_symmetry_multiplicity
 _atom_site_fract_x
 _atom_site_fract_y
 _atom_site_fract_z
 _atom_site_occupancy
  Li  Li0  1  0.141184  0.750000  0.152516  1
  Li  Li1  1  0.244189  0.250000  0.239965  1
  Li  Li2  1  0.739967  0.750000  0.763894  1
  Li  Li3  1  0.839859  0.250000  0.869327  1
  Cu  Cu4  1  0.117510  0.500925  0.682855  1
  Cu  Cu5  1  0.117510  0.999075  0.682855  1
  Cu  Cu6  1  0.492916  0.500156  0.518512  1
  Cu  Cu7  1  0.492916  -0.000156  0.518512  1
  Cu  Cu8  1  0.868822  0.498563  0.341843  1
  Cu  Cu9  1  0.868822  0.001437  0.341843  1
  F  F10  1  0.056762  0.250000  0.758129  1
  F  F11  1  0.146606  0.956907  0.976510  1
  F  F12  1  0.146606  0.543093  0.976510  1
  F  F13  1  0.154362  0.750000  0.589914  1
  F  F14  1  0.084733  0.056768  0.372336  1
  F  F15  1  0.084733  0.443232  0.372336  1
  F  F16  1  0.318563  0.055794  0.666931  1
  F  F17  1  0.318563  0.444206  0.666931  1
  F  F18  1  0.433751  0.750000  0.470644  1
  F  F19  1  0.393551  0.057863  0.264763  1
  F  F20  1  0.393551  0.442137  0.264763  1
  F  F21  1  0.550992  0.250000  0.567106  1
  F  F22  1  0.592308  0.557654  0.770505  1
  F  F23  1  0.592308  0.942346  0.770505  1
  F  F24  1  0.668424  0.558925  0.372683  1
  F  F25  1  0.668424  0.941075  0.372683  1
  F  F26  1  0.902089  0.555288  0.652125  1
  F  F27  1  0.902089  0.944712  0.652125  1
  F  F28  1  0.828357  0.250000  0.433530  1
  F  F29  1  0.836266  0.045848  0.049769  1
  F  F30  1  0.836266  0.454152  0.049769  1
  F  F31  1  0.928381  0.750000  0.262659  1
