# generated using pymatgen
data_Li2U(WO5)2
_symmetry_space_group_name_H-M   'P 1'
_cell_length_a   7.81124348
_cell_length_b   12.94894775
_cell_length_c   7.63243865
_cell_angle_alpha   90.00005291
_cell_angle_beta   89.99920089
_cell_angle_gamma   90.00001570
_symmetry_Int_Tables_number   1
_chemical_formula_structural   Li2U(WO5)2
_chemical_formula_sum   'Li8 U4 W8 O40'
_cell_volume   772.00120055
_cell_formula_units_Z   4
loop_
 _symmetry_equiv_pos_site_id
 _symmetry_equiv_pos_as_xyz
  1  'x, y, z'
loop_
 _atom_site_type_symbol
 _atom_site_label
 _atom_site_symmetry_multiplicity
 _atom_site_fract_x
 _atom_site_fract_y
 _atom_site_fract_z
 _atom_site_occupancy
  Li  Li0  1  0.000000  0.488361  0.250000  1
  Li  Li1  1  0.000002  0.508510  0.750000  1
  Li  Li2  1  0.190627  0.506098  0.999331  1
  Li  Li3  1  0.309373  0.993904  0.499317  1
  Li  Li4  1  0.500000  0.991492  0.250000  1
  Li  Li5  1  0.500001  0.011640  0.750000  1
  Li  Li6  1  0.690627  0.993904  0.000682  1
  Li  Li7  1  0.809374  0.506098  0.500668  1
  U  U8  1  -0.000000  0.019977  0.250000  1
  U  U9  1  -0.000008  0.980262  0.750001  1
  U  U10  1  0.499995  0.519739  0.250000  1
  U  U11  1  0.499985  0.480026  0.750001  1
  W  W12  1  0.017561  0.741997  0.500696  1
  W  W13  1  0.022928  0.257526  0.000312  1
  W  W14  1  0.477071  0.242475  0.500311  1
  W  W15  1  0.482439  0.758003  0.000698  1
  W  W16  1  0.522928  0.242475  0.999689  1
  W  W17  1  0.517560  0.758003  0.499303  1
  W  W18  1  0.977073  0.257526  0.499687  1
  W  W19  1  0.982440  0.741996  0.999303  1
  O  O20  1  0.000000  0.212458  0.250000  1
  O  O21  1  -0.000000  0.271015  0.750000  1
  O  O22  1  0.000000  0.728609  0.250000  1
  O  O23  1  0.000000  0.788483  0.750000  1
  O  O24  1  0.998359  0.098148  0.969664  1
  O  O25  1  0.010012  0.901343  0.469060  1
  O  O26  1  0.025600  0.394203  0.048874  1
  O  O27  1  0.986153  0.606622  0.550249  1
  O  O28  1  0.239205  0.022060  0.259519  1
  O  O29  1  0.239244  0.977137  0.741022  1
  O  O30  1  0.239772  0.256949  0.496428  1
  O  O31  1  0.245988  0.756894  0.003070  1
  O  O32  1  0.260228  0.243051  0.996428  1
  O  O33  1  0.254012  0.743106  0.503069  1
  O  O34  1  0.260727  0.522862  0.241016  1
  O  O35  1  0.260842  0.477939  0.759510  1
  O  O36  1  0.474399  0.105797  0.548877  1
  O  O37  1  0.513846  0.893377  0.050247  1
  O  O38  1  0.501642  0.401850  0.469680  1
  O  O39  1  0.489989  0.598654  0.969045  1
  O  O40  1  0.500000  0.228986  0.250000  1
  O  O41  1  0.500000  0.711518  0.250000  1
  O  O42  1  0.500000  0.771392  0.750000  1
  O  O43  1  0.500001  0.287543  0.750000  1
  O  O44  1  0.498360  0.401850  0.030321  1
  O  O45  1  0.510011  0.598654  0.530954  1
  O  O46  1  0.525600  0.105797  0.951123  1
  O  O47  1  0.486154  0.893377  0.449754  1
  O  O48  1  0.739173  0.477939  0.740490  1
  O  O49  1  0.739275  0.522862  0.258985  1
  O  O50  1  0.739773  0.243051  0.503572  1
  O  O51  1  0.745988  0.743106  0.996931  1
  O  O52  1  0.760228  0.256949  0.003572  1
  O  O53  1  0.754013  0.756893  0.496931  1
  O  O54  1  0.760793  0.022060  0.240481  1
  O  O55  1  0.760764  0.977137  0.758978  1
  O  O56  1  0.974399  0.394204  0.451126  1
  O  O57  1  0.013847  0.606623  0.949751  1
  O  O58  1  0.001642  0.098147  0.530335  1
  O  O59  1  0.989987  0.901343  0.030941  1
