# generated using pymatgen
data_Li2NbV3O8
_symmetry_space_group_name_H-M   'P 1'
_cell_length_a   8.59038697
_cell_length_b   8.59077136
_cell_length_c   8.59124259
_cell_angle_alpha   90.00218944
_cell_angle_beta   90.00264361
_cell_angle_gamma   90.00123625
_symmetry_Int_Tables_number   1
_chemical_formula_structural   Li2NbV3O8
_chemical_formula_sum   'Li8 Nb4 V12 O32'
_cell_volume   634.01695261
_cell_formula_units_Z   4
loop_
 _symmetry_equiv_pos_site_id
 _symmetry_equiv_pos_as_xyz
  1  'x, y, z'
loop_
 _atom_site_type_symbol
 _atom_site_label
 _atom_site_symmetry_multiplicity
 _atom_site_fract_x
 _atom_site_fract_y
 _atom_site_fract_z
 _atom_site_occupancy
  Li  Li0  1  0.999922  0.999958  0.999874  1
  Li  Li1  1  0.250069  0.250122  0.250098  1
  Li  Li2  1  0.249886  0.749953  0.750057  1
  Li  Li3  1  0.500086  0.000113  0.499934  1
  Li  Li4  1  0.499952  0.500134  0.000143  1
  Li  Li5  1  0.750079  0.249865  0.749911  1
  Li  Li6  1  0.749847  0.750058  0.249869  1
  Li  Li7  1  0.000101  0.499964  0.500045  1
  Nb  Nb8  1  0.124934  0.875062  0.374989  1
  Nb  Nb9  1  0.375063  0.124941  0.875091  1
  Nb  Nb10  1  0.624960  0.624900  0.625007  1
  Nb  Nb11  1  0.875077  0.375001  0.125004  1
  V  V12  1  0.120202  0.129799  0.625021  1
  V  V13  1  0.125060  0.379797  0.870206  1
  V  V14  1  0.129782  0.625085  0.120217  1
  V  V15  1  0.370213  0.374956  0.620236  1
  V  V16  1  0.374947  0.620216  0.370246  1
  V  V17  1  0.379769  0.870236  0.125042  1
  V  V18  1  0.620218  0.370211  0.374956  1
  V  V19  1  0.625040  0.120231  0.129778  1
  V  V20  1  0.629789  0.874963  0.879780  1
  V  V21  1  0.870217  0.125041  0.379785  1
  V  V22  1  0.874947  0.879752  0.629780  1
  V  V23  1  0.879808  0.629766  0.874966  1
  O  O24  1  0.110448  0.110780  0.380901  1
  O  O25  1  0.119056  0.889585  0.610720  1
  O  O26  1  0.113913  0.613884  0.886157  1
  O  O27  1  0.139292  0.139631  0.869148  1
  O  O28  1  0.110807  0.380950  0.110427  1
  O  O29  1  0.136121  0.363882  0.636149  1
  O  O30  1  0.130808  0.639352  0.360380  1
  O  O31  1  0.139578  0.869221  0.139296  1
  O  O32  1  0.360374  0.130837  0.639330  1
  O  O33  1  0.369205  0.360682  0.860432  1
  O  O34  1  0.363849  0.636171  0.136173  1
  O  O35  1  0.389228  0.619044  0.610468  1
  O  O36  1  0.360661  0.860383  0.369198  1
  O  O37  1  0.386117  0.386106  0.386179  1
  O  O38  1  0.380893  0.110468  0.110751  1
  O  O39  1  0.389558  0.889273  0.880897  1
  O  O40  1  0.610440  0.389210  0.619105  1
  O  O41  1  0.619069  0.610426  0.389285  1
  O  O42  1  0.613847  0.886145  0.113837  1
  O  O43  1  0.639344  0.360390  0.130832  1
  O  O44  1  0.610768  0.119066  0.889576  1
  O  O45  1  0.636162  0.136139  0.363840  1
  O  O46  1  0.630811  0.860629  0.639597  1
  O  O47  1  0.639640  0.630805  0.860709  1
  O  O48  1  0.860407  0.369185  0.360681  1
  O  O49  1  0.869223  0.139328  0.139601  1
  O  O50  1  0.863883  0.863836  0.863853  1
  O  O51  1  0.889212  0.880898  0.389555  1
  O  O52  1  0.860702  0.639576  0.630850  1
  O  O53  1  0.886105  0.113856  0.613829  1
  O  O54  1  0.880947  0.389531  0.889263  1
  O  O55  1  0.889563  0.610745  0.119090  1
