# generated using pymatgen
data_Li6V3P8O29
_symmetry_space_group_name_H-M   'P 1'
_cell_length_a   9.81214656
_cell_length_b   9.83643828
_cell_length_c   13.97534105
_cell_angle_alpha   90.02021943
_cell_angle_beta   89.76570763
_cell_angle_gamma   59.79260235
_symmetry_Int_Tables_number   1
_chemical_formula_structural   Li6V3P8O29
_chemical_formula_sum   'Li12 V6 P16 O58'
_cell_volume   1165.67693632
_cell_formula_units_Z   2
loop_
 _symmetry_equiv_pos_site_id
 _symmetry_equiv_pos_as_xyz
  1  'x, y, z'
loop_
 _atom_site_type_symbol
 _atom_site_label
 _atom_site_symmetry_multiplicity
 _atom_site_fract_x
 _atom_site_fract_y
 _atom_site_fract_z
 _atom_site_occupancy
  Li  Li0  1  0.896243  0.767905  0.060513  1
  Li  Li1  1  0.770771  0.906263  0.560883  1
  Li  Li2  1  0.907134  0.321535  0.561455  1
  Li  Li3  1  0.762891  0.337494  0.058397  1
  Li  Li4  1  0.330910  0.902006  0.056400  1
  Li  Li5  1  0.683506  0.223467  0.443490  1
  Li  Li6  1  0.309173  0.772106  0.559474  1
  Li  Li7  1  0.229601  0.674344  0.936227  1
  Li  Li8  1  0.336158  0.332214  0.111844  1
  Li  Li9  1  0.227979  0.085708  0.442401  1
  Li  Li10  1  0.092288  0.236211  0.934275  1
  Li  Li11  1  0.947675  0.014106  0.988787  1
  V  V12  1  0.569047  0.433415  0.252682  1
  V  V13  1  0.435763  0.563880  0.751669  1
  V  V14  1  0.568356  0.001657  0.754701  1
  V  V15  1  0.439393  0.996029  0.246821  1
  V  V16  1  0.001419  0.567365  0.253030  1
  V  V17  1  0.002789  0.435412  0.746980  1
  P  P18  1  0.913780  0.772281  0.843239  1
  P  P19  1  0.768896  0.912094  0.345046  1
  P  P20  1  0.913220  0.320185  0.341351  1
  P  P21  1  0.671918  0.664463  0.127107  1
  P  P22  1  0.665007  0.666161  0.630457  1
  P  P23  1  0.776973  0.312317  0.842316  1
  P  P24  1  0.681695  0.228654  0.660834  1
  P  P25  1  0.311871  0.914904  0.843393  1
  P  P26  1  0.693409  0.088337  0.160726  1
  P  P27  1  0.316389  0.770703  0.342112  1
  P  P28  1  0.226788  0.684201  0.157135  1
  P  P29  1  0.334192  0.328048  0.369768  1
  P  P30  1  0.332862  0.335375  0.872294  1
  P  P31  1  0.087176  0.686111  0.658283  1
  P  P32  1  0.234809  0.086712  0.659059  1
  P  P33  1  0.089082  0.226833  0.155593  1
  O  O34  1  0.988311  0.770443  0.574743  1
  O  O35  1  0.914318  0.749298  0.338506  1
  O  O36  1  0.798254  0.995053  0.079094  1
  O  O37  1  0.745248  0.914694  0.836237  1
  O  O38  1  0.913787  0.618129  0.833107  1
  O  O39  1  0.818426  0.670602  0.168347  1
  O  O40  1  0.893465  0.482855  0.323358  1
  O  O41  1  0.994808  0.232608  0.068684  1
  O  O42  1  0.919633  0.339842  0.834125  1
  O  O43  1  0.670616  0.811990  0.669474  1
  O  O44  1  0.619459  0.902140  0.324858  1
  O  O45  1  0.814873  0.510942  0.667034  1
  O  O46  1  0.668727  0.675387  0.020627  1
  O  O47  1  0.652356  0.664259  0.524011  1
  O  O48  1  0.677344  0.512553  0.164666  1
  O  O49  1  0.468763  0.910014  0.832611  1
  O  O50  1  0.516898  0.813200  0.169332  1
  O  O51  1  0.750300  0.330001  0.341651  1
  O  O52  1  0.795330  0.205070  0.750636  1
  O  O53  1  0.758123  0.244275  0.570740  1
  O  O54  1  0.796581  0.221485  0.932912  1
  O  O55  1  0.619627  0.467003  0.835489  1
  O  O56  1  0.515239  0.667694  0.678135  1
  O  O57  1  0.664186  0.259582  0.159303  1
  O  O58  1  0.478387  0.619087  0.317562  1
  O  O59  1  0.334864  0.916994  0.338379  1
  O  O60  1  0.784085  0.015630  0.259015  1
  O  O61  1  0.752183  0.001054  0.436077  1
  O  O62  1  0.249786  0.993805  0.569806  1
  O  O63  1  0.668843  0.078925  0.660054  1
  O  O64  1  0.519317  0.374819  0.679410  1
  O  O65  1  0.330294  0.750166  0.843100  1
  O  O66  1  0.487404  0.326173  0.333361  1
  O  O67  1  0.373850  0.518921  0.170335  1
  O  O68  1  0.234385  0.769635  0.068885  1
  O  O69  1  0.249099  0.753337  0.433088  1
  O  O70  1  0.207796  0.788176  0.250735  1
  O  O71  1  0.254435  0.661487  0.656711  1
  O  O72  1  0.484485  0.194464  0.830880  1
  O  O73  1  0.529507  0.100268  0.164833  1
  O  O74  1  0.320819  0.492869  0.833390  1
  O  O75  1  0.328206  0.344252  0.980365  1
  O  O76  1  0.325749  0.321679  0.475445  1
  O  O77  1  0.187692  0.474485  0.321776  1
  O  O78  1  0.383350  0.096774  0.679189  1
  O  O79  1  0.333777  0.181186  0.321754  1
  O  O80  1  0.078681  0.668489  0.155291  1
  O  O81  1  0.010986  0.787881  0.755824  1
  O  O82  1  0.991930  0.785212  0.934363  1
  O  O83  1  0.097128  0.524247  0.677199  1
  O  O84  1  0.187498  0.325556  0.835503  1
  O  O85  1  0.104874  0.374666  0.166418  1
  O  O86  1  0.254591  0.078841  0.152701  1
  O  O87  1  0.217564  0.005010  0.931392  1
  O  O88  1  0.206675  0.001883  0.749598  1
  O  O89  1  0.086988  0.252576  0.655690  1
  O  O90  1  0.003917  0.243433  0.431080  1
  O  O91  1  0.004781  0.208385  0.250323  1
