# generated using pymatgen
data_Li4V3P4O15
_symmetry_space_group_name_H-M   'P 1'
_cell_length_a   17.44770930
_cell_length_b   6.65454917
_cell_length_c   10.68133056
_cell_angle_alpha   90.00000000
_cell_angle_beta   90.00000000
_cell_angle_gamma   90.00000000
_symmetry_Int_Tables_number   1
_chemical_formula_structural   Li4V3P4O15
_chemical_formula_sum   'Li16 V12 P16 O60'
_cell_volume   1240.17339608
_cell_formula_units_Z   4
loop_
 _symmetry_equiv_pos_site_id
 _symmetry_equiv_pos_as_xyz
  1  'x, y, z'
loop_
 _atom_site_type_symbol
 _atom_site_label
 _atom_site_symmetry_multiplicity
 _atom_site_fract_x
 _atom_site_fract_y
 _atom_site_fract_z
 _atom_site_occupancy
  Li  Li0  1  0.003907  0.322242  0.482054  1
  Li  Li1  1  0.033804  0.196850  0.048149  1
  Li  Li2  1  0.094129  0.925137  0.821722  1
  Li  Li3  1  0.207053  0.353719  0.244286  1
  Li  Li4  1  0.292947  0.853719  0.744286  1
  Li  Li5  1  0.405871  0.425137  0.321722  1
  Li  Li6  1  0.466196  0.696850  0.548149  1
  Li  Li7  1  0.496093  0.822242  0.982054  1
  Li  Li8  1  0.503907  0.322242  0.017946  1
  Li  Li9  1  0.533804  0.196850  0.451851  1
  Li  Li10  1  0.594129  0.925137  0.678278  1
  Li  Li11  1  0.707053  0.353719  0.255714  1
  Li  Li12  1  0.792947  0.853719  0.755714  1
  Li  Li13  1  0.905871  0.425137  0.178278  1
  Li  Li14  1  0.966196  0.696850  0.951851  1
  Li  Li15  1  0.996093  0.822242  0.517946  1
  V  V16  1  0.135006  0.588891  0.492215  1
  V  V17  1  0.167094  0.599070  0.998344  1
  V  V18  1  0.246006  0.321045  0.739909  1
  V  V19  1  0.253994  0.821045  0.239909  1
  V  V20  1  0.332906  0.099070  0.498345  1
  V  V21  1  0.364994  0.088891  0.992215  1
  V  V22  1  0.635006  0.588891  0.007785  1
  V  V23  1  0.667094  0.599070  0.501656  1
  V  V24  1  0.746006  0.321045  0.760091  1
  V  V25  1  0.753994  0.821045  0.260091  1
  V  V26  1  0.832906  0.099070  0.001655  1
  V  V27  1  0.864994  0.088891  0.507785  1
  P  P28  1  0.049967  0.642060  0.227341  1
  P  P29  1  0.060421  0.468749  0.757466  1
  P  P30  1  0.170068  0.083767  0.483720  1
  P  P31  1  0.202647  0.095855  0.003997  1
  P  P32  1  0.297353  0.595855  0.503997  1
  P  P33  1  0.329932  0.583767  0.983720  1
  P  P34  1  0.439579  0.968749  0.257466  1
  P  P35  1  0.450033  0.142060  0.727341  1
  P  P36  1  0.549967  0.642060  0.272659  1
  P  P37  1  0.560421  0.468749  0.742534  1
  P  P38  1  0.670068  0.083767  0.016280  1
  P  P39  1  0.702647  0.095855  0.496003  1
  P  P40  1  0.797353  0.595855  0.996003  1
  P  P41  1  0.829932  0.583767  0.516280  1
  P  P42  1  0.939579  0.968749  0.242534  1
  P  P43  1  0.950033  0.142060  0.772659  1
  O  O44  1  0.006824  0.507758  0.134227  1
  O  O45  1  0.021096  0.871479  0.196680  1
  O  O46  1  0.033973  0.598748  0.365778  1
  O  O47  1  0.044619  0.561126  0.628349  1
  O  O48  1  0.072833  0.631888  0.858992  1
  O  O49  1  0.121262  0.305490  0.760874  1
  O  O50  1  0.116905  0.902836  0.499641  1
  O  O51  1  0.136280  0.645733  0.197123  1
  O  O52  1  0.122588  0.275366  0.461815  1
  O  O53  1  0.148861  0.916579  0.982886  1
  O  O54  1  0.152120  0.280604  0.035878  1
  O  O55  1  0.225673  0.095135  0.600066  1
  O  O56  1  0.228878  0.067147  0.370117  1
  O  O57  1  0.238218  0.567507  0.612518  1
  O  O58  1  0.243956  0.610900  0.385871  1
  O  O59  1  0.256044  0.110900  0.885871  1
  O  O60  1  0.261782  0.067507  0.112518  1
  O  O61  1  0.271122  0.567147  0.870117  1
  O  O62  1  0.274327  0.595135  0.100066  1
  O  O63  1  0.347880  0.780605  0.535878  1
  O  O64  1  0.351139  0.416579  0.482886  1
  O  O65  1  0.377412  0.775366  0.961815  1
  O  O66  1  0.363719  0.145733  0.697123  1
  O  O67  1  0.383095  0.402836  0.999641  1
  O  O68  1  0.378738  0.805490  0.260874  1
  O  O69  1  0.427166  0.131888  0.358992  1
  O  O70  1  0.455381  0.061126  0.128349  1
  O  O71  1  0.466027  0.098748  0.865778  1
  O  O72  1  0.478904  0.371479  0.696680  1
  O  O73  1  0.493176  0.007758  0.634227  1
  O  O74  1  0.506824  0.507758  0.365773  1
  O  O75  1  0.521096  0.871479  0.303320  1
  O  O76  1  0.533973  0.598748  0.134222  1
  O  O77  1  0.544619  0.561126  0.871651  1
  O  O78  1  0.572833  0.631888  0.641008  1
  O  O79  1  0.621262  0.305490  0.739126  1
  O  O80  1  0.616905  0.902836  0.000359  1
  O  O81  1  0.636281  0.645733  0.302877  1
  O  O82  1  0.622588  0.275366  0.038185  1
  O  O83  1  0.648860  0.916579  0.517114  1
  O  O84  1  0.652120  0.280604  0.464122  1
  O  O85  1  0.725673  0.095135  0.899934  1
  O  O86  1  0.728878  0.067147  0.129883  1
  O  O87  1  0.738218  0.567507  0.887482  1
  O  O88  1  0.743956  0.610900  0.114129  1
  O  O89  1  0.756044  0.110900  0.614129  1
  O  O90  1  0.761782  0.067507  0.387482  1
  O  O91  1  0.771122  0.567147  0.629883  1
  O  O92  1  0.774327  0.595135  0.399934  1
  O  O93  1  0.847880  0.780605  0.964122  1
  O  O94  1  0.851140  0.416579  0.017114  1
  O  O95  1  0.877412  0.775366  0.538185  1
  O  O96  1  0.863719  0.145733  0.802877  1
  O  O97  1  0.883095  0.402836  0.500359  1
  O  O98  1  0.878738  0.805490  0.239126  1
  O  O99  1  0.927167  0.131888  0.141008  1
  O  O100  1  0.955381  0.061126  0.371651  1
  O  O101  1  0.966027  0.098748  0.634222  1
  O  O102  1  0.978904  0.371479  0.803320  1
  O  O103  1  0.993176  0.007758  0.865773  1
