# generated using pymatgen
data_Li4Co3Ni3(SbO8)2
_symmetry_space_group_name_H-M   'P 1'
_cell_length_a   5.81469019
_cell_length_b   5.76955314
_cell_length_c   9.50161015
_cell_angle_alpha   89.99718152
_cell_angle_beta   91.57143714
_cell_angle_gamma   119.69393227
_symmetry_Int_Tables_number   1
_chemical_formula_structural   Li4Co3Ni3(SbO8)2
_chemical_formula_sum   'Li4 Co3 Ni3 Sb2 O16'
_cell_volume   276.76530560
_cell_formula_units_Z   1
loop_
 _symmetry_equiv_pos_site_id
 _symmetry_equiv_pos_as_xyz
  1  'x, y, z'
loop_
 _atom_site_type_symbol
 _atom_site_label
 _atom_site_symmetry_multiplicity
 _atom_site_fract_x
 _atom_site_fract_y
 _atom_site_fract_z
 _atom_site_occupancy
  Li  Li0  1  0.325215  0.663122  0.900822  1
  Li  Li1  1  0.004797  0.002284  0.991790  1
  Li  Li2  1  0.008455  0.004208  0.491957  1
  Li  Li3  1  0.666053  0.332697  0.400489  1
  Co  Co4  1  0.170361  0.830341  0.214837  1
  Co  Co5  1  0.170342  0.340084  0.214829  1
  Co  Co6  1  0.341843  0.170843  0.715176  1
  Ni  Ni7  1  0.663106  0.831508  0.213210  1
  Ni  Ni8  1  0.831417  0.662715  0.714102  1
  Ni  Ni9  1  0.831668  0.168973  0.714144  1
  Sb  Sb10  1  0.337839  0.668565  0.486336  1
  Sb  Sb11  1  0.658479  0.329495  0.989533  1
  O  O12  1  0.174791  0.842646  0.594755  1
  O  O13  1  0.032560  0.516440  0.333631  1
  O  O14  1  0.331547  0.665608  0.116936  1
  O  O15  1  0.002133  0.001240  0.303060  1
  O  O16  1  0.012114  0.005832  0.802079  1
  O  O17  1  0.173950  0.331582  0.594806  1
  O  O18  1  0.478019  0.968899  0.341737  1
  O  O19  1  0.477460  0.507942  0.342037  1
  O  O20  1  0.323696  0.161822  0.103046  1
  O  O21  1  0.687212  0.843263  0.594079  1
  O  O22  1  0.497555  0.472237  0.843907  1
  O  O23  1  0.498658  0.026000  0.843960  1
  O  O24  1  0.656888  0.328590  0.618191  1
  O  O25  1  0.841941  0.677440  0.093624  1
  O  O26  1  0.959333  0.480399  0.841391  1
  O  O27  1  0.842567  0.165526  0.093372  1
