# generated using pymatgen
data_Li5V3P8O29
_symmetry_space_group_name_H-M   'P 1'
_cell_length_a   9.82885918
_cell_length_b   9.79095658
_cell_length_c   14.07992490
_cell_angle_alpha   90.43266327
_cell_angle_beta   90.28594344
_cell_angle_gamma   60.26670498
_symmetry_Int_Tables_number   1
_chemical_formula_structural   Li5V3P8O29
_chemical_formula_sum   'Li10 V6 P16 O58'
_cell_volume   1176.54158092
_cell_formula_units_Z   2
loop_
 _symmetry_equiv_pos_site_id
 _symmetry_equiv_pos_as_xyz
  1  'x, y, z'
loop_
 _atom_site_type_symbol
 _atom_site_label
 _atom_site_symmetry_multiplicity
 _atom_site_fract_x
 _atom_site_fract_y
 _atom_site_fract_z
 _atom_site_occupancy
  Li  Li0  1  0.768832  0.904151  0.560238  1
  Li  Li1  1  0.914105  0.314492  0.564718  1
  Li  Li2  1  0.675616  0.662784  0.888246  1
  Li  Li3  1  0.768546  0.318016  0.056385  1
  Li  Li4  1  0.320819  0.909774  0.060765  1
  Li  Li5  1  0.688025  0.223005  0.443692  1
  Li  Li6  1  0.324419  0.768773  0.561438  1
  Li  Li7  1  0.328572  0.323324  0.107063  1
  Li  Li8  1  0.090954  0.681279  0.438503  1
  Li  Li9  1  0.975861  0.973587  0.996250  1
  V  V10  1  0.568397  0.436861  0.249009  1
  V  V11  1  0.430271  0.569184  0.752000  1
  V  V12  1  0.565295  0.004473  0.753570  1
  V  V13  1  0.432953  0.002035  0.250752  1
  V  V14  1  0.996840  0.570463  0.245900  1
  V  V15  1  0.004116  0.429573  0.751746  1
  P  P16  1  0.911684  0.779078  0.841171  1
  P  P17  1  0.766196  0.913948  0.340629  1
  P  P18  1  0.915010  0.319708  0.343818  1
  P  P19  1  0.663074  0.670876  0.127052  1
  P  P20  1  0.666648  0.665797  0.629463  1
  P  P21  1  0.773066  0.318321  0.841889  1
  P  P22  1  0.679428  0.232095  0.659731  1
  P  P23  1  0.315377  0.912823  0.845486  1
  P  P24  1  0.689444  0.088455  0.156932  1
  P  P25  1  0.317091  0.771360  0.343572  1
  P  P26  1  0.224662  0.686923  0.160206  1
  P  P27  1  0.335954  0.336355  0.369300  1
  P  P28  1  0.333222  0.334888  0.871454  1
  P  P29  1  0.084652  0.682586  0.657459  1
  P  P30  1  0.230621  0.082477  0.661060  1
  P  P31  1  0.085284  0.223287  0.159579  1
  O  O32  1  0.998438  0.754150  0.566353  1
  O  O33  1  0.917983  0.751831  0.336893  1
  O  O34  1  0.791818  0.008309  0.074939  1
  O  O35  1  0.738982  0.919438  0.832354  1
  O  O36  1  0.899298  0.627952  0.833893  1
  O  O37  1  0.807227  0.671635  0.168507  1
  O  O38  1  0.907504  0.477499  0.319981  1
  O  O39  1  0.985926  0.221769  0.080158  1
  O  O40  1  0.916952  0.342588  0.832660  1
  O  O41  1  0.667150  0.815992  0.674266  1
  O  O42  1  0.622625  0.895135  0.320860  1
  O  O43  1  0.815008  0.514357  0.667544  1
  O  O44  1  0.657375  0.660258  0.020959  1
  O  O45  1  0.663915  0.674445  0.523645  1
  O  O46  1  0.663684  0.518225  0.168878  1
  O  O47  1  0.480319  0.899056  0.829772  1
  O  O48  1  0.510579  0.818975  0.164323  1
  O  O49  1  0.744807  0.341823  0.334435  1
  O  O50  1  0.787774  0.210330  0.750686  1
  O  O51  1  0.761001  0.237180  0.571042  1
  O  O52  1  0.777609  0.234801  0.930583  1
  O  O53  1  0.627107  0.483006  0.828556  1
  O  O54  1  0.515347  0.668671  0.668661  1
  O  O55  1  0.656822  0.264017  0.161757  1
  O  O56  1  0.476386  0.619010  0.318538  1
  O  O57  1  0.340610  0.912330  0.338104  1
  O  O58  1  0.782019  0.014692  0.255650  1
  O  O59  1  0.753455  0.999128  0.432544  1
  O  O60  1  0.240634  0.986962  0.576947  1
  O  O61  1  0.660946  0.082714  0.660041  1
  O  O62  1  0.521858  0.381375  0.676125  1
  O  O63  1  0.343025  0.743080  0.835894  1
  O  O64  1  0.486051  0.336766  0.323381  1
  O  O65  1  0.377779  0.523244  0.170487  1
  O  O66  1  0.220614  0.784268  0.078875  1
  O  O67  1  0.251868  0.748263  0.434044  1
  O  O68  1  0.202618  0.782912  0.258145  1
  O  O69  1  0.249613  0.664811  0.659520  1
  O  O70  1  0.482937  0.181741  0.826266  1
  O  O71  1  0.527449  0.098225  0.163561  1
  O  O72  1  0.338506  0.477418  0.830187  1
  O  O73  1  0.344755  0.325613  0.977042  1
  O  O74  1  0.355309  0.326628  0.473967  1
  O  O75  1  0.186502  0.486071  0.333466  1
  O  O76  1  0.382808  0.090646  0.680513  1
  O  O77  1  0.340013  0.188196  0.320533  1
  O  O78  1  0.087421  0.652138  0.161888  1
  O  O79  1  0.990529  0.797180  0.744231  1
  O  O80  1  0.992656  0.799765  0.923636  1
  O  O81  1  0.093530  0.524225  0.678818  1
  O  O82  1  0.190265  0.330713  0.829971  1
  O  O83  1  0.103710  0.371569  0.169381  1
  O  O84  1  0.252602  0.080186  0.158271  1
  O  O85  1  0.239583  0.989345  0.936559  1
  O  O86  1  0.206186  0.006901  0.757533  1
  O  O87  1  0.087134  0.250273  0.659937  1
  O  O88  1  0.982214  0.254081  0.437626  1
  O  O89  1  0.012301  0.202875  0.259212  1
