# generated using pymatgen
data_CrH18I7N6
_symmetry_space_group_name_H-M   'P 1'
_cell_length_a   8.09886705
_cell_length_b   8.94123868
_cell_length_c   9.68455258
_cell_angle_alpha   114.89787955
_cell_angle_beta   65.28321172
_cell_angle_gamma   116.92951343
_symmetry_Int_Tables_number   1
_chemical_formula_structural   CrH18I7N6
_chemical_formula_sum   'Cr1 H18 I7 N6'
_cell_volume   544.24345571
_cell_formula_units_Z   1
loop_
 _symmetry_equiv_pos_site_id
 _symmetry_equiv_pos_as_xyz
  1  'x, y, z'
loop_
 _atom_site_type_symbol
 _atom_site_label
 _atom_site_symmetry_multiplicity
 _atom_site_fract_x
 _atom_site_fract_y
 _atom_site_fract_z
 _atom_site_occupancy
  Cr  Cr0  1  0.500000  0.500000  0.500000  1
  H  H1  1  0.729212  0.388523  0.212909  1
  H  H2  1  0.446402  0.388523  0.212909  1
  H  H3  1  0.243911  0.294801  0.332206  1
  H  H4  1  0.718685  0.294801  0.332206  1
  H  H5  1  0.235461  0.182383  0.509542  1
  H  H6  1  0.437380  0.182383  0.509542  1
  H  H7  1  0.299887  0.498142  0.339158  1
  H  H8  1  0.859097  0.498142  0.339158  1
  H  H9  1  0.301232  0.276895  0.674432  1
  H  H10  1  0.698768  0.723105  0.325568  1
  H  H11  1  0.140903  0.501858  0.660842  1
  H  H12  1  0.700113  0.501858  0.660842  1
  H  H13  1  0.562620  0.817617  0.490458  1
  H  H14  1  0.764539  0.817617  0.490458  1
  H  H15  1  0.756089  0.705199  0.667794  1
  H  H16  1  0.281315  0.705199  0.667794  1
  H  H17  1  0.270788  0.611477  0.787091  1
  H  H18  1  0.553598  0.611477  0.787091  1
  I  I19  1  0.836508  0.219030  0.546013  1
  I  I20  1  0.397400  0.924043  0.129245  1
  I  I21  1  0.602600  0.075957  0.870755  1
  I  I22  1  0.163492  0.780970  0.453987  1
  I  I23  1  0.000000  0.000000  0.000000  1
  I  I24  1  0.812753  0.634400  0.008894  1
  I  I25  1  0.187247  0.365600  0.991106  1
  N  N26  1  0.357958  0.410290  0.327297  1
  N  N27  1  0.725035  0.410290  0.327297  1
  N  N28  1  0.353222  0.259941  0.553496  1
  N  N29  1  0.646778  0.740059  0.446504  1
  N  N30  1  0.642042  0.589710  0.672703  1
  N  N31  1  0.274965  0.589710  0.672703  1
