# generated using pymatgen
data_Li3MnV(PO4)3
_symmetry_space_group_name_H-M   'P 1'
_cell_length_a   8.68524911
_cell_length_b   8.79068950
_cell_length_c   8.63229417
_cell_angle_alpha   90.00000186
_cell_angle_beta   60.20148336
_cell_angle_gamma   61.14780855
_symmetry_Int_Tables_number   1
_chemical_formula_structural   Li3MnV(PO4)3
_chemical_formula_sum   'Li6 Mn2 V2 P6 O24'
_cell_volume   475.34567407
_cell_formula_units_Z   2
loop_
 _symmetry_equiv_pos_site_id
 _symmetry_equiv_pos_as_xyz
  1  'x, y, z'
loop_
 _atom_site_type_symbol
 _atom_site_label
 _atom_site_symmetry_multiplicity
 _atom_site_fract_x
 _atom_site_fract_y
 _atom_site_fract_z
 _atom_site_occupancy
  Li  Li0  1  0.629593  0.706686  0.109513  1
  Li  Li1  1  0.384364  0.676935  0.651855  1
  Li  Li2  1  0.629593  0.206686  0.260894  1
  Li  Li3  1  0.986717  0.745529  0.637530  1
  Li  Li4  1  0.986717  0.245529  0.375753  1
  Li  Li5  1  0.384364  0.176935  0.963781  1
  Mn  Mn6  1  0.210907  0.855894  0.147990  1
  Mn  Mn7  1  0.210907  0.355894  0.641102  1
  V  V8  1  0.795042  0.640595  0.357410  1
  V  V9  1  0.795042  0.140595  0.847547  1
  P  P10  1  0.279239  0.954291  0.469267  1
  P  P11  1  0.279239  0.454291  0.251494  1
  P  P12  1  0.997632  0.258077  0.045595  1
  P  P13  1  0.723675  0.538871  0.750500  1
  P  P14  1  0.997632  0.758077  0.956773  1
  P  P15  1  0.723675  0.038871  0.525825  1
  O  O16  1  0.323053  0.912917  0.269069  1
  O  O17  1  0.091979  0.942980  0.620846  1
  O  O18  1  0.237101  0.642257  0.252433  1
  O  O19  1  0.091979  0.442980  0.287173  1
  O  O20  1  0.480510  0.793771  0.450248  1
  O  O21  1  0.166913  0.109940  0.073256  1
  O  O22  1  0.480510  0.293771  0.069242  1
  O  O23  1  0.126672  0.809273  0.994179  1
  O  O24  1  0.873927  0.694962  0.111028  1
  O  O25  1  0.323053  0.412917  0.407876  1
  O  O26  1  0.166913  0.609940  0.759830  1
  O  O27  1  0.782664  0.841706  0.479227  1
  O  O28  1  0.237101  0.142257  0.510465  1
  O  O29  1  0.822690  0.423281  0.230150  1
  O  O30  1  0.669824  0.584742  0.602350  1
  O  O31  1  0.126672  0.309273  0.879149  1
  O  O32  1  0.873927  0.194962  0.015045  1
  O  O33  1  0.534807  0.680267  0.945728  1
  O  O34  1  0.822690  0.923281  0.947160  1
  O  O35  1  0.534807  0.180267  0.519465  1
  O  O36  1  0.913687  0.551484  0.705488  1
  O  O37  1  0.782664  0.341706  0.738109  1
  O  O38  1  0.913687  0.051484  0.380826  1
  O  O39  1  0.669824  0.084742  0.727826  1
