# generated using pymatgen
data_LiSiBiO4
_symmetry_space_group_name_H-M   'P 1'
_cell_length_a   8.65248544
_cell_length_b   8.65248545
_cell_length_c   8.65248494
_cell_angle_alpha   103.17332329
_cell_angle_beta   103.17332322
_cell_angle_gamma   103.17332015
_symmetry_Int_Tables_number   1
_chemical_formula_structural   LiSiBiO4
_chemical_formula_sum   'Li6 Si6 Bi6 O24'
_cell_volume   586.76739255
_cell_formula_units_Z   6
loop_
 _symmetry_equiv_pos_site_id
 _symmetry_equiv_pos_as_xyz
  1  'x, y, z'
loop_
 _atom_site_type_symbol
 _atom_site_label
 _atom_site_symmetry_multiplicity
 _atom_site_fract_x
 _atom_site_fract_y
 _atom_site_fract_z
 _atom_site_occupancy
  Li  Li0  1  0.037869  0.441430  0.189806  1
  Li  Li1  1  0.558570  0.810194  0.962131  1
  Li  Li2  1  0.810194  0.962131  0.558570  1
  Li  Li3  1  0.189806  0.037869  0.441430  1
  Li  Li4  1  0.441430  0.189806  0.037869  1
  Li  Li5  1  0.962131  0.558570  0.810194  1
  Si  Si6  1  0.144638  0.912357  0.745711  1
  Si  Si7  1  0.254288  0.855362  0.087643  1
  Si  Si8  1  0.087643  0.254288  0.855362  1
  Si  Si9  1  0.912357  0.745711  0.144638  1
  Si  Si10  1  0.745711  0.144638  0.912357  1
  Si  Si11  1  0.855362  0.087643  0.254288  1
  Bi  Bi12  1  0.456378  0.812559  0.554085  1
  Bi  Bi13  1  0.187441  0.445915  0.543622  1
  Bi  Bi14  1  0.445915  0.543622  0.187441  1
  Bi  Bi15  1  0.554085  0.456378  0.812559  1
  Bi  Bi16  1  0.812559  0.554085  0.456378  1
  Bi  Bi17  1  0.543622  0.187441  0.445915  1
  O  O18  1  0.262018  0.956323  0.942640  1
  O  O19  1  0.057360  0.737982  0.043677  1
  O  O20  1  0.255766  0.929717  0.618821  1
  O  O21  1  0.381179  0.744234  0.070283  1
  O  O22  1  0.694631  0.011841  0.730127  1
  O  O23  1  0.280339  0.557833  0.333122  1
  O  O24  1  0.070283  0.381179  0.744234  1
  O  O25  1  0.442167  0.666878  0.719661  1
  O  O26  1  0.988159  0.269873  0.305370  1
  O  O27  1  0.269873  0.305370  0.988159  1
  O  O28  1  0.666878  0.719661  0.442167  1
  O  O29  1  0.043677  0.057360  0.737982  1
  O  O30  1  0.956323  0.942640  0.262018  1
  O  O31  1  0.333122  0.280339  0.557833  1
  O  O32  1  0.730127  0.694631  0.011841  1
  O  O33  1  0.011841  0.730127  0.694631  1
  O  O34  1  0.557833  0.333122  0.280339  1
  O  O35  1  0.929717  0.618821  0.255766  1
  O  O36  1  0.719661  0.442167  0.666878  1
  O  O37  1  0.305370  0.988159  0.269873  1
  O  O38  1  0.618821  0.255766  0.929717  1
  O  O39  1  0.744234  0.070283  0.381179  1
  O  O40  1  0.942640  0.262018  0.956323  1
  O  O41  1  0.737982  0.043677  0.057360  1
