# generated using pymatgen
data_Li8Mn5Fe3(BO3)8
_symmetry_space_group_name_H-M   'P 1'
_cell_length_a   6.07072813
_cell_length_b   9.82842454
_cell_length_c   9.72061100
_cell_angle_alpha   64.90888373
_cell_angle_beta   78.03171188
_cell_angle_gamma   79.48340221
_symmetry_Int_Tables_number   1
_chemical_formula_structural   Li8Mn5Fe3(BO3)8
_chemical_formula_sum   'Li8 Mn5 Fe3 B8 O24'
_cell_volume   510.90188784
_cell_formula_units_Z   1
loop_
 _symmetry_equiv_pos_site_id
 _symmetry_equiv_pos_as_xyz
  1  'x, y, z'
loop_
 _atom_site_type_symbol
 _atom_site_label
 _atom_site_symmetry_multiplicity
 _atom_site_fract_x
 _atom_site_fract_y
 _atom_site_fract_z
 _atom_site_occupancy
  Li  Li0  1  0.953303  0.184166  0.532310  1
  Li  Li1  1  0.952747  0.685294  0.033305  1
  Li  Li2  1  0.547673  0.814431  0.967891  1
  Li  Li3  1  0.454897  0.684922  0.533910  1
  Li  Li4  1  0.545748  0.313644  0.465902  1
  Li  Li5  1  0.454180  0.184258  0.033961  1
  Li  Li6  1  0.045668  0.315799  0.966818  1
  Li  Li7  1  0.046292  0.815609  0.466360  1
  Mn  Mn8  1  0.686748  0.375312  0.707787  1
  Mn  Mn9  1  0.187143  0.872914  0.707469  1
  Mn  Mn10  1  0.313596  0.126409  0.794123  1
  Mn  Mn11  1  0.314175  0.627306  0.292904  1
  Mn  Mn12  1  0.185890  0.372938  0.206483  1
  Fe  Fe13  1  0.815033  0.629491  0.790315  1
  Fe  Fe14  1  0.687606  0.872537  0.211363  1
  Fe  Fe15  1  0.814047  0.124265  0.288094  1
  B  B16  1  0.665841  0.961830  0.631651  1
  B  B17  1  0.832020  0.036876  0.868907  1
  B  B18  1  0.834384  0.538974  0.365506  1
  B  B19  1  0.665972  0.460610  0.132781  1
  B  B20  1  0.334924  0.537871  0.867078  1
  B  B21  1  0.165461  0.464261  0.633950  1
  B  B22  1  0.164502  0.963907  0.133274  1
  B  B23  1  0.335453  0.036263  0.366767  1
  O  O24  1  0.822221  0.895580  0.988384  1
  O  O25  1  0.984740  0.437484  0.755771  1
  O  O26  1  0.983674  0.936120  0.255865  1
  O  O27  1  0.836761  0.843641  0.636359  1
  O  O28  1  0.821052  0.397223  0.482216  1
  O  O29  1  0.486638  0.935749  0.753741  1
  O  O30  1  0.836189  0.342208  0.139345  1
  O  O31  1  0.659293  0.152469  0.864529  1
  O  O32  1  0.664447  0.657460  0.361336  1
  O  O33  1  0.516330  0.567512  0.746080  1
  O  O34  1  0.679009  0.102555  0.512821  1
  O  O35  1  0.679954  0.601272  0.013953  1
  O  O36  1  0.325887  0.394383  0.982523  1
  O  O37  1  0.325614  0.893776  0.483496  1
  O  O38  1  0.485446  0.435999  0.253844  1
  O  O39  1  0.336953  0.348737  0.635521  1
  O  O40  1  0.337258  0.848759  0.134847  1
  O  O41  1  0.159938  0.651610  0.865637  1
  O  O42  1  0.516216  0.064072  0.244451  1
  O  O43  1  0.175359  0.606597  0.516655  1
  O  O44  1  0.163453  0.151603  0.364570  1
  O  O45  1  0.012331  0.063646  0.747043  1
  O  O46  1  0.015318  0.565310  0.244822  1
  O  O47  1  0.172613  0.106347  0.017289  1
