# generated using pymatgen
data_CrPO5
_symmetry_space_group_name_H-M   'P 1'
_cell_length_a   8.38677898
_cell_length_b   9.30950878
_cell_length_c   5.18095200
_cell_angle_alpha   104.36657243
_cell_angle_beta   91.41058935
_cell_angle_gamma   102.25086302
_symmetry_Int_Tables_number   1
_chemical_formula_structural   CrPO5
_chemical_formula_sum   'Cr4 P4 O20'
_cell_volume   381.66105567
_cell_formula_units_Z   4
loop_
 _symmetry_equiv_pos_site_id
 _symmetry_equiv_pos_as_xyz
  1  'x, y, z'
loop_
 _atom_site_type_symbol
 _atom_site_label
 _atom_site_symmetry_multiplicity
 _atom_site_fract_x
 _atom_site_fract_y
 _atom_site_fract_z
 _atom_site_occupancy
  Cr  Cr0  1  0.227722  0.557023  0.749713  1
  Cr  Cr1  1  0.267219  0.056338  0.313390  1
  Cr  Cr2  1  0.732781  0.943662  0.686610  1
  Cr  Cr3  1  0.772278  0.442977  0.250287  1
  P  P4  1  0.079951  0.845549  0.723890  1
  P  P5  1  0.515429  0.810202  0.133403  1
  P  P6  1  0.484571  0.189799  0.866597  1
  P  P7  1  0.920049  0.154451  0.276110  1
  O  O8  1  0.102776  0.675496  0.665478  1
  O  O9  1  0.119805  0.910643  0.023447  1
  O  O10  1  0.119265  0.417007  0.834505  1
  O  O11  1  0.190297  0.930024  0.555067  1
  O  O12  1  0.102232  0.171429  0.361829  1
  O  O13  1  0.370190  0.662465  0.027171  1
  O  O14  1  0.313289  0.495123  0.489594  1
  O  O15  1  0.398231  0.211241  0.620223  1
  O  O16  1  0.436591  0.947347  0.220587  1
  O  O17  1  0.626702  0.817075  0.908187  1
  O  O18  1  0.373298  0.182925  0.091813  1
  O  O19  1  0.563409  0.052653  0.779413  1
  O  O20  1  0.601769  0.788759  0.379777  1
  O  O21  1  0.686711  0.504877  0.510406  1
  O  O22  1  0.629810  0.337535  0.972829  1
  O  O23  1  0.897768  0.828571  0.638171  1
  O  O24  1  0.809703  0.069976  0.444933  1
  O  O25  1  0.880735  0.582993  0.165495  1
  O  O26  1  0.880195  0.089357  0.976553  1
  O  O27  1  0.897224  0.324504  0.334523  1
