# generated using pymatgen
data_Na2CuBSO7
_symmetry_space_group_name_H-M   'P 1'
_cell_length_a   8.76142487
_cell_length_b   7.33987978
_cell_length_c   5.06973203
_cell_angle_alpha   90.00000000
_cell_angle_beta   88.63371356
_cell_angle_gamma   90.00000000
_symmetry_Int_Tables_number   1
_chemical_formula_structural   Na2CuBSO7
_chemical_formula_sum   'Na4 Cu2 B2 S2 O14'
_cell_volume   325.93064950
_cell_formula_units_Z   2
loop_
 _symmetry_equiv_pos_site_id
 _symmetry_equiv_pos_as_xyz
  1  'x, y, z'
loop_
 _atom_site_type_symbol
 _atom_site_label
 _atom_site_symmetry_multiplicity
 _atom_site_fract_x
 _atom_site_fract_y
 _atom_site_fract_z
 _atom_site_occupancy
  Na  Na0  1  0.230497  0.498143  0.231958  1
  Na  Na1  1  0.230497  0.001857  0.231958  1
  Na  Na2  1  0.769503  0.501857  0.768042  1
  Na  Na3  1  0.769503  0.998143  0.768042  1
  Cu  Cu4  1  0.344595  0.750000  0.774043  1
  Cu  Cu5  1  0.655405  0.250000  0.225957  1
  B  B6  1  0.074219  0.750000  0.725982  1
  B  B7  1  0.925781  0.250000  0.274018  1
  S  S8  1  0.420896  0.250000  0.721731  1
  S  S9  1  0.579104  0.750000  0.278269  1
  O  O10  1  0.075793  0.250000  0.287854  1
  O  O11  1  0.157637  0.750000  0.957619  1
  O  O12  1  0.186530  0.750000  0.523738  1
  O  O13  1  0.334133  0.083973  0.785024  1
  O  O14  1  0.334133  0.416027  0.785024  1
  O  O15  1  0.428203  0.750000  0.139937  1
  O  O16  1  0.460722  0.250000  0.426010  1
  O  O17  1  0.539278  0.750000  0.573990  1
  O  O18  1  0.571797  0.250000  0.860063  1
  O  O19  1  0.665867  0.583973  0.214976  1
  O  O20  1  0.665867  0.916027  0.214976  1
  O  O21  1  0.813470  0.250000  0.476262  1
  O  O22  1  0.842363  0.250000  0.042381  1
  O  O23  1  0.924207  0.750000  0.712146  1
