# generated using pymatgen
data_Li2MnVP2(HO5)2
_symmetry_space_group_name_H-M   'P 1'
_cell_length_a   8.05206091
_cell_length_b   7.41470192
_cell_length_c   6.95633574
_cell_angle_alpha   117.49036191
_cell_angle_beta   87.71347497
_cell_angle_gamma   88.29733280
_symmetry_Int_Tables_number   1
_chemical_formula_structural   Li2MnVP2(HO5)2
_chemical_formula_sum   'Li4 Mn2 V2 P4 H4 O20'
_cell_volume   367.58784705
_cell_formula_units_Z   2
loop_
 _symmetry_equiv_pos_site_id
 _symmetry_equiv_pos_as_xyz
  1  'x, y, z'
loop_
 _atom_site_type_symbol
 _atom_site_label
 _atom_site_symmetry_multiplicity
 _atom_site_fract_x
 _atom_site_fract_y
 _atom_site_fract_z
 _atom_site_occupancy
  Li  Li0  1  0.324079  0.822868  0.072818  1
  Li  Li1  1  0.174524  0.173313  0.428569  1
  Li  Li2  1  0.825476  0.826687  0.571431  1
  Li  Li3  1  0.675921  0.177132  0.927182  1
  Mn  Mn4  1  0.500000  0.500000  0.500000  1
  Mn  Mn5  1  0.500000  0.000000  0.500000  1
  V  V6  1  0.000000  0.500000  0.000000  1
  V  V7  1  0.000000  0.000000  0.000000  1
  P  P8  1  0.156145  0.766323  0.478426  1
  P  P9  1  0.341527  0.232064  0.022603  1
  P  P10  1  0.658473  0.767936  0.977397  1
  P  P11  1  0.843855  0.233677  0.521574  1
  H  H12  1  0.151981  0.660546  0.789143  1
  H  H13  1  0.648199  0.669879  0.289874  1
  H  H14  1  0.351801  0.330121  0.710126  1
  H  H15  1  0.848019  0.339454  0.210857  1
  O  O16  1  0.017798  0.656615  0.324184  1
  O  O17  1  0.226291  0.120167  0.113953  1
  O  O18  1  0.267247  0.875504  0.381786  1
  O  O19  1  0.057403  0.927229  0.687784  1
  O  O20  1  0.556304  0.925280  0.181969  1
  O  O21  1  0.258675  0.618447  0.535669  1
  O  O22  1  0.478971  0.342598  0.183292  1
  O  O23  1  0.760716  0.618908  0.031808  1
  O  O24  1  0.103952  0.724520  0.942005  1
  O  O25  1  0.604909  0.737078  0.444232  1
  O  O26  1  0.395091  0.262922  0.555768  1
  O  O27  1  0.896048  0.275480  0.057995  1
  O  O28  1  0.239284  0.381092  0.968192  1
  O  O29  1  0.521029  0.657402  0.816708  1
  O  O30  1  0.741325  0.381553  0.464331  1
  O  O31  1  0.443696  0.074720  0.818031  1
  O  O32  1  0.942597  0.072771  0.312216  1
  O  O33  1  0.732753  0.124496  0.618214  1
  O  O34  1  0.773709  0.879833  0.886047  1
  O  O35  1  0.982202  0.343385  0.675816  1
