# generated using pymatgen
data_LiV2(PO4)3
_symmetry_space_group_name_H-M   'P 1'
_cell_length_a   6.02113058
_cell_length_b   9.60232728
_cell_length_c   8.05362619
_cell_angle_alpha   74.62007178
_cell_angle_beta   90.00000000
_cell_angle_gamma   71.72823199
_symmetry_Int_Tables_number   1
_chemical_formula_structural   LiV2(PO4)3
_chemical_formula_sum   'Li2 V4 P6 O24'
_cell_volume   424.56186761
_cell_formula_units_Z   2
loop_
 _symmetry_equiv_pos_site_id
 _symmetry_equiv_pos_as_xyz
  1  'x, y, z'
loop_
 _atom_site_type_symbol
 _atom_site_label
 _atom_site_symmetry_multiplicity
 _atom_site_fract_x
 _atom_site_fract_y
 _atom_site_fract_z
 _atom_site_occupancy
  Li  Li0  1  0.589248  1.000000  0.750000  1
  Li  Li1  1  0.410752  0.000000  0.250000  1
  V  V2  1  0.969398  0.730881  0.592401  1
  V  V3  1  0.299720  0.730881  0.092401  1
  V  V4  1  0.700280  0.269119  0.907599  1
  V  V5  1  0.030602  0.269119  0.407599  1
  P  P6  1  0.503873  0.642448  0.731233  1
  P  P7  1  0.853679  0.642448  0.231233  1
  P  P8  1  0.146321  0.357552  0.768767  1
  P  P9  1  0.496127  0.357552  0.268767  1
  P  P10  1  0.061925  1.000000  0.750000  1
  P  P11  1  0.938075  0.000000  0.250000  1
  O  O12  1  0.251681  0.933057  0.904976  1
  O  O13  1  0.815262  0.933057  0.404976  1
  O  O14  1  0.957251  0.875436  0.728694  1
  O  O15  1  0.167313  0.875436  0.228694  1
  O  O16  1  0.665059  0.742837  0.686683  1
  O  O17  1  0.297766  0.719178  0.588049  1
  O  O18  1  0.416095  0.649952  0.913558  1
  O  O19  1  0.592104  0.742837  0.186683  1
  O  O20  1  0.983056  0.719178  0.088049  1
  O  O21  1  0.098839  0.525316  0.757544  1
  O  O22  1  0.933953  0.649952  0.413558  1
  O  O23  1  0.375845  0.525316  0.257544  1
  O  O24  1  0.624155  0.474684  0.742456  1
  O  O25  1  0.066047  0.350048  0.586442  1
  O  O26  1  0.901161  0.474684  0.242456  1
  O  O27  1  0.016944  0.280822  0.911951  1
  O  O28  1  0.407896  0.257163  0.813317  1
  O  O29  1  0.583905  0.350048  0.086442  1
  O  O30  1  0.702234  0.280822  0.411951  1
  O  O31  1  0.334941  0.257163  0.313317  1
  O  O32  1  0.832687  0.124564  0.771306  1
  O  O33  1  0.042749  0.124564  0.271306  1
  O  O34  1  0.184738  0.066943  0.595024  1
  O  O35  1  0.748319  0.066943  0.095024  1
