# generated using pymatgen
data_LiCo2(PO4)2
_symmetry_space_group_name_H-M   'P 1'
_cell_length_a   8.58448927
_cell_length_b   5.43952400
_cell_length_c   7.84655341
_cell_angle_alpha   90.00000000
_cell_angle_beta   103.51001350
_cell_angle_gamma   90.00000000
_symmetry_Int_Tables_number   1
_chemical_formula_structural   LiCo2(PO4)2
_chemical_formula_sum   'Li2 Co4 P4 O16'
_cell_volume   356.26042443
_cell_formula_units_Z   2
loop_
 _symmetry_equiv_pos_site_id
 _symmetry_equiv_pos_as_xyz
  1  'x, y, z'
loop_
 _atom_site_type_symbol
 _atom_site_label
 _atom_site_symmetry_multiplicity
 _atom_site_fract_x
 _atom_site_fract_y
 _atom_site_fract_z
 _atom_site_occupancy
  Li  Li0  1  0.395775  0.832628  0.370346  1
  Li  Li1  1  0.895775  0.167372  0.370346  1
  Co  Co2  1  0.068183  0.836664  0.970006  1
  Co  Co3  1  0.276052  0.344679  0.492876  1
  Co  Co4  1  0.568183  0.163336  0.970006  1
  Co  Co5  1  0.776052  0.655321  0.492876  1
  P  P6  1  0.021191  0.663387  0.254688  1
  P  P7  1  0.318319  0.845725  0.735491  1
  P  P8  1  0.521191  0.336613  0.254688  1
  P  P9  1  0.818319  0.154275  0.735491  1
  O  O10  1  0.975042  0.135196  0.884469  1
  O  O11  1  0.059745  0.400863  0.326719  1
  O  O12  1  0.185636  0.729637  0.815260  1
  O  O13  1  0.175033  0.794665  0.221876  1
  O  O14  1  0.269013  0.105296  0.668537  1
  O  O15  1  0.347366  0.671963  0.589549  1
  O  O16  1  0.475042  0.864804  0.884469  1
  O  O17  1  0.438745  0.192383  0.377781  1
  O  O18  1  0.414804  0.325960  0.061497  1
  O  O19  1  0.559745  0.599137  0.326719  1
  O  O20  1  0.685636  0.270363  0.815260  1
  O  O21  1  0.675033  0.205335  0.221876  1
  O  O22  1  0.769013  0.894704  0.668537  1
  O  O23  1  0.847366  0.328037  0.589549  1
  O  O24  1  0.938745  0.807617  0.377781  1
  O  O25  1  0.914804  0.674040  0.061497  1
