# generated using pymatgen
data_V3OF11
_symmetry_space_group_name_H-M   'P 1'
_cell_length_a   5.45657511
_cell_length_b   5.27164884
_cell_length_c   14.74026245
_cell_angle_alpha   89.93842254
_cell_angle_beta   100.35214018
_cell_angle_gamma   89.93189641
_symmetry_Int_Tables_number   1
_chemical_formula_structural   V3OF11
_chemical_formula_sum   'V6 O2 F22'
_cell_volume   417.10317470
_cell_formula_units_Z   2
loop_
 _symmetry_equiv_pos_site_id
 _symmetry_equiv_pos_as_xyz
  1  'x, y, z'
loop_
 _atom_site_type_symbol
 _atom_site_label
 _atom_site_symmetry_multiplicity
 _atom_site_fract_x
 _atom_site_fract_y
 _atom_site_fract_z
 _atom_site_occupancy
  V  V0  1  0.999843  0.999903  0.999858  1
  V  V1  1  0.165772  0.509476  0.327064  1
  V  V2  1  0.321696  0.991947  0.667033  1
  V  V3  1  0.499688  0.499877  0.999712  1
  V  V4  1  0.667856  0.004360  0.334554  1
  V  V5  1  0.792719  0.475461  0.663340  1
  O  O6  1  0.123026  0.581759  0.218718  1
  O  O7  1  0.541655  0.295380  0.644021  1
  F  F8  1  0.023197  0.209606  0.641934  1
  F  F9  1  0.189232  0.302523  0.975197  1
  F  F10  1  0.138807  0.707746  0.690428  1
  F  F11  1  0.042101  0.085692  0.117573  1
  F  F12  1  0.208899  0.408228  0.448970  1
  F  F13  1  0.383704  0.088008  0.783935  1
  F  F14  1  0.296827  0.923566  0.548489  1
  F  F15  1  0.460437  0.586798  0.882282  1
  F  F16  1  0.362473  0.207349  0.308960  1
  F  F17  1  0.688966  0.197356  0.975435  1
  F  F18  1  0.311073  0.802445  0.024593  1
  F  F19  1  0.468325  0.703773  0.359742  1
  F  F20  1  0.636555  0.786367  0.690856  1
  F  F21  1  0.541793  0.413401  0.117473  1
  F  F22  1  0.710952  0.082865  0.452250  1
  F  F23  1  0.894796  0.428045  0.783179  1
  F  F24  1  0.624204  0.911386  0.217845  1
  F  F25  1  0.801503  0.594195  0.551304  1
  F  F26  1  0.957961  0.915160  0.882266  1
  F  F27  1  0.863274  0.297841  0.308471  1
  F  F28  1  0.810585  0.697868  0.024795  1
  F  F29  1  0.972077  0.791619  0.359728  1
