# generated using pymatgen
data_Na5Ni2P2(CO7)2
_symmetry_space_group_name_H-M   'P 1'
_cell_length_a   8.88374184
_cell_length_b   5.17569966
_cell_length_c   13.32133581
_cell_angle_alpha   90.02358514
_cell_angle_beta   90.16177073
_cell_angle_gamma   88.40679200
_symmetry_Int_Tables_number   1
_chemical_formula_structural   Na5Ni2P2(CO7)2
_chemical_formula_sum   'Na10 Ni4 P4 C4 O28'
_cell_volume   612.27016028
_cell_formula_units_Z   2
loop_
 _symmetry_equiv_pos_site_id
 _symmetry_equiv_pos_as_xyz
  1  'x, y, z'
loop_
 _atom_site_type_symbol
 _atom_site_label
 _atom_site_symmetry_multiplicity
 _atom_site_fract_x
 _atom_site_fract_y
 _atom_site_fract_z
 _atom_site_occupancy
  Na  Na0  1  0.080986  0.774276  0.624475  1
  Na  Na1  1  0.263091  0.249005  0.006502  1
  Na  Na2  1  0.253625  0.242581  0.242501  1
  Na  Na3  1  0.265982  0.250786  0.504834  1
  Na  Na4  1  0.271901  0.254498  0.746656  1
  Na  Na5  1  0.746375  0.757419  0.257499  1
  Na  Na6  1  0.736909  0.750995  0.493498  1
  Na  Na7  1  0.728099  0.745502  0.753344  1
  Na  Na8  1  0.734018  0.749214  0.995166  1
  Na  Na9  1  0.919014  0.225724  0.875525  1
  Ni  Ni10  1  0.348749  0.776694  0.373253  1
  Ni  Ni11  1  0.347428  0.777852  0.875925  1
  Ni  Ni12  1  0.651251  0.223306  0.126747  1
  Ni  Ni13  1  0.652572  0.222148  0.624075  1
  P  P14  1  0.422454  0.718943  0.125240  1
  P  P15  1  0.416598  0.716202  0.624725  1
  P  P16  1  0.577546  0.281057  0.374760  1
  P  P17  1  0.583402  0.283798  0.875275  1
  C  C18  1  0.077025  0.713887  0.374244  1
  C  C19  1  0.064650  0.714526  0.875132  1
  C  C20  1  0.935350  0.285474  0.624868  1
  C  C21  1  0.922975  0.286113  0.125756  1
  O  O22  1  0.063316  0.306444  0.122403  1
  O  O23  1  0.079091  0.310931  0.626616  1
  O  O24  1  0.141124  0.938155  0.373628  1
  O  O25  1  0.123757  0.941653  0.874354  1
  O  O26  1  0.172811  0.518299  0.373575  1
  O  O27  1  0.156788  0.514079  0.875792  1
  O  O28  1  0.316284  0.788601  0.532325  1
  O  O29  1  0.328478  0.783696  0.030739  1
  O  O30  1  0.325909  0.784692  0.218064  1
  O  O31  1  0.318757  0.790161  0.717939  1
  O  O32  1  0.426252  0.138620  0.373357  1
  O  O33  1  0.432526  0.143582  0.876698  1
  O  O34  1  0.460557  0.418714  0.124768  1
  O  O35  1  0.449447  0.418271  0.625406  1
  O  O36  1  0.539443  0.581286  0.375232  1
  O  O37  1  0.550553  0.581729  0.874594  1
  O  O38  1  0.567474  0.856418  0.623302  1
  O  O39  1  0.573748  0.861380  0.126643  1
  O  O40  1  0.681243  0.209839  0.782061  1
  O  O41  1  0.683716  0.211399  0.967675  1
  O  O42  1  0.674091  0.215308  0.281936  1
  O  O43  1  0.671522  0.216304  0.469261  1
  O  O44  1  0.827189  0.481701  0.126425  1
  O  O45  1  0.843212  0.485921  0.624208  1
  O  O46  1  0.876243  0.058347  0.625646  1
  O  O47  1  0.858876  0.061845  0.126372  1
  O  O48  1  0.920909  0.689069  0.873384  1
  O  O49  1  0.936684  0.693556  0.377597  1
