# generated using pymatgen
data_CaSb2H2F14
_symmetry_space_group_name_H-M   'P 1'
_cell_length_a   9.50250625
_cell_length_b   11.06282542
_cell_length_c   11.25951295
_cell_angle_alpha   90.00000000
_cell_angle_beta   106.66495250
_cell_angle_gamma   90.00000000
_symmetry_Int_Tables_number   1
_chemical_formula_structural   CaSb2H2F14
_chemical_formula_sum   'Ca4 Sb8 H8 F56'
_cell_volume   1133.93581320
_cell_formula_units_Z   4
loop_
 _symmetry_equiv_pos_site_id
 _symmetry_equiv_pos_as_xyz
  1  'x, y, z'
loop_
 _atom_site_type_symbol
 _atom_site_label
 _atom_site_symmetry_multiplicity
 _atom_site_fract_x
 _atom_site_fract_y
 _atom_site_fract_z
 _atom_site_occupancy
  Ca  Ca0  1  0.181752  0.250508  0.292025  1
  Ca  Ca1  1  0.318248  0.750508  0.207975  1
  Ca  Ca2  1  0.681752  0.249492  0.792025  1
  Ca  Ca3  1  0.818248  0.749492  0.707975  1
  Sb  Sb4  1  0.003135  0.716149  0.409673  1
  Sb  Sb5  1  0.000000  0.000000  0.000000  1
  Sb  Sb6  1  0.000000  0.500000  0.000000  1
  Sb  Sb7  1  0.503135  0.783851  0.909673  1
  Sb  Sb8  1  0.500000  0.000000  0.500000  1
  Sb  Sb9  1  0.500000  0.500000  0.500000  1
  Sb  Sb10  1  0.496865  0.216149  0.090327  1
  Sb  Sb11  1  0.996865  0.283851  0.590327  1
  H  H12  1  0.164254  0.744526  0.759194  1
  H  H13  1  0.055240  0.003175  0.378472  1
  H  H14  1  0.335746  0.244526  0.740806  1
  H  H15  1  0.555240  0.496825  0.878472  1
  H  H16  1  0.444760  0.503175  0.121528  1
  H  H17  1  0.664254  0.755474  0.259194  1
  H  H18  1  0.944760  0.996825  0.621528  1
  H  H19  1  0.835746  0.255474  0.240806  1
  F  F20  1  0.114127  0.020606  0.888974  1
  F  F21  1  0.071994  0.720384  0.772167  1
  F  F22  1  0.012283  0.108512  0.576894  1
  F  F23  1  0.139224  0.464580  0.914324  1
  F  F24  1  0.016794  0.547886  0.385571  1
  F  F25  1  0.171199  0.277338  0.729025  1
  F  F26  1  0.123316  0.297775  0.482942  1
  F  F27  1  0.170649  0.717994  0.548834  1
  F  F28  1  0.102592  0.064295  0.341371  1
  F  F29  1  0.329351  0.217994  0.951166  1
  F  F30  1  0.122985  0.745588  0.299268  1
  F  F31  1  0.092125  0.140334  0.093260  1
  F  F32  1  0.119091  0.410892  0.142456  1
  F  F33  1  0.328801  0.777338  0.770975  1
  F  F34  1  0.108314  0.645046  0.066469  1
  F  F35  1  0.154174  0.901223  0.105826  1
  F  F36  1  0.360776  0.964580  0.585676  1
  F  F37  1  0.487717  0.608512  0.923106  1
  F  F38  1  0.428006  0.220384  0.727833  1
  F  F39  1  0.385873  0.520606  0.611026  1
  F  F40  1  0.345826  0.401223  0.394174  1
  F  F41  1  0.516794  0.952114  0.885571  1
  F  F42  1  0.391686  0.145046  0.433531  1
  F  F43  1  0.380909  0.910892  0.357544  1
  F  F44  1  0.407875  0.640334  0.406740  1
  F  F45  1  0.623316  0.202225  0.982942  1
  F  F46  1  0.377015  0.245588  0.200732  1
  F  F47  1  0.602592  0.435705  0.841371  1
  F  F48  1  0.397408  0.564295  0.158629  1
  F  F49  1  0.622985  0.754412  0.799268  1
  F  F50  1  0.376684  0.797775  0.017058  1
  F  F51  1  0.592125  0.359666  0.593260  1
  F  F52  1  0.619091  0.089108  0.642455  1
  F  F53  1  0.608314  0.854954  0.566469  1
  F  F54  1  0.483206  0.047886  0.114429  1
  F  F55  1  0.654174  0.598777  0.605826  1
  F  F56  1  0.614127  0.479394  0.388974  1
  F  F57  1  0.571994  0.779616  0.272167  1
  F  F58  1  0.512283  0.391488  0.076894  1
  F  F59  1  0.639224  0.035420  0.414324  1
  F  F60  1  0.845826  0.098777  0.894174  1
  F  F61  1  0.891686  0.354954  0.933531  1
  F  F62  1  0.671199  0.222662  0.229025  1
  F  F63  1  0.880909  0.589108  0.857545  1
  F  F64  1  0.907875  0.859666  0.906740  1
  F  F65  1  0.877015  0.254412  0.700732  1
  F  F66  1  0.670649  0.782006  0.048834  1
  F  F67  1  0.897408  0.935705  0.658629  1
  F  F68  1  0.829351  0.282006  0.451166  1
  F  F69  1  0.876684  0.702225  0.517058  1
  F  F70  1  0.828801  0.722662  0.270975  1
  F  F71  1  0.983206  0.452114  0.614429  1
  F  F72  1  0.860776  0.535420  0.085676  1
  F  F73  1  0.987717  0.891488  0.423106  1
  F  F74  1  0.928006  0.279616  0.227833  1
  F  F75  1  0.885873  0.979394  0.111026  1
