# generated using pymatgen
data_Fe13O14
_symmetry_space_group_name_H-M   'P 1'
_cell_length_a   21.46254188
_cell_length_b   14.05053139
_cell_length_c   10.64663971
_cell_angle_alpha   28.38053884
_cell_angle_beta   30.23625174
_cell_angle_gamma   10.89339299
_symmetry_Int_Tables_number   1
_chemical_formula_structural   Fe13O14
_chemical_formula_sum   'Fe13 O14'
_cell_volume   288.40208972
_cell_formula_units_Z   1
loop_
 _symmetry_equiv_pos_site_id
 _symmetry_equiv_pos_as_xyz
  1  'x, y, z'
loop_
 _atom_site_type_symbol
 _atom_site_label
 _atom_site_symmetry_multiplicity
 _atom_site_fract_x
 _atom_site_fract_y
 _atom_site_fract_z
 _atom_site_occupancy
  Fe  Fe0  1  0.000000  0.000000  0.500000  1
  Fe  Fe1  1  0.141722  0.991518  0.005123  1
  Fe  Fe2  1  0.306588  0.968375  0.005123  1
  Fe  Fe3  1  0.137368  0.002125  0.517565  1
  Fe  Fe4  1  0.862632  0.997875  0.482435  1
  Fe  Fe5  1  0.448310  0.970140  0.994877  1
  Fe  Fe6  1  0.271654  0.005207  0.517565  1
  Fe  Fe7  1  0.551690  0.029860  0.005123  1
  Fe  Fe8  1  0.409021  0.042463  0.482435  1
  Fe  Fe9  1  0.693412  0.031625  0.994877  1
  Fe  Fe10  1  0.590979  0.957537  0.517565  1
  Fe  Fe11  1  0.858278  0.008482  0.994877  1
  Fe  Fe12  1  0.728346  0.994793  0.482435  1
  O  O13  1  1.000000  0.512674  0.230989  1
  O  O14  1  0.148575  0.477236  0.261755  1
  O  O15  1  0.000000  0.487326  0.769011  1
  O  O16  1  0.301909  0.472476  0.261755  1
  O  O17  1  0.130084  0.533282  0.733307  1
  O  O18  1  0.413203  0.510227  0.266693  1
  O  O19  1  0.283118  0.510332  0.733307  1
  O  O20  1  0.549517  0.526778  0.261755  1
  O  O21  1  0.450483  0.473222  0.738245  1
  O  O22  1  0.716882  0.489668  0.266693  1
  O  O23  1  0.586797  0.489773  0.733307  1
  O  O24  1  0.869916  0.466718  0.266693  1
  O  O25  1  0.698091  0.527524  0.738245  1
  O  O26  1  0.851425  0.522764  0.738245  1
