# generated using pymatgen
data_KLi2MnPCO7
_symmetry_space_group_name_H-M   'P 1'
_cell_length_a   5.59609666
_cell_length_b   6.76945252
_cell_length_c   9.27605775
_cell_angle_alpha   89.99824148
_cell_angle_beta   89.47961183
_cell_angle_gamma   89.99549021
_symmetry_Int_Tables_number   1
_chemical_formula_structural   KLi2MnPCO7
_chemical_formula_sum   'K2 Li4 Mn2 P2 C2 O14'
_cell_volume   351.38586126
_cell_formula_units_Z   2
loop_
 _symmetry_equiv_pos_site_id
 _symmetry_equiv_pos_as_xyz
  1  'x, y, z'
loop_
 _atom_site_type_symbol
 _atom_site_label
 _atom_site_symmetry_multiplicity
 _atom_site_fract_x
 _atom_site_fract_y
 _atom_site_fract_z
 _atom_site_occupancy
  K  K0  1  0.226006  0.464887  0.747679  1
  K  K1  1  0.773993  0.964882  0.252308  1
  Li  Li2  1  0.197911  0.916362  0.848031  1
  Li  Li3  1  0.612260  0.089751  0.838271  1
  Li  Li4  1  0.387448  0.589831  0.161595  1
  Li  Li5  1  0.801864  0.416343  0.151993  1
  Mn  Mn6  1  0.779813  0.770209  0.625554  1
  Mn  Mn7  1  0.220223  0.270224  0.374419  1
  P  P8  1  0.715124  0.271980  0.575470  1
  P  P9  1  0.284911  0.771977  0.424507  1
  C  C10  1  0.707352  0.737368  0.932311  1
  C  C11  1  0.292489  0.237372  0.067664  1
  O  O12  1  0.328664  0.160089  0.941847  1
  O  O13  1  0.922379  0.762281  0.882040  1
  O  O14  1  0.527019  0.795345  0.853410  1
  O  O15  1  0.790366  0.088925  0.669393  1
  O  O16  1  0.764737  0.457468  0.669590  1
  O  O17  1  0.145682  0.772278  0.569681  1
  O  O18  1  0.442559  0.257025  0.548354  1
  O  O19  1  0.557473  0.757027  0.451623  1
  O  O20  1  0.854343  0.272308  0.430289  1
  O  O21  1  0.235260  0.957474  0.330388  1
  O  O22  1  0.209690  0.588934  0.330584  1
  O  O23  1  0.472850  0.295340  0.146542  1
  O  O24  1  0.077480  0.262340  0.117970  1
  O  O25  1  0.671127  0.660114  0.058146  1
