# generated using pymatgen
data_Li3Co2(GeO4)2
_symmetry_space_group_name_H-M   'P 1'
_cell_length_a   5.14920661
_cell_length_b   6.53028052
_cell_length_c   5.56039685
_cell_angle_alpha   89.76626642
_cell_angle_beta   89.87359907
_cell_angle_gamma   89.30960783
_symmetry_Int_Tables_number   1
_chemical_formula_structural   Li3Co2(GeO4)2
_chemical_formula_sum   'Li3 Co2 Ge2 O8'
_cell_volume   186.95702629
_cell_formula_units_Z   1
loop_
 _symmetry_equiv_pos_site_id
 _symmetry_equiv_pos_as_xyz
  1  'x, y, z'
loop_
 _atom_site_type_symbol
 _atom_site_label
 _atom_site_symmetry_multiplicity
 _atom_site_fract_x
 _atom_site_fract_y
 _atom_site_fract_z
 _atom_site_occupancy
  Li  Li0  1  0.498881  0.000007  0.830788  1
  Li  Li1  1  0.996769  0.744957  0.663271  1
  Li  Li2  1  0.005011  0.493504  0.170027  1
  Co  Co3  1  0.006114  0.008240  0.169913  1
  Co  Co4  1  0.494996  0.499860  0.832005  1
  Ge  Ge5  1  0.007377  0.248026  0.675274  1
  Ge  Ge6  1  0.501117  0.742258  0.323639  1
  O  O7  1  0.342472  0.250804  0.723107  1
  O  O8  1  0.391930  0.530948  0.161409  1
  O  O9  1  0.395839  0.736668  0.627736  1
  O  O10  1  0.371564  0.962038  0.167235  1
  O  O11  1  0.854658  0.760624  0.314128  1
  O  O12  1  0.894112  0.018228  0.831813  1
  O  O13  1  0.931622  0.237780  0.360958  1
  O  O14  1  0.877815  0.473291  0.812521  1
