# generated using pymatgen
data_Li4CuSi2O7
_symmetry_space_group_name_H-M   'P 1'
_cell_length_a   4.50897074
_cell_length_b   5.30624777
_cell_length_c   6.79298848
_cell_angle_alpha   80.85153371
_cell_angle_beta   90.00000000
_cell_angle_gamma   64.85733372
_symmetry_Int_Tables_number   1
_chemical_formula_structural   Li4CuSi2O7
_chemical_formula_sum   'Li4 Cu1 Si2 O7'
_cell_volume   144.84107006
_cell_formula_units_Z   1
loop_
 _symmetry_equiv_pos_site_id
 _symmetry_equiv_pos_as_xyz
  1  'x, y, z'
loop_
 _atom_site_type_symbol
 _atom_site_label
 _atom_site_symmetry_multiplicity
 _atom_site_fract_x
 _atom_site_fract_y
 _atom_site_fract_z
 _atom_site_occupancy
  Li  Li0  1  0.160454  0.706944  0.434890  1
  Li  Li1  1  0.719730  0.576293  0.144756  1
  Li  Li2  1  0.296024  0.423707  0.855244  1
  Li  Li3  1  0.867398  0.293056  0.565110  1
  Cu  Cu4  1  0.001942  0.000000  0.000000  1
  Si  Si5  1  0.565645  0.848582  0.710168  1
  Si  Si6  1  0.414227  0.151418  0.289832  1
  O  O7  1  0.331836  0.900511  0.225040  1
  O  O8  1  0.862256  0.740353  0.887575  1
  O  O9  1  0.499310  0.590887  0.655149  1
  O  O10  1  0.090197  0.409113  0.344851  1
  O  O11  1  0.602609  0.259647  0.112425  1
  O  O12  1  0.232347  0.099489  0.774960  1
  O  O13  1  0.683027  1.000000  0.500000  1
