# generated using pymatgen
data_Na4B4Sb2SO16
_symmetry_space_group_name_H-M   'P 1'
_cell_length_a   10.01864565
_cell_length_b   9.85391924
_cell_length_c   10.01864631
_cell_angle_alpha   60.75423279
_cell_angle_beta   92.23235473
_cell_angle_gamma   60.75422994
_symmetry_Int_Tables_number   1
_chemical_formula_structural   Na4B4Sb2SO16
_chemical_formula_sum   'Na8 B8 Sb4 S2 O32'
_cell_volume   701.13311135
_cell_formula_units_Z   2
loop_
 _symmetry_equiv_pos_site_id
 _symmetry_equiv_pos_as_xyz
  1  'x, y, z'
loop_
 _atom_site_type_symbol
 _atom_site_label
 _atom_site_symmetry_multiplicity
 _atom_site_fract_x
 _atom_site_fract_y
 _atom_site_fract_z
 _atom_site_occupancy
  Na  Na0  1  0.081164  0.837672  0.831164  1
  Na  Na1  1  0.081659  0.250000  0.831659  1
  Na  Na2  1  0.331659  0.750000  0.581659  1
  Na  Na3  1  0.331164  0.337672  0.581164  1
  Na  Na4  1  0.668836  0.662328  0.418836  1
  Na  Na5  1  0.668341  0.250000  0.418341  1
  Na  Na6  1  0.918341  0.750000  0.168341  1
  Na  Na7  1  0.918836  0.162328  0.168836  1
  B  B8  1  0.362057  0.927096  0.780536  1
  B  B9  1  0.280536  0.427096  0.862057  1
  B  B10  1  0.710847  0.927096  0.792367  1
  B  B11  1  0.707633  0.572904  0.789153  1
  B  B12  1  0.292367  0.427096  0.210847  1
  B  B13  1  0.289153  0.072904  0.207633  1
  B  B14  1  0.719464  0.572904  0.137943  1
  B  B15  1  0.637943  0.072904  0.219464  1
  Sb  Sb16  1  0.000000  0.500000  0.000000  1
  Sb  Sb17  1  0.500000  0.000000  0.500000  1
  Sb  Sb18  1  0.500000  0.500000  0.000000  1
  Sb  Sb19  1  0.500000  0.000000  0.000000  1
  S  S20  1  0.125000  0.750000  0.375000  1
  S  S21  1  0.875000  0.250000  0.625000  1
  O  O22  1  0.357003  0.780434  0.899993  1
  O  O23  1  0.067061  0.875417  0.433525  1
  O  O24  1  0.364718  0.951387  0.633259  1
  O  O25  1  0.133259  0.451387  0.864718  1
  O  O26  1  0.683894  0.951387  0.915354  1
  O  O27  1  0.307498  0.555453  0.856406  1
  O  O28  1  0.057522  0.875417  0.191058  1
  O  O29  1  0.066475  0.624583  0.432939  1
  O  O30  1  0.411859  0.944547  0.362949  1
  O  O31  1  0.584646  0.548613  0.816106  1
  O  O32  1  0.399993  0.280434  0.857003  1
  O  O33  1  0.308942  0.624583  0.442478  1
  O  O34  1  0.862565  0.780434  0.819574  1
  O  O35  1  0.680426  0.719566  0.637435  1
  O  O36  1  0.356406  0.055453  0.807498  1
  O  O37  1  0.137051  0.555453  0.088141  1
  O  O38  1  0.862949  0.444547  0.911859  1
  O  O39  1  0.643594  0.944547  0.192502  1
  O  O40  1  0.319574  0.280434  0.362565  1
  O  O41  1  0.137435  0.219566  0.180426  1
  O  O42  1  0.691058  0.375417  0.557523  1
  O  O43  1  0.600007  0.719566  0.142997  1
  O  O44  1  0.415354  0.451387  0.183894  1
  O  O45  1  0.588141  0.055453  0.637051  1
  O  O46  1  0.933525  0.375417  0.567061  1
  O  O47  1  0.942477  0.124583  0.808942  1
  O  O48  1  0.692502  0.444547  0.143594  1
  O  O49  1  0.316106  0.048613  0.084646  1
  O  O50  1  0.866741  0.548613  0.135282  1
  O  O51  1  0.635282  0.048613  0.366741  1
  O  O52  1  0.932939  0.124583  0.566475  1
  O  O53  1  0.642997  0.219566  0.100007  1
