# generated using pymatgen
data_LiMnPO4
_symmetry_space_group_name_H-M   'P 1'
_cell_length_a   9.82746896
_cell_length_b   9.82746906
_cell_length_c   23.34180614
_cell_angle_alpha   90.00000000
_cell_angle_beta   90.00000000
_cell_angle_gamma   120.00000304
_symmetry_Int_Tables_number   1
_chemical_formula_structural   LiMnPO4
_chemical_formula_sum   'Li24 Mn24 P24 O96'
_cell_volume   1952.30848670
_cell_formula_units_Z   24
loop_
 _symmetry_equiv_pos_site_id
 _symmetry_equiv_pos_as_xyz
  1  'x, y, z'
loop_
 _atom_site_type_symbol
 _atom_site_label
 _atom_site_symmetry_multiplicity
 _atom_site_fract_x
 _atom_site_fract_y
 _atom_site_fract_z
 _atom_site_occupancy
  Li  Li0  1  0.101385  0.813401  0.272282  1
  Li  Li1  1  0.095292  0.764729  0.921479  1
  Li  Li2  1  0.125811  0.760609  0.595410  1
  Li  Li3  1  0.313612  0.664295  0.755386  1
  Li  Li4  1  0.335705  0.649317  0.088719  1
  Li  Li5  1  0.350683  0.686388  0.422052  1
  Li  Li6  1  0.186599  0.287984  0.605616  1
  Li  Li7  1  0.239391  0.365202  0.928743  1
  Li  Li8  1  0.235271  0.330564  0.254812  1
  Li  Li9  1  0.634798  0.874189  0.262076  1
  Li  Li10  1  0.669436  0.904708  0.588146  1
  Li  Li11  1  0.287984  0.101385  0.438949  1
  Li  Li12  1  0.712016  0.898615  0.938949  1
  Li  Li13  1  0.330564  0.095292  0.088146  1
  Li  Li14  1  0.365202  0.125811  0.762076  1
  Li  Li15  1  0.764729  0.669436  0.754812  1
  Li  Li16  1  0.760609  0.634798  0.428743  1
  Li  Li17  1  0.813401  0.712016  0.105616  1
  Li  Li18  1  0.649317  0.313612  0.922052  1
  Li  Li19  1  0.664295  0.350683  0.588719  1
  Li  Li20  1  0.686388  0.335705  0.255386  1
  Li  Li21  1  0.874189  0.239391  0.095410  1
  Li  Li22  1  0.904708  0.235271  0.421479  1
  Li  Li23  1  0.898615  0.186599  0.772282  1
  Mn  Mn24  1  0.994391  0.016832  0.707466  1
  Mn  Mn25  1  0.021963  0.559014  0.042728  1
  Mn  Mn26  1  0.044035  0.466892  0.195796  1
  Mn  Mn27  1  0.062035  0.501754  0.851115  1
  Mn  Mn28  1  0.422855  0.955965  0.862463  1
  Mn  Mn29  1  0.439719  0.937965  0.517782  1
  Mn  Mn30  1  0.983168  0.977559  0.040799  1
  Mn  Mn31  1  0.977559  0.994391  0.874132  1
  Mn  Mn32  1  0.537052  0.978037  0.709394  1
  Mn  Mn33  1  0.440986  0.462948  0.376061  1
  Mn  Mn34  1  0.498246  0.560281  0.184449  1
  Mn  Mn35  1  0.533108  0.577145  0.529129  1
  Mn  Mn36  1  0.466892  0.422855  0.029129  1
  Mn  Mn37  1  0.501754  0.439719  0.684449  1
  Mn  Mn38  1  0.559014  0.537052  0.876061  1
  Mn  Mn39  1  0.462948  0.021963  0.209394  1
  Mn  Mn40  1  0.022441  0.005609  0.374132  1
  Mn  Mn41  1  0.016832  0.022441  0.540799  1
  Mn  Mn42  1  0.560281  0.062035  0.017782  1
  Mn  Mn43  1  0.577145  0.044035  0.362463  1
  Mn  Mn44  1  0.937965  0.498246  0.351115  1
  Mn  Mn45  1  0.955965  0.533108  0.695796  1
  Mn  Mn46  1  0.978037  0.440986  0.542728  1
  Mn  Mn47  1  0.005609  0.983168  0.207466  1
  P  P48  1  0.092583  0.794623  0.792316  1
  P  P49  1  0.082418  0.758775  0.467059  1
  P  P50  1  0.136611  0.793306  0.136511  1
  P  P51  1  0.294286  0.656238  0.291628  1
  P  P52  1  0.361952  0.705714  0.958295  1
  P  P53  1  0.343762  0.638048  0.624961  1
  P  P54  1  0.206694  0.343305  0.469844  1
  P  P55  1  0.205377  0.297960  0.125649  1
  P  P56  1  0.241225  0.323643  0.800392  1
  P  P57  1  0.656695  0.863389  0.803177  1
  P  P58  1  0.676357  0.917582  0.133725  1
  P  P59  1  0.702040  0.907417  0.458983  1
  P  P60  1  0.297960  0.092583  0.958983  1
  P  P61  1  0.323643  0.082418  0.633725  1
  P  P62  1  0.343305  0.136611  0.303177  1
  P  P63  1  0.758775  0.676357  0.300392  1
  P  P64  1  0.794623  0.702040  0.625649  1
  P  P65  1  0.793306  0.656695  0.969844  1
  P  P66  1  0.656238  0.361952  0.124961  1
  P  P67  1  0.638048  0.294286  0.458295  1
  P  P68  1  0.705714  0.343762  0.791628  1
  P  P69  1  0.863389  0.206694  0.636511  1
  P  P70  1  0.917582  0.241225  0.967059  1
  P  P71  1  0.907417  0.205377  0.292316  1
  O  O72  1  0.044228  0.792725  0.082309  1
  O  O73  1  0.085773  0.921619  0.469205  1
  O  O74  1  0.013042  0.691738  0.845781  1
  O  O75  1  0.134934  0.978683  0.931583  1
  O  O76  1  0.039055  0.787604  0.189807  1
  O  O77  1  0.016548  0.671390  0.524123  1
  O  O78  1  0.244060  0.945630  0.810195  1
  O  O79  1  0.131091  0.646365  0.296713  1
  O  O80  1  0.127074  0.691838  0.750686  1
  O  O81  1  0.310793  0.972764  0.583325  1
  O  O82  1  0.306145  0.933528  0.138796  1
  O  O83  1  0.147931  0.639466  0.132670  1
  O  O84  1  0.252736  0.790816  0.458682  1
  O  O85  1  0.170948  0.592098  0.611881  1
  O  O86  1  0.066472  0.372618  0.472129  1
  O  O87  1  0.267429  0.720684  0.906294  1
  O  O88  1  0.027236  0.338029  0.916658  1
  O  O89  1  0.054370  0.298431  0.143528  1
  O  O90  1  0.021317  0.156251  0.264916  1
  O  O91  1  0.078381  0.164154  0.802538  1
  O  O92  1  0.264404  0.667773  0.013721  1
  O  O93  1  0.279316  0.546745  0.239627  1
  O  O94  1  0.332227  0.596631  0.347055  1
  O  O95  1  0.209184  0.461920  0.792016  1
  O  O96  1  0.403369  0.735596  0.680388  1
  O  O97  1  0.421150  0.829052  0.278548  1
  O  O98  1  0.491534  0.852069  0.799337  1
  O  O99  1  0.308162  0.435236  0.084019  1
  O  O100  1  0.353635  0.484725  0.630047  1
  O  O101  1  0.360534  0.508466  0.466004  1
  O  O102  1  0.212396  0.251452  0.523141  1
  O  O103  1  0.407902  0.578850  0.945214  1
  O  O104  1  0.453255  0.732571  0.572960  1
  O  O105  1  0.515275  0.868909  0.963380  1
  O  O106  1  0.564764  0.872926  0.417352  1
  O  O107  1  0.156251  0.134934  0.098250  1
  O  O108  1  0.207275  0.251503  0.415642  1
  O  O109  1  0.308262  0.321305  0.179114  1
  O  O110  1  0.164154  0.085773  0.635871  1
  O  O111  1  0.328610  0.345158  0.857457  1
  O  O112  1  0.538080  0.747264  0.125349  1
  O  O113  1  0.298431  0.244060  0.976861  1
  O  O114  1  0.654842  0.983452  0.190790  1
  O  O115  1  0.338029  0.310793  0.749992  1
  O  O116  1  0.372618  0.306145  0.305462  1
  O  O117  1  0.678695  0.986958  0.512447  1
  O  O118  1  0.748548  0.960945  0.856474  1
  O  O119  1  0.251503  0.044228  0.248976  1
  O  O120  1  0.748497  0.955772  0.748976  1
  O  O121  1  0.251452  0.039055  0.356474  1
  O  O122  1  0.321305  0.013042  0.012447  1
  O  O123  1  0.627382  0.693855  0.805462  1
  O  O124  1  0.661971  0.689207  0.249992  1
  O  O125  1  0.345158  0.016548  0.690790  1
  O  O126  1  0.701569  0.755940  0.476861  1
  O  O127  1  0.461920  0.252736  0.625349  1
  O  O128  1  0.671390  0.654842  0.357457  1
  O  O129  1  0.835846  0.914227  0.135871  1
  O  O130  1  0.691738  0.678695  0.679114  1
  O  O131  1  0.792725  0.748497  0.915642  1
  O  O132  1  0.843749  0.865066  0.598250  1
  O  O133  1  0.435236  0.127074  0.917352  1
  O  O134  1  0.484725  0.131091  0.463380  1
  O  O135  1  0.546745  0.267429  0.072960  1
  O  O136  1  0.592098  0.421150  0.445214  1
  O  O137  1  0.787604  0.748548  0.023141  1
  O  O138  1  0.639466  0.491534  0.966004  1
  O  O139  1  0.646365  0.515275  0.130047  1
  O  O140  1  0.691838  0.564764  0.584019  1
  O  O141  1  0.508466  0.147931  0.299337  1
  O  O142  1  0.578850  0.170948  0.778548  1
  O  O143  1  0.596631  0.264404  0.180388  1
  O  O144  1  0.790816  0.538080  0.292016  1
  O  O145  1  0.667773  0.403369  0.847055  1
  O  O146  1  0.720684  0.453255  0.739627  1
  O  O147  1  0.735596  0.332227  0.513721  1
  O  O148  1  0.921619  0.835846  0.302538  1
  O  O149  1  0.978683  0.843749  0.764916  1
  O  O150  1  0.945630  0.701569  0.643528  1
  O  O151  1  0.972764  0.661971  0.416658  1
  O  O152  1  0.732571  0.279316  0.406294  1
  O  O153  1  0.933528  0.627382  0.972129  1
  O  O154  1  0.829052  0.407902  0.111881  1
  O  O155  1  0.747264  0.209184  0.958682  1
  O  O156  1  0.852069  0.360534  0.632670  1
  O  O157  1  0.693855  0.066472  0.638796  1
  O  O158  1  0.689207  0.027236  0.083325  1
  O  O159  1  0.872926  0.308162  0.250686  1
  O  O160  1  0.868909  0.353635  0.796713  1
  O  O161  1  0.755940  0.054370  0.310195  1
  O  O162  1  0.983452  0.328610  0.024123  1
  O  O163  1  0.960945  0.212396  0.689807  1
  O  O164  1  0.865066  0.021317  0.431583  1
  O  O165  1  0.986958  0.308262  0.345781  1
  O  O166  1  0.914227  0.078381  0.969205  1
  O  O167  1  0.955772  0.207275  0.582309  1
