# generated using pymatgen
data_Li4TiCo2Ni3(PO4)6
_symmetry_space_group_name_H-M   'P 1'
_cell_length_a   8.41453974
_cell_length_b   8.52599123
_cell_length_c   8.50778720
_cell_angle_alpha   62.09020190
_cell_angle_beta   62.31374424
_cell_angle_gamma   62.45929744
_symmetry_Int_Tables_number   1
_chemical_formula_structural   Li4TiCo2Ni3(PO4)6
_chemical_formula_sum   'Li4 Ti1 Co2 Ni3 P6 O24'
_cell_volume   453.62539089
_cell_formula_units_Z   1
loop_
 _symmetry_equiv_pos_site_id
 _symmetry_equiv_pos_as_xyz
  1  'x, y, z'
loop_
 _atom_site_type_symbol
 _atom_site_label
 _atom_site_symmetry_multiplicity
 _atom_site_fract_x
 _atom_site_fract_y
 _atom_site_fract_z
 _atom_site_occupancy
  Li  Li0  1  0.745280  0.152136  0.358915  1
  Li  Li1  1  0.289424  0.847631  0.648358  1
  Li  Li2  1  0.645746  0.289379  0.852682  1
  Li  Li3  1  0.853611  0.646290  0.291036  1
  Ti  Ti4  1  0.852357  0.846689  0.851082  1
  Co  Co5  1  0.011079  0.001769  0.998187  1
  Co  Co6  1  0.490639  0.504226  0.501752  1
  Ni  Ni7  1  0.142948  0.147179  0.144916  1
  Ni  Ni8  1  0.358313  0.356490  0.354073  1
  Ni  Ni9  1  0.644578  0.647075  0.648247  1
  P  P10  1  0.246073  0.545374  0.957948  1
  P  P11  1  0.553411  0.959540  0.248842  1
  P  P12  1  0.946970  0.245340  0.541827  1
  P  P13  1  0.052758  0.743581  0.445128  1
  P  P14  1  0.443136  0.047589  0.750032  1
  P  P15  1  0.748090  0.443943  0.047504  1
  O  O16  1  0.116611  0.293078  0.499411  1
  O  O17  1  0.306744  0.521690  0.110745  1
  O  O18  1  0.059989  0.907968  0.259266  1
  O  O19  1  0.553149  0.107016  0.302895  1
  O  O20  1  0.991228  0.813156  0.614516  1
  O  O21  1  0.246409  0.592366  0.444372  1
  O  O22  1  0.250560  0.073734  0.904148  1
  O  O23  1  0.463378  0.231808  0.587471  1
  O  O24  1  0.167103  0.400400  0.997885  1
  O  O25  1  0.601586  0.436867  0.245605  1
  O  O26  1  0.095495  0.753842  0.917548  1
  O  O27  1  0.393938  0.017619  0.180111  1
  O  O28  1  0.612089  0.982249  0.824244  1
  O  O29  1  0.899673  0.248453  0.073507  1
  O  O30  1  0.404346  0.562542  0.758264  1
  O  O31  1  0.818190  0.611574  0.987670  1
  O  O32  1  0.560843  0.763051  0.408301  1
  O  O33  1  0.758113  0.913249  0.094432  1
  O  O34  1  0.751477  0.408355  0.565228  1
  O  O35  1  0.958166  0.177763  0.399348  1
  O  O36  1  0.470491  0.895401  0.684732  1
  O  O37  1  0.916040  0.093749  0.748795  1
  O  O38  1  0.679994  0.474392  0.895687  1
  O  O39  1  0.899969  0.672444  0.478288  1
