# generated using pymatgen
data_Li2MnVO4
_symmetry_space_group_name_H-M   'P 1'
_cell_length_a   5.28094164
_cell_length_b   10.27514028
_cell_length_c   9.85372402
_cell_angle_alpha   16.46625962
_cell_angle_beta   29.77345932
_cell_angle_gamma   33.65430797
_symmetry_Int_Tables_number   1
_chemical_formula_structural   Li2MnVO4
_chemical_formula_sum   'Li2 Mn1 V1 O4'
_cell_volume   75.25912709
_cell_formula_units_Z   1
loop_
 _symmetry_equiv_pos_site_id
 _symmetry_equiv_pos_as_xyz
  1  'x, y, z'
loop_
 _atom_site_type_symbol
 _atom_site_label
 _atom_site_symmetry_multiplicity
 _atom_site_fract_x
 _atom_site_fract_y
 _atom_site_fract_z
 _atom_site_occupancy
  Li  Li0  1  0.000000  0.000000  0.000000  1
  Li  Li1  1  0.000000  0.500000  0.000000  1
  Mn  Mn2  1  0.500000  0.500000  0.500000  1
  V  V3  1  0.500000  0.000000  0.500000  1
  O  O4  1  0.246863  0.000000  0.235546  1
  O  O5  1  0.281437  0.500000  0.230645  1
  O  O6  1  0.753137  1.000000  0.764454  1
  O  O7  1  0.718563  0.500000  0.769355  1
