# generated using pymatgen
data_V3S4
_symmetry_space_group_name_H-M   'P 1'
_cell_length_a   3.26322035
_cell_length_b   9.09243433
_cell_length_c   9.09243465
_cell_angle_alpha   60.00000113
_cell_angle_beta   90.00000000
_cell_angle_gamma   90.00000000
_symmetry_Int_Tables_number   1
_chemical_formula_structural   V3S4
_chemical_formula_sum   'V6 S8'
_cell_volume   233.63472853
_cell_formula_units_Z   2
loop_
 _symmetry_equiv_pos_site_id
 _symmetry_equiv_pos_as_xyz
  1  'x, y, z'
loop_
 _atom_site_type_symbol
 _atom_site_label
 _atom_site_symmetry_multiplicity
 _atom_site_fract_x
 _atom_site_fract_y
 _atom_site_fract_z
 _atom_site_occupancy
  V  V0  1  0.750000  0.879665  0.489649  1
  V  V1  1  0.750000  0.489649  0.630686  1
  V  V2  1  0.750000  0.630686  0.879665  1
  V  V3  1  0.250000  0.369272  0.120368  1
  V  V4  1  0.250000  0.510361  0.369272  1
  V  V5  1  0.250000  0.120368  0.510361  1
  S  S6  1  0.250000  0.653028  0.050710  1
  S  S7  1  0.750000  0.949292  0.703743  1
  S  S8  1  0.250000  0.050710  0.296262  1
  S  S9  1  0.250000  0.666666  0.666667  1
  S  S10  1  0.750000  0.346965  0.949292  1
  S  S11  1  0.750000  0.333334  0.333333  1
  S  S12  1  0.750000  0.703743  0.346965  1
  S  S13  1  0.250000  0.296262  0.653028  1
