# generated using pymatgen
data_Li32Mn3Cr13O48
_symmetry_space_group_name_H-M   'P 1'
_cell_length_a   5.01830945
_cell_length_b   8.74955711
_cell_length_c   19.50341578
_cell_angle_alpha   97.87423455
_cell_angle_beta   94.57951160
_cell_angle_gamma   89.28797519
_symmetry_Int_Tables_number   1
_chemical_formula_structural   Li32Mn3Cr13O48
_chemical_formula_sum   'Li32 Mn3 Cr13 O48'
_cell_volume   845.57215289
_cell_formula_units_Z   1
loop_
 _symmetry_equiv_pos_site_id
 _symmetry_equiv_pos_as_xyz
  1  'x, y, z'
loop_
 _atom_site_type_symbol
 _atom_site_label
 _atom_site_symmetry_multiplicity
 _atom_site_fract_x
 _atom_site_fract_y
 _atom_site_fract_z
 _atom_site_occupancy
  Li  Li0  1  0.993844  0.170137  0.250046  1
  Li  Li1  1  0.877258  0.376002  0.374947  1
  Li  Li2  1  0.751194  0.250436  0.000106  1
  Li  Li3  1  0.741556  0.920046  0.000126  1
  Li  Li4  1  0.990633  0.168059  0.749616  1
  Li  Li5  1  0.761770  0.580948  0.500042  1
  Li  Li6  1  0.874782  0.374978  0.874992  1
  Li  Li7  1  0.749215  0.249459  0.500282  1
  Li  Li8  1  0.740443  0.919263  0.499773  1
  Li  Li9  1  0.624346  0.124753  0.124959  1
  Li  Li10  1  0.759392  0.578666  0.999574  1
  Li  Li11  1  0.507148  0.331058  0.250308  1
  Li  Li12  1  0.624942  0.125164  0.624928  1
  Li  Li13  1  0.499066  -0.000105  0.250092  1
  Li  Li14  1  0.489133  0.668908  0.249773  1
  Li  Li15  1  0.507707  0.329342  0.750047  1
  Li  Li16  1  0.374844  0.875207  0.375102  1
  Li  Li17  1  0.499786  0.999595  0.749934  1
  Li  Li18  1  0.247714  0.750500  0.999909  1
  Li  Li19  1  0.493443  0.671307  0.750082  1
  Li  Li20  1  0.240701  0.419746  0.000163  1
  Li  Li21  1  0.375689  0.876044  0.875027  1
  Li  Li22  1  0.257604  0.080789  0.499727  1
  Li  Li23  1  0.249828  0.749359  0.499689  1
  Li  Li24  1  0.123973  0.624389  0.124846  1
  Li  Li25  1  0.241788  0.419633  0.500370  1
  Li  Li26  1  0.009808  0.830082  0.250168  1
  Li  Li27  1  0.261270  0.080146  0.000170  1
  Li  Li28  1  0.125099  0.625450  0.625237  1
  Li  Li29  1  0.998839  0.500295  0.249918  1
  Li  Li30  1  0.008801  0.831805  0.750161  1
  Li  Li31  1  0.998627  0.499693  0.749991  1
  Mn  Mn32  1  0.875439  0.707994  0.875226  1
  Mn  Mn33  1  0.374363  0.208285  0.374878  1
  Mn  Mn34  1  0.123531  0.291284  0.624213  1
  Cr  Cr35  1  0.868968  0.711955  0.374750  1
  Cr  Cr36  1  0.882366  0.044453  0.375635  1
  Cr  Cr37  1  0.876119  0.037136  0.874701  1
  Cr  Cr38  1  0.631263  0.789294  0.124975  1
  Cr  Cr39  1  0.618268  0.460369  0.125192  1
  Cr  Cr40  1  0.633984  0.789638  0.625731  1
  Cr  Cr41  1  0.614669  0.457838  0.624340  1
  Cr  Cr42  1  0.379048  0.537737  0.374629  1
  Cr  Cr43  1  0.382784  0.544471  0.875696  1
  Cr  Cr44  1  0.368310  0.211447  0.874505  1
  Cr  Cr45  1  0.118250  0.960192  0.125147  1
  Cr  Cr46  1  0.131298  0.289433  0.124964  1
  Cr  Cr47  1  0.125630  0.963025  0.625438  1
  O  O48  1  0.966166  0.101966  0.068418  1
  O  O49  1  0.921201  0.783464  0.068830  1
  O  O50  1  0.927361  0.427247  0.068195  1
  O  O51  1  0.963110  0.109325  0.569050  1
  O  O52  1  0.828764  0.966590  0.181680  1
  O  O53  1  0.822617  0.323171  0.181970  1
  O  O54  1  0.922939  0.786472  0.569025  1
  O  O55  1  0.929855  0.427896  0.567703  1
  O  O56  1  0.785224  0.648057  0.181638  1
  O  O57  1  0.717831  0.855937  0.318879  1
  O  O58  1  0.830623  0.965358  0.681470  1
  O  O59  1  0.823171  0.324023  0.681702  1
  O  O60  1  0.669019  0.535198  0.318359  1
  O  O61  1  0.676498  0.175928  0.318041  1
  O  O62  1  0.783219  0.645747  0.681376  1
  O  O63  1  0.712152  0.854803  0.819204  1
  O  O64  1  0.465328  0.601866  0.068503  1
  O  O65  1  0.580096  0.714152  0.431341  1
  O  O66  1  0.568288  0.072524  0.432189  1
  O  O67  1  0.682567  0.536834  0.818982  1
  O  O68  1  0.673684  0.176949  0.817512  1
  O  O69  1  0.427665  0.926745  0.067967  1
  O  O70  1  0.421149  0.283323  0.068701  1
  O  O71  1  0.534043  0.391996  0.430321  1
  O  O72  1  0.469663  0.601655  0.568331  1
  O  O73  1  0.572376  0.715319  0.931044  1
  O  O74  1  0.577642  0.074174  0.932343  1
  O  O75  1  0.323033  0.823062  0.182006  1
  O  O76  1  0.328293  0.466843  0.181368  1
  O  O77  1  0.423003  0.924616  0.568019  1
  O  O78  1  0.425070  0.282518  0.568591  1
  O  O79  1  0.531665  0.397469  0.931429  1
  O  O80  1  0.284725  0.147230  0.181360  1
  O  O81  1  0.210438  0.353484  0.318414  1
  O  O82  1  0.325262  0.821753  0.682545  1
  O  O83  1  0.320593  0.462762  0.680568  1
  O  O84  1  0.175144  0.676301  0.317768  1
  O  O85  1  0.182560  0.036338  0.319072  1
  O  O86  1  0.286675  0.145158  0.680879  1
  O  O87  1  0.217930  0.356461  0.819119  1
  O  O88  1  0.075529  0.573283  0.432101  1
  O  O89  1  0.072555  0.215556  0.430768  1
  O  O90  1  0.176875  0.675656  0.818204  1
  O  O91  1  0.169596  0.035542  0.818735  1
  O  O92  1  0.031695  0.897840  0.431436  1
  O  O93  1  0.067765  0.572496  0.932545  1
  O  O94  1  0.078752  0.212957  0.931294  1
  O  O95  1  0.036053  0.890255  0.930883  1
