# generated using pymatgen
data_Li2Co2Si2O7
_symmetry_space_group_name_H-M   'P 1'
_cell_length_a   8.36889759
_cell_length_b   13.10649312
_cell_length_c   5.46664532
_cell_angle_alpha   90.00000000
_cell_angle_beta   89.54630670
_cell_angle_gamma   90.00000000
_symmetry_Int_Tables_number   1
_chemical_formula_structural   Li2Co2Si2O7
_chemical_formula_sum   'Li8 Co8 Si8 O28'
_cell_volume   599.60057276
_cell_formula_units_Z   4
loop_
 _symmetry_equiv_pos_site_id
 _symmetry_equiv_pos_as_xyz
  1  'x, y, z'
loop_
 _atom_site_type_symbol
 _atom_site_label
 _atom_site_symmetry_multiplicity
 _atom_site_fract_x
 _atom_site_fract_y
 _atom_site_fract_z
 _atom_site_occupancy
  Li  Li0  1  0.112291  0.366213  0.155359  1
  Li  Li1  1  0.168834  0.745396  0.795543  1
  Li  Li2  1  0.331166  0.245396  0.704457  1
  Li  Li3  1  0.387709  0.866213  0.344641  1
  Li  Li4  1  0.612291  0.133787  0.655359  1
  Li  Li5  1  0.668834  0.754604  0.295543  1
  Li  Li6  1  0.831166  0.254604  0.204457  1
  Li  Li7  1  0.887709  0.633787  0.844641  1
  Co  Co8  1  0.114681  0.084760  0.340541  1
  Co  Co9  1  0.205307  0.492071  0.638744  1
  Co  Co10  1  0.294693  0.992071  0.861256  1
  Co  Co11  1  0.385319  0.584760  0.159459  1
  Co  Co12  1  0.614681  0.415240  0.840541  1
  Co  Co13  1  0.705307  0.007929  0.138744  1
  Co  Co14  1  0.794693  0.507929  0.361256  1
  Co  Co15  1  0.885319  0.915240  0.659459  1
  Si  Si16  1  0.037809  0.885172  0.184072  1
  Si  Si17  1  0.044456  0.669699  0.319452  1
  Si  Si18  1  0.455544  0.169699  0.180548  1
  Si  Si19  1  0.462191  0.385172  0.315928  1
  Si  Si20  1  0.537809  0.614828  0.684072  1
  Si  Si21  1  0.544456  0.830301  0.819452  1
  Si  Si22  1  0.955544  0.330301  0.680548  1
  Si  Si23  1  0.962191  0.114828  0.815928  1
  O  O24  1  0.038040  0.793926  0.396302  1
  O  O25  1  0.007564  0.163895  0.077544  1
  O  O26  1  0.090110  0.031178  0.700166  1
  O  O27  1  0.072975  0.616547  0.589758  1
  O  O28  1  0.129498  0.363934  0.794151  1
  O  O29  1  0.183845  0.658765  0.112689  1
  O  O30  1  0.212063  0.943946  0.189639  1
  O  O31  1  0.287937  0.443946  0.310361  1
  O  O32  1  0.316155  0.158765  0.387311  1
  O  O33  1  0.370502  0.863934  0.705849  1
  O  O34  1  0.427025  0.116547  0.910242  1
  O  O35  1  0.409890  0.531178  0.799834  1
  O  O36  1  0.492436  0.663895  0.422456  1
  O  O37  1  0.461960  0.293926  0.103698  1
  O  O38  1  0.538040  0.706074  0.896302  1
  O  O39  1  0.507564  0.336105  0.577544  1
  O  O40  1  0.590110  0.468822  0.200166  1
  O  O41  1  0.572975  0.883453  0.089758  1
  O  O42  1  0.629498  0.136066  0.294151  1
  O  O43  1  0.683845  0.841235  0.612689  1
  O  O44  1  0.712063  0.556054  0.689639  1
  O  O45  1  0.787937  0.056054  0.810361  1
  O  O46  1  0.816155  0.341235  0.887311  1
  O  O47  1  0.870502  0.636066  0.205849  1
  O  O48  1  0.927025  0.383453  0.410242  1
  O  O49  1  0.909890  0.968822  0.299834  1
  O  O50  1  0.992436  0.836105  0.922456  1
  O  O51  1  0.961960  0.206074  0.603698  1
