# generated using pymatgen
data_Li2SiNiO4
_symmetry_space_group_name_H-M   'P 1'
_cell_length_a   10.45049081
_cell_length_b   5.35928084
_cell_length_c   12.78708153
_cell_angle_alpha   90.00000000
_cell_angle_beta   90.00000000
_cell_angle_gamma   90.00000000
_symmetry_Int_Tables_number   1
_chemical_formula_structural   Li2SiNiO4
_chemical_formula_sum   'Li16 Si8 Ni8 O32'
_cell_volume   716.16754790
_cell_formula_units_Z   8
loop_
 _symmetry_equiv_pos_site_id
 _symmetry_equiv_pos_as_xyz
  1  'x, y, z'
loop_
 _atom_site_type_symbol
 _atom_site_label
 _atom_site_symmetry_multiplicity
 _atom_site_fract_x
 _atom_site_fract_y
 _atom_site_fract_z
 _atom_site_occupancy
  Li  Li0  1  0.970169  0.962336  0.560050  1
  Li  Li1  1  0.957151  0.457477  0.941473  1
  Li  Li2  1  0.217542  0.387604  0.302602  1
  Li  Li3  1  0.211927  0.880498  0.194610  1
  Li  Li4  1  0.288073  0.880498  0.694610  1
  Li  Li5  1  0.282458  0.387604  0.802602  1
  Li  Li6  1  0.529831  0.962336  0.060050  1
  Li  Li7  1  0.542849  0.457477  0.441473  1
  Li  Li8  1  0.457151  0.542523  0.941473  1
  Li  Li9  1  0.470169  0.037664  0.560050  1
  Li  Li10  1  0.717542  0.612396  0.302602  1
  Li  Li11  1  0.711927  0.119502  0.194610  1
  Li  Li12  1  0.788073  0.119502  0.694610  1
  Li  Li13  1  0.782458  0.612396  0.802602  1
  Li  Li14  1  0.029831  0.037664  0.060050  1
  Li  Li15  1  0.042849  0.542523  0.441473  1
  Si  Si16  1  0.031113  0.472860  0.689713  1
  Si  Si17  1  0.211374  0.032575  0.438437  1
  Si  Si18  1  0.288625  0.032575  0.938437  1
  Si  Si19  1  0.468887  0.472860  0.189713  1
  Si  Si20  1  0.531113  0.527140  0.689713  1
  Si  Si21  1  0.711375  0.967425  0.438437  1
  Si  Si22  1  0.788625  0.967425  0.938437  1
  Si  Si23  1  0.968887  0.527140  0.189713  1
  Ni  Ni24  1  0.037246  0.957321  0.811774  1
  Ni  Ni25  1  0.213103  0.531289  0.058877  1
  Ni  Ni26  1  0.286897  0.531289  0.558877  1
  Ni  Ni27  1  0.462754  0.957321  0.311774  1
  Ni  Ni28  1  0.537246  0.042679  0.811774  1
  Ni  Ni29  1  0.713103  0.468711  0.058877  1
  Ni  Ni30  1  0.786897  0.468711  0.558877  1
  Ni  Ni31  1  0.962754  0.042679  0.311774  1
  O  O32  1  0.027938  0.391528  0.295671  1
  O  O33  1  0.007061  0.826959  0.191262  1
  O  O34  1  0.068847  0.906301  0.428513  1
  O  O35  1  0.038732  0.409201  0.084896  1
  O  O36  1  0.186130  0.541914  0.690122  1
  O  O37  1  0.220989  0.030229  0.821323  1
  O  O38  1  0.194944  0.332899  0.460980  1
  O  O39  1  0.202226  0.900247  0.030427  1
  O  O40  1  0.297774  0.900247  0.530427  1
  O  O41  1  0.305056  0.332899  0.960980  1
  O  O42  1  0.279011  0.030229  0.321323  1
  O  O43  1  0.313870  0.541914  0.190122  1
  O  O44  1  0.461268  0.409201  0.584896  1
  O  O45  1  0.431153  0.906301  0.928513  1
  O  O46  1  0.492939  0.826959  0.691262  1
  O  O47  1  0.472062  0.391528  0.795671  1
  O  O48  1  0.527938  0.608472  0.295671  1
  O  O49  1  0.507061  0.173041  0.191262  1
  O  O50  1  0.568847  0.093699  0.428513  1
  O  O51  1  0.538732  0.590799  0.084896  1
  O  O52  1  0.686130  0.458086  0.690122  1
  O  O53  1  0.720989  0.969771  0.821323  1
  O  O54  1  0.694944  0.667101  0.460980  1
  O  O55  1  0.702226  0.099753  0.030427  1
  O  O56  1  0.797774  0.099753  0.530427  1
  O  O57  1  0.805056  0.667101  0.960980  1
  O  O58  1  0.779011  0.969771  0.321323  1
  O  O59  1  0.813870  0.458086  0.190122  1
  O  O60  1  0.961268  0.590799  0.584896  1
  O  O61  1  0.931153  0.093699  0.928513  1
  O  O62  1  0.992939  0.173041  0.691262  1
  O  O63  1  0.972062  0.608472  0.795671  1
