# generated using pymatgen
data_Na3As3(HO5)2
_symmetry_space_group_name_H-M   'P 1'
_cell_length_a   7.46053976
_cell_length_b   7.46053976
_cell_length_c   18.84569519
_cell_angle_alpha   81.10394191
_cell_angle_beta   98.89605809
_cell_angle_gamma   93.90518981
_symmetry_Int_Tables_number   1
_chemical_formula_structural   Na3As3(HO5)2
_chemical_formula_sum   'Na12 As12 H8 O40'
_cell_volume   1022.81024370
_cell_formula_units_Z   4
loop_
 _symmetry_equiv_pos_site_id
 _symmetry_equiv_pos_as_xyz
  1  'x, y, z'
loop_
 _atom_site_type_symbol
 _atom_site_label
 _atom_site_symmetry_multiplicity
 _atom_site_fract_x
 _atom_site_fract_y
 _atom_site_fract_z
 _atom_site_occupancy
  Na  Na0  1  0.782733  0.491961  0.918768  1
  Na  Na1  1  0.491961  0.782733  0.581232  1
  Na  Na2  1  0.217267  0.508039  0.081232  1
  Na  Na3  1  0.508039  0.217267  0.418768  1
  Na  Na4  1  0.911212  0.172303  0.108939  1
  Na  Na5  1  0.172303  0.911212  0.391061  1
  Na  Na6  1  0.088788  0.827697  0.891061  1
  Na  Na7  1  0.827697  0.088788  0.608939  1
  Na  Na8  1  0.765699  0.765699  0.750000  1
  Na  Na9  1  0.234301  0.234301  0.250000  1
  Na  Na10  1  0.179444  0.179444  0.750000  1
  Na  Na11  1  0.820556  0.820556  0.250000  1
  As  As12  1  0.994225  0.690709  0.599853  1
  As  As13  1  0.690709  0.994225  0.900147  1
  As  As14  1  0.005775  0.309291  0.400147  1
  As  As15  1  0.309291  0.005775  0.099853  1
  As  As16  1  0.262310  0.705787  0.744404  1
  As  As17  1  0.705787  0.262310  0.755596  1
  As  As18  1  0.737690  0.294213  0.255596  1
  As  As19  1  0.294213  0.737690  0.244404  1
  As  As20  1  0.260631  0.410911  0.895671  1
  As  As21  1  0.410911  0.260631  0.604329  1
  As  As22  1  0.739369  0.589089  0.104329  1
  As  As23  1  0.589089  0.739369  0.395671  1
  H  H24  1  0.063691  0.305407  0.588725  1
  H  H25  1  0.305407  0.063691  0.911275  1
  H  H26  1  0.936309  0.694593  0.411275  1
  H  H27  1  0.694593  0.936309  0.088725  1
  H  H28  1  0.477942  0.292609  0.993836  1
  H  H29  1  0.292609  0.477942  0.506164  1
  H  H30  1  0.522058  0.707391  0.006164  1
  H  H31  1  0.707391  0.522058  0.493836  1
  O  O32  1  0.042834  0.653316  0.450187  1
  O  O33  1  0.653316  0.042834  0.049813  1
  O  O34  1  0.957166  0.346684  0.549813  1
  O  O35  1  0.346684  0.957166  0.950187  1
  O  O36  1  0.808926  0.783185  0.621255  1
  O  O37  1  0.783185  0.808926  0.878745  1
  O  O38  1  0.191074  0.216815  0.378745  1
  O  O39  1  0.216815  0.191074  0.121255  1
  O  O40  1  0.856041  0.476057  0.578632  1
  O  O41  1  0.476057  0.856041  0.921368  1
  O  O42  1  0.143959  0.523943  0.421368  1
  O  O43  1  0.523943  0.143959  0.078632  1
  O  O44  1  0.106707  0.569515  0.691751  1
  O  O45  1  0.569515  0.106707  0.808249  1
  O  O46  1  0.893293  0.430485  0.308249  1
  O  O47  1  0.430485  0.893293  0.191751  1
  O  O48  1  0.443703  0.775437  0.703334  1
  O  O49  1  0.775437  0.443703  0.796666  1
  O  O50  1  0.556297  0.224563  0.296666  1
  O  O51  1  0.224563  0.556297  0.203334  1
  O  O52  1  0.143297  0.853612  0.775111  1
  O  O53  1  0.853612  0.143297  0.724889  1
  O  O54  1  0.856703  0.146388  0.224889  1
  O  O55  1  0.146388  0.856703  0.275111  1
  O  O56  1  0.347411  0.531211  0.818127  1
  O  O57  1  0.531211  0.347411  0.681873  1
  O  O58  1  0.652589  0.468789  0.181873  1
  O  O59  1  0.468789  0.652589  0.318127  1
  O  O60  1  0.480936  0.368085  0.945185  1
  O  O61  1  0.368085  0.480936  0.554815  1
  O  O62  1  0.519064  0.631915  0.054815  1
  O  O63  1  0.631915  0.519064  0.445185  1
  O  O64  1  0.139972  0.527139  0.940735  1
  O  O65  1  0.527139  0.139972  0.559265  1
  O  O66  1  0.860028  0.472861  0.059265  1
  O  O67  1  0.472861  0.860028  0.440735  1
  O  O68  1  0.165268  0.211770  0.873128  1
  O  O69  1  0.211770  0.165268  0.626872  1
  O  O70  1  0.834732  0.788230  0.126872  1
  O  O71  1  0.788230  0.834732  0.373128  1
