# generated using pymatgen
data_Li4Mn3Fe(BO3)4
_symmetry_space_group_name_H-M   'P 1'
_cell_length_a   5.24898675
_cell_length_b   5.24094392
_cell_length_c   10.49698527
_cell_angle_alpha   89.30827346
_cell_angle_beta   91.18185820
_cell_angle_gamma   60.14114496
_symmetry_Int_Tables_number   1
_chemical_formula_structural   Li4Mn3Fe(BO3)4
_chemical_formula_sum   'Li4 Mn3 Fe1 B4 O12'
_cell_volume   250.29923432
_cell_formula_units_Z   1
loop_
 _symmetry_equiv_pos_site_id
 _symmetry_equiv_pos_as_xyz
  1  'x, y, z'
loop_
 _atom_site_type_symbol
 _atom_site_label
 _atom_site_symmetry_multiplicity
 _atom_site_fract_x
 _atom_site_fract_y
 _atom_site_fract_z
 _atom_site_occupancy
  Li  Li0  1  0.321264  0.650968  0.332293  1
  Li  Li1  1  0.347187  0.678690  0.832362  1
  Li  Li2  1  0.651933  0.335022  0.582052  1
  Li  Li3  1  0.662084  0.348252  0.082004  1
  Mn  Mn4  1  0.329426  0.004193  0.116732  1
  Mn  Mn5  1  0.678703  0.000444  0.865234  1
  Mn  Mn6  1  0.998180  0.325011  0.368576  1
  Fe  Fe7  1  0.999394  0.675411  0.616865  1
  B  B8  1  0.003691  0.340645  0.872697  1
  B  B9  1  0.331156  0.005967  0.623647  1
  B  B10  1  0.659623  0.997576  0.375960  1
  B  B11  1  0.995109  0.665983  0.124316  1
  O  O12  1  0.068395  0.255082  0.585380  1
  O  O13  1  0.254651  0.069990  0.903409  1
  O  O14  1  0.032971  0.578363  0.831492  1
  O  O15  1  0.582220  0.025648  0.652277  1
  O  O16  1  0.269062  0.641490  0.139041  1
  O  O17  1  0.347895  0.733212  0.636421  1
  O  O18  1  0.630846  0.272904  0.389792  1
  O  O19  1  0.728338  0.369868  0.887424  1
  O  O20  1  0.421459  0.967471  0.334273  1
  O  O21  1  0.962714  0.422104  0.155445  1
  O  O22  1  0.752613  0.929368  0.081784  1
  O  O23  1  0.930486  0.746937  0.406723  1
