# generated using pymatgen
data_Li3Mn3(PO4)4
_symmetry_space_group_name_H-M   'P 1'
_cell_length_a   8.41096294
_cell_length_b   11.57499888
_cell_length_c   6.14236213
_cell_angle_alpha   90.00000000
_cell_angle_beta   100.12467796
_cell_angle_gamma   90.00000000
_symmetry_Int_Tables_number   1
_chemical_formula_structural   Li3Mn3(PO4)4
_chemical_formula_sum   'Li6 Mn6 P8 O32'
_cell_volume   588.68891192
_cell_formula_units_Z   2
loop_
 _symmetry_equiv_pos_site_id
 _symmetry_equiv_pos_as_xyz
  1  'x, y, z'
loop_
 _atom_site_type_symbol
 _atom_site_label
 _atom_site_symmetry_multiplicity
 _atom_site_fract_x
 _atom_site_fract_y
 _atom_site_fract_z
 _atom_site_occupancy
  Li  Li0  1  0.352353  0.197428  0.114107  1
  Li  Li1  1  0.943591  0.397479  0.379120  1
  Li  Li2  1  0.647647  0.697428  0.385893  1
  Li  Li3  1  0.056409  0.897479  0.120880  1
  Li  Li4  1  0.952199  0.105198  0.880749  1
  Li  Li5  1  0.047801  0.605198  0.619251  1
  Mn  Mn6  1  0.658282  0.810311  0.885542  1
  Mn  Mn7  1  0.721757  0.411928  0.837022  1
  Mn  Mn8  1  0.278243  0.911928  0.662978  1
  Mn  Mn9  1  0.719235  0.084285  0.326359  1
  Mn  Mn10  1  0.341718  0.310311  0.614458  1
  Mn  Mn11  1  0.280765  0.584285  0.173641  1
  P  P12  1  0.911413  0.871118  0.624070  1
  P  P13  1  0.916928  0.629172  0.114442  1
  P  P14  1  0.601774  0.084602  0.801509  1
  P  P15  1  0.398226  0.584602  0.698491  1
  P  P16  1  0.083072  0.129172  0.385558  1
  P  P17  1  0.088587  0.371118  0.875930  1
  P  P18  1  0.405878  0.916309  0.182775  1
  P  P19  1  0.594122  0.416309  0.317225  1
  O  O20  1  0.703636  0.115626  0.625717  1
  O  O21  1  0.800550  0.735340  0.117169  1
  O  O22  1  0.219693  0.275286  0.857297  1
  O  O23  1  0.514662  0.536792  0.257437  1
  O  O24  1  0.087501  0.067107  0.169233  1
  O  O25  1  0.476695  0.458404  0.746043  1
  O  O26  1  0.271992  0.579886  0.482158  1
  O  O27  1  0.199450  0.235340  0.382831  1
  O  O28  1  0.853461  0.936276  0.407061  1
  O  O29  1  0.525131  0.676718  0.688085  1
  O  O30  1  0.728890  0.422786  0.525846  1
  O  O31  1  0.142738  0.058611  0.595648  1
  O  O32  1  0.271110  0.922786  0.974154  1
  O  O33  1  0.485338  0.036792  0.242563  1
  O  O34  1  0.780307  0.775286  0.642703  1
  O  O35  1  0.146539  0.436276  0.092939  1
  O  O36  1  0.531681  0.823619  0.143655  1
  O  O37  1  0.912754  0.183663  0.389286  1
  O  O38  1  0.523305  0.958404  0.753957  1
  O  O39  1  0.077475  0.811087  0.611896  1
  O  O40  1  0.857262  0.558611  0.904352  1
  O  O41  1  0.912499  0.567107  0.330767  1
  O  O42  1  0.468319  0.323619  0.356345  1
  O  O43  1  0.922525  0.311087  0.888104  1
  O  O44  1  0.316412  0.873303  0.367583  1
  O  O45  1  0.087246  0.683663  0.110714  1
  O  O46  1  0.917791  0.937665  0.839607  1
  O  O47  1  0.683588  0.373303  0.132417  1
  O  O48  1  0.474869  0.176718  0.811915  1
  O  O49  1  0.296364  0.615626  0.874283  1
  O  O50  1  0.082209  0.437665  0.660393  1
  O  O51  1  0.728008  0.079886  0.017842  1
