# generated using pymatgen
data_LiCuCO3
_symmetry_space_group_name_H-M   'P 1'
_cell_length_a   4.09944096
_cell_length_b   6.25337109
_cell_length_c   9.70500424
_cell_angle_alpha   71.22029307
_cell_angle_beta   114.96525664
_cell_angle_gamma   139.70225231
_symmetry_Int_Tables_number   1
_chemical_formula_structural   LiCuCO3
_chemical_formula_sum   'Li2 Cu2 C2 O6'
_cell_volume   145.87336469
_cell_formula_units_Z   2
loop_
 _symmetry_equiv_pos_site_id
 _symmetry_equiv_pos_as_xyz
  1  'x, y, z'
loop_
 _atom_site_type_symbol
 _atom_site_label
 _atom_site_symmetry_multiplicity
 _atom_site_fract_x
 _atom_site_fract_y
 _atom_site_fract_z
 _atom_site_occupancy
  Li  Li0  1  0.637173  0.749995  0.637836  1
  Li  Li1  1  0.362272  0.249850  0.362067  1
  Cu  Cu2  1  0.499882  0.506077  0.999964  1
  Cu  Cu3  1  0.500017  0.993946  0.999913  1
  C  C4  1  0.716010  0.250028  0.716154  1
  C  C5  1  0.284106  0.750084  0.283713  1
  O  O6  1  0.222378  0.470446  0.789579  1
  O  O7  1  0.573903  0.250403  0.573319  1
  O  O8  1  0.355817  0.029400  0.789380  1
  O  O9  1  0.777702  0.537467  0.210354  1
  O  O10  1  0.426447  0.749802  0.426551  1
  O  O11  1  0.644199  0.962883  0.210444  1
