# generated using pymatgen
data_Li2Mn3(BO3)3
_symmetry_space_group_name_H-M   'P 1'
_cell_length_a   9.29052862
_cell_length_b   5.26676140
_cell_length_c   8.25261404
_cell_angle_alpha   88.60636110
_cell_angle_beta   75.73219220
_cell_angle_gamma   106.18888474
_symmetry_Int_Tables_number   1
_chemical_formula_structural   Li2Mn3(BO3)3
_chemical_formula_sum   'Li4 Mn6 B6 O18'
_cell_volume   373.95256419
_cell_formula_units_Z   2
loop_
 _symmetry_equiv_pos_site_id
 _symmetry_equiv_pos_as_xyz
  1  'x, y, z'
loop_
 _atom_site_type_symbol
 _atom_site_label
 _atom_site_symmetry_multiplicity
 _atom_site_fract_x
 _atom_site_fract_y
 _atom_site_fract_z
 _atom_site_occupancy
  Li  Li0  1  0.959169  0.318174  0.294374  1
  Li  Li1  1  0.638823  0.662341  0.957424  1
  Li  Li2  1  0.361177  0.337659  0.042576  1
  Li  Li3  1  0.040831  0.681826  0.705626  1
  Mn  Mn4  1  0.784684  0.210011  0.034034  1
  Mn  Mn5  1  0.879506  0.119202  0.633492  1
  Mn  Mn6  1  0.556357  0.449456  0.311156  1
  Mn  Mn7  1  0.443643  0.550544  0.688844  1
  Mn  Mn8  1  0.120494  0.880798  0.366508  1
  Mn  Mn9  1  0.215316  0.789989  0.965966  1
  B  B10  1  0.895980  0.777525  0.144331  1
  B  B11  1  0.777791  0.562575  0.523399  1
  B  B12  1  0.445903  0.893600  0.174251  1
  B  B13  1  0.554097  0.106400  0.825749  1
  B  B14  1  0.222209  0.437425  0.476601  1
  B  B15  1  0.104020  0.222475  0.855669  1
  O  O16  1  0.899810  0.035130  0.161718  1
  O  O17  1  0.983260  0.315542  0.825477  1
  O  O18  1  0.897517  0.749616  0.570220  1
  O  O19  1  0.771676  0.592803  0.104321  1
  O  O20  1  0.790888  0.317751  0.490073  1
  O  O21  1  0.650015  0.632409  0.499802  1
  O  O22  1  0.567094  0.095751  0.203146  1
  O  O23  1  0.683075  0.030405  0.846445  1
  O  O24  1  0.453677  0.640524  0.153185  1
  O  O25  1  0.546323  0.359476  0.846815  1
  O  O26  1  0.316925  0.969595  0.153555  1
  O  O27  1  0.432906  0.904249  0.796854  1
  O  O28  1  0.349985  0.367591  0.500198  1
  O  O29  1  0.209112  0.682249  0.509927  1
  O  O30  1  0.228324  0.407197  0.895679  1
  O  O31  1  0.102483  0.250384  0.429780  1
  O  O32  1  0.016740  0.684458  0.174523  1
  O  O33  1  0.100190  0.964870  0.838282  1
