# generated using pymatgen
data_Mg3Te4O11
_symmetry_space_group_name_H-M   'P 1'
_cell_length_a   8.29885905
_cell_length_b   8.20094439
_cell_length_c   9.31280689
_cell_angle_alpha   96.06417496
_cell_angle_beta   119.46173874
_cell_angle_gamma   104.20259521
_symmetry_Int_Tables_number   1
_chemical_formula_structural   Mg3Te4O11
_chemical_formula_sum   'Mg6 Te8 O22'
_cell_volume   515.39647780
_cell_formula_units_Z   2
loop_
 _symmetry_equiv_pos_site_id
 _symmetry_equiv_pos_as_xyz
  1  'x, y, z'
loop_
 _atom_site_type_symbol
 _atom_site_label
 _atom_site_symmetry_multiplicity
 _atom_site_fract_x
 _atom_site_fract_y
 _atom_site_fract_z
 _atom_site_occupancy
  Mg  Mg0  1  0.047934  0.384846  0.562159  1
  Mg  Mg1  1  0.312331  0.205671  0.854548  1
  Mg  Mg2  1  0.517839  0.818370  0.859918  1
  Mg  Mg3  1  0.484910  0.347526  0.314931  1
  Mg  Mg4  1  0.845254  0.772121  0.557906  1
  Mg  Mg5  1  0.876485  0.242572  0.103553  1
  Te  Te6  1  0.180598  0.554379  0.981593  1
  Te  Te7  1  0.088710  0.978475  0.988700  1
  Te  Te8  1  0.273161  0.613339  0.429162  1
  Te  Te9  1  0.182315  0.036375  0.435406  1
  Te  Te10  1  0.688642  0.497895  0.756680  1
  Te  Te11  1  0.632144  0.991968  0.261484  1
  Te  Te12  1  0.674896  0.093794  0.661082  1
  Te  Te13  1  0.730511  0.595945  0.156565  1
  O  O14  1  0.087526  0.957252  0.777761  1
  O  O15  1  0.025855  0.428925  0.329972  1
  O  O16  1  0.272857  0.633789  0.639290  1
  O  O17  1  0.144007  0.369784  0.815062  1
  O  O18  1  0.215956  0.219799  0.601323  1
  O  O19  1  0.076894  0.111289  0.234044  1
  O  O20  1  0.460641  0.493837  0.499589  1
  O  O21  1  0.285646  0.480340  0.183607  1
  O  O22  1  0.638624  0.872631  0.543449  1
  O  O23  1  0.494187  0.010300  0.728611  1
  O  O24  1  0.725152  0.720532  0.871648  1
  O  O25  1  0.439596  0.132772  0.451290  1
  O  O26  1  0.335013  0.163528  0.086816  1
  O  O27  1  0.505895  0.672961  0.037969  1
  O  O28  1  0.705342  0.556936  0.342937  1
  O  O29  1  0.923583  0.460451  0.967072  1
  O  O30  1  0.867563  0.578108  0.686905  1
  O  O31  1  0.655834  0.032769  0.074556  1
  O  O32  1  0.857074  0.915084  0.377799  1
  O  O33  1  0.607422  0.363750  0.010646  1
  O  O34  1  0.754072  0.223933  0.406733  1
  O  O35  1  0.900592  0.097594  0.918325  1
