# generated using pymatgen
data_NaNiP2HO7
_symmetry_space_group_name_H-M   'P 1'
_cell_length_a   6.52977850
_cell_length_b   6.52505168
_cell_length_c   19.85320337
_cell_angle_alpha   67.45882335
_cell_angle_beta   84.01519550
_cell_angle_gamma   88.45839532
_symmetry_Int_Tables_number   1
_chemical_formula_structural   NaNiP2HO7
_chemical_formula_sum   'Na6 Ni6 P12 H6 O42'
_cell_volume   776.92916412
_cell_formula_units_Z   6
loop_
 _symmetry_equiv_pos_site_id
 _symmetry_equiv_pos_as_xyz
  1  'x, y, z'
loop_
 _atom_site_type_symbol
 _atom_site_label
 _atom_site_symmetry_multiplicity
 _atom_site_fract_x
 _atom_site_fract_y
 _atom_site_fract_z
 _atom_site_occupancy
  Na  Na0  1  0.117151  0.228057  0.252889  1
  Na  Na1  1  0.117120  0.228101  0.586219  1
  Na  Na2  1  0.163863  0.307388  0.913503  1
  Na  Na3  1  0.836412  0.692855  0.086506  1
  Na  Na4  1  0.835561  0.691422  0.420278  1
  Na  Na5  1  0.835239  0.691092  0.753776  1
  Ni  Ni6  1  0.358987  0.710856  0.296983  1
  Ni  Ni7  1  0.359098  0.710820  0.630207  1
  Ni  Ni8  1  0.641656  0.283988  0.035946  1
  Ni  Ni9  1  0.358012  0.715654  0.964263  1
  Ni  Ni10  1  0.640070  0.283775  0.369432  1
  Ni  Ni11  1  0.640316  0.283884  0.703006  1
  P  P12  1  0.141318  0.255516  0.072198  1
  P  P13  1  0.141991  0.255805  0.405319  1
  P  P14  1  0.142146  0.255616  0.738818  1
  P  P15  1  0.379319  0.832795  0.121596  1
  P  P16  1  0.379213  0.832708  0.454854  1
  P  P17  1  0.378831  0.833163  0.787935  1
  P  P18  1  0.618938  0.167332  0.212137  1
  P  P19  1  0.618965  0.167316  0.545504  1
  P  P20  1  0.621098  0.166697  0.878759  1
  P  P21  1  0.857539  0.744935  0.260896  1
  P  P22  1  0.857550  0.744953  0.594230  1
  P  P23  1  0.858520  0.744727  0.927685  1
  H  H24  1  0.200719  0.553302  0.102391  1
  H  H25  1  0.200519  0.553173  0.435700  1
  H  H26  1  0.199327  0.552948  0.768209  1
  H  H27  1  0.802129  0.452333  0.231144  1
  H  H28  1  0.802070  0.452219  0.564520  1
  H  H29  1  0.800532  0.447055  0.898462  1
  O  O30  1  0.091890  0.381543  0.123774  1
  O  O31  1  0.038975  0.775273  0.298325  1
  O  O32  1  0.207368  0.013404  0.125512  1
  O  O33  1  0.091560  0.382074  0.456824  1
  O  O34  1  0.038987  0.775267  0.631657  1
  O  O35  1  0.293427  0.718906  0.073419  1
  O  O36  1  0.330045  0.362442  0.016387  1
  O  O37  1  0.207599  0.013563  0.458772  1
  O  O38  1  0.092164  0.383310  0.789980  1
  O  O39  1  0.039387  0.770147  0.965863  1
  O  O40  1  0.293122  0.719203  0.406618  1
  O  O41  1  0.330713  0.361876  0.349869  1
  O  O42  1  0.207794  0.013593  0.792093  1
  O  O43  1  0.385189  0.669362  0.199418  1
  O  O44  1  0.420308  0.043261  0.250482  1
  O  O45  1  0.293547  0.720220  0.739511  1
  O  O46  1  0.330815  0.361695  0.683311  1
  O  O47  1  0.385203  0.669386  0.532702  1
  O  O48  1  0.420320  0.043259  0.583808  1
  O  O49  1  0.579165  0.954128  0.082677  1
  O  O50  1  0.616635  0.331745  0.133973  1
  O  O51  1  0.382902  0.668305  0.866018  1
  O  O52  1  0.420464  0.046296  0.916855  1
  O  O53  1  0.579234  0.953986  0.416052  1
  O  O54  1  0.616590  0.331900  0.467369  1
  O  O55  1  0.670503  0.636869  0.317123  1
  O  O56  1  0.707641  0.277882  0.260491  1
  O  O57  1  0.579485  0.953675  0.749761  1
  O  O58  1  0.617159  0.332090  0.800685  1
  O  O59  1  0.792307  0.987124  0.207885  1
  O  O60  1  0.670507  0.636903  0.650450  1
  O  O61  1  0.707708  0.277825  0.593871  1
  O  O62  1  0.960722  0.230135  0.033831  1
  O  O63  1  0.906415  0.616544  0.209894  1
  O  O64  1  0.792301  0.987137  0.541221  1
  O  O65  1  0.669890  0.637882  0.983496  1
  O  O66  1  0.706163  0.280285  0.926980  1
  O  O67  1  0.960222  0.228726  0.367662  1
  O  O68  1  0.906431  0.616534  0.543236  1
  O  O69  1  0.792428  0.986756  0.874455  1
  O  O70  1  0.960202  0.228758  0.701222  1
  O  O71  1  0.907501  0.617443  0.876368  1
