# generated using pymatgen
data_LiCrPO4F
_symmetry_space_group_name_H-M   'P 1'
_cell_length_a   6.33834074
_cell_length_b   7.26442978
_cell_length_c   9.15330247
_cell_angle_alpha   109.84276755
_cell_angle_beta   110.25704405
_cell_angle_gamma   64.13459329
_symmetry_Int_Tables_number   1
_chemical_formula_structural   LiCrPO4F
_chemical_formula_sum   'Li4 Cr4 P4 O16 F4'
_cell_volume   346.80811760
_cell_formula_units_Z   4
loop_
 _symmetry_equiv_pos_site_id
 _symmetry_equiv_pos_as_xyz
  1  'x, y, z'
loop_
 _atom_site_type_symbol
 _atom_site_label
 _atom_site_symmetry_multiplicity
 _atom_site_fract_x
 _atom_site_fract_y
 _atom_site_fract_z
 _atom_site_occupancy
  Li  Li0  1  0.882955  0.719438  0.703590  1
  Li  Li1  1  0.661554  0.544666  0.384590  1
  Li  Li2  1  0.101198  0.219438  0.203590  1
  Li  Li3  1  0.178371  0.044666  0.884590  1
  Cr  Cr4  1  0.112196  0.807505  0.358474  1
  Cr  Cr5  1  0.837788  0.599868  0.010800  1
  Cr  Cr6  1  0.438772  0.307505  0.858474  1
  Cr  Cr7  1  0.573144  0.099868  0.510800  1
  P  P8  1  0.299202  0.704032  0.064808  1
  P  P9  1  0.412551  0.632793  0.682024  1
  P  P10  1  0.636680  0.132793  0.182024  1
  P  P11  1  0.061574  0.204032  0.564808  1
  O  O12  1  0.204344  0.930488  0.062047  1
  O  O13  1  0.817973  0.893599  0.162831  1
  O  O14  1  0.347745  0.666306  0.231113  1
  O  O15  1  0.185584  0.769807  0.741128  1
  O  O16  1  0.391651  0.660417  0.516556  1
  O  O17  1  0.645025  0.672499  0.798056  1
  O  O18  1  0.137480  0.572574  0.944061  1
  O  O19  1  0.542601  0.561517  0.010954  1
  O  O20  1  0.927215  0.430488  0.562047  1
  O  O21  1  0.451259  0.393599  0.662831  1
  O  O22  1  0.785736  0.269807  0.241128  1
  O  O23  1  0.464488  0.160417  0.016556  1
  O  O24  1  0.480531  0.172499  0.298056  1
  O  O25  1  0.234007  0.072574  0.444061  1
  O  O26  1  0.217062  0.166306  0.731113  1
  O  O27  1  0.906837  0.061517  0.510954  1
  F  F28  1  0.711762  0.803617  0.454944  1
  F  F29  1  0.008784  0.556995  0.241507  1
  F  F30  1  0.939565  0.303617  0.954944  1
  F  F31  1  0.675729  0.056995  0.741507  1
