# generated using pymatgen
data_KOsF6
_symmetry_space_group_name_H-M   'P 1'
_cell_length_a   5.12188645
_cell_length_b   5.12188646
_cell_length_c   5.12188646
_cell_angle_alpha   97.33913106
_cell_angle_beta   97.33913104
_cell_angle_gamma   97.33913101
_symmetry_Int_Tables_number   1
_chemical_formula_structural   KOsF6
_chemical_formula_sum   'K1 Os1 F6'
_cell_volume   130.74846860
_cell_formula_units_Z   1
loop_
 _symmetry_equiv_pos_site_id
 _symmetry_equiv_pos_as_xyz
  1  'x, y, z'
loop_
 _atom_site_type_symbol
 _atom_site_label
 _atom_site_symmetry_multiplicity
 _atom_site_fract_x
 _atom_site_fract_y
 _atom_site_fract_z
 _atom_site_occupancy
  F  F0  1  0.920988  0.298416  0.226841  1
  F  F1  1  0.298416  0.226841  0.920988  1
  F  F2  1  0.773159  0.079012  0.701584  1
  F  F3  1  0.701584  0.773159  0.079012  1
  F  F4  1  0.079012  0.701584  0.773159  1
  F  F5  1  0.226841  0.920988  0.298416  1
  K  K6  1  0.500000  0.500000  0.500000  1
  Os  Os7  1  0.000000  0.000000  0.000000  1
