# generated using pymatgen
data_Li2Ni(PO3)4
_symmetry_space_group_name_H-M   'P 1'
_cell_length_a   7.66286561
_cell_length_b   12.47842462
_cell_length_c   10.61000112
_cell_angle_alpha   90.00000000
_cell_angle_beta   103.05015107
_cell_angle_gamma   90.00000000
_symmetry_Int_Tables_number   1
_chemical_formula_structural   Li2Ni(PO3)4
_chemical_formula_sum   'Li8 Ni4 P16 O48'
_cell_volume   988.33094732
_cell_formula_units_Z   4
loop_
 _symmetry_equiv_pos_site_id
 _symmetry_equiv_pos_as_xyz
  1  'x, y, z'
loop_
 _atom_site_type_symbol
 _atom_site_label
 _atom_site_symmetry_multiplicity
 _atom_site_fract_x
 _atom_site_fract_y
 _atom_site_fract_z
 _atom_site_occupancy
  Li  Li0  1  0.134026  0.060157  0.597719  1
  Li  Li1  1  0.111016  0.701566  0.142069  1
  Li  Li2  1  0.365974  0.560157  0.902281  1
  Li  Li3  1  0.388984  0.201566  0.357931  1
  Li  Li4  1  0.611016  0.798434  0.642069  1
  Li  Li5  1  0.634026  0.439843  0.097719  1
  Li  Li6  1  0.888984  0.298434  0.857931  1
  Li  Li7  1  0.865974  0.939843  0.402281  1
  Ni  Ni8  1  0.246575  0.152274  0.987921  1
  Ni  Ni9  1  0.253425  0.652274  0.512079  1
  Ni  Ni10  1  0.746575  0.347726  0.487921  1
  Ni  Ni11  1  0.753425  0.847726  0.012079  1
  P  P12  1  0.078529  0.821459  0.691910  1
  P  P13  1  0.155895  0.420020  0.597091  1
  P  P14  1  0.065120  0.333783  0.146327  1
  P  P15  1  0.344105  0.920020  0.902909  1
  P  P16  1  0.202977  0.937289  0.136485  1
  P  P17  1  0.421471  0.321459  0.808090  1
  P  P18  1  0.297023  0.437289  0.363515  1
  P  P19  1  0.434880  0.833783  0.353673  1
  P  P20  1  0.565120  0.166217  0.646327  1
  P  P21  1  0.702977  0.562711  0.636485  1
  P  P22  1  0.578529  0.678541  0.191910  1
  P  P23  1  0.797023  0.062711  0.863515  1
  P  P24  1  0.655895  0.079980  0.097091  1
  P  P25  1  0.934880  0.666217  0.853673  1
  P  P26  1  0.844105  0.579980  0.402909  1
  P  P27  1  0.921471  0.178541  0.308090  1
  O  O28  1  0.121598  0.637485  0.924805  1
  O  O29  1  0.992516  0.364877  0.621816  1
  O  O30  1  0.999144  0.915390  0.608351  1
  O  O31  1  0.167641  0.857685  0.835052  1
  O  O32  1  0.081093  0.247149  0.267209  1
  O  O33  1  0.063556  0.852001  0.137410  1
  O  O34  1  0.189955  0.536138  0.630186  1
  O  O35  1  0.210499  0.751094  0.648562  1
  O  O36  1  0.289501  0.251094  0.851438  1
  O  O37  1  0.310045  0.036138  0.869814  1
  O  O38  1  0.163855  0.395545  0.450962  1
  O  O39  1  0.332359  0.357685  0.664948  1
  O  O40  1  0.148153  0.050445  0.104856  1
  O  O41  1  0.154443  0.438505  0.224788  1
  O  O42  1  0.308634  0.792677  0.431538  1
  O  O43  1  0.191366  0.292677  0.068462  1
  O  O44  1  0.345557  0.938505  0.275212  1
  O  O45  1  0.500856  0.415390  0.891649  1
  O  O46  1  0.507484  0.864877  0.878184  1
  O  O47  1  0.351847  0.550445  0.395144  1
  O  O48  1  0.378402  0.137485  0.575195  1
  O  O49  1  0.336145  0.895545  0.049038  1
  O  O50  1  0.581093  0.252851  0.767209  1
  O  O51  1  0.563556  0.647999  0.637410  1
  O  O52  1  0.436444  0.352001  0.362590  1
  O  O53  1  0.418907  0.747149  0.232791  1
  O  O54  1  0.663855  0.104455  0.950962  1
  O  O55  1  0.621598  0.862515  0.424805  1
  O  O56  1  0.648153  0.449555  0.604856  1
  O  O57  1  0.492516  0.135123  0.121816  1
  O  O58  1  0.499144  0.584610  0.108351  1
  O  O59  1  0.654443  0.061495  0.724788  1
  O  O60  1  0.808634  0.707323  0.931538  1
  O  O61  1  0.691366  0.207323  0.568462  1
  O  O62  1  0.845557  0.561495  0.775212  1
  O  O63  1  0.851847  0.949555  0.895144  1
  O  O64  1  0.667641  0.642315  0.335052  1
  O  O65  1  0.836145  0.604455  0.549038  1
  O  O66  1  0.689955  0.963862  0.130186  1
  O  O67  1  0.710499  0.748906  0.148562  1
  O  O68  1  0.789501  0.248906  0.351438  1
  O  O69  1  0.810045  0.463862  0.369814  1
  O  O70  1  0.936444  0.147999  0.862590  1
  O  O71  1  0.918907  0.752851  0.732791  1
  O  O72  1  0.832359  0.142315  0.164948  1
  O  O73  1  0.000856  0.084610  0.391649  1
  O  O74  1  0.007484  0.635123  0.378184  1
  O  O75  1  0.878402  0.362515  0.075195  1
