# generated using pymatgen
data_NaMn6Al3H42(SO19)2
_symmetry_space_group_name_H-M   'P 1'
_cell_length_a   12.32877598
_cell_length_b   12.32889245
_cell_length_c   12.32884285
_cell_angle_alpha   45.83736568
_cell_angle_beta   45.83717690
_cell_angle_gamma   45.83718794
_symmetry_Int_Tables_number   1
_chemical_formula_structural   NaMn6Al3H42(SO19)2
_chemical_formula_sum   'Na1 Mn6 Al3 H42 S2 O38'
_cell_volume   879.32153884
_cell_formula_units_Z   1
loop_
 _symmetry_equiv_pos_site_id
 _symmetry_equiv_pos_as_xyz
  1  'x, y, z'
loop_
 _atom_site_type_symbol
 _atom_site_label
 _atom_site_symmetry_multiplicity
 _atom_site_fract_x
 _atom_site_fract_y
 _atom_site_fract_z
 _atom_site_occupancy
  Na  Na0  1  0.000001  1.000000  0.999998  1
  Mn  Mn1  1  0.496950  0.166857  0.834610  1
  Mn  Mn2  1  0.166864  0.834601  0.496955  1
  Mn  Mn3  1  0.834600  0.496949  0.166870  1
  Mn  Mn4  1  0.503047  0.833124  0.165406  1
  Mn  Mn5  1  0.833118  0.165400  0.503053  1
  Mn  Mn6  1  0.165422  0.503075  0.833132  1
  Al  Al7  1  0.835969  0.835954  0.835951  1
  Al  Al8  1  0.164037  0.164057  0.164048  1
  Al  Al9  1  0.499998  0.499988  0.500011  1
  H  H10  1  0.326375  0.040939  0.309758  1
  H  H11  1  0.040937  0.309749  0.326390  1
  H  H12  1  0.309743  0.326390  0.040924  1
  H  H13  1  0.673605  0.959075  0.690250  1
  H  H14  1  0.959063  0.690252  0.673608  1
  H  H15  1  0.690229  0.673615  0.959095  1
  H  H16  1  0.976663  0.008849  0.700873  1
  H  H17  1  0.008868  0.700869  0.976647  1
  H  H18  1  0.700885  0.976669  0.008842  1
  H  H19  1  0.023343  0.991149  0.299122  1
  H  H20  1  0.991138  0.299118  0.023353  1
  H  H21  1  0.299124  0.023327  0.991158  1
  H  H22  1  0.631984  0.361175  0.686308  1
  H  H23  1  0.361172  0.686288  0.632002  1
  H  H24  1  0.686301  0.631978  0.361203  1
  H  H25  1  0.368018  0.638830  0.313688  1
  H  H26  1  0.638824  0.313708  0.368003  1
  H  H27  1  0.313707  0.368006  0.638807  1
  H  H28  1  0.646791  0.468509  0.776617  1
  H  H29  1  0.468498  0.776626  0.646795  1
  H  H30  1  0.776612  0.646795  0.468515  1
  H  H31  1  0.353206  0.531499  0.223379  1
  H  H32  1  0.531498  0.223373  0.353203  1
  H  H33  1  0.223388  0.353202  0.531483  1
  H  H34  1  0.547521  0.357157  0.935304  1
  H  H35  1  0.357150  0.935314  0.547520  1
  H  H36  1  0.935306  0.547526  0.357156  1
  H  H37  1  0.452477  0.642850  0.064681  1
  H  H38  1  0.642848  0.064683  0.452478  1
  H  H39  1  0.064691  0.452473  0.642840  1
  H  H40  1  0.852030  0.210134  0.781082  1
  H  H41  1  0.210123  0.781087  0.852032  1
  H  H42  1  0.781083  0.852037  0.210126  1
  H  H43  1  0.147962  0.789873  0.218911  1
  H  H44  1  0.789876  0.218916  0.147958  1
  H  H45  1  0.218915  0.147957  0.789874  1
  H  H46  1  0.025178  0.203019  0.629917  1
  H  H47  1  0.203021  0.629917  0.025173  1
  H  H48  1  0.629912  0.025175  0.203023  1
  H  H49  1  0.974817  0.796982  0.370080  1
  H  H50  1  0.796972  0.370088  0.974820  1
  H  H51  1  0.370086  0.974821  0.796971  1
  S  S52  1  0.296101  0.296085  0.296070  1
  S  S53  1  0.703895  0.703921  0.703927  1
  O  O54  1  0.658403  0.658437  0.658429  1
  O  O55  1  0.341589  0.341571  0.341568  1
  O  O56  1  0.391596  0.114388  0.337997  1
  O  O57  1  0.114414  0.338001  0.391562  1
  O  O58  1  0.338028  0.391578  0.114371  1
  O  O59  1  0.608401  0.885619  0.661995  1
  O  O60  1  0.885582  0.662001  0.608431  1
  O  O61  1  0.661967  0.608425  0.885625  1
  O  O62  1  0.295902  0.001157  0.291263  1
  O  O63  1  0.001172  0.291243  0.295907  1
  O  O64  1  0.291246  0.295904  0.001158  1
  O  O65  1  0.704112  0.998817  0.708752  1
  O  O66  1  0.998800  0.708766  0.704112  1
  O  O67  1  0.708757  0.704103  0.998831  1
  O  O68  1  0.964819  0.964691  0.668271  1
  O  O69  1  0.964689  0.668274  0.964820  1
  O  O70  1  0.668276  0.964828  0.964685  1
  O  O71  1  0.035167  0.035298  0.331754  1
  O  O72  1  0.035299  0.331730  0.035186  1
  O  O73  1  0.331747  0.035153  0.035314  1
  O  O74  1  0.625464  0.333580  0.633213  1
  O  O75  1  0.333581  0.633187  0.625487  1
  O  O76  1  0.633199  0.625480  0.333592  1
  O  O77  1  0.374536  0.666422  0.366788  1
  O  O78  1  0.666422  0.366804  0.374519  1
  O  O79  1  0.366803  0.374522  0.666406  1
  O  O80  1  0.642710  0.364144  0.826291  1
  O  O81  1  0.364132  0.826301  0.642708  1
  O  O82  1  0.826286  0.642711  0.364151  1
  O  O83  1  0.357292  0.635864  0.173699  1
  O  O84  1  0.635864  0.173699  0.357289  1
  O  O85  1  0.173710  0.357287  0.635848  1
  O  O86  1  0.970892  0.133529  0.744045  1
  O  O87  1  0.133524  0.744044  0.970895  1
  O  O88  1  0.744041  0.970900  0.133529  1
  O  O89  1  0.029102  0.866474  0.255952  1
  O  O90  1  0.866471  0.255963  0.029096  1
  O  O91  1  0.255964  0.029097  0.866471  1
