# generated using pymatgen
data_V2As3H17C4N8O17
_symmetry_space_group_name_H-M   'P 1'
_cell_length_a   8.67945630
_cell_length_b   11.23498116
_cell_length_c   12.63193414
_cell_angle_alpha   83.13618658
_cell_angle_beta   82.66036269
_cell_angle_gamma   69.91955727
_symmetry_Int_Tables_number   1
_chemical_formula_structural   V2As3H17C4N8O17
_chemical_formula_sum   'V4 As6 H34 C8 N16 O34'
_cell_volume   1143.63690363
_cell_formula_units_Z   2
loop_
 _symmetry_equiv_pos_site_id
 _symmetry_equiv_pos_as_xyz
  1  'x, y, z'
loop_
 _atom_site_type_symbol
 _atom_site_label
 _atom_site_symmetry_multiplicity
 _atom_site_fract_x
 _atom_site_fract_y
 _atom_site_fract_z
 _atom_site_occupancy
  V  V0  1  0.269701  0.812257  0.622059  1
  V  V1  1  0.730299  0.187743  0.377941  1
  V  V2  1  0.222670  0.113071  0.592368  1
  V  V3  1  0.777330  0.886929  0.407632  1
  As  As4  1  0.042278  0.654260  0.543215  1
  As  As5  1  0.957723  0.345740  0.456785  1
  As  As6  1  0.827420  0.030351  0.601885  1
  As  As7  1  0.172580  0.969649  0.398115  1
  As  As8  1  0.127351  0.985235  0.827431  1
  As  As9  1  0.872649  0.014765  0.172569  1
  H  H10  1  0.195825  0.472715  0.467542  1
  H  H11  1  0.804175  0.527285  0.532458  1
  H  H12  1  0.804053  0.036198  0.785955  1
  H  H13  1  0.195947  0.963802  0.214045  1
  H  H14  1  0.173019  0.972069  0.006480  1
  H  H15  1  0.826981  0.027931  0.993520  1
  H  H16  1  0.278910  0.565671  0.732367  1
  H  H17  1  0.721090  0.434329  0.267633  1
  H  H18  1  0.986073  0.620175  0.950573  1
  H  H19  1  0.013927  0.379825  0.049427  1
  H  H20  1  0.083673  0.685055  0.836089  1
  H  H21  1  0.916327  0.314945  0.163911  1
  H  H22  1  0.513477  0.183631  0.768897  1
  H  H23  1  0.486523  0.816369  0.231103  1
  H  H24  1  0.337209  0.259688  0.859484  1
  H  H25  1  0.662791  0.740312  0.140516  1
  H  H26  1  0.595937  0.312668  0.628225  1
  H  H27  1  0.404063  0.687332  0.371775  1
  H  H28  1  0.494368  0.476963  0.621794  1
  H  H29  1  0.505632  0.523037  0.378206  1
  H  H30  1  0.443520  0.777999  0.929074  1
  H  H31  1  0.556480  0.222001  0.070926  1
  H  H32  1  0.509494  0.611098  0.955326  1
  H  H33  1  0.490506  0.388902  0.044674  1
  H  H34  1  0.576959  0.868652  0.783387  1
  H  H35  1  0.423041  0.131348  0.216613  1
  H  H36  1  0.727743  0.771131  0.699159  1
  H  H37  1  0.272257  0.228869  0.300841  1
  H  H38  1  0.813224  0.566937  0.727096  1
  H  H39  1  0.186776  0.433063  0.272904  1
  H  H40  1  0.860470  0.255476  0.828722  1
  H  H41  1  0.139530  0.744524  0.171278  1
  H  H42  1  0.920952  0.356499  0.729592  1
  H  H43  1  0.079048  0.643501  0.270408  1
  C  C44  1  0.407966  0.375463  0.745481  1
  C  C45  1  0.592034  0.624537  0.254519  1
  C  C46  1  0.171675  0.490601  0.868800  1
  C  C47  1  0.828325  0.509399  0.131200  1
  C  C48  1  0.633769  0.678407  0.827678  1
  C  C49  1  0.366231  0.321593  0.172322  1
  C  C50  1  0.737319  0.443907  0.846028  1
  C  C51  1  0.262681  0.556093  0.153972  1
  N  N52  1  0.285830  0.482889  0.778253  1
  N  N53  1  0.714170  0.517111  0.221747  1
  N  N54  1  0.071029  0.609044  0.884766  1
  N  N55  1  0.928971  0.390956  0.115234  1
  N  N56  1  0.423488  0.262550  0.796931  1
  N  N57  1  0.576512  0.737450  0.203069  1
  N  N58  1  0.510755  0.389827  0.661644  1
  N  N59  1  0.489245  0.610173  0.338356  1
  N  N60  1  0.523253  0.690342  0.911956  1
  N  N61  1  0.476747  0.309658  0.088044  1
  N  N62  1  0.654933  0.780206  0.769891  1
  N  N63  1  0.345067  0.219794  0.230109  1
  N  N64  1  0.735281  0.562982  0.796925  1
  N  N65  1  0.264719  0.437018  0.203075  1
  N  N66  1  0.850206  0.345552  0.798333  1
  N  N67  1  0.149794  0.654448  0.201667  1
  O  O68  1  0.225180  0.088901  0.441426  1
  O  O69  1  0.774820  0.911099  0.558574  1
  O  O70  1  0.356490  0.184543  0.580170  1
  O  O71  1  0.643510  0.815457  0.419830  1
  O  O72  1  0.262726  0.824503  0.467202  1
  O  O73  1  0.737274  0.175497  0.532798  1
  O  O74  1  0.019308  0.255027  0.575026  1
  O  O75  1  0.980692  0.744973  0.424974  1
  O  O76  1  0.348524  0.941463  0.609728  1
  O  O77  1  0.651476  0.058537  0.390272  1
  O  O78  1  0.227773  0.535320  0.504512  1
  O  O79  1  0.772227  0.464680  0.495488  1
  O  O80  1  0.429355  0.683653  0.634730  1
  O  O81  1  0.570645  0.316347  0.365270  1
  O  O82  1  0.031185  0.997185  0.612855  1
  O  O83  1  0.968815  0.002815  0.387145  1
  O  O84  1  0.176648  0.105023  0.746790  1
  O  O85  1  0.823352  0.894977  0.253210  1
  O  O86  1  0.097037  0.730418  0.635549  1
  O  O87  1  0.902963  0.269582  0.364451  1
  O  O88  1  0.897194  0.592818  0.602958  1
  O  O89  1  0.102806  0.407182  0.397042  1
  O  O90  1  0.202747  0.838660  0.774956  1
  O  O91  1  0.797253  0.161340  0.225045  1
  O  O92  1  0.721200  0.048106  0.730689  1
  O  O93  1  0.278800  0.951894  0.269311  1
  O  O94  1  0.246068  0.963239  0.936411  1
  O  O95  1  0.753932  0.036761  0.063589  1
  O  O96  1  0.923748  0.031429  0.871256  1
  O  O97  1  0.076252  0.968571  0.128744  1
  O  O98  1  0.166765  0.393388  0.927029  1
  O  O99  1  0.833235  0.606612  0.072971  1
  O  O100  1  0.643188  0.431892  0.926630  1
  O  O101  1  0.356812  0.568108  0.073370  1
