# generated using pymatgen
data_Ti3Co2Te(PO4)6
_symmetry_space_group_name_H-M   'P 1'
_cell_length_a   8.65259681
_cell_length_b   8.65259607
_cell_length_c   8.65259689
_cell_angle_alpha   61.10779463
_cell_angle_beta   61.10779630
_cell_angle_gamma   61.10779928
_symmetry_Int_Tables_number   1
_chemical_formula_structural   Ti3Co2Te(PO4)6
_chemical_formula_sum   'Ti3 Co2 Te1 P6 O24'
_cell_volume   469.48375899
_cell_formula_units_Z   1
loop_
 _symmetry_equiv_pos_site_id
 _symmetry_equiv_pos_as_xyz
  1  'x, y, z'
loop_
 _atom_site_type_symbol
 _atom_site_label
 _atom_site_symmetry_multiplicity
 _atom_site_fract_x
 _atom_site_fract_y
 _atom_site_fract_z
 _atom_site_occupancy
  Ti  Ti0  1  0.140331  0.140331  0.140331  1
  Ti  Ti1  1  0.356921  0.356921  0.356921  1
  Ti  Ti2  1  0.639921  0.639921  0.639921  1
  Co  Co3  1  0.008336  0.008336  0.008336  1
  Co  Co4  1  0.503842  0.503842  0.503842  1
  Te  Te5  1  0.856787  0.856787  0.856787  1
  P  P6  1  0.255689  0.535170  0.960095  1
  P  P7  1  0.535170  0.960095  0.255689  1
  P  P8  1  0.960095  0.255689  0.535170  1
  P  P9  1  0.046556  0.745397  0.449840  1
  P  P10  1  0.449840  0.046556  0.745397  1
  P  P11  1  0.745397  0.449840  0.046556  1
  O  O12  1  0.116846  0.325779  0.484767  1
  O  O13  1  0.325779  0.484767  0.116846  1
  O  O14  1  0.060144  0.908761  0.261184  1
  O  O15  1  0.484767  0.116846  0.325779  1
  O  O16  1  0.024080  0.808526  0.601625  1
  O  O17  1  0.237571  0.586008  0.429912  1
  O  O18  1  0.261184  0.060144  0.908761  1
  O  O19  1  0.429912  0.237571  0.586008  1
  O  O20  1  0.184715  0.382240  0.000380  1
  O  O21  1  0.586008  0.429912  0.237571  1
  O  O22  1  0.100180  0.730748  0.952314  1
  O  O23  1  0.382240  0.000380  0.184715  1
  O  O24  1  0.601625  0.024080  0.808526  1
  O  O25  1  0.908761  0.261184  0.060144  1
  O  O26  1  0.413906  0.552602  0.767293  1
  O  O27  1  0.808526  0.601625  0.024080  1
  O  O28  1  0.552602  0.767293  0.413906  1
  O  O29  1  0.730748  0.952314  0.100180  1
  O  O30  1  0.767293  0.413906  0.552602  1
  O  O31  1  0.000380  0.184715  0.382240  1
  O  O32  1  0.502547  0.879771  0.689212  1
  O  O33  1  0.952314  0.100180  0.730748  1
  O  O34  1  0.689212  0.502547  0.879771  1
  O  O35  1  0.879771  0.689212  0.502547  1
