# generated using pymatgen
data_La4Al6O15
_symmetry_space_group_name_H-M   'P 1'
_cell_length_a   5.04468938
_cell_length_b   6.95333414
_cell_length_c   21.19287072
_cell_angle_alpha   86.56944306
_cell_angle_beta   90.09604550
_cell_angle_gamma   68.82481109
_symmetry_Int_Tables_number   1
_chemical_formula_structural   La4Al6O15
_chemical_formula_sum   'La8 Al12 O30'
_cell_volume   691.73867050
_cell_formula_units_Z   2
loop_
 _symmetry_equiv_pos_site_id
 _symmetry_equiv_pos_as_xyz
  1  'x, y, z'
loop_
 _atom_site_type_symbol
 _atom_site_label
 _atom_site_symmetry_multiplicity
 _atom_site_fract_x
 _atom_site_fract_y
 _atom_site_fract_z
 _atom_site_occupancy
  La  La0  1  0.330536  0.728563  0.799629  1
  La  La1  1  0.351916  0.710670  0.602627  1
  La  La2  1  0.952888  0.721776  0.298852  1
  La  La3  1  0.929775  0.712876  0.101923  1
  La  La4  1  0.065971  0.292196  0.897455  1
  La  La5  1  0.051761  0.277387  0.699909  1
  La  La6  1  0.648632  0.286234  0.398003  1
  La  La7  1  0.675917  0.273018  0.200961  1
  Al  Al8  1  0.787447  0.833650  0.914267  1
  Al  Al9  1  0.809539  0.842066  0.695098  1
  Al  Al10  1  0.344317  0.675544  0.975268  1
  Al  Al11  1  0.381505  0.829459  0.414714  1
  Al  Al12  1  0.352989  0.840294  0.194781  1
  Al  Al13  1  0.981133  0.673247  0.474331  1
  Al  Al14  1  0.013578  0.326227  0.525799  1
  Al  Al15  1  0.650989  0.160144  0.804726  1
  Al  Al16  1  0.614034  0.169333  0.585936  1
  Al  Al17  1  0.657199  0.326340  0.026064  1
  Al  Al18  1  0.195069  0.156092  0.305136  1
  Al  Al19  1  0.214150  0.169695  0.085760  1
  O  O20  1  0.869091  0.940490  0.620058  1
  O  O21  1  0.430746  0.847585  0.921788  1
  O  O22  1  0.459660  0.848726  0.697617  1
  O  O23  1  0.974145  0.763072  0.987940  1
  O  O24  1  0.194612  0.937761  0.119635  1
  O  O25  1  0.722638  0.845856  0.421264  1
  O  O26  1  0.968740  0.642354  0.861475  1
  O  O27  1  0.693635  0.853198  0.197338  1
  O  O28  1  0.263828  0.760175  0.488291  1
  O  O29  1  0.085241  0.601196  0.707769  1
  O  O30  1  0.906336  0.586304  0.552338  1
  O  O31  1  0.490521  0.415026  0.948892  1
  O  O32  1  0.387451  0.635871  0.363062  1
  O  O33  1  0.318411  0.599311  0.209252  1
  O  O34  1  0.687234  0.401283  0.792260  1
  O  O35  1  0.604650  0.360481  0.638780  1
  O  O36  1  0.507892  0.586547  0.052991  1
  O  O37  1  0.086479  0.412771  0.447937  1
  O  O38  1  0.918550  0.396564  0.291041  1
  O  O39  1  0.728412  0.241085  0.512536  1
  O  O40  1  0.309708  0.148764  0.801547  1
  O  O41  1  0.028932  0.361460  0.138046  1
  O  O42  1  0.271534  0.154434  0.579291  1
  O  O43  1  0.806768  0.065043  0.880193  1
  O  O44  1  0.880460  0.999778  0.750292  1
  O  O45  1  0.026601  0.242851  0.012210  1
  O  O46  1  0.545897  0.147564  0.302578  1
  O  O47  1  0.572588  0.151154  0.078618  1
  O  O48  1  0.131481  0.059924  0.380254  1
  O  O49  1  0.127122  0.997010  0.250192  1
