# generated using pymatgen
data_NaVPCO7
_symmetry_space_group_name_H-M   'P 1'
_cell_length_a   9.10800791
_cell_length_b   6.32957322
_cell_length_c   5.29342022
_cell_angle_alpha   90.00000000
_cell_angle_beta   87.34683791
_cell_angle_gamma   90.00000000
_symmetry_Int_Tables_number   1
_chemical_formula_structural   NaVPCO7
_chemical_formula_sum   'Na2 V2 P2 C2 O14'
_cell_volume   304.83751134
_cell_formula_units_Z   2
loop_
 _symmetry_equiv_pos_site_id
 _symmetry_equiv_pos_as_xyz
  1  'x, y, z'
loop_
 _atom_site_type_symbol
 _atom_site_label
 _atom_site_symmetry_multiplicity
 _atom_site_fract_x
 _atom_site_fract_y
 _atom_site_fract_z
 _atom_site_occupancy
  Na  Na0  1  0.232788  0.477956  0.239394  1
  Na  Na1  1  0.767212  0.977956  0.760606  1
  V  V2  1  0.334585  0.770301  0.788318  1
  V  V3  1  0.665415  0.270301  0.211682  1
  P  P4  1  0.436665  0.260859  0.718679  1
  P  P5  1  0.563335  0.760859  0.281321  1
  C  C6  1  0.075850  0.741316  0.724090  1
  C  C7  1  0.924150  0.241316  0.275910  1
  O  O8  1  0.055949  0.242507  0.308362  1
  O  O9  1  0.138719  0.744572  0.949260  1
  O  O10  1  0.183087  0.739327  0.540373  1
  O  O11  1  0.338618  0.061136  0.780788  1
  O  O12  1  0.339094  0.451591  0.794388  1
  O  O13  1  0.425738  0.745977  0.125639  1
  O  O14  1  0.475962  0.262307  0.431389  1
  O  O15  1  0.524038  0.762307  0.568611  1
  O  O16  1  0.574262  0.245977  0.874361  1
  O  O17  1  0.660906  0.951591  0.205612  1
  O  O18  1  0.661382  0.561136  0.219212  1
  O  O19  1  0.816913  0.239327  0.459627  1
  O  O20  1  0.861281  0.244572  0.050740  1
  O  O21  1  0.944051  0.742507  0.691638  1
