# generated using pymatgen
data_NaNdPCO7
_symmetry_space_group_name_H-M   'P 1'
_cell_length_a   9.74337464
_cell_length_b   7.16264279
_cell_length_c   5.29800478
_cell_angle_alpha   90.00000000
_cell_angle_beta   89.50475026
_cell_angle_gamma   90.00000000
_symmetry_Int_Tables_number   1
_chemical_formula_structural   NaNdPCO7
_chemical_formula_sum   'Na2 Nd2 P2 C2 O14'
_cell_volume   369.72499907
_cell_formula_units_Z   2
loop_
 _symmetry_equiv_pos_site_id
 _symmetry_equiv_pos_as_xyz
  1  'x, y, z'
loop_
 _atom_site_type_symbol
 _atom_site_label
 _atom_site_symmetry_multiplicity
 _atom_site_fract_x
 _atom_site_fract_y
 _atom_site_fract_z
 _atom_site_occupancy
  Na  Na0  1  0.230823  0.464029  0.229472  1
  Na  Na1  1  0.769177  0.964029  0.770528  1
  Nd  Nd2  1  0.373367  0.778792  0.779505  1
  Nd  Nd3  1  0.626633  0.278792  0.220495  1
  P  P4  1  0.416465  0.271673  0.715594  1
  P  P5  1  0.583535  0.771673  0.284406  1
  C  C6  1  0.070849  0.721351  0.723958  1
  C  C7  1  0.929151  0.221351  0.276042  1
  O  O8  1  0.054465  0.261130  0.311513  1
  O  O9  1  0.119046  0.711128  0.949382  1
  O  O10  1  0.156751  0.697109  0.540011  1
  O  O11  1  0.335889  0.094572  0.788278  1
  O  O12  1  0.355839  0.445960  0.847166  1
  O  O13  1  0.428217  0.750842  0.210147  1
  O  O14  1  0.415800  0.301265  0.423597  1
  O  O15  1  0.584200  0.801265  0.576403  1
  O  O16  1  0.571783  0.250842  0.789853  1
  O  O17  1  0.644161  0.945960  0.152835  1
  O  O18  1  0.664111  0.594572  0.211722  1
  O  O19  1  0.843249  0.197109  0.459989  1
  O  O20  1  0.880954  0.211128  0.050618  1
  O  O21  1  0.945535  0.761130  0.688487  1
