# generated using pymatgen
data_Li3V3P8O29
_symmetry_space_group_name_H-M   'P 1'
_cell_length_a   9.78809037
_cell_length_b   9.72834789
_cell_length_c   14.24775491
_cell_angle_alpha   89.70111017
_cell_angle_beta   90.37120850
_cell_angle_gamma   59.87668846
_symmetry_Int_Tables_number   1
_chemical_formula_structural   Li3V3P8O29
_chemical_formula_sum   'Li6 V6 P16 O58'
_cell_volume   1173.39225670
_cell_formula_units_Z   2
loop_
 _symmetry_equiv_pos_site_id
 _symmetry_equiv_pos_as_xyz
  1  'x, y, z'
loop_
 _atom_site_type_symbol
 _atom_site_label
 _atom_site_symmetry_multiplicity
 _atom_site_fract_x
 _atom_site_fract_y
 _atom_site_fract_z
 _atom_site_occupancy
  Li  Li0  1  0.665913  0.676767  0.901196  1
  Li  Li1  1  0.670026  0.235957  0.437320  1
  Li  Li2  1  0.329055  0.766884  0.553270  1
  Li  Li3  1  0.093032  0.227831  0.947484  1
  Li  Li4  1  0.986400  0.956082  0.009641  1
  Li  Li5  1  0.003389  0.001412  0.484675  1
  V  V6  1  0.563449  0.438138  0.241970  1
  V  V7  1  0.430639  0.565340  0.756646  1
  V  V8  1  0.569040  0.000726  0.748829  1
  V  V9  1  0.436483  0.002807  0.249264  1
  V  V10  1  0.002659  0.562982  0.255992  1
  V  V11  1  0.999210  0.435738  0.741087  1
  P  P12  1  0.915055  0.776788  0.841635  1
  P  P13  1  0.780129  0.916370  0.339971  1
  P  P14  1  0.914304  0.300858  0.339986  1
  P  P15  1  0.669633  0.669168  0.133895  1
  P  P16  1  0.658144  0.670549  0.632165  1
  P  P17  1  0.783207  0.308033  0.839187  1
  P  P18  1  0.685735  0.230250  0.657753  1
  P  P19  1  0.311516  0.913974  0.843542  1
  P  P20  1  0.694535  0.082551  0.154790  1
  P  P21  1  0.314875  0.775227  0.340510  1
  P  P22  1  0.213091  0.698657  0.160448  1
  P  P23  1  0.339913  0.331744  0.368091  1
  P  P24  1  0.329762  0.329166  0.868410  1
  P  P25  1  0.082509  0.700051  0.657503  1
  P  P26  1  0.225902  0.080281  0.658227  1
  P  P27  1  0.086600  0.226246  0.159042  1
  O  O28  1  0.008964  0.792701  0.571160  1
  O  O29  1  0.913087  0.739381  0.336465  1
  O  O30  1  0.787283  0.013232  0.069659  1
  O  O31  1  0.737967  0.913853  0.831948  1
  O  O32  1  0.907030  0.621773  0.827335  1
  O  O33  1  0.817542  0.661136  0.179928  1
  O  O34  1  0.924587  0.455064  0.332497  1
  O  O35  1  0.017085  0.220347  0.067371  1
  O  O36  1  0.921472  0.345776  0.835258  1
  O  O37  1  0.663408  0.813438  0.679283  1
  O  O38  1  0.619379  0.923026  0.329863  1
  O  O39  1  0.810527  0.520541  0.676392  1
  O  O40  1  0.671655  0.666111  0.029388  1
  O  O41  1  0.652416  0.672791  0.528380  1
  O  O42  1  0.665083  0.519262  0.173842  1
  O  O43  1  0.476368  0.899111  0.832315  1
  O  O44  1  0.523315  0.815272  0.175951  1
  O  O45  1  0.736841  0.346073  0.332967  1
  O  O46  1  0.803380  0.213586  0.741545  1
  O  O47  1  0.755036  0.224933  0.564728  1
  O  O48  1  0.795440  0.211365  0.921863  1
  O  O49  1  0.625896  0.474154  0.828274  1
  O  O50  1  0.510494  0.670449  0.675462  1
  O  O51  1  0.648708  0.260948  0.168198  1
  O  O52  1  0.468671  0.615681  0.324854  1
  O  O53  1  0.352560  0.911534  0.329040  1
  O  O54  1  0.803017  0.994359  0.245569  1
  O  O55  1  0.797238  0.004309  0.420616  1
  O  O56  1  0.210691  0.997098  0.575165  1
  O  O57  1  0.656705  0.087379  0.671537  1
  O  O58  1  0.528986  0.384748  0.679252  1
  O  O59  1  0.344714  0.738600  0.837294  1
  O  O60  1  0.487415  0.332804  0.326220  1
  O  O61  1  0.377224  0.541144  0.170275  1
  O  O62  1  0.190600  0.797675  0.076657  1
  O  O63  1  0.235152  0.788256  0.431704  1
  O  O64  1  0.197539  0.796751  0.255530  1
  O  O65  1  0.259258  0.658333  0.667328  1
  O  O66  1  0.472237  0.182208  0.820862  1
  O  O67  1  0.539808  0.077656  0.167637  1
  O  O68  1  0.338067  0.476141  0.825633  1
  O  O69  1  0.328458  0.324670  0.971931  1
  O  O70  1  0.346596  0.324572  0.472143  1
  O  O71  1  0.188602  0.480161  0.325678  1
  O  O72  1  0.383756  0.077892  0.671641  1
  O  O73  1  0.339766  0.186478  0.319446  1
  O  O74  1  0.083059  0.653153  0.171674  1
  O  O75  1  0.999535  0.799004  0.750405  1
  O  O76  1  0.991283  0.791150  0.927092  1
  O  O77  1  0.079278  0.540847  0.671866  1
  O  O78  1  0.179295  0.337615  0.822923  1
  O  O79  1  0.086404  0.383161  0.177401  1
  O  O80  1  0.259964  0.087093  0.170275  1
  O  O81  1  0.216363  0.002619  0.925461  1
  O  O82  1  0.206527  0.996437  0.750639  1
  O  O83  1  0.088120  0.256991  0.665735  1
  O  O84  1  0.990475  0.195180  0.422339  1
  O  O85  1  0.990996  0.204769  0.243513  1
