# generated using pymatgen
data_ZrCd2H12(O3F4)2
_symmetry_space_group_name_H-M   'P 1'
_cell_length_a   7.16218590
_cell_length_b   13.84332274
_cell_length_c   7.16218590
_cell_angle_alpha   65.89218809
_cell_angle_beta   108.39933145
_cell_angle_gamma   114.10781191
_symmetry_Int_Tables_number   1
_chemical_formula_structural   ZrCd2H12(O3F4)2
_chemical_formula_sum   'Zr2 Cd4 H24 O12 F16'
_cell_volume   582.13398179
_cell_formula_units_Z   2
loop_
 _symmetry_equiv_pos_site_id
 _symmetry_equiv_pos_as_xyz
  1  'x, y, z'
loop_
 _atom_site_type_symbol
 _atom_site_label
 _atom_site_symmetry_multiplicity
 _atom_site_fract_x
 _atom_site_fract_y
 _atom_site_fract_z
 _atom_site_occupancy
  Zr  Zr0  1  0.514764  0.750000  0.514764  1
  Zr  Zr1  1  0.485236  0.250000  0.485236  1
  Cd  Cd2  1  0.080706  0.788688  0.647123  1
  Cd  Cd3  1  0.647123  0.711312  0.080706  1
  Cd  Cd4  1  0.919294  0.211312  0.352877  1
  Cd  Cd5  1  0.352877  0.288688  0.919294  1
  H  H6  1  0.995477  0.642221  0.318857  1
  H  H7  1  0.318857  0.857779  0.995477  1
  H  H8  1  0.004523  0.357779  0.681143  1
  H  H9  1  0.681143  0.142221  0.004523  1
  H  H10  1  0.798323  0.533052  0.311946  1
  H  H11  1  0.311946  0.966948  0.798323  1
  H  H12  1  0.201677  0.466948  0.688054  1
  H  H13  1  0.688054  0.033052  0.201677  1
  H  H14  1  0.991693  0.896492  0.170168  1
  H  H15  1  0.170168  0.603508  0.991693  1
  H  H16  1  0.008307  0.103508  0.829832  1
  H  H17  1  0.829832  0.396492  0.008307  1
  H  H18  1  0.002047  0.889258  0.961165  1
  H  H19  1  0.961165  0.610742  0.002047  1
  H  H20  1  -0.002047  0.110742  0.038835  1
  H  H21  1  0.038835  0.389258  -0.002047  1
  H  H22  1  0.320862  0.952018  0.365619  1
  H  H23  1  0.365619  0.547982  0.320862  1
  H  H24  1  0.679138  0.047982  0.634381  1
  H  H25  1  0.634381  0.452018  0.679138  1
  H  H26  1  0.193883  0.019782  0.384732  1
  H  H27  1  0.384732  0.480218  0.193883  1
  H  H28  1  0.806117  0.980218  0.615268  1
  H  H29  1  0.615268  0.519782  0.806117  1
  O  O30  1  0.877740  0.606650  0.223480  1
  O  O31  1  0.223480  0.893350  0.877740  1
  O  O32  1  0.122260  0.393350  0.776520  1
  O  O33  1  0.776520  0.106650  0.122260  1
  O  O34  1  0.046700  0.625343  0.902800  1
  O  O35  1  0.902800  0.874657  0.046700  1
  O  O36  1  0.953300  0.374657  0.097200  1
  O  O37  1  0.097200  0.125343  0.953300  1
  O  O38  1  0.181343  0.947495  0.375368  1
  O  O39  1  0.375368  0.552505  0.181343  1
  O  O40  1  0.818657  0.052505  0.624632  1
  O  O41  1  0.624632  0.447495  0.818657  1
  F  F42  1  0.814403  0.857477  0.618781  1
  F  F43  1  0.618781  0.642523  0.814403  1
  F  F44  1  0.185597  0.142523  0.381219  1
  F  F45  1  0.381219  0.357477  0.185597  1
  F  F46  1  0.750939  0.714320  0.452358  1
  F  F47  1  0.452358  0.785680  0.750939  1
  F  F48  1  0.249061  0.285680  0.547642  1
  F  F49  1  0.547642  0.214320  0.249061  1
  F  F50  1  0.187993  0.726624  0.450176  1
  F  F51  1  0.450176  0.773376  0.187993  1
  F  F52  1  0.812007  0.273376  0.549824  1
  F  F53  1  0.549824  0.226624  0.812007  1
  F  F54  1  0.353680  0.580650  0.516528  1
  F  F55  1  0.516528  0.919350  0.353680  1
  F  F56  1  0.646320  0.419350  0.483472  1
  F  F57  1  0.483472  0.080650  0.646320  1
