# generated using pymatgen
data_Li3Fe4(BO3)4
_symmetry_space_group_name_H-M   'P 1'
_cell_length_a   5.24471855
_cell_length_b   9.01189844
_cell_length_c   11.39454495
_cell_angle_alpha   67.33460661
_cell_angle_beta   77.22846025
_cell_angle_gamma   89.66994885
_symmetry_Int_Tables_number   1
_chemical_formula_structural   Li3Fe4(BO3)4
_chemical_formula_sum   'Li6 Fe8 B8 O24'
_cell_volume   482.78241097
_cell_formula_units_Z   2
loop_
 _symmetry_equiv_pos_site_id
 _symmetry_equiv_pos_as_xyz
  1  'x, y, z'
loop_
 _atom_site_type_symbol
 _atom_site_label
 _atom_site_symmetry_multiplicity
 _atom_site_fract_x
 _atom_site_fract_y
 _atom_site_fract_z
 _atom_site_occupancy
  Li  Li0  1  0.970376  0.962371  0.414732  1
  Li  Li1  1  0.707392  0.723329  0.903160  1
  Li  Li2  1  0.515993  0.489997  0.666352  1
  Li  Li3  1  0.740205  0.759984  0.159159  1
  Li  Li4  1  0.471700  0.461823  0.410852  1
  Li  Li5  1  0.230630  0.254415  0.162832  1
  Fe  Fe6  1  0.986458  0.647038  0.379769  1
  Fe  Fe7  1  0.737107  0.069545  0.880355  1
  Fe  Fe8  1  0.505988  0.849618  0.631731  1
  Fe  Fe9  1  0.754964  0.432675  0.131432  1
  Fe  Fe10  1  0.225470  0.546499  0.887843  1
  Fe  Fe11  1  0.473229  0.150018  0.381044  1
  Fe  Fe12  1  0.035323  0.336507  0.634532  1
  Fe  Fe13  1  0.254754  0.943267  0.123620  1
  B  B14  1  0.980092  0.313947  0.375185  1
  B  B15  1  0.734634  0.399931  0.874066  1
  B  B16  1  0.534798  0.186423  0.629953  1
  B  B17  1  0.761837  0.106085  0.127822  1
  B  B18  1  0.474376  0.810209  0.381634  1
  B  B19  1  0.235876  0.894612  0.876100  1
  B  B20  1  0.010013  0.681863  0.626451  1
  B  B21  1  0.267242  0.607069  0.126418  1
  O  O22  1  0.970375  0.898033  0.883793  1
  O  O23  1  0.887001  0.281150  0.850895  1
  O  O24  1  0.835312  0.509724  0.914932  1
  O  O25  1  0.870532  0.813557  0.623882  1
  O  O26  1  0.905542  0.563454  0.597231  1
  O  O27  1  0.746824  0.156652  0.687081  1
  O  O28  1  0.736422  0.342533  0.343779  1
  O  O29  1  0.488426  0.408138  0.853501  1
  O  O30  1  0.382412  0.788127  0.829920  1
  O  O31  1  0.584174  0.912873  0.428325  1
  O  O32  1  0.607012  0.687135  0.361658  1
  O  O33  1  0.367394  0.989495  0.918423  1
  O  O34  1  0.661490  0.997141  0.084193  1
  O  O35  1  0.421422  0.330193  0.606666  1
  O  O36  1  0.442248  0.073674  0.590122  1
  O  O37  1  0.595545  0.210383  0.164667  1
  O  O38  1  0.535633  0.626252  0.110734  1
  O  O39  1  0.258599  0.669866  0.655145  1
  O  O40  1  0.230160  0.838541  0.351442  1
  O  O41  1  0.093842  0.416190  0.417970  1
  O  O42  1  0.106101  0.184272  0.362548  1
  O  O43  1  0.158912  0.488295  0.096633  1
  O  O44  1  0.104951  0.709812  0.166804  1
  O  O45  1  0.015484  0.106617  0.137654  1
