# generated using pymatgen
data_Na4Li3(FeO4)2
_symmetry_space_group_name_H-M   'P 1'
_cell_length_a   8.30348125
_cell_length_b   8.07395304
_cell_length_c   6.44484320
_cell_angle_alpha   90.00000000
_cell_angle_beta   92.30497998
_cell_angle_gamma   90.00000000
_symmetry_Int_Tables_number   1
_chemical_formula_structural   Na4Li3(FeO4)2
_chemical_formula_sum   'Na8 Li6 Fe4 O16'
_cell_volume   431.72505755
_cell_formula_units_Z   2
loop_
 _symmetry_equiv_pos_site_id
 _symmetry_equiv_pos_as_xyz
  1  'x, y, z'
loop_
 _atom_site_type_symbol
 _atom_site_label
 _atom_site_symmetry_multiplicity
 _atom_site_fract_x
 _atom_site_fract_y
 _atom_site_fract_z
 _atom_site_occupancy
  Na  Na0  1  0.007428  0.506307  0.259335  1
  Na  Na1  1  0.009391  0.504934  0.740453  1
  Na  Na2  1  0.237088  0.792384  0.983866  1
  Na  Na3  1  0.250311  0.220474  0.533259  1
  Na  Na4  1  0.507428  0.993693  0.759335  1
  Na  Na5  1  0.509391  0.995066  0.240453  1
  Na  Na6  1  0.737088  0.707616  0.483866  1
  Na  Na7  1  0.750311  0.279526  0.033259  1
  Li  Li8  1  0.075044  0.851194  0.500795  1
  Li  Li9  1  0.355028  0.484311  0.253917  1
  Li  Li10  1  0.415058  0.297245  0.977246  1
  Li  Li11  1  0.575044  0.648806  0.000795  1
  Li  Li12  1  0.855028  0.015689  0.753917  1
  Li  Li13  1  0.915058  0.202755  0.477246  1
  Fe  Fe14  1  0.127279  0.213088  0.003008  1
  Fe  Fe15  1  0.363904  0.719062  0.505342  1
  Fe  Fe16  1  0.627279  0.286912  0.503008  1
  Fe  Fe17  1  0.863904  0.780938  0.005342  1
  O  O18  1  0.032571  0.214850  0.239661  1
  O  O19  1  0.014565  0.197126  0.759592  1
  O  O20  1  0.228244  0.543838  0.491129  1
  O  O21  1  0.212525  0.418964  0.012371  1
  O  O22  1  0.301157  0.932605  0.498140  1
  O  O23  1  0.294119  0.081299  0.978957  1
  O  O24  1  0.464449  0.712975  0.753087  1
  O  O25  1  0.459520  0.701065  0.252659  1
  O  O26  1  0.514565  0.302874  0.259592  1
  O  O27  1  0.532571  0.285150  0.739661  1
  O  O28  1  0.728244  0.956162  0.991129  1
  O  O29  1  0.712525  0.081036  0.512371  1
  O  O30  1  0.801157  0.567395  0.998140  1
  O  O31  1  0.794119  0.418701  0.478957  1
  O  O32  1  0.964449  0.787025  0.253087  1
  O  O33  1  0.959520  0.798935  0.752659  1
