# generated using pymatgen
data_Ti2N2O
_symmetry_space_group_name_H-M   'P 1'
_cell_length_a   8.22249641
_cell_length_b   8.21096376
_cell_length_c   8.22914801
_cell_angle_alpha   109.58299554
_cell_angle_beta   109.40814493
_cell_angle_gamma   109.41158192
_symmetry_Int_Tables_number   1
_chemical_formula_structural   Ti2N2O
_chemical_formula_sum   'Ti16 N16 O8'
_cell_volume   427.74844378
_cell_formula_units_Z   8
loop_
 _symmetry_equiv_pos_site_id
 _symmetry_equiv_pos_as_xyz
  1  'x, y, z'
loop_
 _atom_site_type_symbol
 _atom_site_label
 _atom_site_symmetry_multiplicity
 _atom_site_fract_x
 _atom_site_fract_y
 _atom_site_fract_z
 _atom_site_occupancy
  Ti  Ti0  1  0.953193  0.242262  0.199838  1
  Ti  Ti1  1  0.510041  0.011329  0.999629  1
  Ti  Ti2  1  0.798122  0.043240  0.760058  1
  Ti  Ti3  1  0.695209  0.456495  0.236357  1
  Ti  Ti4  1  0.746121  0.289335  0.531162  1
  Ti  Ti5  1  0.751781  0.784026  0.040572  1
  Ti  Ti6  1  0.007662  0.509782  0.995038  1
  Ti  Ti7  1  0.006103  0.997115  0.509630  1
  Ti  Ti8  1  0.498615  0.497683  0.502461  1
  Ti  Ti9  1  0.453135  0.253844  0.708286  1
  Ti  Ti10  1  0.537097  0.739987  0.296849  1
  Ti  Ti11  1  0.257251  0.715931  0.463161  1
  Ti  Ti12  1  0.244704  0.210753  0.951548  1
  Ti  Ti13  1  0.293558  0.549156  0.754898  1
  Ti  Ti14  1  0.216461  0.955054  0.258616  1
  Ti  Ti15  1  0.046941  0.752525  0.793784  1
  N  N16  1  0.733148  0.225882  0.275602  1
  N  N17  1  0.461851  0.223731  0.447575  1
  N  N18  1  0.773302  0.724612  0.261433  1
  N  N19  1  0.451275  0.459763  0.227332  1
  N  N20  1  0.047585  0.273357  0.012177  1
  N  N21  1  0.512341  0.235660  0.958548  1
  N  N22  1  0.987957  0.946482  0.721303  1
  N  N23  1  0.275640  0.734549  0.222421  1
  N  N24  1  0.952689  0.727493  0.994247  1
  N  N25  1  0.547479  0.541643  0.773979  1
  N  N26  1  0.222613  0.274418  0.734060  1
  N  N27  1  0.537485  0.774091  0.549151  1
  N  N28  1  0.037118  0.488117  0.763337  1
  N  N29  1  0.723481  0.989334  0.950712  1
  N  N30  1  0.265135  0.773304  0.725977  1
  N  N31  1  0.230053  0.957791  0.505985  1
  O  O32  1  0.766485  0.043141  0.495091  1
  O  O33  1  0.964985  0.508555  0.240662  1
  O  O34  1  0.272563  0.008255  0.046203  1
  O  O35  1  0.010517  0.055789  0.276610  1
  O  O36  1  0.724841  0.263216  0.773281  1
  O  O37  1  0.773752  0.551190  0.544785  1
  O  O38  1  0.486855  0.763437  0.039639  1
  O  O39  1  0.224854  0.447669  0.458004  1
