# generated using pymatgen
data_Cu2H3NO6
_symmetry_space_group_name_H-M   'P 1'
_cell_length_a   6.12857016
_cell_length_b   13.79208295
_cell_length_c   5.66523376
_cell_angle_alpha   89.99748341
_cell_angle_beta   89.99883618
_cell_angle_gamma   89.99723538
_symmetry_Int_Tables_number   1
_chemical_formula_structural   Cu2H3NO6
_chemical_formula_sum   'Cu8 H12 N4 O24'
_cell_volume   478.85812032
_cell_formula_units_Z   4
loop_
 _symmetry_equiv_pos_site_id
 _symmetry_equiv_pos_as_xyz
  1  'x, y, z'
loop_
 _atom_site_type_symbol
 _atom_site_label
 _atom_site_symmetry_multiplicity
 _atom_site_fract_x
 _atom_site_fract_y
 _atom_site_fract_z
 _atom_site_occupancy
  Cu  Cu0  1  0.013705  0.748502  0.508587  1
  Cu  Cu1  1  0.228122  0.252484  0.498736  1
  Cu  Cu2  1  0.271434  0.747498  0.998858  1
  Cu  Cu3  1  0.486228  0.251575  0.008841  1
  Cu  Cu4  1  0.513705  0.751598  0.490990  1
  Cu  Cu5  1  0.728082  0.247517  0.501164  1
  Cu  Cu6  1  0.772269  0.752498  0.001342  1
  Cu  Cu7  1  0.986244  0.248399  0.991235  1
  H  H8  1  0.008902  0.610209  0.950548  1
  H  H9  1  0.277796  0.882073  0.678771  1
  H  H10  1  0.251755  0.381170  0.831997  1
  H  H11  1  0.248280  0.618795  0.331911  1
  H  H12  1  0.222186  0.117958  0.178649  1
  H  H13  1  0.491072  0.389774  0.450620  1
  H  H14  1  0.508942  0.889791  0.049464  1
  H  H15  1  0.777857  0.617938  0.321234  1
  H  H16  1  0.751685  0.118831  0.168003  1
  H  H17  1  0.748374  0.881191  0.668126  1
  H  H18  1  0.722112  0.382048  0.821372  1
  H  H19  1  0.991086  0.110228  0.549400  1
  N  N20  1  0.996177  0.954490  0.202397  1
  N  N21  1  0.503782  0.045499  0.702417  1
  N  N22  1  0.496169  0.545527  0.797650  1
  N  N23  1  0.003790  0.454498  0.297604  1
  O  O24  1  0.017315  0.862230  0.186939  1
  O  O25  1  0.017825  0.676736  0.888631  1
  O  O26  1  0.103918  0.999003  0.359289  1
  O  O27  1  0.128962  0.497835  0.438121  1
  O  O28  1  0.231585  0.189220  0.176804  1
  O  O29  1  0.240627  0.309710  0.825275  1
  O  O30  1  0.260208  0.690288  0.326387  1
  O  O31  1  0.269199  0.810725  0.675722  1
  O  O32  1  0.371031  0.502156  0.938130  1
  O  O33  1  0.396067  0.001005  0.859235  1
  O  O34  1  0.482148  0.323217  0.388831  1
  O  O35  1  0.482723  0.137775  0.686884  1
  O  O36  1  0.517292  0.637764  0.813101  1
  O  O37  1  0.517875  0.823283  0.111305  1
  O  O38  1  0.603928  0.501006  0.640728  1
  O  O39  1  0.628967  0.002156  0.561877  1
  O  O40  1  0.731250  0.310773  0.823258  1
  O  O41  1  0.740301  0.190278  0.174739  1
  O  O42  1  0.758999  0.809626  0.673766  1
  O  O43  1  0.767997  0.689259  0.324159  1
  O  O44  1  0.871061  0.997841  0.061858  1
  O  O45  1  0.896081  0.499007  0.140748  1
  O  O46  1  0.982191  0.176791  0.611196  1
  O  O47  1  0.982694  0.362226  0.313102  1
