# generated using pymatgen
data_Li2V3CoO8
_symmetry_space_group_name_H-M   'P 1'
_cell_length_a   8.43632049
_cell_length_b   8.39220035
_cell_length_c   8.40377276
_cell_angle_alpha   90.05831605
_cell_angle_beta   90.01007159
_cell_angle_gamma   90.00069645
_symmetry_Int_Tables_number   1
_chemical_formula_structural   Li2V3CoO8
_chemical_formula_sum   'Li8 V12 Co4 O32'
_cell_volume   594.98084220
_cell_formula_units_Z   4
loop_
 _symmetry_equiv_pos_site_id
 _symmetry_equiv_pos_as_xyz
  1  'x, y, z'
loop_
 _atom_site_type_symbol
 _atom_site_label
 _atom_site_symmetry_multiplicity
 _atom_site_fract_x
 _atom_site_fract_y
 _atom_site_fract_z
 _atom_site_occupancy
  Li  Li0  1  0.125095  0.874592  0.374985  1
  Li  Li1  1  0.252607  0.752465  0.747344  1
  Li  Li2  1  0.250612  0.249156  0.251779  1
  Li  Li3  1  0.374341  0.126068  0.875285  1
  Li  Li4  1  0.626813  0.625015  0.625617  1
  Li  Li5  1  0.749717  0.748866  0.249612  1
  Li  Li6  1  0.749020  0.248492  0.749338  1
  Li  Li7  1  0.871830  0.374926  0.128109  1
  V  V8  1  0.120652  0.628834  0.124645  1
  V  V9  1  0.126655  0.378756  0.881117  1
  V  V10  1  0.123142  0.122892  0.624920  1
  V  V11  1  0.377741  0.878051  0.121077  1
  V  V12  1  0.377711  0.623915  0.376833  1
  V  V13  1  0.378405  0.378227  0.624849  1
  V  V14  1  0.623208  0.872819  0.875090  1
  V  V15  1  0.622788  0.123197  0.120873  1
  V  V16  1  0.623147  0.377296  0.377526  1
  V  V17  1  0.877439  0.617189  0.876550  1
  V  V18  1  0.878633  0.874467  0.621110  1
  V  V19  1  0.877959  0.122751  0.376560  1
  Co  Co20  1  0.997637  0.500264  0.499114  1
  Co  Co21  1  0.501018  0.498213  0.000925  1
  Co  Co22  1  0.499035  0.999897  0.500353  1
  Co  Co23  1  0.998346  0.001016  0.000504  1
  O  O24  1  0.104603  0.134215  0.399356  1
  O  O25  1  0.102000  0.893881  0.631235  1
  O  O26  1  0.113757  0.616345  0.883607  1
  O  O27  1  0.133832  0.394350  0.098815  1
  O  O28  1  0.121060  0.143051  0.856894  1
  O  O29  1  0.134393  0.367884  0.641997  1
  O  O30  1  0.143865  0.617688  0.355647  1
  O  O31  1  0.142906  0.858220  0.120049  1
  O  O32  1  0.354544  0.143560  0.618096  1
  O  O33  1  0.362621  0.377025  0.856226  1
  O  O34  1  0.363664  0.635498  0.135146  1
  O  O35  1  0.379394  0.855901  0.357484  1
  O  O36  1  0.368525  0.602332  0.605535  1
  O  O37  1  0.385602  0.384916  0.385194  1
  O  O38  1  0.397386  0.104556  0.134763  1
  O  O39  1  0.394538  0.868964  0.897184  1
  O  O40  1  0.605007  0.366061  0.601935  1
  O  O41  1  0.601215  0.605102  0.366627  1
  O  O42  1  0.613759  0.884328  0.114842  1
  O  O43  1  0.634371  0.101460  0.896814  1
  O  O44  1  0.621517  0.356033  0.141562  1
  O  O45  1  0.636139  0.135347  0.363083  1
  O  O46  1  0.643125  0.883323  0.644984  1
  O  O47  1  0.641881  0.643683  0.878939  1
  O  O48  1  0.855153  0.358138  0.379579  1
  O  O49  1  0.859440  0.121284  0.144209  1
  O  O50  1  0.866274  0.858639  0.864584  1
  O  O51  1  0.875484  0.644672  0.635671  1
  O  O52  1  0.866282  0.898105  0.394091  1
  O  O53  1  0.886119  0.115071  0.615348  1
  O  O54  1  0.889719  0.400417  0.868214  1
  O  O55  1  0.898272  0.632662  0.108255  1
