# generated using pymatgen
data_Mn3OF5
_symmetry_space_group_name_H-M   'P 1'
_cell_length_a   4.85541984
_cell_length_b   8.11396008
_cell_length_c   5.90200133
_cell_angle_alpha   92.14356290
_cell_angle_beta   90.00000000
_cell_angle_gamma   90.00000000
_symmetry_Int_Tables_number   1
_chemical_formula_structural   Mn3OF5
_chemical_formula_sum   'Mn6 O2 F10'
_cell_volume   232.35656737
_cell_formula_units_Z   2
loop_
 _symmetry_equiv_pos_site_id
 _symmetry_equiv_pos_as_xyz
  1  'x, y, z'
loop_
 _atom_site_type_symbol
 _atom_site_label
 _atom_site_symmetry_multiplicity
 _atom_site_fract_x
 _atom_site_fract_y
 _atom_site_fract_z
 _atom_site_occupancy
  Mn  Mn0  1  0.525089  0.669331  0.157983  1
  Mn  Mn1  1  0.483679  0.013274  0.497095  1
  Mn  Mn2  1  0.483116  0.328054  0.817921  1
  Mn  Mn3  1  0.983116  0.671946  0.682079  1
  Mn  Mn4  1  0.025089  0.330669  0.342017  1
  Mn  Mn5  1  0.983679  0.986726  0.002905  1
  O  O6  1  0.807702  0.778975  0.973775  1
  O  O7  1  0.307702  0.221025  0.526225  1
  F  F8  1  0.794567  0.099576  0.301247  1
  F  F9  1  0.811751  0.434835  0.626618  1
  F  F10  1  0.682507  0.785725  0.466805  1
  F  F11  1  0.703126  0.096003  0.799738  1
  F  F12  1  0.708462  0.428764  0.129839  1
  F  F13  1  0.311751  0.565165  0.873382  1
  F  F14  1  0.294567  0.900424  0.198753  1
  F  F15  1  0.182507  0.214275  0.033195  1
  F  F16  1  0.203126  0.903997  0.700262  1
  F  F17  1  0.208462  0.571236  0.370161  1
