# generated using pymatgen
data_Sm2Ge2O7
_symmetry_space_group_name_H-M   'P 1'
_cell_length_a   12.58647148
_cell_length_b   6.95693784
_cell_length_c   6.93726096
_cell_angle_alpha   91.82011171
_cell_angle_beta   91.58688290
_cell_angle_gamma   93.80639140
_symmetry_Int_Tables_number   1
_chemical_formula_structural   Sm2Ge2O7
_chemical_formula_sum   'Sm8 Ge8 O28'
_cell_volume   605.53313423
_cell_formula_units_Z   4
loop_
 _symmetry_equiv_pos_site_id
 _symmetry_equiv_pos_as_xyz
  1  'x, y, z'
loop_
 _atom_site_type_symbol
 _atom_site_label
 _atom_site_symmetry_multiplicity
 _atom_site_fract_x
 _atom_site_fract_y
 _atom_site_fract_z
 _atom_site_occupancy
  Sm  Sm0  1  0.113327  0.831580  0.320159  1
  Sm  Sm1  1  0.113809  0.329372  0.051854  1
  Sm  Sm2  1  0.371421  0.763284  0.633143  1
  Sm  Sm3  1  0.358402  0.082263  0.115722  1
  Sm  Sm4  1  0.641598  0.917737  0.884278  1
  Sm  Sm5  1  0.628579  0.236716  0.366857  1
  Sm  Sm6  1  0.886191  0.670628  0.948146  1
  Sm  Sm7  1  0.886673  0.168420  0.679841  1
  Ge  Ge8  1  0.116352  0.851794  0.836278  1
  Ge  Ge9  1  0.166793  0.329933  0.513409  1
  Ge  Ge10  1  0.380845  0.616092  0.145410  1
  Ge  Ge11  1  0.400517  0.264433  0.618768  1
  Ge  Ge12  1  0.599483  0.735567  0.381232  1
  Ge  Ge13  1  0.619155  0.383908  0.854590  1
  Ge  Ge14  1  0.833207  0.670067  0.486591  1
  Ge  Ge15  1  0.883648  0.148206  0.163722  1
  O  O16  1  0.011651  0.099195  0.246885  1
  O  O17  1  0.080949  0.665691  0.003682  1
  O  O18  1  0.084345  0.280746  0.707007  1
  O  O19  1  0.121009  0.493156  0.348052  1
  O  O20  1  0.190335  0.787704  0.639368  1
  O  O21  1  0.183500  0.015481  0.008105  1
  O  O22  1  0.216539  0.134119  0.381619  1
  O  O23  1  0.300022  0.434738  0.607576  1
  O  O24  1  0.314350  0.784289  0.292793  1
  O  O25  1  0.308208  0.403255  0.069313  1
  O  O26  1  0.377073  0.077903  0.775799  1
  O  O27  1  0.426441  0.773681  0.963680  1
  O  O28  1  0.448252  0.161208  0.406215  1
  O  O29  1  0.493106  0.559608  0.298295  1
  O  O30  1  0.506894  0.440392  0.701705  1
  O  O31  1  0.551748  0.838792  0.593785  1
  O  O32  1  0.573559  0.226319  0.036320  1
  O  O33  1  0.622927  0.922097  0.224201  1
  O  O34  1  0.691792  0.596745  0.930687  1
  O  O35  1  0.685650  0.215711  0.707207  1
  O  O36  1  0.699978  0.565262  0.392424  1
  O  O37  1  0.783461  0.865881  0.618381  1
  O  O38  1  0.816500  0.984519  0.991895  1
  O  O39  1  0.809665  0.212296  0.360632  1
  O  O40  1  0.878991  0.506844  0.651948  1
  O  O41  1  0.915655  0.719254  0.292993  1
  O  O42  1  0.919051  0.334309  0.996318  1
  O  O43  1  0.988349  0.900805  0.753115  1
