# generated using pymatgen
data_Li4Ti3Cu3(WO8)2
_symmetry_space_group_name_H-M   'P 1'
_cell_length_a   6.01431515
_cell_length_b   5.96669762
_cell_length_c   10.03712575
_cell_angle_alpha   90.00421710
_cell_angle_beta   92.17986715
_cell_angle_gamma   119.75559910
_symmetry_Int_Tables_number   1
_chemical_formula_structural   Li4Ti3Cu3(WO8)2
_chemical_formula_sum   'Li4 Ti3 Cu3 W2 O16'
_cell_volume   312.39671651
_cell_formula_units_Z   1
loop_
 _symmetry_equiv_pos_site_id
 _symmetry_equiv_pos_as_xyz
  1  'x, y, z'
loop_
 _atom_site_type_symbol
 _atom_site_label
 _atom_site_symmetry_multiplicity
 _atom_site_fract_x
 _atom_site_fract_y
 _atom_site_fract_z
 _atom_site_occupancy
  Li  Li0  1  0.329914  0.664894  0.910620  1
  Li  Li1  1  0.984997  0.992563  0.975538  1
  Li  Li2  1  0.001252  0.000529  0.490143  1
  Li  Li3  1  0.663953  0.332018  0.414938  1
  Ti  Ti4  1  0.192487  0.849002  0.218992  1
  Ti  Ti5  1  0.192301  0.343384  0.218991  1
  Ti  Ti6  1  0.356230  0.178064  0.734404  1
  Cu  Cu7  1  0.658577  0.829341  0.204708  1
  Cu  Cu8  1  0.835300  0.661563  0.699896  1
  Cu  Cu9  1  0.835034  0.173523  0.699900  1
  W  W10  1  0.331072  0.665569  0.490143  1
  W  W11  1  0.698140  0.349071  0.984387  1
  O  O12  1  0.196315  0.840337  0.585022  1
  O  O13  1  0.040410  0.520170  0.337545  1
  O  O14  1  0.305204  0.652609  0.111482  1
  O  O15  1  0.007373  0.003706  0.299097  1
  O  O16  1  0.008145  0.004175  0.784503  1
  O  O17  1  0.196328  0.356102  0.585041  1
  O  O18  1  0.457380  0.962455  0.348657  1
  O  O19  1  0.457467  0.495203  0.348627  1
  O  O20  1  0.336984  0.168494  0.109856  1
  O  O21  1  0.660093  0.830346  0.563786  1
  O  O22  1  0.487323  0.455764  0.865540  1
  O  O23  1  0.487243  0.031450  0.865403  1
  O  O24  1  0.641305  0.320658  0.617436  1
  O  O25  1  0.840491  0.660242  0.088577  1
  O  O26  1  0.958342  0.479039  0.866023  1
  O  O27  1  0.840337  0.180026  0.088589  1
