# generated using pymatgen
data_Li12Co3NiP4(CO7)4
_symmetry_space_group_name_H-M   'P 1'
_cell_length_a   8.39961485
_cell_length_b   9.98563820
_cell_length_c   6.43653530
_cell_angle_alpha   90.00000000
_cell_angle_beta   90.00000000
_cell_angle_gamma   85.01264424
_symmetry_Int_Tables_number   1
_chemical_formula_structural   Li12Co3NiP4(CO7)4
_chemical_formula_sum   'Li12 Co3 Ni1 P4 C4 O28'
_cell_volume   537.82372387
_cell_formula_units_Z   1
loop_
 _symmetry_equiv_pos_site_id
 _symmetry_equiv_pos_as_xyz
  1  'x, y, z'
loop_
 _atom_site_type_symbol
 _atom_site_label
 _atom_site_symmetry_multiplicity
 _atom_site_fract_x
 _atom_site_fract_y
 _atom_site_fract_z
 _atom_site_occupancy
  Li  Li0  1  0.097398  0.382808  0.250000  1
  Li  Li1  1  0.098150  0.882572  0.250000  1
  Li  Li2  1  0.277267  0.125172  0.021312  1
  Li  Li3  1  0.277267  0.125172  0.478688  1
  Li  Li4  1  0.276931  0.624268  0.020104  1
  Li  Li5  1  0.276931  0.624268  0.479896  1
  Li  Li6  1  0.722743  0.377032  0.521346  1
  Li  Li7  1  0.722743  0.377032  0.978654  1
  Li  Li8  1  0.722803  0.875333  0.520589  1
  Li  Li9  1  0.722803  0.875333  0.979411  1
  Li  Li10  1  0.902097  0.117131  0.750000  1
  Li  Li11  1  0.901901  0.617190  0.750000  1
  Co  Co12  1  0.331689  0.395448  0.750000  1
  Co  Co13  1  0.331641  0.894837  0.750000  1
  Co  Co14  1  0.669158  0.105226  0.250000  1
  Ni  Ni15  1  0.667953  0.603332  0.250000  1
  P  P16  1  0.414248  0.361632  0.250000  1
  P  P17  1  0.414869  0.859779  0.250000  1
  P  P18  1  0.587102  0.139645  0.750000  1
  P  P19  1  0.587419  0.639289  0.750000  1
  C  C20  1  0.037084  0.350622  0.750000  1
  C  C21  1  0.036561  0.850712  0.750000  1
  C  C22  1  0.963241  0.149094  0.250000  1
  C  C23  1  0.960098  0.648993  0.250000  1
  O  O24  1  0.072962  0.473987  0.750000  1
  O  O25  1  0.110182  0.180063  0.250000  1
  O  O26  1  0.073126  0.973900  0.750000  1
  O  O27  1  0.154642  0.255711  0.750000  1
  O  O28  1  0.107398  0.679569  0.250000  1
  O  O29  1  0.154164  0.755701  0.750000  1
  O  O30  1  0.308212  0.413034  0.062689  1
  O  O31  1  0.308212  0.413034  0.437311  1
  O  O32  1  0.308527  0.911024  0.062457  1
  O  O33  1  0.308527  0.911024  0.437543  1
  O  O34  1  0.419666  0.085709  0.750000  1
  O  O35  1  0.434677  0.204936  0.250000  1
  O  O36  1  0.419687  0.586447  0.750000  1
  O  O37  1  0.437021  0.703295  0.250000  1
  O  O38  1  0.566336  0.296184  0.750000  1
  O  O39  1  0.580920  0.415156  0.250000  1
  O  O40  1  0.566068  0.796562  0.750000  1
  O  O41  1  0.580255  0.914984  0.250000  1
  O  O42  1  0.692139  0.087758  0.937314  1
  O  O43  1  0.692139  0.087758  0.562686  1
  O  O44  1  0.691728  0.586996  0.562772  1
  O  O45  1  0.691728  0.586996  0.937228  1
  O  O46  1  0.846102  0.243903  0.250000  1
  O  O47  1  0.890570  0.319585  0.750000  1
  O  O48  1  0.843041  0.743667  0.250000  1
  O  O49  1  0.927586  0.025698  0.250000  1
  O  O50  1  0.890172  0.819983  0.750000  1
  O  O51  1  0.924115  0.525416  0.250000  1
