# generated using pymatgen
data_Li3Co4O4F3
_symmetry_space_group_name_H-M   'P 1'
_cell_length_a   2.97121146
_cell_length_b   2.97121146
_cell_length_c   15.07856266
_cell_angle_alpha   95.65420287
_cell_angle_beta   95.65420287
_cell_angle_gamma   90.00000000
_symmetry_Int_Tables_number   1
_chemical_formula_structural   Li3Co4O4F3
_chemical_formula_sum   'Li3 Co4 O4 F3'
_cell_volume   131.81653445
_cell_formula_units_Z   1
loop_
 _symmetry_equiv_pos_site_id
 _symmetry_equiv_pos_as_xyz
  1  'x, y, z'
loop_
 _atom_site_type_symbol
 _atom_site_label
 _atom_site_symmetry_multiplicity
 _atom_site_fract_x
 _atom_site_fract_y
 _atom_site_fract_z
 _atom_site_occupancy
  Li  Li0  1  0.997277  0.997277  0.994556  1
  Li  Li1  1  0.859866  0.859866  0.719730  1
  Li  Li2  1  0.428571  0.428571  0.857143  1
  Co  Co3  1  0.569382  0.569382  0.138764  1
  Co  Co4  1  0.146858  0.146858  0.293716  1
  Co  Co5  1  0.710285  0.710285  0.420570  1
  Co  Co6  1  0.287761  0.287761  0.575521  1
  O  O7  1  0.069828  0.069828  0.139656  1
  O  O8  1  0.641416  0.641416  0.282832  1
  O  O9  1  0.215727  0.215727  0.431454  1
  O  O10  1  0.787314  0.787314  0.574630  1
  F  F11  1  0.495104  0.495104  0.990209  1
  F  F12  1  0.362039  0.362039  0.724077  1
  F  F13  1  0.928571  0.928571  0.857143  1
