# generated using pymatgen
data_AlSi2HC6NCl3
_symmetry_space_group_name_H-M   'P 1'
_cell_length_a   17.58495885
_cell_length_b   9.47910961
_cell_length_c   16.64687417
_cell_angle_alpha   90.00000000
_cell_angle_beta   90.00000000
_cell_angle_gamma   90.00000000
_symmetry_Int_Tables_number   1
_chemical_formula_structural   AlSi2HC6NCl3
_chemical_formula_sum   'Al8 Si16 H8 C48 N8 Cl24'
_cell_volume   2774.86333407
_cell_formula_units_Z   8
loop_
 _symmetry_equiv_pos_site_id
 _symmetry_equiv_pos_as_xyz
  1  'x, y, z'
loop_
 _atom_site_type_symbol
 _atom_site_label
 _atom_site_symmetry_multiplicity
 _atom_site_fract_x
 _atom_site_fract_y
 _atom_site_fract_z
 _atom_site_occupancy
  Al  Al0  1  0.866765  0.028466  0.903684  1
  Al  Al1  1  0.366765  0.471534  0.096316  1
  Al  Al2  1  0.133235  0.528466  0.596316  1
  Al  Al3  1  0.633235  0.971534  0.403684  1
  Al  Al4  1  0.133235  0.971534  0.096316  1
  Al  Al5  1  0.633235  0.528466  0.903684  1
  Al  Al6  1  0.866765  0.471534  0.403684  1
  Al  Al7  1  0.366765  0.028466  0.596316  1
  Si  Si8  1  0.117714  0.162360  0.817091  1
  Si  Si9  1  0.617714  0.337640  0.182909  1
  Si  Si10  1  0.882286  0.662360  0.682909  1
  Si  Si11  1  0.382286  0.837640  0.317091  1
  Si  Si12  1  0.882286  0.837640  0.182909  1
  Si  Si13  1  0.382286  0.662360  0.817091  1
  Si  Si14  1  0.117714  0.337640  0.317091  1
  Si  Si15  1  0.617714  0.162360  0.682909  1
  Si  Si16  1  0.899459  0.359328  0.933407  1
  Si  Si17  1  0.399459  0.140672  0.066593  1
  Si  Si18  1  0.100541  0.859328  0.566593  1
  Si  Si19  1  0.600541  0.640672  0.433407  1
  Si  Si20  1  0.100541  0.640672  0.066593  1
  Si  Si21  1  0.600541  0.859328  0.933407  1
  Si  Si22  1  0.899459  0.140672  0.433407  1
  Si  Si23  1  0.399459  0.359328  0.566593  1
  H  H24  1  0.962084  0.166983  0.980998  1
  H  H25  1  0.462084  0.333017  0.019002  1
  H  H26  1  0.037916  0.666983  0.519002  1
  H  H27  1  0.537916  0.833017  0.480998  1
  H  H28  1  0.037916  0.833017  0.019002  1
  H  H29  1  0.537916  0.666983  0.980998  1
  H  H30  1  0.962084  0.333017  0.480998  1
  H  H31  1  0.462084  0.166983  0.519002  1
  C  C32  1  0.180454  0.004344  0.778775  1
  C  C33  1  0.680454  0.495656  0.221225  1
  C  C34  1  0.819546  0.504344  0.721225  1
  C  C35  1  0.319546  0.995656  0.278775  1
  C  C36  1  0.819546  0.995656  0.221225  1
  C  C37  1  0.319546  0.504344  0.778775  1
  C  C38  1  0.180454  0.495656  0.278775  1
  C  C39  1  0.680454  0.004344  0.721225  1
  C  C40  1  0.116255  0.013654  0.731723  1
  C  C41  1  0.616255  0.486346  0.268277  1
  C  C42  1  0.883745  0.513654  0.768277  1
  C  C43  1  0.383745  0.986346  0.231723  1
  C  C44  1  0.883745  0.986346  0.268277  1
  C  C45  1  0.383745  0.513654  0.731723  1
  C  C46  1  0.116255  0.486346  0.231723  1
  C  C47  1  0.616255  0.013654  0.768277  1
  C  C48  1  0.977492  0.484328  0.966774  1
  C  C49  1  0.477492  0.015672  0.033226  1
  C  C50  1  0.022508  0.984328  0.533226  1
  C  C51  1  0.522508  0.515672  0.466774  1
  C  C52  1  0.022508  0.515672  0.033226  1
  C  C53  1  0.522508  0.984328  0.966774  1
  C  C54  1  0.977492  0.015672  0.466774  1
  C  C55  1  0.477492  0.484328  0.533226  1
  C  C56  1  0.913486  0.471752  0.838701  1
  C  C57  1  0.413486  0.028248  0.161299  1
  C  C58  1  0.086514  0.971752  0.661299  1
  C  C59  1  0.586514  0.528248  0.338701  1
  C  C60  1  0.086514  0.528248  0.161299  1
  C  C61  1  0.586514  0.971752  0.838701  1
  C  C62  1  0.913486  0.028248  0.338701  1
  C  C63  1  0.413486  0.471752  0.661299  1
  C  C64  1  0.216319  0.072414  0.836021  1
  C  C65  1  0.716319  0.427586  0.163979  1
  C  C66  1  0.783681  0.572414  0.663979  1
  C  C67  1  0.283681  0.927586  0.336021  1
  C  C68  1  0.783681  0.927586  0.163979  1
  C  C69  1  0.283681  0.572414  0.836021  1
  C  C70  1  0.216319  0.427586  0.336021  1
  C  C71  1  0.716319  0.072414  0.663979  1
  C  C72  1  0.972878  0.515524  0.888203  1
  C  C73  1  0.472878  0.984476  0.111797  1
  C  C74  1  0.027122  0.015524  0.611797  1
  C  C75  1  0.527122  0.484476  0.388203  1
  C  C76  1  0.027122  0.484476  0.111797  1
  C  C77  1  0.527122  0.015524  0.888203  1
  C  C78  1  0.972878  0.984476  0.388203  1
  C  C79  1  0.472878  0.515524  0.611797  1
  N  N80  1  0.919399  0.187087  0.940107  1
  N  N81  1  0.419399  0.312913  0.059893  1
  N  N82  1  0.080601  0.687087  0.559893  1
  N  N83  1  0.580601  0.812913  0.440107  1
  N  N84  1  0.080601  0.812913  0.059893  1
  N  N85  1  0.580601  0.687087  0.940107  1
  N  N86  1  0.919399  0.312913  0.440107  1
  N  N87  1  0.419399  0.187087  0.559893  1
  Cl  Cl88  1  0.907047  0.842705  0.965841  1
  Cl  Cl89  1  0.407047  0.657295  0.034159  1
  Cl  Cl90  1  0.092953  0.342705  0.534159  1
  Cl  Cl91  1  0.592953  0.157295  0.465841  1
  Cl  Cl92  1  0.092953  0.157295  0.034159  1
  Cl  Cl93  1  0.592953  0.342705  0.965841  1
  Cl  Cl94  1  0.907047  0.657295  0.465841  1
  Cl  Cl95  1  0.407047  0.842705  0.534159  1
  Cl  Cl96  1  0.886588  0.007048  0.776674  1
  Cl  Cl97  1  0.386588  0.492952  0.223326  1
  Cl  Cl98  1  0.113412  0.507048  0.723326  1
  Cl  Cl99  1  0.613412  0.992952  0.276674  1
  Cl  Cl100  1  0.113412  0.992952  0.223326  1
  Cl  Cl101  1  0.613412  0.507048  0.776674  1
  Cl  Cl102  1  0.886588  0.492952  0.276674  1
  Cl  Cl103  1  0.386588  0.007048  0.723326  1
  Cl  Cl104  1  0.748416  0.067060  0.933354  1
  Cl  Cl105  1  0.248416  0.432940  0.066646  1
  Cl  Cl106  1  0.251584  0.567060  0.566646  1
  Cl  Cl107  1  0.751584  0.932940  0.433354  1
  Cl  Cl108  1  0.251584  0.932940  0.066646  1
  Cl  Cl109  1  0.751584  0.567060  0.933354  1
  Cl  Cl110  1  0.748416  0.432940  0.433354  1
  Cl  Cl111  1  0.248416  0.067060  0.566646  1
