# generated using pymatgen
data_LiMnSiO4
_symmetry_space_group_name_H-M   'P 1'
_cell_length_a   19.07208575
_cell_length_b   8.15525769
_cell_length_c   5.55631208
_cell_angle_alpha   90.00000000
_cell_angle_beta   90.00000000
_cell_angle_gamma   90.00000000
_symmetry_Int_Tables_number   1
_chemical_formula_structural   LiMnSiO4
_chemical_formula_sum   'Li12 Mn12 Si12 O48'
_cell_volume   864.21641244
_cell_formula_units_Z   12
loop_
 _symmetry_equiv_pos_site_id
 _symmetry_equiv_pos_as_xyz
  1  'x, y, z'
loop_
 _atom_site_type_symbol
 _atom_site_label
 _atom_site_symmetry_multiplicity
 _atom_site_fract_x
 _atom_site_fract_y
 _atom_site_fract_z
 _atom_site_occupancy
  Li  Li0  1  0.083187  0.562593  0.036685  1
  Li  Li1  1  0.083945  0.073411  0.483011  1
  Li  Li2  1  0.250229  0.930150  0.998025  1
  Li  Li3  1  0.249771  0.430150  0.498025  1
  Li  Li4  1  0.416055  0.573411  0.983011  1
  Li  Li5  1  0.416813  0.062593  0.536685  1
  Li  Li6  1  0.583187  0.937407  0.036685  1
  Li  Li7  1  0.583945  0.426589  0.483011  1
  Li  Li8  1  0.750229  0.569850  0.998025  1
  Li  Li9  1  0.749771  0.069850  0.498025  1
  Li  Li10  1  0.916055  0.926589  0.983011  1
  Li  Li11  1  0.916813  0.437407  0.536685  1
  Mn  Mn12  1  0.999126  0.248078  0.985167  1
  Mn  Mn13  1  0.000874  0.751922  0.485167  1
  Mn  Mn14  1  0.166965  0.750710  0.509819  1
  Mn  Mn15  1  0.166875  0.248470  0.022365  1
  Mn  Mn16  1  0.333125  0.748470  0.522365  1
  Mn  Mn17  1  0.333035  0.250710  0.009818  1
  Mn  Mn18  1  0.499126  0.251922  0.985167  1
  Mn  Mn19  1  0.500874  0.748078  0.485167  1
  Mn  Mn20  1  0.666965  0.749290  0.509819  1
  Mn  Mn21  1  0.666875  0.251530  0.022365  1
  Mn  Mn22  1  0.833125  0.751530  0.522365  1
  Mn  Mn23  1  0.833035  0.249290  0.009818  1
  Si  Si24  1  0.082877  0.903183  0.985046  1
  Si  Si25  1  0.083324  0.404503  0.511069  1
  Si  Si26  1  0.249649  0.596126  0.022119  1
  Si  Si27  1  0.250351  0.096126  0.522119  1
  Si  Si28  1  0.416676  0.904503  0.011069  1
  Si  Si29  1  0.417123  0.403183  0.485046  1
  Si  Si30  1  0.582877  0.596817  0.985046  1
  Si  Si31  1  0.583324  0.095497  0.511069  1
  Si  Si32  1  0.749649  0.903874  0.022119  1
  Si  Si33  1  0.750351  0.403874  0.522119  1
  Si  Si34  1  0.916676  0.595497  0.011069  1
  Si  Si35  1  0.917123  0.096817  0.485046  1
  O  O36  1  0.988022  0.983940  0.480916  1
  O  O37  1  0.011978  0.016060  0.980916  1
  O  O38  1  0.012858  0.518837  0.496950  1
  O  O39  1  0.080394  0.280150  0.748734  1
  O  O40  1  0.086604  0.279542  0.273153  1
  O  O41  1  0.083013  0.772589  0.211207  1
  O  O42  1  0.082963  0.787780  0.732076  1
  O  O43  1  0.153419  0.017034  0.007407  1
  O  O44  1  0.153924  0.518286  0.520040  1
  O  O45  1  0.179515  0.480590  0.023108  1
  O  O46  1  0.179539  0.983519  0.509346  1
  O  O47  1  0.251267  0.226414  0.296057  1
  O  O48  1  0.249827  0.213664  0.773699  1
  O  O49  1  0.248733  0.726414  0.796057  1
  O  O50  1  0.250173  0.713664  0.273699  1
  O  O51  1  0.320460  0.483519  0.009346  1
  O  O52  1  0.320485  0.980590  0.523108  1
  O  O53  1  0.346076  0.018286  0.020040  1
  O  O54  1  0.346581  0.517034  0.507407  1
  O  O55  1  0.417037  0.287780  0.232076  1
  O  O56  1  0.416987  0.272589  0.711207  1
  O  O57  1  0.413396  0.779542  0.773153  1
  O  O58  1  0.419606  0.780150  0.248734  1
  O  O59  1  0.487142  0.018837  0.996950  1
  O  O60  1  0.488022  0.516060  0.480916  1
  O  O61  1  0.511978  0.483940  0.980916  1
  O  O62  1  0.512858  0.981163  0.496950  1
  O  O63  1  0.580394  0.219850  0.748734  1
  O  O64  1  0.586604  0.220458  0.273153  1
  O  O65  1  0.583013  0.727411  0.211207  1
  O  O66  1  0.582963  0.712220  0.732076  1
  O  O67  1  0.653419  0.482966  0.007407  1
  O  O68  1  0.653924  0.981714  0.520040  1
  O  O69  1  0.679515  0.019410  0.023108  1
  O  O70  1  0.679539  0.516481  0.509346  1
  O  O71  1  0.749827  0.286336  0.773699  1
  O  O72  1  0.751267  0.273586  0.296057  1
  O  O73  1  0.750173  0.786336  0.273699  1
  O  O74  1  0.748733  0.773586  0.796057  1
  O  O75  1  0.820461  0.016481  0.009346  1
  O  O76  1  0.820485  0.519410  0.523108  1
  O  O77  1  0.846076  0.481714  0.020040  1
  O  O78  1  0.846581  0.982966  0.507407  1
  O  O79  1  0.917037  0.212220  0.232076  1
  O  O80  1  0.916987  0.227411  0.711207  1
  O  O81  1  0.913396  0.720458  0.773153  1
  O  O82  1  0.919606  0.719850  0.248734  1
  O  O83  1  0.987142  0.481163  0.996950  1
