# generated using pymatgen
data_Sn(PO3)2
_symmetry_space_group_name_H-M   'P 1'
_cell_length_a   8.08043676
_cell_length_b   8.08043676
_cell_length_c   9.77355728
_cell_angle_alpha   90.00000000
_cell_angle_beta   90.00000000
_cell_angle_gamma   89.84319848
_symmetry_Int_Tables_number   1
_chemical_formula_structural   Sn(PO3)2
_chemical_formula_sum   'Sn4 P8 O24'
_cell_volume   638.14696459
_cell_formula_units_Z   4
loop_
 _symmetry_equiv_pos_site_id
 _symmetry_equiv_pos_as_xyz
  1  'x, y, z'
loop_
 _atom_site_type_symbol
 _atom_site_label
 _atom_site_symmetry_multiplicity
 _atom_site_fract_x
 _atom_site_fract_y
 _atom_site_fract_z
 _atom_site_occupancy
  Sn  Sn0  1  0.646544  0.810950  0.491425  1
  Sn  Sn1  1  0.189050  0.353456  0.508575  1
  Sn  Sn2  1  0.810950  0.646544  0.008575  1
  Sn  Sn3  1  0.353456  0.189050  0.991425  1
  P  P4  1  0.340131  0.882278  0.238131  1
  P  P5  1  0.117722  0.659869  0.761868  1
  P  P6  1  0.352234  0.647766  0.000000  1
  P  P7  1  0.028401  0.028401  0.750000  1
  P  P8  1  0.971599  0.971599  0.250000  1
  P  P9  1  0.647766  0.352234  0.500000  1
  P  P10  1  0.659869  0.117722  0.738132  1
  P  P11  1  0.882278  0.340131  0.261869  1
  O  O12  1  0.167862  0.962340  0.286741  1
  O  O13  1  0.037660  0.832138  0.713259  1
  O  O14  1  0.414225  0.789921  0.358528  1
  O  O15  1  0.210079  0.585775  0.641472  1
  O  O16  1  0.275219  0.749245  0.127119  1
  O  O17  1  0.250755  0.724781  0.872881  1
  O  O18  1  0.553300  0.987110  0.673393  1
  O  O19  1  0.012890  0.446700  0.326607  1
  O  O20  1  0.064428  0.122670  0.621363  1
  O  O21  1  0.877330  0.935572  0.378637  1
  O  O22  1  0.305140  0.469726  0.019761  1
  O  O23  1  0.530274  0.694860  0.980239  1
  O  O24  1  0.694860  0.530274  0.519761  1
  O  O25  1  0.469726  0.305140  0.480239  1
  O  O26  1  0.122670  0.064428  0.878637  1
  O  O27  1  0.935572  0.877330  0.121363  1
  O  O28  1  0.987110  0.553300  0.826607  1
  O  O29  1  0.446700  0.012890  0.173393  1
  O  O30  1  0.724781  0.250755  0.627119  1
  O  O31  1  0.749245  0.275219  0.372881  1
  O  O32  1  0.585775  0.210079  0.858528  1
  O  O33  1  0.789921  0.414225  0.141472  1
  O  O34  1  0.962340  0.167862  0.213259  1
  O  O35  1  0.832138  0.037660  0.786741  1
