# generated using pymatgen
data_Cs7U8V2ClO32
_symmetry_space_group_name_H-M   'P 1'
_cell_length_a   7.74897823
_cell_length_b   11.97036501
_cell_length_c   21.59945311
_cell_angle_alpha   90.00000000
_cell_angle_beta   90.00000000
_cell_angle_gamma   90.00000000
_symmetry_Int_Tables_number   1
_chemical_formula_structural   Cs7U8V2ClO32
_chemical_formula_sum   'Cs14 U16 V4 Cl2 O64'
_cell_volume   2003.52418546
_cell_formula_units_Z   2
loop_
 _symmetry_equiv_pos_site_id
 _symmetry_equiv_pos_as_xyz
  1  'x, y, z'
loop_
 _atom_site_type_symbol
 _atom_site_label
 _atom_site_symmetry_multiplicity
 _atom_site_fract_x
 _atom_site_fract_y
 _atom_site_fract_z
 _atom_site_occupancy
  Cs  Cs0  1  0.540426  0.750000  0.526977  1
  Cs  Cs1  1  0.447940  0.940490  0.351659  1
  Cs  Cs2  1  0.459574  0.250000  0.473023  1
  Cs  Cs3  1  0.746021  0.750000  0.750000  1
  Cs  Cs4  1  0.552060  0.440490  0.648341  1
  Cs  Cs5  1  0.552060  0.440490  0.851659  1
  Cs  Cs6  1  0.447940  0.559510  0.148341  1
  Cs  Cs7  1  0.540426  0.750000  0.973023  1
  Cs  Cs8  1  0.459574  0.250000  0.026977  1
  Cs  Cs9  1  0.552060  0.059510  0.648341  1
  Cs  Cs10  1  0.253979  0.250000  0.250000  1
  Cs  Cs11  1  0.447940  0.940490  0.148341  1
  Cs  Cs12  1  0.552060  0.059510  0.851659  1
  Cs  Cs13  1  0.447940  0.559510  0.351659  1
  U  U14  1  0.050687  0.944366  0.575981  1
  U  U15  1  0.949313  0.444366  0.424019  1
  U  U16  1  0.947408  0.965695  0.250000  1
  U  U17  1  0.004186  0.250000  0.905722  1
  U  U18  1  0.995814  0.750000  0.094278  1
  U  U19  1  0.004186  0.250000  0.594278  1
  U  U20  1  0.949313  0.055634  0.075981  1
  U  U21  1  0.050687  0.944366  0.924019  1
  U  U22  1  0.052592  0.034305  0.750000  1
  U  U23  1  0.947408  0.534305  0.250000  1
  U  U24  1  0.949313  0.444366  0.075981  1
  U  U25  1  0.050687  0.555634  0.575981  1
  U  U26  1  0.050687  0.555634  0.924019  1
  U  U27  1  0.052592  0.465695  0.750000  1
  U  U28  1  0.949313  0.055634  0.424019  1
  U  U29  1  0.995814  0.750000  0.405722  1
  V  V30  1  0.779118  0.250000  0.338312  1
  V  V31  1  0.220882  0.750000  0.838312  1
  V  V32  1  0.220882  0.750000  0.661688  1
  V  V33  1  0.779118  0.250000  0.161688  1
  Cl  Cl34  1  0.887944  0.250000  0.750000  1
  Cl  Cl35  1  0.112056  0.750000  0.250000  1
  O  O36  1  0.124622  0.877360  0.814694  1
  O  O37  1  0.716826  0.028088  0.063469  1
  O  O38  1  0.757080  0.750000  0.090528  1
  O  O39  1  0.563744  0.250000  0.167322  1
  O  O40  1  0.283174  0.971912  0.936531  1
  O  O41  1  0.974428  0.585722  0.149371  1
  O  O42  1  0.875378  0.377360  0.314694  1
  O  O43  1  0.824253  0.511447  0.750000  1
  O  O44  1  0.987314  0.395214  0.525354  1
  O  O45  1  0.763973  0.250000  0.902008  1
  O  O46  1  0.875378  0.122640  0.314694  1
  O  O47  1  0.563744  0.250000  0.332678  1
  O  O48  1  0.974428  0.914278  0.149371  1
  O  O49  1  0.025572  0.414278  0.649371  1
  O  O50  1  0.824517  0.903054  0.591560  1
  O  O51  1  0.721859  0.583671  0.250000  1
  O  O52  1  0.757080  0.750000  0.409472  1
  O  O53  1  0.824517  0.903054  0.908440  1
  O  O54  1  0.025572  0.414278  0.850629  1
  O  O55  1  0.875378  0.122640  0.185306  1
  O  O56  1  0.763973  0.250000  0.597992  1
  O  O57  1  0.283174  0.971912  0.563469  1
  O  O58  1  0.721859  0.916329  0.250000  1
  O  O59  1  0.278141  0.083671  0.750000  1
  O  O60  1  0.875378  0.377360  0.185306  1
  O  O61  1  0.974428  0.914278  0.350629  1
  O  O62  1  0.845120  0.250000  0.416556  1
  O  O63  1  0.124622  0.877360  0.685306  1
  O  O64  1  0.175747  0.488553  0.250000  1
  O  O65  1  0.025572  0.085722  0.850629  1
  O  O66  1  0.242920  0.250000  0.590528  1
  O  O67  1  0.987314  0.104786  0.974646  1
  O  O68  1  0.436256  0.750000  0.667322  1
  O  O69  1  0.236027  0.750000  0.402008  1
  O  O70  1  0.824253  0.988553  0.750000  1
  O  O71  1  0.283174  0.528088  0.563469  1
  O  O72  1  0.716826  0.471912  0.063469  1
  O  O73  1  0.175483  0.096946  0.408440  1
  O  O74  1  0.154880  0.750000  0.916556  1
  O  O75  1  0.824517  0.596946  0.591560  1
  O  O76  1  0.987314  0.395214  0.974646  1
  O  O77  1  0.124622  0.622640  0.685306  1
  O  O78  1  0.175483  0.403054  0.091560  1
  O  O79  1  0.974428  0.585722  0.350629  1
  O  O80  1  0.436256  0.750000  0.832678  1
  O  O81  1  0.845120  0.250000  0.083444  1
  O  O82  1  0.012686  0.604786  0.474647  1
  O  O83  1  0.175747  0.011447  0.250000  1
  O  O84  1  0.278141  0.416329  0.750000  1
  O  O85  1  0.124622  0.622640  0.814694  1
  O  O86  1  0.175483  0.096946  0.091560  1
  O  O87  1  0.012686  0.604786  0.025354  1
  O  O88  1  0.824517  0.596946  0.908440  1
  O  O89  1  0.154880  0.750000  0.583444  1
  O  O90  1  0.012686  0.895214  0.025354  1
  O  O91  1  0.283174  0.528088  0.936531  1
  O  O92  1  0.012686  0.895214  0.474647  1
  O  O93  1  0.175483  0.403054  0.408440  1
  O  O94  1  0.987314  0.104786  0.525354  1
  O  O95  1  0.242920  0.250000  0.909472  1
  O  O96  1  0.716826  0.028088  0.436531  1
  O  O97  1  0.716826  0.471912  0.436531  1
  O  O98  1  0.025572  0.085722  0.649371  1
  O  O99  1  0.236027  0.750000  0.097992  1
