# generated using pymatgen
data_Mn12O5F19
_symmetry_space_group_name_H-M   'P 1'
_cell_length_a   4.85593977
_cell_length_b   5.81847248
_cell_length_c   16.05599177
_cell_angle_alpha   90.42921131
_cell_angle_beta   90.33242270
_cell_angle_gamma   86.43320512
_symmetry_Int_Tables_number   1
_chemical_formula_structural   Mn12O5F19
_chemical_formula_sum   'Mn12 O5 F19'
_cell_volume   452.75051640
_cell_formula_units_Z   1
loop_
 _symmetry_equiv_pos_site_id
 _symmetry_equiv_pos_as_xyz
  1  'x, y, z'
loop_
 _atom_site_type_symbol
 _atom_site_label
 _atom_site_symmetry_multiplicity
 _atom_site_fract_x
 _atom_site_fract_y
 _atom_site_fract_z
 _atom_site_occupancy
  Mn  Mn0  1  0.987642  0.167224  0.414347  1
  Mn  Mn1  1  0.023851  0.834019  0.237407  1
  Mn  Mn2  1  0.002770  0.157284  0.080923  1
  Mn  Mn3  1  0.024135  0.147408  0.752130  1
  Mn  Mn4  1  0.015053  0.824138  0.586124  1
  Mn  Mn5  1  0.005388  0.829444  0.908454  1
  Mn  Mn6  1  0.493545  0.350320  0.586972  1
  Mn  Mn7  1  0.520019  0.334640  0.927479  1
  Mn  Mn8  1  0.510476  0.328557  0.256854  1
  Mn  Mn9  1  0.501982  0.658109  0.084265  1
  Mn  Mn10  1  0.521109  0.651516  0.412903  1
  Mn  Mn11  1  0.475108  0.662567  0.748747  1
  O  O12  1  0.226808  0.889584  0.128632  1
  O  O13  1  0.219588  0.877829  0.802051  1
  O  O14  1  0.288926  0.611933  0.646250  1
  O  O15  1  0.725314  0.388289  0.035773  1
  O  O16  1  0.723317  0.395653  0.365660  1
  F  F17  1  0.220715  0.108977  0.305497  1
  F  F18  1  0.227941  0.115898  0.637505  1
  F  F19  1  0.213109  0.118923  0.971870  1
  F  F20  1  0.241775  0.888573  0.468393  1
  F  F21  1  0.257427  0.391526  0.146102  1
  F  F22  1  0.262347  0.395003  0.475049  1
  F  F23  1  0.265905  0.617167  0.311161  1
  F  F24  1  0.270069  0.375044  0.816273  1
  F  F25  1  0.272822  0.615887  0.977030  1
  F  F26  1  0.711268  0.623016  0.194039  1
  F  F27  1  0.705457  0.620295  0.854979  1
  F  F28  1  0.733463  0.611545  0.526052  1
  F  F29  1  0.743315  0.391212  0.702276  1
  F  F30  1  0.771254  0.890768  0.354555  1
  F  F31  1  0.774608  0.115153  0.186321  1
  F  F32  1  0.770460  0.116900  0.857808  1
  F  F33  1  0.768201  0.108495  0.529713  1
  F  F34  1  0.759209  0.886444  0.017640  1
  F  F35  1  0.765621  0.900665  0.692766  1
