# generated using pymatgen
data_NbSb3O8
_symmetry_space_group_name_H-M   'P 1'
_cell_length_a   5.59148585
_cell_length_b   4.97231090
_cell_length_c   23.90823789
_cell_angle_alpha   89.99351594
_cell_angle_beta   89.88861392
_cell_angle_gamma   90.08233540
_symmetry_Int_Tables_number   1
_chemical_formula_structural   NbSb3O8
_chemical_formula_sum   'Nb4 Sb12 O32'
_cell_volume   664.70937146
_cell_formula_units_Z   4
loop_
 _symmetry_equiv_pos_site_id
 _symmetry_equiv_pos_as_xyz
  1  'x, y, z'
loop_
 _atom_site_type_symbol
 _atom_site_label
 _atom_site_symmetry_multiplicity
 _atom_site_fract_x
 _atom_site_fract_y
 _atom_site_fract_z
 _atom_site_occupancy
  Nb  Nb0  1  0.130953  0.002791  0.963771  1
  Nb  Nb1  1  0.387623  0.491912  0.714430  1
  Nb  Nb2  1  0.868964  0.997768  0.213667  1
  Nb  Nb3  1  0.887136  0.006546  0.714360  1
  Sb  Sb4  1  0.024292  0.543871  0.339880  1
  Sb  Sb5  1  0.029068  0.546729  0.839178  1
  Sb  Sb6  1  0.132802  0.999557  0.464295  1
  Sb  Sb7  1  0.368752  0.495497  0.215778  1
  Sb  Sb8  1  0.472559  0.046481  0.090362  1
  Sb  Sb9  1  0.475769  0.044386  0.589356  1
  Sb  Sb10  1  0.529167  0.957428  0.339791  1
  Sb  Sb11  1  0.527054  0.950403  0.840325  1
  Sb  Sb12  1  0.632637  0.499927  0.464480  1
  Sb  Sb13  1  0.630707  0.505130  0.965659  1
  Sb  Sb14  1  0.974879  0.455189  0.089296  1
  Sb  Sb15  1  0.976599  0.455372  0.589381  1
  O  O16  1  0.079016  0.295944  0.242935  1
  O  O17  1  0.069756  0.297338  0.743752  1
  O  O18  1  0.142514  0.786731  0.190494  1
  O  O19  1  0.134926  0.784472  0.689843  1
  O  O20  1  0.152957  0.162660  0.543643  1
  O  O21  1  0.153176  0.166910  0.044410  1
  O  O22  1  0.182085  0.842485  0.387647  1
  O  O23  1  0.183898  0.840001  0.887917  1
  O  O24  1  0.316196  0.342309  0.138016  1
  O  O25  1  0.314055  0.335278  0.637753  1
  O  O26  1  0.347612  0.667327  0.294451  1
  O  O27  1  0.346955  0.668989  0.793420  1
  O  O28  1  0.355672  0.289775  0.436291  1
  O  O29  1  0.359824  0.287865  0.938393  1
  O  O30  1  0.418424  0.791525  0.994326  1
  O  O31  1  0.418235  0.793853  0.495065  1
  O  O32  1  0.580947  0.208819  0.244401  1
  O  O33  1  0.570315  0.203071  0.743583  1
  O  O34  1  0.635110  0.715836  0.689766  1
  O  O35  1  0.640356  0.712479  0.188413  1
  O  O36  1  0.652117  0.334290  0.044008  1
  O  O37  1  0.652883  0.337129  0.543737  1
  O  O38  1  0.682190  0.656908  0.388034  1
  O  O39  1  0.684434  0.657108  0.887849  1
  O  O40  1  0.816729  0.161028  0.137650  1
  O  O41  1  0.814424  0.164728  0.637828  1
  O  O42  1  0.846776  0.832082  0.294216  1
  O  O43  1  0.846860  0.830528  0.793995  1
  O  O44  1  0.855674  0.209900  0.436397  1
  O  O45  1  0.857941  0.213790  0.940603  1
  O  O46  1  0.918408  0.705855  0.495089  1
  O  O47  1  0.920577  0.704001  0.992868  1
