# generated using pymatgen
data_LiMn2(BO3)2
_symmetry_space_group_name_H-M   'P 1'
_cell_length_a   9.11041100
_cell_length_b   5.30062579
_cell_length_c   10.55596888
_cell_angle_alpha   100.94405617
_cell_angle_beta   100.21087465
_cell_angle_gamma   89.90257079
_symmetry_Int_Tables_number   1
_chemical_formula_structural   LiMn2(BO3)2
_chemical_formula_sum   'Li4 Mn8 B8 O24'
_cell_volume   492.28995659
_cell_formula_units_Z   4
loop_
 _symmetry_equiv_pos_site_id
 _symmetry_equiv_pos_as_xyz
  1  'x, y, z'
loop_
 _atom_site_type_symbol
 _atom_site_label
 _atom_site_symmetry_multiplicity
 _atom_site_fract_x
 _atom_site_fract_y
 _atom_site_fract_z
 _atom_site_occupancy
  Li  Li0  1  0.382812  0.009267  0.832171  1
  Li  Li1  1  0.865173  0.739525  0.666282  1
  Li  Li2  1  0.134827  0.260475  0.333718  1
  Li  Li3  1  0.617188  0.990733  0.167829  1
  Mn  Mn4  1  0.745232  0.027146  0.873592  1
  Mn  Mn5  1  0.239795  0.523664  0.875826  1
  Mn  Mn6  1  0.013307  0.227520  0.627775  1
  Mn  Mn7  1  0.502507  0.723859  0.623342  1
  Mn  Mn8  1  0.497493  0.276141  0.376658  1
  Mn  Mn9  1  0.986693  0.772480  0.372225  1
  Mn  Mn10  1  0.760205  0.476336  0.124174  1
  Mn  Mn11  1  0.254768  0.972854  0.126408  1
  B  B12  1  0.072064  0.007926  0.869521  1
  B  B13  1  0.564216  0.513293  0.874730  1
  B  B14  1  0.686881  0.236958  0.624979  1
  B  B15  1  0.177522  0.741014  0.630652  1
  B  B16  1  0.822478  0.258986  0.369348  1
  B  B17  1  0.313119  0.763042  0.375021  1
  B  B18  1  0.435784  0.486707  0.125270  1
  B  B19  1  0.927936  0.992074  0.130479  1
  O  O20  1  0.703399  0.428191  0.927700  1
  O  O21  1  0.439859  0.362745  0.863363  1
  O  O22  1  0.945558  0.865217  0.854237  1
  O  O23  1  0.689067  0.000855  0.667172  1
  O  O24  1  0.076102  0.236742  0.825101  1
  O  O25  1  0.557911  0.747258  0.828537  1
  O  O26  1  0.213020  0.918136  0.920269  1
  O  O27  1  0.811700  0.383843  0.635420  1
  O  O28  1  0.548782  0.331346  0.575027  1
  O  O29  1  0.177913  0.516606  0.680658  1
  O  O30  1  0.963701  0.176234  0.423097  1
  O  O31  1  0.303868  0.887356  0.644932  1
  O  O32  1  0.696132  0.112644  0.355068  1
  O  O33  1  0.036299  0.823766  0.576903  1
  O  O34  1  0.822087  0.483394  0.319342  1
  O  O35  1  0.451218  0.668654  0.424973  1
  O  O36  1  0.188300  0.616157  0.364580  1
  O  O37  1  0.786980  0.081864  0.079731  1
  O  O38  1  0.442089  0.252742  0.171463  1
  O  O39  1  0.923898  0.763258  0.174899  1
  O  O40  1  0.310933  0.999145  0.332828  1
  O  O41  1  0.054442  0.134783  0.145763  1
  O  O42  1  0.560141  0.637255  0.136637  1
  O  O43  1  0.296601  0.571809  0.072300  1
