# generated using pymatgen
data_LiNi2OF3
_symmetry_space_group_name_H-M   'P 1'
_cell_length_a   5.94310247
_cell_length_b   5.94214460
_cell_length_c   5.05275904
_cell_angle_alpha   90.03482150
_cell_angle_beta   90.00000000
_cell_angle_gamma   59.99467302
_symmetry_Int_Tables_number   1
_chemical_formula_structural   LiNi2OF3
_chemical_formula_sum   'Li2 Ni4 O2 F6'
_cell_volume   154.52268002
_cell_formula_units_Z   2
loop_
 _symmetry_equiv_pos_site_id
 _symmetry_equiv_pos_as_xyz
  1  'x, y, z'
loop_
 _atom_site_type_symbol
 _atom_site_label
 _atom_site_symmetry_multiplicity
 _atom_site_fract_x
 _atom_site_fract_y
 _atom_site_fract_z
 _atom_site_occupancy
  Li  Li0  1  0.666656  0.666689  0.028905  1
  Li  Li1  1  0.333344  0.333311  0.971095  1
  Ni  Ni2  1  0.500000  0.500000  0.500000  1
  Ni  Ni3  1  0.000000  0.500000  0.500000  1
  Ni  Ni4  1  0.500000  0.000000  0.500000  1
  Ni  Ni5  1  0.000000  0.000000  0.000000  1
  O  O6  1  0.666613  0.666776  0.667563  1
  O  O7  1  0.333387  0.333224  0.332437  1
  F  F8  1  0.831236  0.831049  0.224892  1
  F  F9  1  0.337717  0.831049  0.224892  1
  F  F10  1  0.168892  0.662215  0.775107  1
  F  F11  1  0.831108  0.337785  0.224893  1
  F  F12  1  0.662283  0.168951  0.775108  1
  F  F13  1  0.168764  0.168951  0.775108  1
