# generated using pymatgen
data_Li2CrH8Cl5O4
_symmetry_space_group_name_H-M   'P 1'
_cell_length_a   6.34330415
_cell_length_b   8.53631823
_cell_length_c   13.08147888
_cell_angle_alpha   105.73502292
_cell_angle_beta   103.88849436
_cell_angle_gamma   68.24805243
_symmetry_Int_Tables_number   1
_chemical_formula_structural   Li2CrH8Cl5O4
_chemical_formula_sum   'Li4 Cr2 H16 Cl10 O8'
_cell_volume   625.49081603
_cell_formula_units_Z   2
loop_
 _symmetry_equiv_pos_site_id
 _symmetry_equiv_pos_as_xyz
  1  'x, y, z'
loop_
 _atom_site_type_symbol
 _atom_site_label
 _atom_site_symmetry_multiplicity
 _atom_site_fract_x
 _atom_site_fract_y
 _atom_site_fract_z
 _atom_site_occupancy
  Li  Li0  1  0.617885  0.908802  0.389860  1
  Li  Li1  1  0.145505  0.591122  0.113471  1
  Li  Li2  1  0.867445  0.409499  0.889676  1
  Li  Li3  1  0.381781  0.091405  0.612194  1
  Cr  Cr4  1  0.999692  0.499867  0.500435  1
  Cr  Cr5  1  0.001943  0.998991  0.000094  1
  H  H6  1  0.679373  0.864399  0.883329  1
  H  H7  1  0.113758  0.774138  0.527909  1
  H  H8  1  0.275478  0.783517  0.860833  1
  H  H9  1  0.751902  0.807226  0.996645  1
  H  H10  1  0.561808  0.691929  0.504319  1
  H  H11  1  0.195021  0.718029  0.639687  1
  H  H12  1  0.363474  0.725214  0.971981  1
  H  H13  1  0.659422  0.633678  0.617287  1
  H  H14  1  0.341940  0.366405  0.383788  1
  H  H15  1  0.641015  0.271413  0.025676  1
  H  H16  1  0.803919  0.284360  0.360623  1
  H  H17  1  0.437568  0.308528  0.497093  1
  H  H18  1  0.248893  0.192546  0.004499  1
  H  H19  1  0.724077  0.216243  0.137996  1
  H  H20  1  0.883062  0.226404  0.471985  1
  H  H21  1  0.323563  0.134054  0.117503  1
  Cl  Cl22  1  0.130744  0.887114  0.159470  1
  Cl  Cl23  1  0.301971  0.889036  0.456910  1
  Cl  Cl24  1  0.730421  0.610689  0.042805  1
  Cl  Cl25  1  0.488427  0.752383  0.750122  1
  Cl  Cl26  1  0.858979  0.612747  0.341522  1
  Cl  Cl27  1  0.139615  0.387927  0.659740  1
  Cl  Cl28  1  0.506970  0.254685  0.249707  1
  Cl  Cl29  1  0.264707  0.390508  0.957379  1
  Cl  Cl30  1  0.697976  0.112201  0.543750  1
  Cl  Cl31  1  0.872559  0.112526  0.841319  1
  O  O32  1  0.746154  0.897815  0.959560  1
  O  O33  1  0.220939  0.777493  0.924487  1
  O  O34  1  0.071591  0.722310  0.575928  1
  O  O35  1  0.682812  0.600533  0.540912  1
  O  O36  1  0.316363  0.399102  0.459881  1
  O  O37  1  0.927060  0.277901  0.424431  1
  O  O38  1  0.781191  0.220710  0.074799  1
  O  O39  1  0.257566  0.100612  0.041130  1
