# generated using pymatgen
data_Cu3As2H2PbO10
_symmetry_space_group_name_H-M   'P 1'
_cell_length_a   5.95233213
_cell_length_b   5.96408266
_cell_length_c   14.01591467
_cell_angle_alpha   87.94506144
_cell_angle_beta   79.51162351
_cell_angle_gamma   119.35220056
_symmetry_Int_Tables_number   1
_chemical_formula_structural   Cu3As2H2PbO10
_chemical_formula_sum   'Cu6 As4 H4 Pb2 O20'
_cell_volume   421.87899962
_cell_formula_units_Z   2
loop_
 _symmetry_equiv_pos_site_id
 _symmetry_equiv_pos_as_xyz
  1  'x, y, z'
loop_
 _atom_site_type_symbol
 _atom_site_label
 _atom_site_symmetry_multiplicity
 _atom_site_fract_x
 _atom_site_fract_y
 _atom_site_fract_z
 _atom_site_occupancy
  Cu  Cu0  1  0.002967  0.502985  0.000232  1
  Cu  Cu1  1  0.998476  0.502896  0.500181  1
  Cu  Cu2  1  0.998715  0.001453  0.000507  1
  Cu  Cu3  1  0.499086  0.497930  0.000605  1
  Cu  Cu4  1  0.001375  0.003805  0.500586  1
  Cu  Cu5  1  0.498873  0.001016  0.499381  1
  As  As6  1  0.367033  0.911806  0.142452  1
  As  As7  1  0.449585  0.497159  0.642036  1
  As  As8  1  0.550168  0.507651  0.357830  1
  As  As9  1  0.637804  0.092130  0.858004  1
  H  H10  1  0.230132  0.855956  0.360334  1
  H  H11  1  0.283661  0.409079  0.861221  1
  H  H12  1  0.716514  0.595559  0.138104  1
  H  H13  1  0.765779  0.148622  0.638522  1
  Pb  Pb14  1  0.009878  0.263949  0.250972  1
  Pb  Pb15  1  0.992768  0.741298  0.750412  1
  O  O16  1  0.203898  0.854960  0.435802  1
  O  O17  1  0.197752  0.769898  0.260758  1
  O  O18  1  0.301003  0.910988  0.877869  1
  O  O19  1  0.268387  0.627111  0.083798  1
  O  O20  1  0.314010  0.670853  0.597318  1
  O  O21  1  0.206892  0.352967  0.418718  1
  O  O22  1  0.706767  0.824337  0.376750  1
  O  O23  1  0.767462  0.910941  0.900792  1
  O  O24  1  0.209650  0.357549  0.936031  1
  O  O25  1  0.472954  0.551699  0.760216  1
  O  O26  1  0.527263  0.452063  0.239960  1
  O  O27  1  0.791520  0.644578  0.063495  1
  O  O28  1  0.238524  0.092640  0.098203  1
  O  O29  1  0.291678  0.182261  0.622233  1
  O  O30  1  0.793886  0.652768  0.582066  1
  O  O31  1  0.686151  0.334610  0.402507  1
  O  O32  1  0.732596  0.372770  0.918734  1
  O  O33  1  0.703664  0.083949  0.122744  1
  O  O34  1  0.805351  0.240825  0.740235  1
  O  O35  1  0.793600  0.149575  0.563655  1
