# generated using pymatgen
data_Li24Mn5Cr7O36
_symmetry_space_group_name_H-M   'P 1'
_cell_length_a   5.01709564
_cell_length_b   13.29553168
_cell_length_c   9.73421779
_cell_angle_alpha   97.15712013
_cell_angle_beta   94.75210798
_cell_angle_gamma   100.60249709
_symmetry_Int_Tables_number   1
_chemical_formula_structural   Li24Mn5Cr7O36
_chemical_formula_sum   'Li24 Mn5 Cr7 O36'
_cell_volume   629.52682409
_cell_formula_units_Z   1
loop_
 _symmetry_equiv_pos_site_id
 _symmetry_equiv_pos_as_xyz
  1  'x, y, z'
loop_
 _atom_site_type_symbol
 _atom_site_label
 _atom_site_symmetry_multiplicity
 _atom_site_fract_x
 _atom_site_fract_y
 _atom_site_fract_z
 _atom_site_occupancy
  Li  Li0  1  0.832474  0.166271  0.001683  1
  Li  Li1  1  0.955034  0.386034  0.000545  1
  Li  Li2  1  0.999171  0.749228  0.250002  1
  Li  Li3  1  0.667965  0.083660  0.249519  1
  Li  Li4  1  0.954891  0.887605  0.500545  1
  Li  Li5  1  0.617404  0.221171  0.501647  1
  Li  Li6  1  0.834237  0.667016  0.499201  1
  Li  Li7  1  0.500120  0.000296  0.500934  1
  Li  Li8  1  0.713773  0.445028  0.499368  1
  Li  Li9  1  0.662239  0.583975  0.749990  1
  Li  Li10  1  0.502047  0.500294  0.999338  1
  Li  Li11  1  0.714367  0.948229  0.999662  1
  Li  Li12  1  0.380152  0.279036  0.998932  1
  Li  Li13  1  0.616042  0.718040  0.998114  1
  Li  Li14  1  0.284921  0.053939  0.001029  1
  Li  Li15  1  0.329685  0.416324  0.250269  1
  Li  Li16  1  0.285465  0.553428  0.499645  1
  Li  Li17  1  0.165977  0.333719  0.499768  1
  Li  Li18  1  0.380261  0.778641  0.500690  1
  Li  Li19  1  0.050149  0.112443  0.498528  1
  Li  Li20  1  0.332813  0.917366  0.750297  1
  Li  Li21  1  0.165690  0.833143  0.998161  1
  Li  Li22  1  0.999775  0.251385  0.749398  1
  Li  Li23  1  0.051217  0.614514  0.000745  1
  Mn  Mn24  1  0.890718  0.527218  0.250585  1
  Mn  Mn25  1  0.553835  0.360334  0.748689  1
  Mn  Mn26  1  0.445359  0.139854  0.750749  1
  Mn  Mn27  1  0.218516  0.193895  0.246777  1
  Mn  Mn28  1  0.223829  0.693889  0.750608  1
  Cr  Cr29  1  0.895253  0.031018  0.751132  1
  Cr  Cr30  1  0.769965  0.306153  0.250752  1
  Cr  Cr31  1  0.774593  0.806646  0.749027  1
  Cr  Cr32  1  0.559480  0.858575  0.252187  1
  Cr  Cr33  1  0.439062  0.636182  0.249104  1
  Cr  Cr34  1  0.104051  0.472999  0.750318  1
  Cr  Cr35  1  0.116125  0.974442  0.250536  1
  O  O36  1  0.996290  0.073408  0.136193  1
  O  O37  1  0.931265  0.216225  0.363433  1
  O  O38  1  0.003472  0.570358  0.638812  1
  O  O39  1  0.849594  0.354725  0.635977  1
  O  O40  1  0.735687  0.117579  0.636393  1
  O  O41  1  0.671335  0.403718  0.138407  1
  O  O42  1  0.931327  0.714174  0.864398  1
  O  O43  1  0.811961  0.474255  0.861574  1
  O  O44  1  0.592001  0.049446  0.864975  1
  O  O45  1  0.853645  0.858939  0.138428  1
  O  O46  1  0.741005  0.618043  0.135704  1
  O  O47  1  0.518809  0.188937  0.137054  1
  O  O48  1  0.668462  0.262270  0.861863  1
  O  O49  1  0.815093  0.978233  0.363591  1
  O  O50  1  0.598102  0.548548  0.363742  1
  O  O51  1  0.476681  0.308644  0.361235  1
  O  O52  1  0.665548  0.761890  0.363028  1
  O  O53  1  0.331746  0.094914  0.360919  1
  O  O54  1  0.673230  0.904882  0.638387  1
  O  O55  1  0.329655  0.237619  0.638183  1
  O  O56  1  0.519557  0.688441  0.636920  1
  O  O57  1  0.402455  0.450872  0.636302  1
  O  O58  1  0.197282  0.024785  0.637710  1
  O  O59  1  0.337014  0.736191  0.137970  1
  O  O60  1  0.478190  0.808724  0.861554  1
  O  O61  1  0.264775  0.382062  0.864177  1
  O  O62  1  0.144127  0.142895  0.861892  1
  O  O63  1  0.396943  0.951541  0.135821  1
  O  O64  1  0.188372  0.522953  0.137634  1
  O  O65  1  0.071639  0.285262  0.135438  1
  O  O66  1  0.337037  0.597470  0.863821  1
  O  O67  1  0.271535  0.881790  0.365732  1
  O  O68  1  0.139954  0.642880  0.361862  1
  O  O69  1  0.004137  0.430850  0.363657  1
  O  O70  1  0.068769  0.783961  0.636128  1
  O  O71  1  0.996652  0.930525  0.862607  1
