# generated using pymatgen
data_Li3V2F9
_symmetry_space_group_name_H-M   'P 1'
_cell_length_a   5.29664808
_cell_length_b   5.68048497
_cell_length_c   7.43985585
_cell_angle_alpha   84.57503583
_cell_angle_beta   90.00000019
_cell_angle_gamma   117.78885188
_symmetry_Int_Tables_number   1
_chemical_formula_structural   Li3V2F9
_chemical_formula_sum   'Li3 V2 F9'
_cell_volume   196.89694910
_cell_formula_units_Z   1
loop_
 _symmetry_equiv_pos_site_id
 _symmetry_equiv_pos_as_xyz
  1  'x, y, z'
loop_
 _atom_site_type_symbol
 _atom_site_label
 _atom_site_symmetry_multiplicity
 _atom_site_fract_x
 _atom_site_fract_y
 _atom_site_fract_z
 _atom_site_occupancy
  Li  Li0  1  0.184301  0.719996  0.461736  1
  Li  Li1  1  0.030784  1.000000  0.000000  1
  Li  Li2  1  0.464306  0.280004  0.538264  1
  V  V3  1  0.377696  0.712972  0.847705  1
  V  V4  1  0.664724  0.287028  0.152295  1
  F  F5  1  0.973437  0.518206  0.954334  1
  F  F6  1  0.288723  0.927017  0.666787  1
  F  F7  1  0.323898  0.489076  0.645371  1
  F  F8  1  0.779467  0.916029  0.810508  1
  F  F9  1  0.455231  0.481794  0.045666  1
  F  F10  1  0.361706  0.072983  0.333213  1
  F  F11  1  0.397265  0.000000  0.000000  1
  F  F12  1  0.834822  0.510924  0.354629  1
  F  F13  1  0.863438  0.083971  0.189492  1
