# generated using pymatgen
data_Li4Nb2Cr3Fe3O16
_symmetry_space_group_name_H-M   'P 1'
_cell_length_a   5.99738781
_cell_length_b   5.99304284
_cell_length_c   9.70454633
_cell_angle_alpha   89.99780022
_cell_angle_beta   90.49136266
_cell_angle_gamma   119.97685606
_symmetry_Int_Tables_number   1
_chemical_formula_structural   Li4Nb2Cr3Fe3O16
_chemical_formula_sum   'Li4 Nb2 Cr3 Fe3 O16'
_cell_volume   302.13109901
_cell_formula_units_Z   1
loop_
 _symmetry_equiv_pos_site_id
 _symmetry_equiv_pos_as_xyz
  1  'x, y, z'
loop_
 _atom_site_type_symbol
 _atom_site_label
 _atom_site_symmetry_multiplicity
 _atom_site_fract_x
 _atom_site_fract_y
 _atom_site_fract_z
 _atom_site_occupancy
  Li  Li0  1  0.332398  0.666210  0.903001  1
  Li  Li1  1  0.000198  0.000091  0.991361  1
  Li  Li2  1  0.000724  0.000342  0.491286  1
  Li  Li3  1  0.665680  0.332860  0.400498  1
  Nb  Nb4  1  0.331061  0.665554  0.492346  1
  Nb  Nb5  1  0.663482  0.331745  0.994602  1
  Cr  Cr6  1  0.170705  0.830081  0.214373  1
  Cr  Cr7  1  0.170729  0.340657  0.214387  1
  Cr  Cr8  1  0.341663  0.170861  0.713616  1
  Fe  Fe9  1  0.658117  0.829058  0.219051  1
  Fe  Fe10  1  0.829599  0.657999  0.717796  1
  Fe  Fe11  1  0.829595  0.171646  0.717812  1
  O  O12  1  0.170148  0.835063  0.592891  1
  O  O13  1  0.039829  0.519910  0.338949  1
  O  O14  1  0.337914  0.668976  0.108598  1
  O  O15  1  0.998501  0.999244  0.305810  1
  O  O16  1  -0.000138  -0.000041  0.804979  1
  O  O17  1  0.170170  0.335089  0.592872  1
  O  O18  1  0.477651  0.962026  0.342973  1
  O  O19  1  0.477662  0.515648  0.342974  1
  O  O20  1  0.333661  0.166850  0.095280  1
  O  O21  1  0.664733  0.832368  0.589507  1
  O  O22  1  0.516414  0.478046  0.842561  1
  O  O23  1  0.516396  0.038416  0.842580  1
  O  O24  1  0.670950  0.335483  0.607797  1
  O  O25  1  0.834965  0.664944  0.091932  1
  O  O26  1  0.962217  0.481132  0.846080  1
  O  O27  1  0.834977  0.170044  0.091930  1
