# generated using pymatgen
data_Li3CoPCO7
_symmetry_space_group_name_H-M   'P 1'
_cell_length_a   9.44892032
_cell_length_b   9.73247861
_cell_length_c   6.39209701
_cell_angle_alpha   90.00000000
_cell_angle_beta   90.00000000
_cell_angle_gamma   64.59275193
_symmetry_Int_Tables_number   1
_chemical_formula_structural   Li3CoPCO7
_chemical_formula_sum   'Li12 Co4 P4 C4 O28'
_cell_volume   530.97232908
_cell_formula_units_Z   4
loop_
 _symmetry_equiv_pos_site_id
 _symmetry_equiv_pos_as_xyz
  1  'x, y, z'
loop_
 _atom_site_type_symbol
 _atom_site_label
 _atom_site_symmetry_multiplicity
 _atom_site_fract_x
 _atom_site_fract_y
 _atom_site_fract_z
 _atom_site_occupancy
  Li  Li0  1  0.892310  0.442659  0.758649  1
  Li  Li1  1  0.892310  0.942659  0.741351  1
  Li  Li2  1  0.718338  0.263665  0.499335  1
  Li  Li3  1  0.718338  0.763665  0.000665  1
  Li  Li4  1  0.644993  0.065467  0.252855  1
  Li  Li5  1  0.644993  0.565467  0.247145  1
  Li  Li6  1  0.355007  0.434533  0.752855  1
  Li  Li7  1  0.355007  0.934533  0.747145  1
  Li  Li8  1  0.281662  0.236335  0.999335  1
  Li  Li9  1  0.281662  0.736335  0.500665  1
  Li  Li10  1  0.107690  0.057341  0.258649  1
  Li  Li11  1  0.107690  0.557341  0.241351  1
  Co  Co12  1  0.734693  0.258820  0.992267  1
  Co  Co13  1  0.734693  0.758820  0.507733  1
  Co  Co14  1  0.265307  0.241180  0.492267  1
  Co  Co15  1  0.265307  0.741180  0.007733  1
  P  P16  1  0.591642  0.065969  0.741567  1
  P  P17  1  0.591642  0.565969  0.758433  1
  P  P18  1  0.408358  0.434031  0.241567  1
  P  P19  1  0.408358  0.934031  0.258433  1
  C  C20  1  0.956905  0.371352  0.259664  1
  C  C21  1  0.956905  0.871352  0.240336  1
  C  C22  1  0.043095  0.128648  0.759664  1
  C  C23  1  0.043095  0.628648  0.740336  1
  O  O24  1  0.933580  0.010591  0.234951  1
  O  O25  1  0.933580  0.510591  0.265049  1
  O  O26  1  0.897620  0.238191  0.768392  1
  O  O27  1  0.842477  0.331817  0.246142  1
  O  O28  1  0.897620  0.738191  0.731608  1
  O  O29  1  0.842477  0.831817  0.253858  1
  O  O30  1  0.683625  0.072965  0.941472  1
  O  O31  1  0.694147  0.072556  0.557587  1
  O  O32  1  0.694147  0.572556  0.942413  1
  O  O33  1  0.683625  0.572965  0.558528  1
  O  O34  1  0.576911  0.304864  0.240774  1
  O  O35  1  0.581785  0.409219  0.762549  1
  O  O36  1  0.576911  0.804864  0.259226  1
  O  O37  1  0.581785  0.909219  0.737451  1
  O  O38  1  0.418215  0.090781  0.262549  1
  O  O39  1  0.423089  0.195136  0.740774  1
  O  O40  1  0.418215  0.590781  0.237451  1
  O  O41  1  0.423089  0.695136  0.759226  1
  O  O42  1  0.305853  0.427444  0.057587  1
  O  O43  1  0.316375  0.427035  0.441472  1
  O  O44  1  0.316375  0.927035  0.058528  1
  O  O45  1  0.305853  0.927444  0.442413  1
  O  O46  1  0.157523  0.168183  0.746142  1
  O  O47  1  0.102380  0.261809  0.268392  1
  O  O48  1  0.157523  0.668183  0.753858  1
  O  O49  1  0.102380  0.761809  0.231608  1
  O  O50  1  0.066420  0.489409  0.734951  1
  O  O51  1  0.066420  0.989409  0.765049  1
