# generated using pymatgen
data_Li3V3P8O29
_symmetry_space_group_name_H-M   'P 1'
_cell_length_a   9.79618023
_cell_length_b   9.73813134
_cell_length_c   14.20857357
_cell_angle_alpha   89.54711852
_cell_angle_beta   90.07190430
_cell_angle_gamma   59.82144544
_symmetry_Int_Tables_number   1
_chemical_formula_structural   Li3V3P8O29
_chemical_formula_sum   'Li6 V6 P16 O58'
_cell_volume   1171.67667113
_cell_formula_units_Z   2
loop_
 _symmetry_equiv_pos_site_id
 _symmetry_equiv_pos_as_xyz
  1  'x, y, z'
loop_
 _atom_site_type_symbol
 _atom_site_label
 _atom_site_symmetry_multiplicity
 _atom_site_fract_x
 _atom_site_fract_y
 _atom_site_fract_z
 _atom_site_occupancy
  Li  Li0  1  0.917299  0.768134  0.060043  1
  Li  Li1  1  0.663339  0.667497  0.895464  1
  Li  Li2  1  0.671699  0.233843  0.440291  1
  Li  Li3  1  0.333290  0.763085  0.556447  1
  Li  Li4  1  0.015975  0.039370  0.996501  1
  Li  Li5  1  0.999901  0.996977  0.499068  1
  V  V6  1  0.565153  0.438051  0.240439  1
  V  V7  1  0.431013  0.564326  0.755312  1
  V  V8  1  0.566085  0.000162  0.748382  1
  V  V9  1  0.434513  0.002324  0.248031  1
  V  V10  1  0.003565  0.557813  0.257881  1
  V  V11  1  0.999472  0.432243  0.743154  1
  P  P12  1  0.909765  0.773139  0.842676  1
  P  P13  1  0.775821  0.916298  0.341695  1
  P  P14  1  0.913390  0.300727  0.342660  1
  P  P15  1  0.670188  0.671172  0.131065  1
  P  P16  1  0.660851  0.668146  0.631025  1
  P  P17  1  0.784363  0.305722  0.839773  1
  P  P18  1  0.687229  0.227717  0.658005  1
  P  P19  1  0.308079  0.913815  0.846241  1
  P  P20  1  0.693116  0.082469  0.156361  1
  P  P21  1  0.315240  0.772919  0.340722  1
  P  P22  1  0.215784  0.696106  0.159942  1
  P  P23  1  0.342554  0.328841  0.367163  1
  P  P24  1  0.328939  0.330292  0.868645  1
  P  P25  1  0.081885  0.699904  0.659831  1
  P  P26  1  0.223737  0.079622  0.659601  1
  P  P27  1  0.082756  0.223700  0.158555  1
  O  O28  1  0.006137  0.802494  0.576660  1
  O  O29  1  0.909373  0.738965  0.333353  1
  O  O30  1  0.789380  0.997830  0.073393  1
  O  O31  1  0.737086  0.916188  0.830931  1
  O  O32  1  0.896500  0.622429  0.826262  1
  O  O33  1  0.819286  0.669035  0.170957  1
  O  O34  1  0.919889  0.458697  0.331023  1
  O  O35  1  0.008661  0.209225  0.072052  1
  O  O36  1  0.918802  0.346726  0.830285  1
  O  O37  1  0.660743  0.813490  0.679932  1
  O  O38  1  0.615895  0.922699  0.330339  1
  O  O39  1  0.811375  0.519767  0.674505  1
  O  O40  1  0.668121  0.673203  0.026062  1
  O  O41  1  0.654127  0.675174  0.527003  1
  O  O42  1  0.668050  0.520464  0.172368  1
  O  O43  1  0.471154  0.903377  0.835000  1
  O  O44  1  0.523830  0.815603  0.175593  1
  O  O45  1  0.736933  0.345506  0.333044  1
  O  O46  1  0.802284  0.208735  0.743368  1
  O  O47  1  0.761726  0.218236  0.565607  1
  O  O48  1  0.802889  0.206933  0.923112  1
  O  O49  1  0.626494  0.470597  0.830745  1
  O  O50  1  0.512784  0.667633  0.673817  1
  O  O51  1  0.652499  0.259120  0.164098  1
  O  O52  1  0.470786  0.614842  0.322458  1
  O  O53  1  0.349050  0.911247  0.327350  1
  O  O54  1  0.798086  0.999827  0.249233  1
  O  O55  1  0.793799  0.999437  0.424252  1
  O  O56  1  0.209974  0.992961  0.577842  1
  O  O57  1  0.652450  0.088627  0.670555  1
  O  O58  1  0.532263  0.384517  0.676832  1
  O  O59  1  0.347951  0.736260  0.833495  1
  O  O60  1  0.489406  0.330344  0.324385  1
  O  O61  1  0.379316  0.537116  0.171482  1
  O  O62  1  0.200032  0.792253  0.075750  1
  O  O63  1  0.240086  0.781482  0.433071  1
  O  O64  1  0.197136  0.791363  0.256700  1
  O  O65  1  0.259807  0.656069  0.666479  1
  O  O66  1  0.469918  0.181138  0.821900  1
  O  O67  1  0.536725  0.081037  0.169167  1
  O  O68  1  0.340551  0.474809  0.823839  1
  O  O69  1  0.328473  0.333265  0.972092  1
  O  O70  1  0.346245  0.327106  0.471351  1
  O  O71  1  0.189297  0.478688  0.323315  1
  O  O72  1  0.382626  0.075905  0.671357  1
  O  O73  1  0.338222  0.186106  0.320304  1
  O  O74  1  0.082668  0.653223  0.166433  1
  O  O75  1  0.006479  0.792590  0.757398  1
  O  O76  1  0.980504  0.777845  0.933772  1
  O  O77  1  0.073834  0.544797  0.670128  1
  O  O78  1  0.178985  0.345416  0.819127  1
  O  O79  1  0.076911  0.384755  0.175110  1
  O  O80  1  0.259238  0.090908  0.169610  1
  O  O81  1  0.213202  0.987349  0.930304  1
  O  O82  1  0.202505  0.001547  0.754366  1
  O  O83  1  0.088009  0.256585  0.664140  1
  O  O84  1  0.987317  0.204531  0.428335  1
  O  O85  1  0.996383  0.201551  0.249315  1
