# generated using pymatgen
data_NaCa3Fe4(SiO3)8
_symmetry_space_group_name_H-M   'P 1'
_cell_length_a   11.28612115
_cell_length_b   10.44187511
_cell_length_c   10.44187545
_cell_angle_alpha   54.42062139
_cell_angle_beta   41.03111446
_cell_angle_gamma   41.03112111
_symmetry_Int_Tables_number   1
_chemical_formula_structural   NaCa3Fe4(SiO3)8
_chemical_formula_sum   'Na1 Ca3 Fe4 Si8 O24'
_cell_volume   530.07682778
_cell_formula_units_Z   1
loop_
 _symmetry_equiv_pos_site_id
 _symmetry_equiv_pos_as_xyz
  1  'x, y, z'
loop_
 _atom_site_type_symbol
 _atom_site_label
 _atom_site_symmetry_multiplicity
 _atom_site_fract_x
 _atom_site_fract_y
 _atom_site_fract_z
 _atom_site_occupancy
  Na  Na0  1  0.625000  0.716822  0.283178  1
  Ca  Ca1  1  0.125000  0.748118  0.251882  1
  Ca  Ca2  1  0.369131  0.267592  0.749577  1
  Ca  Ca3  1  0.880869  0.250423  0.732408  1
  Fe  Fe4  1  0.125000  0.136116  0.863884  1
  Fe  Fe5  1  0.372763  0.864698  0.150945  1
  Fe  Fe6  1  0.625000  0.075334  0.924666  1
  Fe  Fe7  1  0.877237  0.849055  0.135302  1
  Si  Si8  1  0.147551  0.226704  0.259351  1
  Si  Si9  1  0.410355  0.253872  0.212505  1
  Si  Si10  1  0.667019  0.216774  0.241443  1
  Si  Si11  1  0.102449  0.740649  0.773296  1
  Si  Si12  1  0.908451  0.254123  0.218980  1
  Si  Si13  1  0.341549  0.781020  0.745877  1
  Si  Si14  1  0.582981  0.758557  0.783226  1
  Si  Si15  1  0.839645  0.787495  0.746128  1
  O  O16  1  0.066266  0.016332  0.232350  1
  O  O17  1  0.319425  0.227912  0.020202  1
  O  O18  1  0.146982  0.332649  0.337878  1
  O  O19  1  0.237390  0.008424  0.670641  1
  O  O20  1  0.573123  0.015595  0.200000  1
  O  O21  1  0.012610  0.329359  0.991576  1
  O  O22  1  0.407106  0.335058  0.314819  1
  O  O23  1  0.103018  0.662122  0.667351  1
  O  O24  1  0.484193  0.682995  0.010831  1
  O  O25  1  0.817926  0.235623  0.005057  1
  O  O26  1  0.240864  0.004719  0.342604  1
  O  O27  1  0.652907  0.321970  0.333759  1
  O  O28  1  0.356210  0.674959  0.653815  1
  O  O29  1  0.729020  0.020594  0.682225  1
  O  O30  1  0.183734  0.767650  0.983668  1
  O  O31  1  0.520980  0.317775  0.979406  1
  O  O32  1  0.893790  0.346185  0.325041  1
  O  O33  1  0.597093  0.666241  0.678030  1
  O  O34  1  0.009136  0.657396  0.995281  1
  O  O35  1  0.432074  0.994943  0.764377  1
  O  O36  1  0.765807  0.989169  0.317005  1
  O  O37  1  0.842894  0.685181  0.664942  1
  O  O38  1  0.676877  0.800000  0.984405  1
  O  O39  1  0.930575  0.979798  0.772088  1
