# generated using pymatgen
data_Li3SbS3
_symmetry_space_group_name_H-M   'P 1'
_cell_length_a   8.51688283
_cell_length_b   10.51850469
_cell_length_c   13.73167431
_cell_angle_alpha   90.00000000
_cell_angle_beta   91.49625771
_cell_angle_gamma   90.00000000
_symmetry_Int_Tables_number   1
_chemical_formula_structural   Li3SbS3
_chemical_formula_sum   'Li24 Sb8 S24'
_cell_volume   1229.73084457
_cell_formula_units_Z   8
loop_
 _symmetry_equiv_pos_site_id
 _symmetry_equiv_pos_as_xyz
  1  'x, y, z'
loop_
 _atom_site_type_symbol
 _atom_site_label
 _atom_site_symmetry_multiplicity
 _atom_site_fract_x
 _atom_site_fract_y
 _atom_site_fract_z
 _atom_site_occupancy
  Li  Li0  1  0.070580  0.958214  0.895808  1
  Li  Li1  1  0.070580  0.541786  0.395808  1
  Li  Li2  1  0.171711  0.114834  0.702817  1
  Li  Li3  1  0.171711  0.385166  0.202817  1
  Li  Li4  1  0.157202  0.585853  0.918959  1
  Li  Li5  1  0.157202  0.914147  0.418959  1
  Li  Li6  1  0.302701  0.407261  0.674893  1
  Li  Li7  1  0.302701  0.092739  0.174893  1
  Li  Li8  1  0.372674  0.893465  0.961589  1
  Li  Li9  1  0.372674  0.606535  0.461589  1
  Li  Li10  1  0.428233  0.019983  0.605136  1
  Li  Li11  1  0.428233  0.480017  0.105136  1
  Li  Li12  1  0.571767  0.519983  0.894864  1
  Li  Li13  1  0.571767  0.980017  0.394864  1
  Li  Li14  1  0.627326  0.393465  0.538411  1
  Li  Li15  1  0.627326  0.106535  0.038411  1
  Li  Li16  1  0.697299  0.907261  0.825107  1
  Li  Li17  1  0.697299  0.592739  0.325107  1
  Li  Li18  1  0.842798  0.085853  0.581041  1
  Li  Li19  1  0.842798  0.414147  0.081041  1
  Li  Li20  1  0.828289  0.614834  0.797183  1
  Li  Li21  1  0.828289  0.885166  0.297183  1
  Li  Li22  1  0.929420  0.458214  0.604192  1
  Li  Li23  1  0.929420  0.041786  0.104192  1
  Sb  Sb24  1  0.229101  0.253750  0.942383  1
  Sb  Sb25  1  0.229101  0.246250  0.442383  1
  Sb  Sb26  1  0.250254  0.751303  0.693286  1
  Sb  Sb27  1  0.250254  0.748697  0.193286  1
  Sb  Sb28  1  0.749746  0.251303  0.806714  1
  Sb  Sb29  1  0.749746  0.248697  0.306714  1
  Sb  Sb30  1  0.770899  0.753750  0.557617  1
  Sb  Sb31  1  0.770899  0.746250  0.057617  1
  S  S32  1  0.046417  0.753553  0.817454  1
  S  S33  1  0.046417  0.746447  0.317454  1
  S  S34  1  0.165764  0.935084  0.594419  1
  S  S35  1  0.165764  0.564916  0.094419  1
  S  S36  1  0.172798  0.575392  0.580854  1
  S  S37  1  0.172798  0.924608  0.080854  1
  S  S38  1  0.318961  0.067425  0.849159  1
  S  S39  1  0.330331  0.431344  0.846652  1
  S  S40  1  0.318961  0.432575  0.349159  1
  S  S41  1  0.330331  0.068656  0.346652  1
  S  S42  1  0.425061  0.244785  0.579128  1
  S  S43  1  0.425061  0.255215  0.079128  1
  S  S44  1  0.574939  0.744785  0.920872  1
  S  S45  1  0.574939  0.755215  0.420872  1
  S  S46  1  0.669669  0.931344  0.653348  1
  S  S47  1  0.681039  0.567425  0.650841  1
  S  S48  1  0.669669  0.568656  0.153348  1
  S  S49  1  0.681039  0.932575  0.150841  1
  S  S50  1  0.827202  0.075392  0.919146  1
  S  S51  1  0.827202  0.424608  0.419146  1
  S  S52  1  0.834236  0.435084  0.905581  1
  S  S53  1  0.834236  0.064916  0.405581  1
  S  S54  1  0.953583  0.253553  0.682546  1
  S  S55  1  0.953583  0.246447  0.182546  1
