# generated using pymatgen
data_V2P2O7
_symmetry_space_group_name_H-M   'P 1'
_cell_length_a   5.43438456
_cell_length_b   10.42047912
_cell_length_c   4.53984286
_cell_angle_alpha   90.00000000
_cell_angle_beta   96.52947307
_cell_angle_gamma   90.00000000
_symmetry_Int_Tables_number   1
_chemical_formula_structural   V2P2O7
_chemical_formula_sum   'V4 P4 O14'
_cell_volume   255.41867399
_cell_formula_units_Z   2
loop_
 _symmetry_equiv_pos_site_id
 _symmetry_equiv_pos_as_xyz
  1  'x, y, z'
loop_
 _atom_site_type_symbol
 _atom_site_label
 _atom_site_symmetry_multiplicity
 _atom_site_fract_x
 _atom_site_fract_y
 _atom_site_fract_z
 _atom_site_occupancy
  V  V0  1  0.082807  0.156424  0.405585  1
  V  V1  1  0.417193  0.656424  0.594415  1
  V  V2  1  0.582807  0.343576  0.405585  1
  V  V3  1  0.917193  0.843576  0.594415  1
  P  P4  1  0.151393  0.390097  0.859502  1
  P  P5  1  0.348607  0.890097  0.140498  1
  P  P6  1  0.651393  0.109903  0.859502  1
  P  P7  1  0.848607  0.609903  0.140498  1
  O  O8  1  0.035810  0.674673  0.373258  1
  O  O9  1  0.000000  0.500000  0.000000  1
  O  O10  1  0.137143  0.955141  0.284392  1
  O  O11  1  0.250208  0.800558  0.885321  1
  O  O12  1  0.249792  0.300558  0.114679  1
  O  O13  1  0.362857  0.455141  0.715608  1
  O  O14  1  0.464190  0.174673  0.626742  1
  O  O15  1  0.535810  0.825327  0.373258  1
  O  O16  1  0.500000  0.000000  0.000000  1
  O  O17  1  0.637143  0.544859  0.284392  1
  O  O18  1  0.750208  0.699442  0.885321  1
  O  O19  1  0.749792  0.199442  0.114679  1
  O  O20  1  0.862857  0.044859  0.715608  1
  O  O21  1  0.964190  0.325327  0.626742  1
