# generated using pymatgen
data_LiVFe(P2O7)2
_symmetry_space_group_name_H-M   'P 1'
_cell_length_a   13.69715363
_cell_length_b   8.09736729
_cell_length_c   7.17115847
_cell_angle_alpha   90.06676957
_cell_angle_beta   97.23918920
_cell_angle_gamma   90.08922579
_symmetry_Int_Tables_number   1
_chemical_formula_structural   LiVFe(P2O7)2
_chemical_formula_sum   'Li3 V3 Fe3 P12 O42'
_cell_volume   789.01780889
_cell_formula_units_Z   3
loop_
 _symmetry_equiv_pos_site_id
 _symmetry_equiv_pos_as_xyz
  1  'x, y, z'
loop_
 _atom_site_type_symbol
 _atom_site_label
 _atom_site_symmetry_multiplicity
 _atom_site_fract_x
 _atom_site_fract_y
 _atom_site_fract_z
 _atom_site_occupancy
  Li  Li0  1  0.166921  0.864063  0.840149  1
  Li  Li1  1  0.498904  0.361614  0.826581  1
  Li  Li2  1  0.832512  0.360857  0.161476  1
  V  V3  1  0.162648  0.494822  0.884023  1
  V  V4  1  0.495567  0.507495  0.225035  1
  V  V5  1  0.830289  0.506680  0.556208  1
  Fe  Fe6  1  0.171965  0.009853  0.437274  1
  Fe  Fe7  1  0.506107  0.993745  0.779636  1
  Fe  Fe8  1  0.837468  0.994960  0.115239  1
  P  P9  1  0.043562  0.779415  0.130892  1
  P  P10  1  0.042232  0.677939  0.521871  1
  P  P11  1  0.290512  0.285330  0.204483  1
  P  P12  1  0.293799  0.180753  0.817550  1
  P  P13  1  0.375955  0.781990  0.461649  1
  P  P14  1  0.373590  0.681895  0.850740  1
  P  P15  1  0.625681  0.179253  0.147439  1
  P  P16  1  0.624055  0.285303  0.534639  1
  P  P17  1  0.706970  0.680710  0.184733  1
  P  P18  1  0.711041  0.780583  0.794836  1
  P  P19  1  0.959809  0.177311  0.479831  1
  P  P20  1  0.955669  0.283687  0.867325  1
  O  O21  1  0.052977  0.647940  0.303954  1
  O  O22  1  0.106558  0.932088  0.186125  1
  O  O23  1  0.068551  0.178579  0.461891  1
  O  O24  1  0.084904  0.847130  0.579601  1
  O  O25  1  0.098350  0.537489  0.629623  1
  O  O26  1  0.227955  0.435611  0.131666  1
  O  O27  1  0.064720  0.332251  0.915821  1
  O  O28  1  0.284261  0.149679  0.037530  1
  O  O29  1  0.086227  0.685197  0.972364  1
  O  O30  1  0.256201  0.193780  0.366731  1
  O  O31  1  0.268189  0.825666  0.411033  1
  O  O32  1  0.233571  0.040625  0.718664  1
  O  O33  1  0.247702  0.351355  0.768260  1
  O  O34  1  0.262305  0.673425  0.870341  1
  O  O35  1  0.399006  0.339577  0.248424  1
  O  O36  1  0.414133  0.680949  0.304478  1
  O  O37  1  0.384687  0.646399  0.634097  1
  O  O38  1  0.439934  0.930757  0.526430  1
  O  O39  1  0.402682  0.184248  0.792357  1
  O  O40  1  0.569421  0.040233  0.042217  1
  O  O41  1  0.576268  0.348485  0.095338  1
  O  O42  1  0.414114  0.851837  0.904535  1
  O  O43  1  0.432720  0.540171  0.954258  1
  O  O44  1  0.596680  0.663858  0.205855  1
  O  O45  1  0.560159  0.437321  0.472061  1
  O  O46  1  0.615981  0.151336  0.368837  1
  O  O47  1  0.585796  0.201024  0.700553  1
  O  O48  1  0.602826  0.820791  0.740820  1
  O  O49  1  0.735485  0.186277  0.128202  1
  O  O50  1  0.746043  0.850753  0.238230  1
  O  O51  1  0.767729  0.539863  0.287596  1
  O  O52  1  0.732700  0.337502  0.580199  1
  O  O53  1  0.749183  0.679475  0.638121  1
  O  O54  1  0.917171  0.200159  0.033186  1
  O  O55  1  0.717742  0.645406  0.967592  1
  O  O56  1  0.935412  0.818703  0.076215  1
  O  O57  1  0.773545  0.930181  0.859750  1
  O  O58  1  0.900554  0.040086  0.375646  1
  O  O59  1  0.910815  0.347765  0.428597  1
  O  O60  1  0.930702  0.665605  0.537676  1
  O  O61  1  0.893365  0.437493  0.804709  1
  O  O62  1  0.948284  0.150166  0.701935  1
