# generated using pymatgen
data_KYbP4(H4O9)2
_symmetry_space_group_name_H-M   'P 1'
_cell_length_a   7.40826751
_cell_length_b   7.40826751
_cell_length_c   15.13367230
_cell_angle_alpha   89.87723667
_cell_angle_beta   90.12276333
_cell_angle_gamma   71.03522792
_symmetry_Int_Tables_number   1
_chemical_formula_structural   KYbP4(H4O9)2
_chemical_formula_sum   'K2 Yb2 P8 H16 O36'
_cell_volume   785.48265807
_cell_formula_units_Z   2
loop_
 _symmetry_equiv_pos_site_id
 _symmetry_equiv_pos_as_xyz
  1  'x, y, z'
loop_
 _atom_site_type_symbol
 _atom_site_label
 _atom_site_symmetry_multiplicity
 _atom_site_fract_x
 _atom_site_fract_y
 _atom_site_fract_z
 _atom_site_occupancy
  Yb  Yb0  1  0.889586  0.889586  0.750000  1
  Yb  Yb1  1  0.110414  0.110414  0.250000  1
  K  K2  1  0.553361  0.553361  0.750000  1
  K  K3  1  0.446639  0.446639  0.250000  1
  P  P4  1  0.978402  0.209936  0.584030  1
  P  P5  1  0.209936  0.978402  0.915970  1
  P  P6  1  0.021598  0.790064  0.415970  1
  P  P7  1  0.790064  0.021598  0.084030  1
  P  P8  1  0.816236  0.245726  0.925064  1
  P  P9  1  0.245726  0.816236  0.574936  1
  P  P10  1  0.183764  0.754274  0.074936  1
  P  P11  1  0.754274  0.183764  0.425064  1
  H  H12  1  0.755873  0.670709  0.898467  1
  H  H13  1  0.670709  0.755873  0.601533  1
  H  H14  1  0.244127  0.329291  0.101533  1
  H  H15  1  0.329291  0.244127  0.398467  1
  H  H16  1  0.878273  0.601069  0.613493  1
  H  H17  1  0.601069  0.878273  0.886507  1
  H  H18  1  0.121727  0.398931  0.386507  1
  H  H19  1  0.398931  0.121727  0.113493  1
  H  H20  1  0.114117  0.488054  0.828568  1
  H  H21  1  0.488054  0.114117  0.671432  1
  H  H22  1  0.885883  0.511946  0.171432  1
  H  H23  1  0.511946  0.885883  0.328568  1
  H  H24  1  0.061123  0.458133  0.727026  1
  H  H25  1  0.458133  0.061123  0.772974  1
  H  H26  1  0.938877  0.541867  0.272974  1
  H  H27  1  0.541867  0.938877  0.227026  1
  O  O28  1  0.039834  0.160922  0.952241  1
  O  O29  1  0.160922  0.039834  0.547759  1
  O  O30  1  0.960166  0.839078  0.047759  1
  O  O31  1  0.839078  0.960166  0.452241  1
  O  O32  1  0.859820  0.283264  0.494071  1
  O  O33  1  0.283264  0.859820  0.005929  1
  O  O34  1  0.140180  0.716736  0.505929  1
  O  O35  1  0.716736  0.140180  0.994071  1
  O  O36  1  0.137418  0.861390  0.853331  1
  O  O37  1  0.861390  0.137418  0.646669  1
  O  O38  1  0.862582  0.138610  0.146669  1
  O  O39  1  0.138610  0.862582  0.353331  1
  O  O40  1  0.049342  0.368805  0.614403  1
  O  O41  1  0.368805  0.049342  0.885597  1
  O  O42  1  0.950658  0.631195  0.385597  1
  O  O43  1  0.631195  0.950658  0.114403  1
  O  O44  1  0.188189  0.783530  0.666530  1
  O  O45  1  0.783530  0.188189  0.833470  1
  O  O46  1  0.811811  0.216470  0.333470  1
  O  O47  1  0.216470  0.811811  0.166530  1
  O  O48  1  0.751582  0.456834  0.945635  1
  O  O49  1  0.456834  0.751582  0.554365  1
  O  O50  1  0.248418  0.543166  0.054365  1
  O  O51  1  0.543166  0.248418  0.445635  1
  O  O52  1  0.788283  0.719759  0.637946  1
  O  O53  1  0.719759  0.788283  0.862054  1
  O  O54  1  0.211717  0.280241  0.362054  1
  O  O55  1  0.280241  0.211717  0.137946  1
  O  O56  1  0.319668  0.420844  0.895095  1
  O  O57  1  0.420844  0.319668  0.604905  1
  O  O58  1  0.680332  0.579156  0.104905  1
  O  O59  1  0.579156  0.680332  0.395095  1
  O  O60  1  0.029327  0.544754  0.778179  1
  O  O61  1  0.544754  0.029327  0.721821  1
  O  O62  1  0.970673  0.455246  0.221821  1
  O  O63  1  0.455246  0.970673  0.278179  1
