# generated using pymatgen
data_Li7Mn(OF)3
_symmetry_space_group_name_H-M   'P 1'
_cell_length_a   5.47735663
_cell_length_b   6.52415515
_cell_length_c   10.28970617
_cell_angle_alpha   84.38419777
_cell_angle_beta   76.22640041
_cell_angle_gamma   119.97240230
_symmetry_Int_Tables_number   1
_chemical_formula_structural   Li7Mn(OF)3
_chemical_formula_sum   'Li14 Mn2 O6 F6'
_cell_volume   298.92249106
_cell_formula_units_Z   2
loop_
 _symmetry_equiv_pos_site_id
 _symmetry_equiv_pos_as_xyz
  1  'x, y, z'
loop_
 _atom_site_type_symbol
 _atom_site_label
 _atom_site_symmetry_multiplicity
 _atom_site_fract_x
 _atom_site_fract_y
 _atom_site_fract_z
 _atom_site_occupancy
  Li  Li0  1  0.102518  0.100451  0.224877  1
  Li  Li1  1  0.107164  0.619139  0.746361  1
  Li  Li2  1  0.461010  0.951667  0.396565  1
  Li  Li3  1  0.532486  0.532901  0.119994  1
  Li  Li4  1  0.270260  0.226149  0.445318  1
  Li  Li5  1  0.202014  0.681628  0.951451  1
  Li  Li6  1  0.302713  0.374248  0.666424  1
  Li  Li7  1  0.732004  0.257049  0.055763  1
  Li  Li8  1  0.763476  0.809967  0.538740  1
  Li  Li9  1  0.473181  0.491400  0.890001  1
  Li  Li10  1  0.513747  0.011874  0.617535  1
  Li  Li11  1  0.878954  0.394362  0.277009  1
  Li  Li12  1  0.940025  0.897226  0.740647  1
  Li  Li13  1  0.691463  0.128295  0.815270  1
  Mn  Mn14  1  0.086240  0.058182  0.955419  1
  Mn  Mn15  1  0.988656  0.451928  0.517203  1
  O  O16  1  0.251457  0.926596  0.808458  1
  O  O17  1  0.391638  0.248947  0.042518  1
  O  O18  1  0.357097  0.694928  0.558690  1
  O  O19  1  0.061926  0.357352  0.875339  1
  O  O20  1  0.621363  0.276085  0.465440  1
  O  O21  1  0.929952  0.126646  0.625230  1
  F  F22  1  0.100347  0.926249  0.382895  1
  F  F23  1  0.240340  0.419486  0.295853  1
  F  F24  1  0.906044  0.586564  0.117602  1
  F  F25  1  0.611133  0.788135  0.949059  1
  F  F26  1  0.733707  0.579094  0.707067  1
  F  F27  1  0.749088  0.083452  0.213270  1
