# generated using pymatgen
data_Fe5(O4F)2
_symmetry_space_group_name_H-M   'P 1'
_cell_length_a   4.59761130
_cell_length_b   7.64973772
_cell_length_c   9.69365783
_cell_angle_alpha   108.54114174
_cell_angle_beta   90.00000000
_cell_angle_gamma   90.00000000
_symmetry_Int_Tables_number   1
_chemical_formula_structural   Fe5(O4F)2
_chemical_formula_sum   'Fe10 O16 F4'
_cell_volume   323.23516236
_cell_formula_units_Z   2
loop_
 _symmetry_equiv_pos_site_id
 _symmetry_equiv_pos_as_xyz
  1  'x, y, z'
loop_
 _atom_site_type_symbol
 _atom_site_label
 _atom_site_symmetry_multiplicity
 _atom_site_fract_x
 _atom_site_fract_y
 _atom_site_fract_z
 _atom_site_occupancy
  Fe  Fe0  1  0.518533  0.310664  0.908041  1
  Fe  Fe1  1  0.481467  0.089336  0.291959  1
  Fe  Fe2  1  0.519841  0.890081  0.703107  1
  Fe  Fe3  1  0.500000  0.700000  0.100000  1
  Fe  Fe4  1  0.480159  0.509919  0.496893  1
  Fe  Fe5  1  0.018533  0.589336  0.791959  1
  Fe  Fe6  1  0.000000  0.200000  0.600000  1
  Fe  Fe7  1  0.981467  0.810664  0.408041  1
  Fe  Fe8  1  0.980159  0.390081  0.203107  1
  Fe  Fe9  1  0.019841  0.009919  0.996893  1
  O  O10  1  0.800472  0.965107  0.584269  1
  O  O11  1  0.800304  0.564775  0.378382  1
  O  O12  1  0.807740  0.363158  0.777578  1
  O  O13  1  0.800757  0.152286  0.175075  1
  O  O14  1  0.699696  0.064775  0.878382  1
  O  O15  1  0.699243  0.652286  0.675075  1
  O  O16  1  0.699528  0.465107  0.084269  1
  O  O17  1  0.692260  0.863158  0.277578  1
  O  O18  1  0.300757  0.747714  0.524925  1
  O  O19  1  0.300304  0.335225  0.321618  1
  O  O20  1  0.300472  0.934893  0.115731  1
  O  O21  1  0.307739  0.536842  0.922422  1
  O  O22  1  0.199528  0.434893  0.615731  1
  O  O23  1  0.192261  0.036842  0.422422  1
  O  O24  1  0.199696  0.835225  0.821618  1
  O  O25  1  0.199243  0.247714  0.024925  1
  F  F26  1  0.808070  0.758891  0.975125  1
  F  F27  1  0.691930  0.258891  0.475125  1
  F  F28  1  0.308070  0.141109  0.724875  1
  F  F29  1  0.191930  0.641109  0.224875  1
