# generated using pymatgen
data_Li4V2C4SO16
_symmetry_space_group_name_H-M   'P 1'
_cell_length_a   9.51097000
_cell_length_b   9.48717742
_cell_length_c   9.51097000
_cell_angle_alpha   61.04069440
_cell_angle_beta   88.04893725
_cell_angle_gamma   118.95930560
_symmetry_Int_Tables_number   1
_chemical_formula_structural   Li4V2C4SO16
_chemical_formula_sum   'Li8 V4 C8 S2 O32'
_cell_volume   615.27405656
_cell_formula_units_Z   2
loop_
 _symmetry_equiv_pos_site_id
 _symmetry_equiv_pos_as_xyz
  1  'x, y, z'
loop_
 _atom_site_type_symbol
 _atom_site_label
 _atom_site_symmetry_multiplicity
 _atom_site_fract_x
 _atom_site_fract_y
 _atom_site_fract_z
 _atom_site_occupancy
  Li  Li0  1  0.911817  0.250000  0.338183  1
  Li  Li1  1  0.684427  0.750000  0.065573  1
  Li  Li2  1  0.911388  0.250000  0.911388  1
  Li  Li3  1  0.338612  0.250000  0.338612  1
  Li  Li4  1  0.912280  0.824560  0.337720  1
  Li  Li5  1  0.338183  0.250000  0.911817  1
  Li  Li6  1  0.337720  0.675440  0.912280  1
  Li  Li7  1  0.065573  0.750000  0.684427  1
  V  V8  1  0.497714  -0.000047  0.999433  1
  V  V9  1  0.502239  -0.000047  0.500614  1
  V  V10  1  0.500614  0.500047  0.502239  1
  V  V11  1  0.999433  0.500047  0.497714  1
  C  C12  1  0.717721  0.066605  0.711244  1
  C  C13  1  0.722152  0.433395  0.348884  1
  C  C14  1  0.348884  0.066605  0.722152  1
  C  C15  1  0.711244  0.433395  0.717721  1
  C  C16  1  0.290662  0.563218  0.278801  1
  C  C17  1  0.657980  0.936782  0.272556  1
  C  C18  1  0.272556  0.563218  0.657980  1
  C  C19  1  0.278801  0.936782  0.290662  1
  S  S20  1  0.125000  0.250000  0.125000  1
  S  S21  1  0.875000  0.750000  0.875000  1
  O  O22  1  0.659393  0.057391  0.126533  1
  O  O23  1  0.856142  0.209333  0.581877  1
  O  O24  1  0.708788  0.290667  0.353191  1
  O  O25  1  0.397997  0.057391  0.316076  1
  O  O26  1  0.861452  0.560650  0.351505  1
  O  O27  1  0.317277  0.376989  0.059331  1
  O  O28  1  0.063679  0.123011  0.059713  1
  O  O29  1  0.702823  0.046167  0.857973  1
  O  O30  1  0.595860  0.453833  0.343344  1
  O  O31  1  0.343344  0.046167  0.595860  1
  O  O32  1  0.857973  0.453833  0.702823  1
  O  O33  1  0.059331  0.123011  0.317277  1
  O  O34  1  0.059713  0.376989  0.063679  1
  O  O35  1  0.665868  0.795325  0.293731  1
  O  O36  1  0.410944  0.704675  0.129457  1
  O  O37  1  0.699198  0.560650  0.587845  1
  O  O38  1  0.316076  0.442609  0.397997  1
  O  O39  1  0.353191  0.209333  0.708788  1
  O  O40  1  0.581877  0.290667  0.856142  1
  O  O41  1  0.944118  0.626525  0.929764  1
  O  O42  1  0.943711  0.873475  0.682407  1
  O  O43  1  0.143796  0.536636  0.308038  1
  O  O44  1  0.655326  0.963364  0.392842  1
  O  O45  1  0.308038  0.963364  0.143796  1
  O  O46  1  0.392842  0.536636  0.655326  1
  O  O47  1  0.929764  0.873475  0.944118  1
  O  O48  1  0.682407  0.626525  0.943711  1
  O  O49  1  0.126533  0.442609  0.659393  1
  O  O50  1  0.587845  0.939350  0.699198  1
  O  O51  1  0.293731  0.704675  0.665868  1
  O  O52  1  0.129457  0.795325  0.410944  1
  O  O53  1  0.351505  0.939350  0.861452  1
