# generated using pymatgen
data_Li2Ti4Co(PO5)4
_symmetry_space_group_name_H-M   'P 1'
_cell_length_a   12.96140142
_cell_length_b   7.26931289
_cell_length_c   7.39010013
_cell_angle_alpha   90.00000000
_cell_angle_beta   90.45528406
_cell_angle_gamma   90.00000000
_symmetry_Int_Tables_number   1
_chemical_formula_structural   Li2Ti4Co(PO5)4
_chemical_formula_sum   'Li4 Ti8 Co2 P8 O40'
_cell_volume   696.27681700
_cell_formula_units_Z   2
loop_
 _symmetry_equiv_pos_site_id
 _symmetry_equiv_pos_as_xyz
  1  'x, y, z'
loop_
 _atom_site_type_symbol
 _atom_site_label
 _atom_site_symmetry_multiplicity
 _atom_site_fract_x
 _atom_site_fract_y
 _atom_site_fract_z
 _atom_site_occupancy
  Li  Li0  1  0.001810  0.002575  0.005284  1
  Li  Li1  1  0.501810  0.497425  0.505284  1
  Li  Li2  1  0.498190  0.997425  0.994716  1
  Li  Li3  1  0.998190  0.502575  0.494716  1
  Ti  Ti4  1  0.122434  0.783480  0.660764  1
  Ti  Ti5  1  0.132046  0.732692  0.155548  1
  Ti  Ti6  1  0.367954  0.267308  0.844452  1
  Ti  Ti7  1  0.377566  0.216520  0.339236  1
  Ti  Ti8  1  0.632046  0.767308  0.655548  1
  Ti  Ti9  1  0.622434  0.716520  0.160764  1
  Ti  Ti10  1  0.877566  0.283480  0.839236  1
  Ti  Ti11  1  0.867954  0.232692  0.344452  1
  Co  Co12  1  0.250000  0.500000  0.500000  1
  Co  Co13  1  0.750000  0.000000  0.000000  1
  P  P14  1  0.125376  0.370305  0.875376  1
  P  P15  1  0.121376  0.134276  0.372470  1
  P  P16  1  0.378624  0.865724  0.627530  1
  P  P17  1  0.374624  0.629695  0.124624  1
  P  P18  1  0.621376  0.365724  0.872470  1
  P  P19  1  0.625376  0.129695  0.375376  1
  P  P20  1  0.874624  0.870305  0.624624  1
  P  P21  1  0.878624  0.634276  0.127530  1
  O  O22  1  0.028526  0.247049  0.878164  1
  O  O23  1  0.026749  0.259637  0.367661  1
  O  O24  1  0.116865  0.833550  0.887710  1
  O  O25  1  0.134060  0.653689  0.388028  1
  O  O26  1  0.124443  0.021174  0.550975  1
  O  O27  1  0.126115  0.491244  0.047478  1
  O  O28  1  0.125257  0.493114  0.701076  1
  O  O29  1  0.120315  0.004640  0.206528  1
  O  O30  1  0.221145  0.245902  0.873640  1
  O  O31  1  0.220051  0.258090  0.368702  1
  O  O32  1  0.279949  0.741910  0.631298  1
  O  O33  1  0.278855  0.754098  0.126360  1
  O  O34  1  0.379685  0.995360  0.793472  1
  O  O35  1  0.374743  0.506886  0.298924  1
  O  O36  1  0.373885  0.508756  0.952522  1
  O  O37  1  0.375557  0.978826  0.449025  1
  O  O38  1  0.365940  0.346311  0.611972  1
  O  O39  1  0.383135  0.166450  0.112290  1
  O  O40  1  0.473251  0.740363  0.632339  1
  O  O41  1  0.471474  0.752951  0.121836  1
  O  O42  1  0.526749  0.240363  0.867661  1
  O  O43  1  0.528526  0.252951  0.378164  1
  O  O44  1  0.634060  0.846311  0.888028  1
  O  O45  1  0.616865  0.666450  0.387710  1
  O  O46  1  0.626115  0.008756  0.547478  1
  O  O47  1  0.624443  0.478826  0.050975  1
  O  O48  1  0.620315  0.495360  0.706528  1
  O  O49  1  0.625257  0.006886  0.201076  1
  O  O50  1  0.720051  0.241910  0.868702  1
  O  O51  1  0.721145  0.254098  0.373640  1
  O  O52  1  0.778855  0.745902  0.626360  1
  O  O53  1  0.779949  0.758090  0.131298  1
  O  O54  1  0.874743  0.993114  0.798924  1
  O  O55  1  0.879685  0.504640  0.293472  1
  O  O56  1  0.875557  0.521174  0.949025  1
  O  O57  1  0.873885  0.991244  0.452522  1
  O  O58  1  0.883135  0.333550  0.612290  1
  O  O59  1  0.865940  0.153689  0.111972  1
  O  O60  1  0.971474  0.747049  0.621836  1
  O  O61  1  0.973251  0.759637  0.132339  1
