# generated using pymatgen
data_Li4Ti4MnCr4O18
_symmetry_space_group_name_H-M   'P 1'
_cell_length_a   9.18216381
_cell_length_b   24.78126071
_cell_length_c   2.94891322
_cell_angle_alpha   90.00004121
_cell_angle_beta   90.00011643
_cell_angle_gamma   89.99803688
_symmetry_Int_Tables_number   1
_chemical_formula_structural   Li4Ti4MnCr4O18
_chemical_formula_sum   'Li8 Ti8 Mn2 Cr8 O36'
_cell_volume   671.01221381
_cell_formula_units_Z   2
loop_
 _symmetry_equiv_pos_site_id
 _symmetry_equiv_pos_as_xyz
  1  'x, y, z'
loop_
 _atom_site_type_symbol
 _atom_site_label
 _atom_site_symmetry_multiplicity
 _atom_site_fract_x
 _atom_site_fract_y
 _atom_site_fract_z
 _atom_site_occupancy
  Li  Li0  1  0.193864  0.988291  0.999999  1
  Li  Li1  1  0.201044  0.190421  -0.000000  1
  Li  Li2  1  0.298801  0.690467  0.000000  1
  Li  Li3  1  0.306145  0.488290  0.000002  1
  Li  Li4  1  0.693858  0.511711  0.000001  1
  Li  Li5  1  0.701144  0.309520  0.000002  1
  Li  Li6  1  0.798966  0.809561  0.000001  1
  Li  Li7  1  0.806186  0.011736  0.000001  1
  Ti  Ti8  1  0.999359  0.100756  0.999998  1
  Ti  Ti9  1  0.159738  0.806120  0.500003  1
  Ti  Ti10  1  0.340278  0.306149  0.500001  1
  Ti  Ti11  1  0.500714  0.600721  0.000004  1
  Ti  Ti12  1  0.499260  0.399278  0.999997  1
  Ti  Ti13  1  0.659722  0.693853  0.500001  1
  Ti  Ti14  1  0.840265  0.193896  0.500001  1
  Ti  Ti15  1  0.000667  0.899256  0.000001  1
  Mn  Mn16  1  -0.000065  0.499960  -0.000002  1
  Mn  Mn17  1  0.499995  0.000020  0.000003  1
  Cr  Cr18  1  0.001176  0.311961  0.999972  1
  Cr  Cr19  1  0.153440  0.585125  0.499984  1
  Cr  Cr20  1  0.346720  0.085142  0.499992  1
  Cr  Cr21  1  0.498850  0.811873  0.000005  1
  Cr  Cr22  1  0.501139  0.188100  -0.000006  1
  Cr  Cr23  1  0.653311  0.914879  0.500005  1
  Cr  Cr24  1  0.846506  0.414847  0.500001  1
  Cr  Cr25  1  0.998822  0.688093  0.000004  1
  O  O26  1  0.990108  0.421748  0.000006  1
  O  O27  1  0.009872  0.578184  0.999996  1
  O  O28  1  0.065225  0.943332  0.500005  1
  O  O29  1  0.043010  0.157323  0.500000  1
  O  O30  1  0.131564  0.664085  0.500000  1
  O  O31  1  0.107929  0.755778  0.000002  1
  O  O32  1  0.142166  0.502785  0.500004  1
  O  O33  1  0.135812  0.290247  0.499991  1
  O  O34  1  0.188515  0.855891  0.000003  1
  O  O35  1  0.198166  0.080411  0.999994  1
  O  O36  1  0.301957  0.580363  -0.000002  1
  O  O37  1  0.311471  0.355929  0.000001  1
  O  O38  1  0.364185  0.790172  0.500003  1
  O  O39  1  0.357835  0.002827  0.500000  1
  O  O40  1  0.392076  0.255815  0.000003  1
  O  O41  1  0.368396  0.164118  0.500002  1
  O  O42  1  0.457031  0.657286  0.500007  1
  O  O43  1  0.434764  0.443373  0.499992  1
  O  O44  1  0.490309  0.078226  0.999995  1
  O  O45  1  0.509749  0.921799  0.000005  1
  O  O46  1  0.565249  0.556636  0.500003  1
  O  O47  1  0.542959  0.342716  0.499992  1
  O  O48  1  0.631562  0.835890  0.500011  1
  O  O49  1  0.607947  0.744185  0.000003  1
  O  O50  1  0.642222  0.997186  0.500005  1
  O  O51  1  0.635797  0.209824  0.500004  1
  O  O52  1  0.688539  0.644081  0.000003  1
  O  O53  1  0.698039  0.419622  0.999992  1
  O  O54  1  0.801885  0.919593  -0.000002  1
  O  O55  1  0.811518  0.144118  0.000002  1
  O  O56  1  0.864187  0.709780  0.500004  1
  O  O57  1  0.857777  0.497173  0.500009  1
  O  O58  1  0.892088  0.244229  0.000002  1
  O  O59  1  0.868366  0.335896  0.499994  1
  O  O60  1  0.957016  0.842680  0.500004  1
  O  O61  1  0.934805  0.056675  0.499998  1
