# generated using pymatgen
data_LiMnVP2(HO5)2
_symmetry_space_group_name_H-M   'P 1'
_cell_length_a   8.13171635
_cell_length_b   7.41918329
_cell_length_c   6.79125285
_cell_angle_alpha   117.76442176
_cell_angle_beta   88.80623270
_cell_angle_gamma   86.47999541
_symmetry_Int_Tables_number   1
_chemical_formula_structural   LiMnVP2(HO5)2
_chemical_formula_sum   'Li2 Mn2 V2 P4 H4 O20'
_cell_volume   361.29872210
_cell_formula_units_Z   2
loop_
 _symmetry_equiv_pos_site_id
 _symmetry_equiv_pos_as_xyz
  1  'x, y, z'
loop_
 _atom_site_type_symbol
 _atom_site_label
 _atom_site_symmetry_multiplicity
 _atom_site_fract_x
 _atom_site_fract_y
 _atom_site_fract_z
 _atom_site_occupancy
  Li  Li0  1  0.314183  0.850638  0.094718  1
  Li  Li1  1  0.685817  0.149362  0.905282  1
  Mn  Mn2  1  0.000000  0.000000  0.000000  1
  Mn  Mn3  1  0.500000  0.000000  0.500000  1
  V  V4  1  0.000000  0.500000  0.000000  1
  V  V5  1  0.500000  0.500000  0.500000  1
  P  P6  1  0.160951  0.770123  0.483685  1
  P  P7  1  0.339355  0.227885  0.015408  1
  P  P8  1  0.660645  0.772115  0.984592  1
  P  P9  1  0.839049  0.229877  0.516315  1
  H  H10  1  0.147876  0.653338  0.788318  1
  H  H11  1  0.660797  0.663971  0.311986  1
  H  H12  1  0.339203  0.336029  0.688014  1
  H  H13  1  0.852124  0.346662  0.211682  1
  O  O14  1  0.035256  0.645815  0.307236  1
  O  O15  1  0.235274  0.114952  0.103792  1
  O  O16  1  0.269793  0.871162  0.385215  1
  O  O17  1  0.062845  0.931051  0.696434  1
  O  O18  1  0.551760  0.928192  0.194606  1
  O  O19  1  0.265187  0.620214  0.545139  1
  O  O20  1  0.472749  0.346276  0.179834  1
  O  O21  1  0.765649  0.625751  0.048370  1
  O  O22  1  0.100131  0.717961  0.945522  1
  O  O23  1  0.584224  0.718199  0.446800  1
  O  O24  1  0.415776  0.281801  0.553200  1
  O  O25  1  0.899869  0.282039  0.054478  1
  O  O26  1  0.234351  0.374249  0.951630  1
  O  O27  1  0.527250  0.653724  0.820166  1
  O  O28  1  0.734813  0.379786  0.454861  1
  O  O29  1  0.448240  0.071808  0.805394  1
  O  O30  1  0.937155  0.068949  0.303566  1
  O  O31  1  0.730207  0.128838  0.614785  1
  O  O32  1  0.764726  0.885048  0.896208  1
  O  O33  1  0.964744  0.354185  0.692764  1
