# generated using pymatgen
data_V6O5F19
_symmetry_space_group_name_H-M   'P 1'
_cell_length_a   5.47974092
_cell_length_b   5.30199263
_cell_length_c   14.91029021
_cell_angle_alpha   89.74223646
_cell_angle_beta   100.41220944
_cell_angle_gamma   91.28735300
_symmetry_Int_Tables_number   1
_chemical_formula_structural   V6O5F19
_chemical_formula_sum   'V6 O5 F19'
_cell_volume   425.95575845
_cell_formula_units_Z   1
loop_
 _symmetry_equiv_pos_site_id
 _symmetry_equiv_pos_as_xyz
  1  'x, y, z'
loop_
 _atom_site_type_symbol
 _atom_site_label
 _atom_site_symmetry_multiplicity
 _atom_site_fract_x
 _atom_site_fract_y
 _atom_site_fract_z
 _atom_site_occupancy
  V  V0  1  0.957456  0.030576  0.996377  1
  V  V1  1  0.195958  0.459113  0.329523  1
  V  V2  1  0.318486  0.992812  0.667458  1
  V  V3  1  0.469626  0.540229  0.003466  1
  V  V4  1  0.708761  0.968692  0.337096  1
  V  V5  1  0.790931  0.477841  0.663949  1
  O  O6  1  0.361158  0.222136  0.311004  1
  O  O7  1  0.535909  0.300107  0.644504  1
  O  O8  1  0.713204  0.202749  0.977891  1
  O  O9  1  0.304130  0.777409  0.021758  1
  O  O10  1  0.954205  0.798190  0.356042  1
  F  F11  1  0.015858  0.200802  0.640167  1
  F  F12  1  0.203402  0.287616  0.974295  1
  F  F13  1  0.145489  0.698983  0.690114  1
  F  F14  1  0.066369  0.072664  0.114931  1
  F  F15  1  0.195224  0.433919  0.448212  1
  F  F16  1  0.376153  0.093160  0.782340  1
  F  F17  1  0.115006  0.595518  0.219523  1
  F  F18  1  0.306761  0.924837  0.550811  1
  F  F19  1  0.474645  0.568004  0.885209  1
  F  F20  1  0.464751  0.711616  0.358865  1
  F  F21  1  0.640103  0.786255  0.693052  1
  F  F22  1  0.551872  0.406348  0.113891  1
  F  F23  1  0.702829  0.095889  0.446682  1
  F  F24  1  0.897897  0.419384  0.780973  1
  F  F25  1  0.602608  0.927946  0.218394  1
  F  F26  1  0.800934  0.598567  0.553807  1
  F  F27  1  0.963443  0.907793  0.886207  1
  F  F28  1  0.870663  0.286052  0.308290  1
  F  F29  1  0.796173  0.714796  0.025164  1
