# generated using pymatgen
data_Li7Co(OF)3
_symmetry_space_group_name_H-M   'P 1'
_cell_length_a   5.30647408
_cell_length_b   6.22630161
_cell_length_c   5.70295199
_cell_angle_alpha   118.68051501
_cell_angle_beta   118.43058391
_cell_angle_gamma   59.43427471
_symmetry_Int_Tables_number   1
_chemical_formula_structural   Li7Co(OF)3
_chemical_formula_sum   'Li7 Co1 O3 F3'
_cell_volume   135.45477876
_cell_formula_units_Z   1
loop_
 _symmetry_equiv_pos_site_id
 _symmetry_equiv_pos_as_xyz
  1  'x, y, z'
loop_
 _atom_site_type_symbol
 _atom_site_label
 _atom_site_symmetry_multiplicity
 _atom_site_fract_x
 _atom_site_fract_y
 _atom_site_fract_z
 _atom_site_occupancy
  Li  Li0  1  0.498611  0.396148  0.776708  1
  Li  Li1  1  0.232573  0.356745  0.129839  1
  Li  Li2  1  0.685707  0.021650  0.322898  1
  Li  Li3  1  0.329157  0.969232  0.714836  1
  Li  Li4  1  0.778388  0.634232  0.895548  1
  Li  Li5  1  0.461377  0.653567  0.222811  1
  Li  Li6  1  0.907499  0.346013  0.460818  1
  Co  Co7  1  0.973811  0.016208  0.936086  1
  O  O8  1  0.396894  0.779023  0.951915  1
  O  O9  1  0.926947  0.247677  0.750075  1
  O  O10  1  0.623248  0.244179  0.088888  1
  F  F11  1  0.281418  0.249216  0.414730  1
  F  F12  1  0.072247  0.734759  0.241447  1
  F  F13  1  0.710589  0.738323  0.599069  1
