# generated using pymatgen
data_MnO2
_symmetry_space_group_name_H-M   'P 1'
_cell_length_a   7.16952883
_cell_length_b   7.16952883
_cell_length_c   4.46868970
_cell_angle_alpha   90.67739823
_cell_angle_beta   89.32260177
_cell_angle_gamma   156.39561847
_symmetry_Int_Tables_number   1
_chemical_formula_structural   MnO2
_chemical_formula_sum   'Mn3 O6'
_cell_volume   91.96965230
_cell_formula_units_Z   3
loop_
 _symmetry_equiv_pos_site_id
 _symmetry_equiv_pos_as_xyz
  1  'x, y, z'
loop_
 _atom_site_type_symbol
 _atom_site_label
 _atom_site_symmetry_multiplicity
 _atom_site_fract_x
 _atom_site_fract_y
 _atom_site_fract_z
 _atom_site_occupancy
  Mn  Mn0  1  0.000000  0.000000  0.000000  1
  Mn  Mn1  1  0.341740  0.658260  0.503523  1
  Mn  Mn2  1  0.658260  0.341740  0.496477  1
  O  O3  1  0.553687  0.446313  0.219576  1
  O  O4  1  0.446313  0.553687  0.780424  1
  O  O5  1  0.109384  0.890616  0.729332  1
  O  O6  1  0.890616  0.109384  0.270668  1
  O  O7  1  0.221514  0.778486  0.289023  1
  O  O8  1  0.778486  0.221514  0.710978  1
