# generated using pymatgen
data_Li3FeNi3O8
_symmetry_space_group_name_H-M   'P 1'
_cell_length_a   10.20878611
_cell_length_b   10.20246187
_cell_length_c   14.48007820
_cell_angle_alpha   19.17288689
_cell_angle_beta   19.17743073
_cell_angle_gamma   32.91597317
_symmetry_Int_Tables_number   1
_chemical_formula_structural   Li3FeNi3O8
_chemical_formula_sum   'Li3 Fe1 Ni3 O8'
_cell_volume   142.01814632
_cell_formula_units_Z   1
loop_
 _symmetry_equiv_pos_site_id
 _symmetry_equiv_pos_as_xyz
  1  'x, y, z'
loop_
 _atom_site_type_symbol
 _atom_site_label
 _atom_site_symmetry_multiplicity
 _atom_site_fract_x
 _atom_site_fract_y
 _atom_site_fract_z
 _atom_site_occupancy
  Li  Li0  1  0.000018  0.500015  0.499977  1
  Li  Li1  1  0.500007  0.000005  0.499992  1
  Li  Li2  1  0.500004  0.499995  0.500000  1
  Fe  Fe3  1  -0.000040  -0.000033  0.000048  1
  Ni  Ni4  1  0.999997  0.500000  0.000003  1
  Ni  Ni5  1  0.499998  -0.000002  0.000003  1
  Ni  Ni6  1  0.500004  0.500003  0.999996  1
  O  O7  1  0.013749  0.012163  0.244309  1
  O  O8  1  0.005538  0.538303  0.231151  1
  O  O9  1  0.535792  0.003072  0.235026  1
  O  O10  1  0.986253  0.987840  0.755688  1
  O  O11  1  0.458453  0.461992  0.313605  1
  O  O12  1  0.994464  0.461699  0.768845  1
  O  O13  1  0.464209  0.996931  0.764970  1
  O  O14  1  0.541553  0.538016  0.686387  1
