# generated using pymatgen
data_LiMn2(CO4)2
_symmetry_space_group_name_H-M   'P 1'
_cell_length_a   6.40854070
_cell_length_b   9.24858152
_cell_length_c   9.34535858
_cell_angle_alpha   90.00000000
_cell_angle_beta   88.22767635
_cell_angle_gamma   90.00000000
_symmetry_Int_Tables_number   1
_chemical_formula_structural   LiMn2(CO4)2
_chemical_formula_sum   'Li4 Mn8 C8 O32'
_cell_volume   553.63359641
_cell_formula_units_Z   4
loop_
 _symmetry_equiv_pos_site_id
 _symmetry_equiv_pos_as_xyz
  1  'x, y, z'
loop_
 _atom_site_type_symbol
 _atom_site_label
 _atom_site_symmetry_multiplicity
 _atom_site_fract_x
 _atom_site_fract_y
 _atom_site_fract_z
 _atom_site_occupancy
  Li  Li0  1  0.126032  0.317622  0.899023  1
  Li  Li1  1  0.373968  0.817622  0.600977  1
  Li  Li2  1  0.626032  0.182378  0.399023  1
  Li  Li3  1  0.873968  0.682378  0.100977  1
  Mn  Mn4  1  0.124719  0.948071  0.877272  1
  Mn  Mn5  1  0.127611  0.570138  0.384636  1
  Mn  Mn6  1  0.375281  0.448071  0.622728  1
  Mn  Mn7  1  0.372389  0.070138  0.115364  1
  Mn  Mn8  1  0.627611  0.929862  0.884636  1
  Mn  Mn9  1  0.624719  0.551929  0.377272  1
  Mn  Mn10  1  0.872389  0.429862  0.615364  1
  Mn  Mn11  1  0.875281  0.051929  0.122728  1
  C  C12  1  0.135397  0.640219  0.839513  1
  C  C13  1  0.120730  0.866286  0.332406  1
  C  C14  1  0.364603  0.140219  0.660487  1
  C  C15  1  0.379270  0.366286  0.167594  1
  C  C16  1  0.620730  0.633714  0.832406  1
  C  C17  1  0.635397  0.859781  0.339513  1
  C  C18  1  0.879270  0.133714  0.667594  1
  C  C19  1  0.864603  0.359781  0.160487  1
  O  O20  1  0.150520  0.519274  0.757775  1
  O  O21  1  0.147807  0.762731  0.768495  1
  O  O22  1  0.104883  0.628239  0.969459  1
  O  O23  1  0.104242  0.115399  0.999298  1
  O  O24  1  0.110380  0.985752  0.249541  1
  O  O25  1  0.096850  0.742440  0.265202  1
  O  O26  1  0.155155  0.874586  0.461416  1
  O  O27  1  0.141924  0.400646  0.505648  1
  O  O28  1  0.395758  0.615399  0.500702  1
  O  O29  1  0.395117  0.128239  0.530541  1
  O  O30  1  0.352193  0.262731  0.731505  1
  O  O31  1  0.349481  0.019274  0.742225  1
  O  O32  1  0.358076  0.900646  0.994352  1
  O  O33  1  0.344845  0.374586  0.038584  1
  O  O34  1  0.403150  0.242440  0.234798  1
  O  O35  1  0.389620  0.485752  0.250459  1
  O  O36  1  0.610380  0.514248  0.749541  1
  O  O37  1  0.596850  0.757560  0.765202  1
  O  O38  1  0.655155  0.625414  0.961416  1
  O  O39  1  0.641924  0.099354  0.005648  1
  O  O40  1  0.650519  0.980726  0.257775  1
  O  O41  1  0.647807  0.737269  0.268495  1
  O  O42  1  0.604883  0.871761  0.469459  1
  O  O43  1  0.604242  0.384601  0.499298  1
  O  O44  1  0.858076  0.599354  0.494352  1
  O  O45  1  0.844845  0.125414  0.538584  1
  O  O46  1  0.903150  0.257560  0.734798  1
  O  O47  1  0.889620  0.014248  0.750459  1
  O  O48  1  0.895758  0.884601  0.000702  1
  O  O49  1  0.895117  0.371761  0.030541  1
  O  O50  1  0.852193  0.237269  0.231505  1
  O  O51  1  0.849481  0.480726  0.242225  1
