# generated using pymatgen
data_Li2TiFe2O5
_symmetry_space_group_name_H-M   'P 1'
_cell_length_a   5.18785691
_cell_length_b   7.97385651
_cell_length_c   5.18978334
_cell_angle_alpha   70.79278633
_cell_angle_beta   109.36890682
_cell_angle_gamma   96.08676698
_symmetry_Int_Tables_number   1
_chemical_formula_structural   Li2TiFe2O5
_chemical_formula_sum   'Li4 Ti2 Fe4 O10'
_cell_volume   191.26093069
_cell_formula_units_Z   2
loop_
 _symmetry_equiv_pos_site_id
 _symmetry_equiv_pos_as_xyz
  1  'x, y, z'
loop_
 _atom_site_type_symbol
 _atom_site_label
 _atom_site_symmetry_multiplicity
 _atom_site_fract_x
 _atom_site_fract_y
 _atom_site_fract_z
 _atom_site_occupancy
  Li  Li0  1  0.499914  0.197672  0.901905  1
  Li  Li1  1  0.497596  0.004624  0.498851  1
  Li  Li2  1  -0.000214  0.198390  0.399795  1
  Li  Li3  1  -0.000833  0.591614  0.204878  1
  Ti  Ti4  1  0.497033  0.385823  0.311301  1
  Ti  Ti5  1  0.999863  0.005532  0.993202  1
  Fe  Fe6  1  0.501160  0.604065  0.697035  1
  Fe  Fe7  1  0.002283  0.393283  0.805003  1
  Fe  Fe8  1  0.996296  0.801444  0.598712  1
  Fe  Fe9  1  0.500678  0.805561  0.097847  1
  O  O10  1  0.769956  0.819586  0.850854  1
  O  O11  1  0.262425  0.587536  0.976176  1
  O  O12  1  0.745348  0.200032  0.641610  1
  O  O13  1  0.741234  0.584193  0.441336  1
  O  O14  1  0.238217  0.812481  0.342339  1
  O  O15  1  0.226941  0.004283  0.772003  1
  O  O16  1  0.265974  0.397365  0.532473  1
  O  O17  1  0.771212  0.002667  0.220825  1
  O  O18  1  0.728158  0.403994  0.056059  1
  O  O19  1  0.256758  0.199854  0.157798  1
