# generated using pymatgen
data_Na6Ti2O7
_symmetry_space_group_name_H-M   'P 1'
_cell_length_a   8.47832050
_cell_length_b   8.47832050
_cell_length_c   11.17925683
_cell_angle_alpha   76.90981228
_cell_angle_beta   103.09018772
_cell_angle_gamma   107.67990778
_symmetry_Int_Tables_number   1
_chemical_formula_structural   Na6Ti2O7
_chemical_formula_sum   'Na18 Ti6 O21'
_cell_volume   734.88982386
_cell_formula_units_Z   3
loop_
 _symmetry_equiv_pos_site_id
 _symmetry_equiv_pos_as_xyz
  1  'x, y, z'
loop_
 _atom_site_type_symbol
 _atom_site_label
 _atom_site_symmetry_multiplicity
 _atom_site_fract_x
 _atom_site_fract_y
 _atom_site_fract_z
 _atom_site_occupancy
  Na  Na0  1  0.024699  0.663495  0.884047  1
  Na  Na1  1  0.336505  0.975301  0.884047  1
  Na  Na2  1  0.128555  0.564106  0.379690  1
  Na  Na3  1  0.435894  0.871445  0.379690  1
  Na  Na4  1  0.578599  0.748730  0.879500  1
  Na  Na5  1  0.251270  0.421401  0.879500  1
  Na  Na6  1  0.459582  0.540418  0.621771  1
  Na  Na7  1  0.129536  0.193599  0.618160  1
  Na  Na8  1  0.806401  0.870464  0.618160  1
  Na  Na9  1  0.870464  0.806401  0.381840  1
  Na  Na10  1  0.193599  0.129536  0.381840  1
  Na  Na11  1  0.540418  0.459582  0.378229  1
  Na  Na12  1  0.421401  0.251270  0.120500  1
  Na  Na13  1  0.748730  0.578599  0.120500  1
  Na  Na14  1  0.871445  0.435894  0.620310  1
  Na  Na15  1  0.564106  0.128555  0.620310  1
  Na  Na16  1  0.663495  0.024699  0.115953  1
  Na  Na17  1  0.975301  0.336505  0.115953  1
  Ti  Ti18  1  0.206370  0.793630  0.628195  1
  Ti  Ti19  1  0.111765  0.888235  0.139817  1
  Ti  Ti20  1  0.355105  0.644895  0.129063  1
  Ti  Ti21  1  0.644895  0.355105  0.870937  1
  Ti  Ti22  1  0.888235  0.111765  0.860183  1
  Ti  Ti23  1  0.793630  0.206370  0.371805  1
  O  O24  1  0.273617  0.726383  0.796860  1
  O  O25  1  0.299421  0.700579  0.538691  1
  O  O26  1  0.212088  0.787912  0.053725  1
  O  O27  1  0.735631  0.972820  0.763377  1
  O  O28  1  0.027180  0.264369  0.763377  1
  O  O29  1  0.025740  0.275903  0.411502  1
  O  O30  1  0.724097  0.974260  0.411502  1
  O  O31  1  0.377217  0.622783  0.297175  1
  O  O32  1  0.253540  0.440552  0.082629  1
  O  O33  1  0.559448  0.746460  0.082629  1
  O  O34  1  0.746460  0.559448  0.917371  1
  O  O35  1  0.440552  0.253540  0.917371  1
  O  O36  1  0.622783  0.377217  0.702825  1
  O  O37  1  0.275903  0.025740  0.588498  1
  O  O38  1  0.974260  0.724097  0.588498  1
  O  O39  1  0.000000  0.000000  0.000000  1
  O  O40  1  0.972820  0.735631  0.236623  1
  O  O41  1  0.264369  0.027180  0.236623  1
  O  O42  1  0.787912  0.212088  0.946275  1
  O  O43  1  0.700579  0.299421  0.461309  1
  O  O44  1  0.726383  0.273617  0.203140  1
