# generated using pymatgen
data_Na4CoO4
_symmetry_space_group_name_H-M   'P 1'
_cell_length_a   10.06936044
_cell_length_b   6.06736396
_cell_length_c   17.84961000
_cell_angle_alpha   90.17019080
_cell_angle_beta   92.44344326
_cell_angle_gamma   90.01651055
_symmetry_Int_Tables_number   1
_chemical_formula_structural   Na4CoO4
_chemical_formula_sum   'Na32 Co8 O32'
_cell_volume   1089.51614168
_cell_formula_units_Z   8
loop_
 _symmetry_equiv_pos_site_id
 _symmetry_equiv_pos_as_xyz
  1  'x, y, z'
loop_
 _atom_site_type_symbol
 _atom_site_label
 _atom_site_symmetry_multiplicity
 _atom_site_fract_x
 _atom_site_fract_y
 _atom_site_fract_z
 _atom_site_occupancy
  Na  Na0  1  0.138374  0.183285  0.861399  1
  Na  Na1  1  0.148301  0.333432  0.360756  1
  Na  Na2  1  0.203593  0.641066  0.140136  1
  Na  Na3  1  0.271488  0.508032  0.610495  1
  Na  Na4  1  0.239500  0.573687  0.782074  1
  Na  Na5  1  0.251548  0.937701  0.287313  1
  Na  Na6  1  0.328989  0.402457  0.004425  1
  Na  Na7  1  0.314227  0.061904  0.502769  1
  Na  Na8  1  0.390633  0.342578  0.235339  1
  Na  Na9  1  0.367898  0.114888  0.737041  1
  Na  Na10  1  0.352956  0.861310  0.918444  1
  Na  Na11  1  0.372487  0.622107  0.413847  1
  Na  Na12  1  0.547801  0.067794  0.056389  1
  Na  Na13  1  0.562643  0.422713  0.556591  1
  Na  Na14  1  0.594827  0.869366  0.255999  1
  Na  Na15  1  0.589676  0.618667  0.754602  1
  Na  Na16  1  0.651831  0.591839  0.003713  1
  Na  Na17  1  0.669287  0.910497  0.506845  1
  Na  Na18  1  0.683349  0.098488  0.684876  1
  Na  Na19  1  0.687651  0.390526  0.179058  1
  Na  Na20  1  0.698980  0.555601  0.374084  1
  Na  Na21  1  0.688572  0.940761  0.874148  1
  Na  Na22  1  0.805504  0.089095  0.367076  1
  Na  Na23  1  0.797909  0.410109  0.865093  1
  Na  Na24  1  0.841455  0.589756  0.673690  1
  Na  Na25  1  0.847945  0.918040  0.174826  1
  Na  Na26  1  0.915274  0.408465  0.503961  1
  Na  Na27  1  0.904751  0.087045  0.006399  1
  Na  Na28  1  0.974540  0.008181  0.740427  1
  Na  Na29  1  0.955352  0.453992  0.245847  1
  Na  Na30  1  0.975352  0.588063  0.047976  1
  Na  Na31  1  0.013302  0.897946  0.546608  1
  Co  Co32  1  0.070032  0.184919  0.134814  1
  Co  Co33  1  0.052304  0.312405  0.636521  1
  Co  Co34  1  0.476423  0.669008  0.124826  1
  Co  Co35  1  0.472060  0.831634  0.621368  1
  Co  Co36  1  0.532688  0.151508  0.378675  1
  Co  Co37  1  0.523493  0.339159  0.877574  1
  Co  Co38  1  0.959370  0.696016  0.375099  1
  Co  Co39  1  0.948941  0.810056  0.874013  1
  O  O40  1  0.044481  0.895630  0.116847  1
  O  O41  1  0.040427  0.604680  0.621118  1
  O  O42  1  0.154254  0.265627  0.223200  1
  O  O43  1  0.149928  0.257264  0.722499  1
  O  O44  1  0.128830  0.214108  0.553021  1
  O  O45  1  0.135536  0.332034  0.058341  1
  O  O46  1  0.136090  0.737431  0.373859  1
  O  O47  1  0.125141  0.772560  0.867326  1
  O  O48  1  0.360396  0.234448  0.379905  1
  O  O49  1  0.353853  0.245159  0.880735  1
  O  O50  1  0.397439  0.771006  0.040944  1
  O  O51  1  0.401585  0.707629  0.537052  1
  O  O52  1  0.387612  0.736470  0.702116  1
  O  O53  1  0.391104  0.732294  0.210101  1
  O  O54  1  0.483376  0.374025  0.115220  1
  O  O55  1  0.470558  0.127572  0.614843  1
  O  O56  1  0.549351  0.855693  0.383294  1
  O  O57  1  0.535631  0.636918  0.881387  1
  O  O58  1  0.607815  0.244402  0.292276  1
  O  O59  1  0.599761  0.245139  0.792375  1
  O  O60  1  0.630625  0.232326  0.953767  1
  O  O61  1  0.640609  0.265697  0.453105  1
  O  O62  1  0.647846  0.772687  0.131408  1
  O  O63  1  0.644909  0.735328  0.629696  1
  O  O64  1  0.882647  0.206530  0.638456  1
  O  O65  1  0.893231  0.289333  0.135205  1
  O  O66  1  0.868873  0.793113  0.454307  1
  O  O67  1  0.855422  0.711950  0.952209  1
  O  O68  1  0.845717  0.723663  0.791938  1
  O  O69  1  0.857098  0.780776  0.292859  1
  O  O70  1  0.932041  0.397341  0.374342  1
  O  O71  1  0.925042  0.107076  0.875230  1
