# generated using pymatgen
data_Li3Fe(PO4)2
_symmetry_space_group_name_H-M   'P 1'
_cell_length_a   19.67860856
_cell_length_b   5.09208728
_cell_length_c   12.81801068
_cell_angle_alpha   90.00000000
_cell_angle_beta   71.02293094
_cell_angle_gamma   90.00000000
_symmetry_Int_Tables_number   1
_chemical_formula_structural   Li3Fe(PO4)2
_chemical_formula_sum   'Li24 Fe8 P16 O64'
_cell_volume   1214.62084583
_cell_formula_units_Z   8
loop_
 _symmetry_equiv_pos_site_id
 _symmetry_equiv_pos_as_xyz
  1  'x, y, z'
loop_
 _atom_site_type_symbol
 _atom_site_label
 _atom_site_symmetry_multiplicity
 _atom_site_fract_x
 _atom_site_fract_y
 _atom_site_fract_z
 _atom_site_occupancy
  Li  Li0  1  0.032877  0.702223  0.816440  1
  Li  Li1  1  0.118518  0.199835  0.714425  1
  Li  Li2  1  0.032877  0.797777  0.316440  1
  Li  Li3  1  0.185663  0.791649  0.566990  1
  Li  Li4  1  0.321259  0.286720  0.748648  1
  Li  Li5  1  0.118518  0.300165  0.214425  1
  Li  Li6  1  0.382341  0.690055  0.826709  1
  Li  Li7  1  0.185663  0.708351  0.066990  1
  Li  Li8  1  0.463138  0.202433  0.852094  1
  Li  Li9  1  0.321259  0.213280  0.248648  1
  Li  Li10  1  0.382341  0.809945  0.326709  1
  Li  Li11  1  0.536862  0.702433  0.647906  1
  Li  Li12  1  0.463138  0.297567  0.352094  1
  Li  Li13  1  0.617659  0.190055  0.673291  1
  Li  Li14  1  0.678741  0.786720  0.751352  1
  Li  Li15  1  0.536862  0.797567  0.147906  1
  Li  Li16  1  0.814337  0.291649  0.933010  1
  Li  Li17  1  0.617659  0.309945  0.173291  1
  Li  Li18  1  0.881482  0.699835  0.785575  1
  Li  Li19  1  0.678741  0.713280  0.251352  1
  Li  Li20  1  0.814337  0.208351  0.433010  1
  Li  Li21  1  0.967123  0.202223  0.683560  1
  Li  Li22  1  0.881482  0.800165  0.285575  1
  Li  Li23  1  0.967123  0.297777  0.183560  1
  Fe  Fe24  1  0.140723  0.211027  0.973654  1
  Fe  Fe25  1  0.140723  0.288973  0.473654  1
  Fe  Fe26  1  0.361584  0.772739  0.613808  1
  Fe  Fe27  1  0.638416  0.272739  0.886192  1
  Fe  Fe28  1  0.361584  0.727261  0.113808  1
  Fe  Fe29  1  0.638416  0.227261  0.386192  1
  Fe  Fe30  1  0.859277  0.711027  0.526346  1
  Fe  Fe31  1  0.859277  0.788973  0.026346  1
  P  P32  1  0.042555  0.759687  0.575027  1
  P  P33  1  0.199811  0.702652  0.805102  1
  P  P34  1  0.301979  0.223103  0.005511  1
  P  P35  1  0.042555  0.740313  0.075027  1
  P  P36  1  0.199811  0.797348  0.305102  1
  P  P37  1  0.301979  0.276897  0.505511  1
  P  P38  1  0.538722  0.750590  0.885378  1
  P  P39  1  0.461278  0.250590  0.614622  1
  P  P40  1  0.538722  0.749410  0.385378  1
  P  P41  1  0.461278  0.249410  0.114622  1
  P  P42  1  0.698021  0.723103  0.494489  1
  P  P43  1  0.800189  0.202652  0.694898  1
  P  P44  1  0.957445  0.259687  0.924973  1
  P  P45  1  0.698021  0.776897  0.994489  1
  P  P46  1  0.800189  0.297348  0.194898  1
  P  P47  1  0.957445  0.240313  0.424973  1
  O  O48  1  0.030307  0.758325  0.964926  1
  O  O49  1  0.023174  0.291697  0.820003  1
  O  O50  1  0.030307  0.741675  0.464926  1
  O  O51  1  0.094920  0.997607  0.575128  1
  O  O52  1  0.085176  0.512465  0.596448  1
  O  O53  1  0.188470  0.866936  0.911024  1
  O  O54  1  0.161371  0.821798  0.730201  1
  O  O55  1  0.023174  0.208303  0.320003  1
  O  O56  1  0.174789  0.409362  0.833132  1
  O  O57  1  0.219509  0.226933  0.531835  1
  O  O58  1  0.345661  0.317640  0.889711  1
  O  O59  1  0.283746  0.684868  0.750868  1
  O  O60  1  0.094920  0.502393  0.075128  1
  O  O61  1  0.085176  0.987535  0.096448  1
  O  O62  1  0.188470  0.633064  0.411024  1
  O  O63  1  0.161371  0.678202  0.230201  1
  O  O64  1  0.174789  0.090638  0.333132  1
  O  O65  1  0.318451  0.118979  0.598026  1
  O  O66  1  0.315964  0.577523  0.517432  1
  O  O67  1  0.471161  0.781935  0.850789  1
  O  O68  1  0.418270  0.005115  0.680337  1
  O  O69  1  0.410227  0.490860  0.668896  1
  O  O70  1  0.528562  0.740185  0.006714  1
  O  O71  1  0.219509  0.273067  0.031834  1
  O  O72  1  0.345661  0.182360  0.389711  1
  O  O73  1  0.283746  0.815132  0.250868  1
  O  O74  1  0.318451  0.381021  0.098026  1
  O  O75  1  0.471438  0.240185  0.493286  1
  O  O76  1  0.315964  0.922477  0.017432  1
  O  O77  1  0.589773  0.990860  0.831104  1
  O  O78  1  0.581730  0.505115  0.819663  1
  O  O79  1  0.528839  0.281935  0.649211  1
  O  O80  1  0.471161  0.718065  0.350789  1
  O  O81  1  0.418270  0.494885  0.180337  1
  O  O82  1  0.410227  0.009140  0.168896  1
  O  O83  1  0.684036  0.077523  0.982568  1
  O  O84  1  0.528562  0.759815  0.506714  1
  O  O85  1  0.681549  0.618979  0.901974  1
  O  O86  1  0.716254  0.184868  0.749132  1
  O  O87  1  0.654339  0.817640  0.610289  1
  O  O88  1  0.780491  0.726933  0.968165  1
  O  O89  1  0.471438  0.259815  0.993286  1
  O  O90  1  0.589773  0.509140  0.331104  1
  O  O91  1  0.581730  0.994885  0.319663  1
  O  O92  1  0.528839  0.218065  0.149211  1
  O  O93  1  0.684036  0.422477  0.482568  1
  O  O94  1  0.681549  0.881021  0.401974  1
  O  O95  1  0.825211  0.909362  0.666868  1
  O  O96  1  0.838629  0.321798  0.769799  1
  O  O97  1  0.811530  0.366936  0.588976  1
  O  O98  1  0.914824  0.012465  0.903552  1
  O  O99  1  0.905080  0.497607  0.924872  1
  O  O100  1  0.716254  0.315132  0.249132  1
  O  O101  1  0.654339  0.682360  0.110289  1
  O  O102  1  0.780491  0.773067  0.468166  1
  O  O103  1  0.825211  0.590638  0.166868  1
  O  O104  1  0.976826  0.791697  0.679997  1
  O  O105  1  0.838629  0.178202  0.269799  1
  O  O106  1  0.811530  0.133064  0.088976  1
  O  O107  1  0.914824  0.487535  0.403552  1
  O  O108  1  0.905080  0.002393  0.424872  1
  O  O109  1  0.969693  0.258325  0.535074  1
  O  O110  1  0.976826  0.708303  0.179997  1
  O  O111  1  0.969693  0.241675  0.035074  1
