# generated using pymatgen
data_Zr5Sn3O
_symmetry_space_group_name_H-M   'P 1'
_cell_length_a   8.49706150
_cell_length_b   8.49704993
_cell_length_c   5.79385393
_cell_angle_alpha   89.98769426
_cell_angle_beta   90.01175969
_cell_angle_gamma   120.00038304
_symmetry_Int_Tables_number   1
_chemical_formula_structural   Zr5Sn3O
_chemical_formula_sum   'Zr10 Sn6 O2'
_cell_volume   362.27087172
_cell_formula_units_Z   2
loop_
 _symmetry_equiv_pos_site_id
 _symmetry_equiv_pos_as_xyz
  1  'x, y, z'
loop_
 _atom_site_type_symbol
 _atom_site_label
 _atom_site_symmetry_multiplicity
 _atom_site_fract_x
 _atom_site_fract_y
 _atom_site_fract_z
 _atom_site_occupancy
  Zr  Zr0  1  -0.000004  0.770797  0.749729  1
  Zr  Zr1  1  0.000001  0.229336  0.250267  1
  Zr  Zr2  1  0.333406  0.666738  0.999876  1
  Zr  Zr3  1  0.333280  0.666598  0.500118  1
  Zr  Zr4  1  0.229210  0.229218  0.749960  1
  Zr  Zr5  1  0.229331  0.000006  0.249838  1
  Zr  Zr6  1  0.770662  0.770666  0.250048  1
  Zr  Zr7  1  0.666587  0.333276  0.999882  1
  Zr  Zr8  1  0.666728  0.333421  0.500122  1
  Zr  Zr9  1  0.770795  0.000004  0.750154  1
  Sn  Sn10  1  0.000007  0.597421  0.249943  1
  Sn  Sn11  1  0.999989  0.402507  0.750053  1
  Sn  Sn12  1  0.402566  0.402568  0.250008  1
  Sn  Sn13  1  0.597513  0.597519  0.749995  1
  Sn  Sn14  1  0.402506  0.999998  0.749955  1
  Sn  Sn15  1  0.597415  0.000011  0.250048  1
  O  O16  1  0.000008  0.000009  -0.000002  1
  O  O17  1  0.999998  0.000005  0.500005  1
