# generated using pymatgen
data_H7CSN3O4
_symmetry_space_group_name_H-M   'P 1'
_cell_length_a   8.20377458
_cell_length_b   5.11972537
_cell_length_c   14.74761440
_cell_angle_alpha   89.99999867
_cell_angle_beta   90.98111220
_cell_angle_gamma   90.00001083
_symmetry_Int_Tables_number   1
_chemical_formula_structural   H7CSN3O4
_chemical_formula_sum   'H28 C4 S4 N12 O16'
_cell_volume   619.32481649
_cell_formula_units_Z   4
loop_
 _symmetry_equiv_pos_site_id
 _symmetry_equiv_pos_as_xyz
  1  'x, y, z'
loop_
 _atom_site_type_symbol
 _atom_site_label
 _atom_site_symmetry_multiplicity
 _atom_site_fract_x
 _atom_site_fract_y
 _atom_site_fract_z
 _atom_site_occupancy
  H  H0  1  0.801062  0.836322  0.207716  1
  H  H1  1  0.301063  0.663677  0.707716  1
  H  H2  1  0.198937  0.163678  0.792284  1
  H  H3  1  0.698938  0.336323  0.292284  1
  H  H4  1  0.137989  0.789534  0.049696  1
  H  H5  1  0.637989  0.710466  0.549696  1
  H  H6  1  0.862011  0.210466  0.950304  1
  H  H7  1  0.362011  0.289535  0.450304  1
  H  H8  1  0.030665  0.045469  0.103713  1
  H  H9  1  0.530665  0.454531  0.603713  1
  H  H10  1  0.969335  0.954531  0.896287  1
  H  H11  1  0.469335  0.545470  0.396287  1
  H  H12  1  0.388869  0.342854  0.190242  1
  H  H13  1  0.888869  0.157146  0.690242  1
  H  H14  1  0.611131  0.657146  0.809758  1
  H  H15  1  0.111131  0.842854  0.309758  1
  H  H16  1  0.175299  0.359757  0.182299  1
  H  H17  1  0.675299  0.140243  0.682299  1
  H  H18  1  0.824701  0.640243  0.817701  1
  H  H19  1  0.324701  0.859757  0.317701  1
  H  H20  1  0.414064  0.772911  0.057000  1
  H  H21  1  0.914064  0.727089  0.557000  1
  H  H22  1  0.585936  0.227089  0.943000  1
  H  H23  1  0.085936  0.272911  0.443000  1
  H  H24  1  0.526690  0.998469  0.122189  1
  H  H25  1  0.026690  0.501531  0.622189  1
  H  H26  1  0.473310  0.001531  0.877811  1
  H  H27  1  0.973310  0.498470  0.377811  1
  C  C28  1  0.278119  0.046357  0.121279  1
  C  C29  1  0.778119  0.453645  0.621279  1
  C  C30  1  0.721881  0.953644  0.878721  1
  C  C31  1  0.221882  0.546356  0.378721  1
  S  S32  1  0.766839  0.488058  0.125806  1
  S  S33  1  0.266834  0.011942  0.625805  1
  S  S34  1  0.233165  0.511943  0.874196  1
  S  S35  1  0.733162  0.988057  0.374194  1
  N  N36  1  0.136640  0.950271  0.090234  1
  N  N37  1  0.636639  0.549729  0.590235  1
  N  N38  1  0.863360  0.049728  0.909765  1
  N  N39  1  0.363362  0.450271  0.409764  1
  N  N40  1  0.279834  0.254223  0.177133  1
  N  N41  1  0.779834  0.245774  0.677133  1
  N  N42  1  0.720166  0.745775  0.822866  1
  N  N43  1  0.220166  0.754227  0.322866  1
  N  N44  1  0.417202  0.926177  0.100900  1
  N  N45  1  0.917202  0.573823  0.600900  1
  N  N46  1  0.582797  0.073824  0.899101  1
  N  N47  1  0.082799  0.426177  0.399100  1
  O  O48  1  0.713873  0.458914  0.031681  1
  O  O49  1  0.213870  0.041086  0.531683  1
  O  O50  1  0.286127  0.541085  0.968317  1
  O  O51  1  0.786128  0.958914  0.468318  1
  O  O52  1  0.930607  0.388306  0.145797  1
  O  O53  1  0.430606  0.111694  0.645797  1
  O  O54  1  0.069394  0.611693  0.854203  1
  O  O55  1  0.569393  0.888307  0.354204  1
  O  O56  1  0.643331  0.384907  0.189846  1
  O  O57  1  0.143330  0.115092  0.689845  1
  O  O58  1  0.356669  0.615094  0.810154  1
  O  O59  1  0.856669  0.884905  0.310156  1
  O  O60  1  0.769917  0.796418  0.141535  1
  O  O61  1  0.269916  0.703581  0.641535  1
  O  O62  1  0.230084  0.203580  0.858463  1
  O  O63  1  0.730082  0.296419  0.358466  1
