# generated using pymatgen
data_Li3NiOF3
_symmetry_space_group_name_H-M   'P 1'
_cell_length_a   2.95726538
_cell_length_b   5.07046703
_cell_length_c   10.11549783
_cell_angle_alpha   80.15449622
_cell_angle_beta   89.97004880
_cell_angle_gamma   106.94993043
_symmetry_Int_Tables_number   1
_chemical_formula_structural   Li3NiOF3
_chemical_formula_sum   'Li6 Ni2 O2 F6'
_cell_volume   142.74891161
_cell_formula_units_Z   2
loop_
 _symmetry_equiv_pos_site_id
 _symmetry_equiv_pos_as_xyz
  1  'x, y, z'
loop_
 _atom_site_type_symbol
 _atom_site_label
 _atom_site_symmetry_multiplicity
 _atom_site_fract_x
 _atom_site_fract_y
 _atom_site_fract_z
 _atom_site_occupancy
  Li  Li0  1  0.752942  0.501579  0.867294  1
  Li  Li1  1  0.502584  0.002311  0.748470  1
  Li  Li2  1  0.503037  0.003279  0.247712  1
  Li  Li3  1  0.004026  0.008425  0.492891  1
  Li  Li4  1  0.247547  0.503099  0.630203  1
  Li  Li5  1  0.003841  0.996802  0.003388  1
  Ni  Ni6  1  0.746552  0.490726  0.365221  1
  Ni  Ni7  1  0.260665  0.514776  0.131712  1
  O  O8  1  0.877658  0.749097  0.183090  1
  O  O9  1  0.129753  0.256579  0.313629  1
  F  F10  1  0.874279  0.751593  0.687844  1
  F  F11  1  0.624040  0.253269  0.566968  1
  F  F12  1  0.635857  0.263672  0.049107  1
  F  F13  1  0.126942  0.252128  0.809765  1
  F  F14  1  0.378496  0.751222  0.930155  1
  F  F15  1  0.370142  0.740871  0.448103  1
