# generated using pymatgen
data_Li2Fe2(SiO3)3
_symmetry_space_group_name_H-M   'P 1'
_cell_length_a   10.65770242
_cell_length_b   7.32447008
_cell_length_c   12.39328945
_cell_angle_alpha   90.00000000
_cell_angle_beta   111.52888630
_cell_angle_gamma   90.00000000
_symmetry_Int_Tables_number   1
_chemical_formula_structural   Li2Fe2(SiO3)3
_chemical_formula_sum   'Li8 Fe8 Si12 O36'
_cell_volume   899.94917185
_cell_formula_units_Z   4
loop_
 _symmetry_equiv_pos_site_id
 _symmetry_equiv_pos_as_xyz
  1  'x, y, z'
loop_
 _atom_site_type_symbol
 _atom_site_label
 _atom_site_symmetry_multiplicity
 _atom_site_fract_x
 _atom_site_fract_y
 _atom_site_fract_z
 _atom_site_occupancy
  Li  Li0  1  0.046696  0.959511  0.635004  1
  Li  Li1  1  0.046696  0.540489  0.135004  1
  Li  Li2  1  0.464324  0.075108  0.655378  1
  Li  Li3  1  0.535676  0.575108  0.844622  1
  Li  Li4  1  0.464324  0.424892  0.155378  1
  Li  Li5  1  0.535676  0.924892  0.344622  1
  Li  Li6  1  0.953304  0.459511  0.864996  1
  Li  Li7  1  0.953304  0.040489  0.364996  1
  Fe  Fe8  1  0.059685  0.896740  0.923286  1
  Fe  Fe9  1  0.059685  0.603260  0.423286  1
  Fe  Fe10  1  0.430750  0.636473  0.561493  1
  Fe  Fe11  1  0.569250  0.136473  0.938507  1
  Fe  Fe12  1  0.430750  0.863527  0.061493  1
  Fe  Fe13  1  0.569250  0.363527  0.438507  1
  Fe  Fe14  1  0.940315  0.396740  0.576714  1
  Fe  Fe15  1  0.940315  0.103260  0.076714  1
  Si  Si16  1  0.231116  0.542865  0.936873  1
  Si  Si17  1  0.239220  0.156057  0.853514  1
  Si  Si18  1  0.258162  0.474554  0.705303  1
  Si  Si19  1  0.231116  0.957135  0.436873  1
  Si  Si20  1  0.239220  0.343943  0.353514  1
  Si  Si21  1  0.258162  0.025446  0.205303  1
  Si  Si22  1  0.741838  0.974554  0.794697  1
  Si  Si23  1  0.760780  0.656057  0.646486  1
  Si  Si24  1  0.768884  0.042865  0.563127  1
  Si  Si25  1  0.741838  0.525446  0.294697  1
  Si  Si26  1  0.760780  0.843943  0.146486  1
  Si  Si27  1  0.768884  0.457135  0.063127  1
  O  O28  1  0.098628  0.630899  0.953699  1
  O  O29  1  0.114847  0.013763  0.801926  1
  O  O30  1  0.124369  0.505373  0.589877  1
  O  O31  1  0.198125  0.320737  0.927337  1
  O  O32  1  0.098628  0.869101  0.453699  1
  O  O33  1  0.244211  0.597795  0.812244  1
  O  O34  1  0.265557  0.255345  0.743132  1
  O  O35  1  0.114847  0.486237  0.301926  1
  O  O36  1  0.373428  0.598029  0.039695  1
  O  O37  1  0.124369  0.994627  0.089877  1
  O  O38  1  0.380909  0.067064  0.938534  1
  O  O39  1  0.198125  0.179263  0.427337  1
  O  O40  1  0.244211  0.902205  0.312244  1
  O  O41  1  0.402213  0.527283  0.696657  1
  O  O42  1  0.265557  0.244655  0.243132  1
  O  O43  1  0.373428  0.901971  0.539695  1
  O  O44  1  0.380909  0.432936  0.438534  1
  O  O45  1  0.402213  0.972717  0.196657  1
  O  O46  1  0.597787  0.027283  0.803343  1
  O  O47  1  0.619091  0.567064  0.561466  1
  O  O48  1  0.626572  0.098029  0.460305  1
  O  O49  1  0.734443  0.755345  0.756868  1
  O  O50  1  0.597787  0.472717  0.303343  1
  O  O51  1  0.755789  0.097795  0.687756  1
  O  O52  1  0.801875  0.820737  0.572663  1
  O  O53  1  0.619091  0.932936  0.061466  1
  O  O54  1  0.875631  0.005373  0.910123  1
  O  O55  1  0.626572  0.401971  0.960305  1
  O  O56  1  0.885153  0.513763  0.698074  1
  O  O57  1  0.734443  0.744655  0.256868  1
  O  O58  1  0.755789  0.402205  0.187756  1
  O  O59  1  0.901372  0.130899  0.546301  1
  O  O60  1  0.801875  0.679263  0.072663  1
  O  O61  1  0.875631  0.494627  0.410123  1
  O  O62  1  0.885153  0.986237  0.198074  1
  O  O63  1  0.901372  0.369101  0.046301  1
