# generated using pymatgen
data_Li3V4O11F
_symmetry_space_group_name_H-M   'P 1'
_cell_length_a   4.98162172
_cell_length_b   5.08934334
_cell_length_c   10.33022674
_cell_angle_alpha   76.00218138
_cell_angle_beta   108.28730397
_cell_angle_gamma   69.31368488
_symmetry_Int_Tables_number   1
_chemical_formula_structural   Li3V4O11F
_chemical_formula_sum   'Li3 V4 O11 F1'
_cell_volume   213.51580079
_cell_formula_units_Z   1
loop_
 _symmetry_equiv_pos_site_id
 _symmetry_equiv_pos_as_xyz
  1  'x, y, z'
loop_
 _atom_site_type_symbol
 _atom_site_label
 _atom_site_symmetry_multiplicity
 _atom_site_fract_x
 _atom_site_fract_y
 _atom_site_fract_z
 _atom_site_occupancy
  Li  Li0  1  0.290847  0.283168  0.880691  1
  Li  Li1  1  0.708290  0.739714  0.606969  1
  Li  Li2  1  0.742315  0.700711  0.127942  1
  V  V3  1  0.105750  0.125614  0.615689  1
  V  V4  1  0.079865  0.132765  0.116857  1
  V  V5  1  0.931854  0.950525  0.861500  1
  V  V6  1  0.924021  0.886621  0.358269  1
  O  O7  1  0.985252  0.500940  0.508166  1
  O  O8  1  0.095043  0.728476  0.774035  1
  O  O9  1  0.008998  0.481046  0.011225  1
  O  O10  1  0.750120  0.087706  0.991635  1
  O  O11  1  0.129087  0.691996  0.283178  1
  O  O12  1  0.242340  0.896842  0.517219  1
  O  O13  1  0.521502  0.969255  0.249775  1
  O  O14  1  0.484725  0.014134  0.751008  1
  O  O15  1  0.874089  0.287935  0.731364  1
  O  O16  1  0.280586  0.896204  0.009091  1
  O  O17  1  0.885071  0.250676  0.230506  1
  F  F18  1  0.708263  0.110863  0.494965  1
