# generated using pymatgen
data_Li4Ti3Nb2Ni3O16
_symmetry_space_group_name_H-M   'P 1'
_cell_length_a   5.97154081
_cell_length_b   5.96437666
_cell_length_c   9.78159480
_cell_angle_alpha   89.99927159
_cell_angle_beta   89.92316876
_cell_angle_gamma   119.96036966
_symmetry_Int_Tables_number   1
_chemical_formula_structural   Li4Ti3Nb2Ni3O16
_chemical_formula_sum   'Li4 Ti3 Nb2 Ni3 O16'
_cell_volume   301.83148118
_cell_formula_units_Z   1
loop_
 _symmetry_equiv_pos_site_id
 _symmetry_equiv_pos_as_xyz
  1  'x, y, z'
loop_
 _atom_site_type_symbol
 _atom_site_label
 _atom_site_symmetry_multiplicity
 _atom_site_fract_x
 _atom_site_fract_y
 _atom_site_fract_z
 _atom_site_occupancy
  Li  Li0  1  0.332308  0.666159  0.900489  1
  Li  Li1  1  0.994083  0.997062  0.985804  1
  Li  Li2  1  0.000720  0.000372  0.496101  1
  Li  Li3  1  0.664899  0.332461  0.406608  1
  Ti  Ti4  1  0.187673  0.841990  0.219910  1
  Ti  Ti5  1  0.187687  0.345715  0.219906  1
  Ti  Ti6  1  0.356863  0.178429  0.732244  1
  Nb  Nb7  1  0.334659  0.667338  0.501215  1
  Nb  Nb8  1  0.703400  0.351719  0.987640  1
  Ni  Ni9  1  0.661015  0.830526  0.209454  1
  Ni  Ni10  1  0.827933  0.660358  0.709682  1
  Ni  Ni11  1  0.827941  0.167594  0.709684  1
  O  O12  1  0.173283  0.834616  0.590043  1
  O  O13  1  0.034630  0.517326  0.332828  1
  O  O14  1  0.308285  0.654161  0.105404  1
  O  O15  1  0.007700  0.003863  0.305994  1
  O  O16  1  0.012106  0.006056  0.798976  1
  O  O17  1  0.173283  0.338679  0.590043  1
  O  O18  1  0.467895  0.963128  0.338345  1
  O  O19  1  0.467900  0.504794  0.338344  1
  O  O20  1  0.328764  0.164400  0.101756  1
  O  O21  1  0.663480  0.831743  0.585841  1
  O  O22  1  0.502661  0.470760  0.848615  1
  O  O23  1  0.502672  0.031916  0.848618  1
  O  O24  1  0.641743  0.320877  0.607009  1
  O  O25  1  0.836407  0.667702  0.094109  1
  O  O26  1  0.963602  0.481816  0.849068  1
  O  O27  1  0.836406  0.168739  0.094109  1
