# generated using pymatgen
data_Na5V4(PO4)6
_symmetry_space_group_name_H-M   'P 1'
_cell_length_a   8.76223826
_cell_length_b   8.98379200
_cell_length_c   12.59445980
_cell_angle_alpha   90.00000000
_cell_angle_beta   90.86129493
_cell_angle_gamma   90.00000000
_symmetry_Int_Tables_number   1
_chemical_formula_structural   Na5V4(PO4)6
_chemical_formula_sum   'Na10 V8 P12 O48'
_cell_volume   991.30025841
_cell_formula_units_Z   2
loop_
 _symmetry_equiv_pos_site_id
 _symmetry_equiv_pos_as_xyz
  1  'x, y, z'
loop_
 _atom_site_type_symbol
 _atom_site_label
 _atom_site_symmetry_multiplicity
 _atom_site_fract_x
 _atom_site_fract_y
 _atom_site_fract_z
 _atom_site_occupancy
  Na  Na0  1  0.115354  0.721737  0.763270  1
  Na  Na1  1  0.219705  0.789340  0.167295  1
  Na  Na2  1  0.293876  0.298374  0.331899  1
  Na  Na3  1  0.347524  0.216429  0.712317  1
  Na  Na4  1  0.424845  0.556908  0.810170  1
  Na  Na5  1  0.615354  0.778263  0.263270  1
  Na  Na6  1  0.719705  0.710660  0.667295  1
  Na  Na7  1  0.793876  0.201626  0.831899  1
  Na  Na8  1  0.847524  0.283571  0.212317  1
  Na  Na9  1  0.924845  0.943092  0.310170  1
  V  V10  1  0.252929  0.026919  0.895969  1
  V  V11  1  0.258944  0.963652  0.398914  1
  V  V12  1  0.250795  0.462685  0.108485  1
  V  V13  1  0.246044  0.525302  0.600048  1
  V  V14  1  0.752929  0.473081  0.395969  1
  V  V15  1  0.758944  0.536348  0.898914  1
  V  V16  1  0.750795  0.037315  0.608485  1
  V  V17  1  0.746044  0.974698  0.100048  1
  P  P18  1  0.029989  0.244939  0.497121  1
  P  P19  1  0.107702  0.384317  0.857023  1
  P  P20  1  0.121545  0.102562  0.148422  1
  P  P21  1  0.386453  0.608040  0.355693  1
  P  P22  1  0.389488  0.886045  0.649367  1
  P  P23  1  0.472417  0.751986  0.000894  1
  P  P24  1  0.529989  0.255061  0.997121  1
  P  P25  1  0.607702  0.115683  0.357023  1
  P  P26  1  0.621545  0.397438  0.648422  1
  P  P27  1  0.886453  0.891960  0.855693  1
  P  P28  1  0.889488  0.613955  0.149367  1
  P  P29  1  0.972417  0.748014  0.500894  1
  O  O30  1  0.081789  0.843461  0.431296  1
  O  O31  1  0.061905  0.657864  0.586257  1
  O  O32  1  0.060205  0.904681  0.875353  1
  O  O33  1  0.063357  0.591054  0.154060  1
  O  O34  1  0.137026  0.342086  0.567539  1
  O  O35  1  0.164347  0.438825  0.965348  1
  O  O36  1  0.132199  0.216315  0.838844  1
  O  O37  1  0.166811  0.003533  0.246986  1
  O  O38  1  0.139426  0.142439  0.431340  1
  O  O39  1  0.149834  0.269735  0.173189  1
  O  O40  1  0.206251  0.040943  0.053627  1
  O  O41  1  0.188976  0.476492  0.769015  1
  O  O42  1  0.302737  0.976754  0.732571  1
  O  O43  1  0.295064  0.544203  0.447111  1
  O  O44  1  0.354946  0.779100  0.335652  1
  O  O45  1  0.360855  0.650454  0.058594  1
  O  O46  1  0.339154  0.520962  0.254840  1
  O  O47  1  0.352944  0.716672  0.663649  1
  O  O48  1  0.335051  0.944217  0.538011  1
  O  O49  1  0.382261  0.847973  0.920958  1
  O  O50  1  0.431379  0.082565  0.350708  1
  O  O51  1  0.444879  0.417681  0.636583  1
  O  O52  1  0.436536  0.166897  0.912426  1
  O  O53  1  0.432355  0.346367  0.071554  1
  O  O54  1  0.581789  0.656539  0.931296  1
  O  O55  1  0.561905  0.842136  0.086257  1
  O  O56  1  0.560205  0.595319  0.375353  1
  O  O57  1  0.563357  0.908946  0.654060  1
  O  O58  1  0.637026  0.157914  0.067539  1
  O  O59  1  0.664347  0.061175  0.465348  1
  O  O60  1  0.632200  0.283685  0.338844  1
  O  O61  1  0.666811  0.496467  0.746986  1
  O  O62  1  0.639426  0.357561  0.931340  1
  O  O63  1  0.649834  0.230265  0.673189  1
  O  O64  1  0.706251  0.459057  0.553627  1
  O  O65  1  0.688976  0.023508  0.269015  1
  O  O66  1  0.802737  0.523246  0.232571  1
  O  O67  1  0.795064  0.955797  0.947111  1
  O  O68  1  0.854946  0.720900  0.835652  1
  O  O69  1  0.860855  0.849546  0.558594  1
  O  O70  1  0.839154  0.979038  0.754840  1
  O  O71  1  0.852944  0.783328  0.163649  1
  O  O72  1  0.835051  0.555783  0.038011  1
  O  O73  1  0.882261  0.652027  0.420958  1
  O  O74  1  0.931379  0.417435  0.850708  1
  O  O75  1  0.944879  0.082319  0.136583  1
  O  O76  1  0.936536  0.333103  0.412426  1
  O  O77  1  0.932355  0.153633  0.571554  1
