# generated using pymatgen
data_Li3Fe(PO4)2
_symmetry_space_group_name_H-M   'P 1'
_cell_length_a   5.02955984
_cell_length_b   12.38184786
_cell_length_c   18.11121075
_cell_angle_alpha   90.00000000
_cell_angle_beta   90.00000000
_cell_angle_gamma   90.00000000
_symmetry_Int_Tables_number   1
_chemical_formula_structural   Li3Fe(PO4)2
_chemical_formula_sum   'Li24 Fe8 P16 O64'
_cell_volume   1127.88008202
_cell_formula_units_Z   8
loop_
 _symmetry_equiv_pos_site_id
 _symmetry_equiv_pos_as_xyz
  1  'x, y, z'
loop_
 _atom_site_type_symbol
 _atom_site_label
 _atom_site_symmetry_multiplicity
 _atom_site_fract_x
 _atom_site_fract_y
 _atom_site_fract_z
 _atom_site_occupancy
  Li  Li0  1  0.067887  0.359435  0.243795  1
  Li  Li1  1  0.067887  0.140565  0.743795  1
  Li  Li2  1  0.068594  0.464159  0.053668  1
  Li  Li3  1  0.068594  0.035841  0.553668  1
  Li  Li4  1  0.038358  0.709627  0.419350  1
  Li  Li5  1  0.038358  0.790373  0.919350  1
  Li  Li6  1  0.465354  0.039133  0.820169  1
  Li  Li7  1  0.465354  0.460867  0.320169  1
  Li  Li8  1  0.409886  0.710577  0.678074  1
  Li  Li9  1  0.409886  0.789423  0.178074  1
  Li  Li10  1  0.452312  0.614257  0.492355  1
  Li  Li11  1  0.452312  0.885743  0.992355  1
  Li  Li12  1  0.547688  0.114257  0.492355  1
  Li  Li13  1  0.547688  0.385743  0.992355  1
  Li  Li14  1  0.590114  0.289423  0.178074  1
  Li  Li15  1  0.590114  0.210577  0.678074  1
  Li  Li16  1  0.534646  0.539133  0.820169  1
  Li  Li17  1  0.534646  0.960867  0.320169  1
  Li  Li18  1  0.961642  0.290373  0.919350  1
  Li  Li19  1  0.961642  0.209627  0.419350  1
  Li  Li20  1  0.931406  0.964159  0.053668  1
  Li  Li21  1  0.931406  0.535841  0.553668  1
  Li  Li22  1  0.932113  0.859435  0.243795  1
  Li  Li23  1  0.932113  0.640565  0.743795  1
  Fe  Fe24  1  0.073523  0.103001  0.237122  1
  Fe  Fe25  1  0.073523  0.396999  0.737122  1
  Fe  Fe26  1  0.444859  0.147576  0.991996  1
  Fe  Fe27  1  0.444859  0.352424  0.491996  1
  Fe  Fe28  1  0.555141  0.647576  0.991996  1
  Fe  Fe29  1  0.555141  0.852424  0.491996  1
  Fe  Fe30  1  0.926477  0.603001  0.237122  1
  Fe  Fe31  1  0.926477  0.896999  0.737122  1
  P  P32  1  0.001919  0.723436  0.079879  1
  P  P33  1  0.001919  0.776564  0.579879  1
  P  P34  1  0.030295  0.961266  0.402754  1
  P  P35  1  0.030295  0.538734  0.902754  1
  P  P36  1  0.453470  0.714557  0.326400  1
  P  P37  1  0.453470  0.785443  0.826400  1
  P  P38  1  0.478339  0.530197  0.149195  1
  P  P39  1  0.478339  0.969803  0.649195  1
  P  P40  1  0.521661  0.030197  0.149195  1
  P  P41  1  0.521661  0.469803  0.649195  1
  P  P42  1  0.546530  0.214557  0.326400  1
  P  P43  1  0.546530  0.285443  0.826400  1
  P  P44  1  0.969705  0.038734  0.902754  1
  P  P45  1  0.969705  0.461266  0.402754  1
  P  P46  1  0.998081  0.223436  0.079879  1
  P  P47  1  0.998081  0.276564  0.579879  1
  O  O48  1  0.015426  0.477108  0.318111  1
  O  O49  1  0.015426  0.022892  0.818111  1
  O  O50  1  0.035536  0.736588  0.165626  1
  O  O51  1  0.035536  0.763412  0.665626  1
  O  O52  1  0.097883  0.109839  0.059406  1
  O  O53  1  0.097883  0.390161  0.559406  1
  O  O54  1  0.081041  0.556124  0.448309  1
  O  O55  1  0.081041  0.943876  0.948309  1
  O  O56  1  0.126480  0.355878  0.420935  1
  O  O57  1  0.126480  0.144122  0.920935  1
  O  O58  1  0.151348  0.700196  0.305494  1
  O  O59  1  0.151348  0.799804  0.805493  1
  O  O60  1  0.197874  0.305133  0.047251  1
  O  O61  1  0.197874  0.194867  0.547251  1
  O  O62  1  0.199343  0.507001  0.184580  1
  O  O63  1  0.199343  0.992999  0.684580  1
  O  O64  1  0.282378  0.745111  0.044868  1
  O  O65  1  0.282378  0.754889  0.544868  1
  O  O66  1  0.317417  0.551398  0.678516  1
  O  O67  1  0.317417  0.948602  0.178516  1
  O  O68  1  0.334304  0.553945  0.919372  1
  O  O69  1  0.334304  0.946055  0.419372  1
  O  O70  1  0.385284  0.110150  0.310069  1
  O  O71  1  0.385284  0.389850  0.810069  1
  O  O72  1  0.431290  0.189534  0.783425  1
  O  O73  1  0.431290  0.310466  0.283425  1
  O  O74  1  0.440514  0.980933  0.562890  1
  O  O75  1  0.440514  0.519067  0.062890  1
  O  O76  1  0.455079  0.728099  0.412137  1
  O  O77  1  0.455079  0.771901  0.912137  1
  O  O78  1  0.424174  0.143678  0.170994  1
  O  O79  1  0.424174  0.356322  0.670994  1
  O  O80  1  0.575826  0.643678  0.170994  1
  O  O81  1  0.575826  0.856322  0.670994  1
  O  O82  1  0.544921  0.271901  0.912137  1
  O  O83  1  0.544921  0.228099  0.412137  1
  O  O84  1  0.559486  0.480933  0.562890  1
  O  O85  1  0.559486  0.019067  0.062890  1
  O  O86  1  0.568710  0.689534  0.783425  1
  O  O87  1  0.568710  0.810466  0.283425  1
  O  O88  1  0.614716  0.610150  0.310069  1
  O  O89  1  0.614716  0.889850  0.810069  1
  O  O90  1  0.665696  0.053945  0.919372  1
  O  O91  1  0.665696  0.446055  0.419372  1
  O  O92  1  0.682583  0.448602  0.178516  1
  O  O93  1  0.682583  0.051398  0.678516  1
  O  O94  1  0.717622  0.254889  0.544868  1
  O  O95  1  0.717622  0.245111  0.044868  1
  O  O96  1  0.800657  0.492999  0.684580  1
  O  O97  1  0.800657  0.007001  0.184580  1
  O  O98  1  0.802126  0.805133  0.047251  1
  O  O99  1  0.802126  0.694867  0.547251  1
  O  O100  1  0.848652  0.200196  0.305494  1
  O  O101  1  0.848652  0.299804  0.805493  1
  O  O102  1  0.873520  0.644122  0.920935  1
  O  O103  1  0.873520  0.855878  0.420935  1
  O  O104  1  0.918959  0.443876  0.948309  1
  O  O105  1  0.918959  0.056124  0.448309  1
  O  O106  1  0.902117  0.609839  0.059406  1
  O  O107  1  0.902117  0.890161  0.559406  1
  O  O108  1  0.964464  0.236588  0.165626  1
  O  O109  1  0.964464  0.263412  0.665626  1
  O  O110  1  0.984574  0.522892  0.818111  1
  O  O111  1  0.984574  0.977108  0.318111  1
