# generated using pymatgen
data_CaPbI6
_symmetry_space_group_name_H-M   'P 1'
_cell_length_a   13.91268546
_cell_length_b   12.69845001
_cell_length_c   12.69845001
_cell_angle_alpha   118.41587647
_cell_angle_beta   76.16101914
_cell_angle_gamma   76.16101914
_symmetry_Int_Tables_number   1
_chemical_formula_structural   CaPbI6
_chemical_formula_sum   'Ca4 Pb4 I24'
_cell_volume   1744.50198177
_cell_formula_units_Z   4
loop_
 _symmetry_equiv_pos_site_id
 _symmetry_equiv_pos_as_xyz
  1  'x, y, z'
loop_
 _atom_site_type_symbol
 _atom_site_label
 _atom_site_symmetry_multiplicity
 _atom_site_fract_x
 _atom_site_fract_y
 _atom_site_fract_z
 _atom_site_occupancy
  Ca  Ca0  1  0.822962  0.863383  0.939787  1
  Ca  Ca1  1  0.322962  0.689787  0.113383  1
  Ca  Ca2  1  0.677038  0.436345  0.012748  1
  Ca  Ca3  1  0.177038  0.762748  0.686345  1
  Pb  Pb4  1  0.735851  0.932784  0.697588  1
  Pb  Pb5  1  0.235851  0.447588  0.182784  1
  Pb  Pb6  1  0.764149  0.418636  0.683439  1
  Pb  Pb7  1  0.264149  0.433439  0.668636  1
  I  I8  1  0.748703  0.844162  0.173755  1
  I  I9  1  0.434341  0.548316  0.220379  1
  I  I10  1  0.100780  0.730117  0.304448  1
  I  I11  1  0.656155  0.621957  0.386525  1
  I  I12  1  0.048581  0.356926  0.148959  1
  I  I13  1  0.817640  0.660542  0.682578  1
  I  I14  1  0.248703  0.923755  0.094162  1
  I  I15  1  0.751297  0.342865  0.172458  1
  I  I16  1  0.182360  0.500218  0.478182  1
  I  I17  1  0.065659  0.732657  0.904720  1
  I  I18  1  0.399220  0.580897  0.655230  1
  I  I19  1  0.951419  0.197540  0.405507  1
  I  I20  1  0.343845  0.042680  0.278113  1
  I  I21  1  0.843845  0.028113  0.292680  1
  I  I22  1  0.451419  0.155507  0.447540  1
  I  I23  1  0.899220  0.405230  0.830897  1
  I  I24  1  0.565659  0.654720  0.982657  1
  I  I25  1  0.682360  0.228182  0.750218  1
  I  I26  1  0.251297  0.922458  0.592865  1
  I  I27  1  0.317640  0.432578  0.910542  1
  I  I28  1  0.548581  0.898959  0.606926  1
  I  I29  1  0.156155  0.136525  0.871957  1
  I  I30  1  0.600780  0.054448  0.980117  1
  I  I31  1  0.934341  0.970379  0.798316  1
