# generated using pymatgen
data_Ti4O7
_symmetry_space_group_name_H-M   'P 1'
_cell_length_a   5.91134591
_cell_length_b   7.44378964
_cell_length_c   12.23415308
_cell_angle_alpha   97.04692971
_cell_angle_beta   92.30515752
_cell_angle_gamma   111.82347179
_symmetry_Int_Tables_number   1
_chemical_formula_structural   Ti4O7
_chemical_formula_sum   'Ti16 O28'
_cell_volume   493.82447211
_cell_formula_units_Z   4
loop_
 _symmetry_equiv_pos_site_id
 _symmetry_equiv_pos_as_xyz
  1  'x, y, z'
loop_
 _atom_site_type_symbol
 _atom_site_label
 _atom_site_symmetry_multiplicity
 _atom_site_fract_x
 _atom_site_fract_y
 _atom_site_fract_z
 _atom_site_occupancy
  Ti  Ti0  1  0.215096  0.646227  0.575107  1
  Ti  Ti1  1  0.038271  0.317934  0.774331  1
  Ti  Ti2  1  0.228700  0.594236  0.064840  1
  Ti  Ti3  1  0.356278  0.550723  0.306460  1
  Ti  Ti4  1  0.203418  0.169523  0.545730  1
  Ti  Ti5  1  0.292888  0.020799  0.832401  1
  Ti  Ti6  1  0.227347  0.137601  0.071718  1
  Ti  Ti7  1  0.636372  0.927996  0.698404  1
  Ti  Ti8  1  0.363629  0.072004  0.301596  1
  Ti  Ti9  1  0.772653  0.862399  0.928282  1
  Ti  Ti10  1  0.707112  0.979201  0.167599  1
  Ti  Ti11  1  0.796582  0.830477  0.454270  1
  Ti  Ti12  1  0.643722  0.449277  0.693540  1
  Ti  Ti13  1  0.771300  0.405764  0.935160  1
  Ti  Ti14  1  0.961729  0.682066  0.225669  1
  Ti  Ti15  1  0.784904  0.353773  0.424893  1
  O  O16  1  0.004956  0.511465  0.694719  1
  O  O17  1  0.127375  0.896533  0.962970  1
  O  O18  1  0.130734  0.454097  0.916166  1
  O  O19  1  0.304437  0.910880  0.660216  1
  O  O20  1  0.098301  0.355205  0.498356  1
  O  O21  1  0.318748  0.777117  0.221596  1
  O  O22  1  0.042902  0.982442  0.194016  1
  O  O23  1  0.501037  0.878053  0.847865  1
  O  O24  1  0.421994  0.709179  0.452367  1
  O  O25  1  0.304454  0.276224  0.710033  1
  O  O26  1  0.133589  0.974654  0.409753  1
  O  O27  1  0.531430  0.647701  0.659807  1
  O  O28  1  0.275477  0.407099  0.140367  1
  O  O29  1  0.427924  0.235435  0.949443  1
  O  O30  1  0.572076  0.764565  0.050557  1
  O  O31  1  0.724523  0.592901  0.859633  1
  O  O32  1  0.468570  0.352299  0.340193  1
  O  O33  1  0.866411  0.025346  0.590247  1
  O  O34  1  0.695546  0.723776  0.289967  1
  O  O35  1  0.578006  0.290821  0.547633  1
  O  O36  1  0.498963  0.121947  0.152135  1
  O  O37  1  0.957098  0.017558  0.805984  1
  O  O38  1  0.681252  0.222883  0.778404  1
  O  O39  1  0.901699  0.644795  0.501644  1
  O  O40  1  0.695563  0.089120  0.339784  1
  O  O41  1  0.869266  0.545903  0.083834  1
  O  O42  1  0.872625  0.103467  0.037030  1
  O  O43  1  0.995044  0.488535  0.305281  1
