# generated using pymatgen
data_LiNi7O7F
_symmetry_space_group_name_H-M   'P 1'
_cell_length_a   2.98097872
_cell_length_b   5.19270712
_cell_length_c   9.89749994
_cell_angle_alpha   99.49777294
_cell_angle_beta   90.00038397
_cell_angle_gamma   90.00035791
_symmetry_Int_Tables_number   1
_chemical_formula_structural   LiNi7O7F
_chemical_formula_sum   'Li1 Ni7 O7 F1'
_cell_volume   151.10670276
_cell_formula_units_Z   1
loop_
 _symmetry_equiv_pos_site_id
 _symmetry_equiv_pos_as_xyz
  1  'x, y, z'
loop_
 _atom_site_type_symbol
 _atom_site_label
 _atom_site_symmetry_multiplicity
 _atom_site_fract_x
 _atom_site_fract_y
 _atom_site_fract_z
 _atom_site_occupancy
  Li  Li0  1  0.000022  0.747982  0.268776  1
  Ni  Ni1  1  0.000004  0.002326  0.992805  1
  Ni  Ni2  1  0.499979  0.999868  0.493609  1
  Ni  Ni3  1  0.999943  0.249722  0.744053  1
  Ni  Ni4  1  -0.000009  0.504460  0.496685  1
  Ni  Ni5  1  0.500008  0.271972  0.256379  1
  Ni  Ni6  1  0.500029  0.486952  0.998635  1
  Ni  Ni7  1  0.500004  0.747123  0.745270  1
  O  O8  1  0.999989  0.133810  0.372562  1
  O  O9  1  0.500072  0.121103  0.874474  1
  O  O10  1  0.000016  0.354924  0.118572  1
  O  O11  1  0.999979  0.629485  0.881399  1
  O  O12  1  0.499986  0.376070  0.627740  1
  O  O13  1  0.500014  0.627014  0.378718  1
  O  O14  1  0.999961  0.878805  0.626311  1
  F  F15  1  0.500002  0.868385  0.124013  1
