# generated using pymatgen
data_Li2MnVP2(HO5)2
_symmetry_space_group_name_H-M   'P 1'
_cell_length_a   8.09122934
_cell_length_b   7.30657497
_cell_length_c   6.92962425
_cell_angle_alpha   116.79277451
_cell_angle_beta   86.60165540
_cell_angle_gamma   89.07641796
_symmetry_Int_Tables_number   1
_chemical_formula_structural   Li2MnVP2(HO5)2
_chemical_formula_sum   'Li4 Mn2 V2 P4 H4 O20'
_cell_volume   364.62702473
_cell_formula_units_Z   2
loop_
 _symmetry_equiv_pos_site_id
 _symmetry_equiv_pos_as_xyz
  1  'x, y, z'
loop_
 _atom_site_type_symbol
 _atom_site_label
 _atom_site_symmetry_multiplicity
 _atom_site_fract_x
 _atom_site_fract_y
 _atom_site_fract_z
 _atom_site_occupancy
  Li  Li0  1  0.323116  0.822857  0.074497  1
  Li  Li1  1  0.174729  0.173536  0.428817  1
  Li  Li2  1  0.825271  0.826464  0.571183  1
  Li  Li3  1  0.676884  0.177143  0.925503  1
  Mn  Mn4  1  0.000000  0.500000  0.000000  1
  Mn  Mn5  1  0.500000  0.000000  0.500000  1
  V  V6  1  0.000000  0.000000  0.000000  1
  V  V7  1  0.500000  0.500000  0.500000  1
  P  P8  1  0.156062  0.766609  0.482925  1
  P  P9  1  0.344718  0.231173  0.018588  1
  P  P10  1  0.655282  0.768827  0.981412  1
  P  P11  1  0.843938  0.233391  0.517075  1
  H  H12  1  0.146500  0.654916  0.790134  1
  H  H13  1  0.648593  0.667410  0.287851  1
  H  H14  1  0.351407  0.332591  0.712149  1
  H  H15  1  0.853500  0.345084  0.209866  1
  O  O16  1  0.015671  0.655516  0.337296  1
  O  O17  1  0.225592  0.118184  0.111278  1
  O  O18  1  0.263909  0.879697  0.383396  1
  O  O19  1  0.061986  0.930032  0.695869  1
  O  O20  1  0.552019  0.931004  0.184955  1
  O  O21  1  0.262157  0.620542  0.539283  1
  O  O22  1  0.477575  0.341883  0.180643  1
  O  O23  1  0.751717  0.619074  0.038430  1
  O  O24  1  0.103201  0.719942  0.945023  1
  O  O25  1  0.604081  0.731509  0.443059  1
  O  O26  1  0.395919  0.268491  0.556940  1
  O  O27  1  0.896799  0.280058  0.054977  1
  O  O28  1  0.248283  0.380926  0.961570  1
  O  O29  1  0.522425  0.658117  0.819357  1
  O  O30  1  0.737843  0.379458  0.460717  1
  O  O31  1  0.447981  0.068996  0.815045  1
  O  O32  1  0.938014  0.069968  0.304131  1
  O  O33  1  0.736091  0.120303  0.616604  1
  O  O34  1  0.774408  0.881816  0.888722  1
  O  O35  1  0.984329  0.344484  0.662704  1
