# generated using pymatgen
data_CsFeH24(SeO10)2
_symmetry_space_group_name_H-M   'P 1'
_cell_length_a   12.77656925
_cell_length_b   12.77656925
_cell_length_c   12.77656925
_cell_angle_alpha   90.00000000
_cell_angle_beta   90.00000000
_cell_angle_gamma   90.00000000
_symmetry_Int_Tables_number   1
_chemical_formula_structural   CsFeH24(SeO10)2
_chemical_formula_sum   'Cs4 Fe4 H96 Se8 O80'
_cell_volume   2085.65638650
_cell_formula_units_Z   4
loop_
 _symmetry_equiv_pos_site_id
 _symmetry_equiv_pos_as_xyz
  1  'x, y, z'
loop_
 _atom_site_type_symbol
 _atom_site_label
 _atom_site_symmetry_multiplicity
 _atom_site_fract_x
 _atom_site_fract_y
 _atom_site_fract_z
 _atom_site_occupancy
  Cs  Cs0  1  0.000000  0.000000  0.500000  1
  Cs  Cs1  1  0.000000  0.500000  0.000000  1
  Cs  Cs2  1  0.500000  0.000000  0.000000  1
  Cs  Cs3  1  0.500000  0.500000  0.500000  1
  Fe  Fe4  1  0.500000  0.500000  0.000000  1
  Fe  Fe5  1  0.500000  0.000000  0.500000  1
  Fe  Fe6  1  0.000000  0.500000  0.500000  1
  Fe  Fe7  1  0.000000  0.000000  0.000000  1
  H  H8  1  0.218551  0.621354  0.169116  1
  H  H9  1  0.781449  0.121354  0.330884  1
  H  H10  1  0.281449  0.378646  0.669116  1
  H  H11  1  0.718551  0.878646  0.830884  1
  H  H12  1  0.169116  0.218551  0.621354  1
  H  H13  1  0.330884  0.781449  0.121354  1
  H  H14  1  0.669116  0.281449  0.378646  1
  H  H15  1  0.830884  0.718551  0.878646  1
  H  H16  1  0.621354  0.169116  0.218551  1
  H  H17  1  0.121354  0.330884  0.781449  1
  H  H18  1  0.378646  0.669116  0.281449  1
  H  H19  1  0.878646  0.830884  0.718551  1
  H  H20  1  0.781449  0.378646  0.830884  1
  H  H21  1  0.218551  0.878646  0.669116  1
  H  H22  1  0.718551  0.621354  0.330884  1
  H  H23  1  0.281449  0.121354  0.169116  1
  H  H24  1  0.830884  0.781449  0.378646  1
  H  H25  1  0.669116  0.218551  0.878646  1
  H  H26  1  0.330884  0.718551  0.621354  1
  H  H27  1  0.169116  0.281449  0.121354  1
  H  H28  1  0.378646  0.830884  0.781449  1
  H  H29  1  0.878646  0.669116  0.218551  1
  H  H30  1  0.621354  0.330884  0.718551  1
  H  H31  1  0.121354  0.169116  0.281449  1
  H  H32  1  0.218629  0.501629  0.193231  1
  H  H33  1  0.781371  0.001629  0.306769  1
  H  H34  1  0.281371  0.498371  0.693231  1
  H  H35  1  0.718629  0.998371  0.806769  1
  H  H36  1  0.193231  0.218629  0.501629  1
  H  H37  1  0.306769  0.781371  0.001629  1
  H  H38  1  0.693231  0.281371  0.498371  1
  H  H39  1  0.806769  0.718629  0.998371  1
  H  H40  1  0.501629  0.193231  0.218629  1
  H  H41  1  0.001629  0.306769  0.781371  1
  H  H42  1  0.498371  0.693231  0.281371  1
  H  H43  1  0.998371  0.806769  0.718629  1
  H  H44  1  0.781371  0.498371  0.806769  1
  H  H45  1  0.218629  0.998371  0.693231  1
  H  H46  1  0.718629  0.501629  0.306769  1
  H  H47  1  0.281371  0.001629  0.193231  1
  H  H48  1  0.806769  0.781371  0.498371  1
  H  H49  1  0.693231  0.218629  0.998371  1
  H  H50  1  0.306769  0.718629  0.501629  1
  H  H51  1  0.193231  0.281371  0.001629  1
  H  H52  1  0.498371  0.806769  0.781371  1
  H  H53  1  0.998371  0.693231  0.218629  1
  H  H54  1  0.501629  0.306769  0.718629  1
  H  H55  1  0.001629  0.193231  0.281371  1
  H  H56  1  0.581552  0.691728  0.034349  1
  H  H57  1  0.418448  0.191728  0.465651  1
  H  H58  1  0.918448  0.308272  0.534349  1
  H  H59  1  0.081552  0.808272  0.965651  1
  H  H60  1  0.034349  0.581552  0.691728  1
  H  H61  1  0.465651  0.418448  0.191728  1
  H  H62  1  0.534349  0.918448  0.308272  1
  H  H63  1  0.965651  0.081552  0.808272  1
  H  H64  1  0.691728  0.034349  0.581552  1
  H  H65  1  0.191728  0.465651  0.418448  1
  H  H66  1  0.308272  0.534349  0.918448  1
  H  H67  1  0.808272  0.965651  0.081552  1
  H  H68  1  0.418448  0.308272  0.965651  1
  H  H69  1  0.581552  0.808272  0.534349  1
  H  H70  1  0.081552  0.691728  0.465651  1
  H  H71  1  0.918448  0.191728  0.034349  1
  H  H72  1  0.965651  0.418448  0.308272  1
  H  H73  1  0.534349  0.581552  0.808272  1
  H  H74  1  0.465651  0.081552  0.691728  1
  H  H75  1  0.034349  0.918448  0.191728  1
  H  H76  1  0.308272  0.965651  0.418448  1
  H  H77  1  0.808272  0.534349  0.581552  1
  H  H78  1  0.691728  0.465651  0.081552  1
  H  H79  1  0.191728  0.034349  0.918448  1
  H  H80  1  0.454692  0.708073  0.030718  1
  H  H81  1  0.545308  0.208073  0.469282  1
  H  H82  1  0.045308  0.291927  0.530718  1
  H  H83  1  0.954692  0.791927  0.969282  1
  H  H84  1  0.030718  0.454692  0.708073  1
  H  H85  1  0.469282  0.545308  0.208073  1
  H  H86  1  0.530718  0.045308  0.291927  1
  H  H87  1  0.969282  0.954692  0.791927  1
  H  H88  1  0.708073  0.030718  0.454692  1
  H  H89  1  0.208073  0.469282  0.545308  1
  H  H90  1  0.291927  0.530718  0.045308  1
  H  H91  1  0.791927  0.969282  0.954692  1
  H  H92  1  0.545308  0.291927  0.969282  1
  H  H93  1  0.454692  0.791927  0.530718  1
  H  H94  1  0.954692  0.708073  0.469282  1
  H  H95  1  0.045308  0.208073  0.030718  1
  H  H96  1  0.969282  0.545308  0.291927  1
  H  H97  1  0.530718  0.454692  0.791927  1
  H  H98  1  0.469282  0.954692  0.708073  1
  H  H99  1  0.030718  0.045308  0.208073  1
  H  H100  1  0.291927  0.969282  0.545308  1
  H  H101  1  0.791927  0.530718  0.454692  1
  H  H102  1  0.708073  0.469282  0.954692  1
  H  H103  1  0.208073  0.030718  0.045308  1
  Se  Se104  1  0.188739  0.811261  0.311261  1
  Se  Se105  1  0.811261  0.311261  0.188739  1
  Se  Se106  1  0.311261  0.188739  0.811261  1
  Se  Se107  1  0.688739  0.688739  0.688739  1
  Se  Se108  1  0.811261  0.188739  0.688739  1
  Se  Se109  1  0.188739  0.688739  0.811261  1
  Se  Se110  1  0.688739  0.811261  0.188739  1
  Se  Se111  1  0.311261  0.311261  0.311261  1
  O  O112  1  0.264952  0.735048  0.235048  1
  O  O113  1  0.735048  0.235048  0.264952  1
  O  O114  1  0.235048  0.264952  0.735048  1
  O  O115  1  0.764952  0.764952  0.764952  1
  O  O116  1  0.735048  0.264952  0.764952  1
  O  O117  1  0.264952  0.764952  0.735048  1
  O  O118  1  0.764952  0.735048  0.264952  1
  O  O119  1  0.235048  0.235048  0.235048  1
  O  O120  1  0.066823  0.813181  0.262961  1
  O  O121  1  0.933177  0.313181  0.237039  1
  O  O122  1  0.433177  0.186819  0.762961  1
  O  O123  1  0.566823  0.686819  0.737039  1
  O  O124  1  0.262961  0.066823  0.813181  1
  O  O125  1  0.237039  0.933177  0.313181  1
  O  O126  1  0.762961  0.433177  0.186819  1
  O  O127  1  0.737039  0.566823  0.686819  1
  O  O128  1  0.813181  0.262961  0.066823  1
  O  O129  1  0.313181  0.237039  0.933177  1
  O  O130  1  0.186819  0.762961  0.433177  1
  O  O131  1  0.686819  0.737039  0.566823  1
  O  O132  1  0.933177  0.186819  0.737039  1
  O  O133  1  0.066823  0.686819  0.762961  1
  O  O134  1  0.566823  0.813181  0.237039  1
  O  O135  1  0.433177  0.313181  0.262961  1
  O  O136  1  0.737039  0.933177  0.186819  1
  O  O137  1  0.762961  0.066823  0.686819  1
  O  O138  1  0.237039  0.566823  0.813181  1
  O  O139  1  0.262961  0.433177  0.313181  1
  O  O140  1  0.186819  0.737039  0.933177  1
  O  O141  1  0.686819  0.762961  0.066823  1
  O  O142  1  0.813181  0.237039  0.566823  1
  O  O143  1  0.313181  0.262961  0.433177  1
  O  O144  1  0.207581  0.552214  0.135526  1
  O  O145  1  0.792419  0.052214  0.364474  1
  O  O146  1  0.292419  0.447786  0.635526  1
  O  O147  1  0.707581  0.947786  0.864474  1
  O  O148  1  0.135526  0.207581  0.552214  1
  O  O149  1  0.364474  0.792419  0.052214  1
  O  O150  1  0.635526  0.292419  0.447786  1
  O  O151  1  0.864474  0.707581  0.947786  1
  O  O152  1  0.552214  0.135526  0.207581  1
  O  O153  1  0.052214  0.364474  0.792419  1
  O  O154  1  0.447786  0.635526  0.292419  1
  O  O155  1  0.947786  0.864474  0.707581  1
  O  O156  1  0.792419  0.447786  0.864474  1
  O  O157  1  0.207581  0.947786  0.635526  1
  O  O158  1  0.707581  0.552214  0.364474  1
  O  O159  1  0.292419  0.052214  0.135526  1
  O  O160  1  0.864474  0.792419  0.447786  1
  O  O161  1  0.635526  0.207581  0.947786  1
  O  O162  1  0.364474  0.707581  0.552214  1
  O  O163  1  0.135526  0.292419  0.052214  1
  O  O164  1  0.447786  0.864474  0.792419  1
  O  O165  1  0.947786  0.635526  0.207581  1
  O  O166  1  0.552214  0.364474  0.707581  1
  O  O167  1  0.052214  0.135526  0.292419  1
  O  O168  1  0.514215  0.657931  0.012390  1
  O  O169  1  0.485785  0.157931  0.487610  1
  O  O170  1  0.985785  0.342069  0.512390  1
  O  O171  1  0.014215  0.842069  0.987610  1
  O  O172  1  0.012390  0.514215  0.657931  1
  O  O173  1  0.487610  0.485785  0.157931  1
  O  O174  1  0.512390  0.985785  0.342069  1
  O  O175  1  0.987610  0.014215  0.842069  1
  O  O176  1  0.657931  0.012390  0.514215  1
  O  O177  1  0.157931  0.487610  0.485785  1
  O  O178  1  0.342069  0.512390  0.985785  1
  O  O179  1  0.842069  0.987610  0.014215  1
  O  O180  1  0.485785  0.342069  0.987610  1
  O  O181  1  0.514215  0.842069  0.512390  1
  O  O182  1  0.014215  0.657931  0.487610  1
  O  O183  1  0.985785  0.157931  0.012390  1
  O  O184  1  0.987610  0.485785  0.342069  1
  O  O185  1  0.512390  0.514215  0.842069  1
  O  O186  1  0.487610  0.014215  0.657931  1
  O  O187  1  0.012390  0.985785  0.157931  1
  O  O188  1  0.342069  0.987610  0.485785  1
  O  O189  1  0.842069  0.512390  0.514215  1
  O  O190  1  0.657931  0.487610  0.014215  1
  O  O191  1  0.157931  0.012390  0.985785  1
