# generated using pymatgen
data_LiBiP2O7
_symmetry_space_group_name_H-M   'P 1'
_cell_length_a   7.46602669
_cell_length_b   7.94331838
_cell_length_c   10.09997692
_cell_angle_alpha   90.00000000
_cell_angle_beta   111.19171442
_cell_angle_gamma   90.00000000
_symmetry_Int_Tables_number   1
_chemical_formula_structural   LiBiP2O7
_chemical_formula_sum   'Li4 Bi4 P8 O28'
_cell_volume   558.47407299
_cell_formula_units_Z   4
loop_
 _symmetry_equiv_pos_site_id
 _symmetry_equiv_pos_as_xyz
  1  'x, y, z'
loop_
 _atom_site_type_symbol
 _atom_site_label
 _atom_site_symmetry_multiplicity
 _atom_site_fract_x
 _atom_site_fract_y
 _atom_site_fract_z
 _atom_site_occupancy
  Li  Li0  1  0.245114  0.507392  0.754518  1
  Li  Li1  1  0.245114  0.992608  0.254518  1
  Li  Li2  1  0.754886  0.007392  0.745482  1
  Li  Li3  1  0.754886  0.492608  0.245482  1
  Bi  Bi4  1  0.285365  0.971827  0.771466  1
  Bi  Bi5  1  0.285365  0.528173  0.271466  1
  Bi  Bi6  1  0.714635  0.471827  0.728534  1
  Bi  Bi7  1  0.714635  0.028173  0.228534  1
  P  P8  1  0.086884  0.756959  0.960208  1
  P  P9  1  0.086884  0.743041  0.460208  1
  P  P10  1  0.330617  0.221804  0.540163  1
  P  P11  1  0.669383  0.721804  0.959837  1
  P  P12  1  0.330617  0.278196  0.040163  1
  P  P13  1  0.669383  0.778196  0.459837  1
  P  P14  1  0.913116  0.256959  0.539792  1
  P  P15  1  0.913116  0.243041  0.039792  1
  O  O16  1  0.946162  0.432038  0.609080  1
  O  O17  1  0.173706  0.635931  0.886577  1
  O  O18  1  0.129777  0.177671  0.567213  1
  O  O19  1  0.296294  0.271620  0.882653  1
  O  O20  1  0.187429  0.741158  0.623584  1
  O  O21  1  0.946162  0.067962  0.109080  1
  O  O22  1  0.173706  0.864069  0.386577  1
  O  O23  1  0.400366  0.396173  0.610612  1
  O  O24  1  0.129777  0.322329  0.067213  1
  O  O25  1  0.547759  0.578529  0.867858  1
  O  O26  1  0.296294  0.228380  0.382653  1
  O  O27  1  0.187429  0.758842  0.123584  1
  O  O28  1  0.452241  0.078529  0.632142  1
  O  O29  1  0.599634  0.896173  0.889388  1
  O  O30  1  0.400366  0.103827  0.110612  1
  O  O31  1  0.547759  0.921471  0.367858  1
  O  O32  1  0.812571  0.241158  0.876416  1
  O  O33  1  0.703706  0.771620  0.617347  1
  O  O34  1  0.452241  0.421471  0.132142  1
  O  O35  1  0.870223  0.677671  0.932787  1
  O  O36  1  0.599634  0.603827  0.389388  1
  O  O37  1  0.826294  0.135931  0.613423  1
  O  O38  1  0.053838  0.932038  0.890920  1
  O  O39  1  0.812571  0.258842  0.376416  1
  O  O40  1  0.703706  0.728380  0.117347  1
  O  O41  1  0.870223  0.822329  0.432787  1
  O  O42  1  0.826294  0.364069  0.113423  1
  O  O43  1  0.053838  0.567962  0.390920  1
