# generated using pymatgen
data_U3Cu2H10(CO10)2
_symmetry_space_group_name_H-M   'P 1'
_cell_length_a   7.89229872
_cell_length_b   6.99179733
_cell_length_c   7.82026029
_cell_angle_alpha   91.39534428
_cell_angle_beta   90.53345574
_cell_angle_gamma   95.36939812
_symmetry_Int_Tables_number   1
_chemical_formula_structural   U3Cu2H10(CO10)2
_chemical_formula_sum   'U3 Cu2 H10 C2 O20'
_cell_volume   429.48250040
_cell_formula_units_Z   1
loop_
 _symmetry_equiv_pos_site_id
 _symmetry_equiv_pos_as_xyz
  1  'x, y, z'
loop_
 _atom_site_type_symbol
 _atom_site_label
 _atom_site_symmetry_multiplicity
 _atom_site_fract_x
 _atom_site_fract_y
 _atom_site_fract_z
 _atom_site_occupancy
  U  U0  1  0.000000  0.000000  0.000000  1
  U  U1  1  0.863244  0.478196  0.804852  1
  U  U2  1  0.136756  0.521804  0.195148  1
  Cu  Cu3  1  0.497586  0.734267  0.503452  1
  Cu  Cu4  1  0.502414  0.265733  0.496548  1
  H  H5  1  0.759372  0.481128  0.459642  1
  H  H6  1  0.240628  0.518872  0.540358  1
  H  H7  1  0.672740  0.814298  0.226701  1
  H  H8  1  0.327260  0.185702  0.773299  1
  H  H9  1  0.505539  0.667928  0.181481  1
  H  H10  1  0.494461  0.332072  0.818519  1
  H  H11  1  0.609616  0.357645  0.188364  1
  H  H12  1  0.390384  0.642355  0.811636  1
  H  H13  1  0.681984  0.159228  0.229455  1
  H  H14  1  0.318016  0.840772  0.770545  1
  C  C15  1  0.768813  0.966416  0.686259  1
  C  C16  1  0.231187  0.033584  0.313741  1
  O  O17  1  0.808028  0.990238  0.139371  1
  O  O18  1  0.191972  0.009762  0.860629  1
  O  O19  1  0.665839  0.442975  0.931453  1
  O  O20  1  0.334161  0.557025  0.068547  1
  O  O21  1  0.053623  0.505587  0.673563  1
  O  O22  1  0.946377  0.494414  0.326437  1
  O  O23  1  0.830763  0.131695  0.751849  1
  O  O24  1  0.169237  0.868305  0.248151  1
  O  O25  1  0.995616  0.684761  0.001722  1
  O  O26  1  0.004384  0.315239  0.998278  1
  O  O27  1  0.820321  0.819584  0.764023  1
  O  O28  1  0.179679  0.180416  0.235977  1
  O  O29  1  0.667804  0.955369  0.557889  1
  O  O30  1  0.332196  0.044631  0.442111  1
  O  O31  1  0.685541  0.463094  0.561139  1
  O  O32  1  0.314459  0.536906  0.438861  1
  O  O33  1  0.593079  0.708167  0.270990  1
  O  O34  1  0.406921  0.291833  0.729010  1
  O  O35  1  0.591472  0.244149  0.259302  1
  O  O36  1  0.408528  0.755851  0.740698  1
