# generated using pymatgen
data_Mo2H3(CO2)4
_symmetry_space_group_name_H-M   'P 1'
_cell_length_a   12.72569007
_cell_length_b   13.38828798
_cell_length_c   5.94479797
_cell_angle_alpha   89.99905542
_cell_angle_beta   90.00000000
_cell_angle_gamma   90.00000000
_symmetry_Int_Tables_number   1
_chemical_formula_structural   Mo2H3(CO2)4
_chemical_formula_sum   'Mo8 H12 C16 O32'
_cell_volume   1012.84616325
_cell_formula_units_Z   4
loop_
 _symmetry_equiv_pos_site_id
 _symmetry_equiv_pos_as_xyz
  1  'x, y, z'
loop_
 _atom_site_type_symbol
 _atom_site_label
 _atom_site_symmetry_multiplicity
 _atom_site_fract_x
 _atom_site_fract_y
 _atom_site_fract_z
 _atom_site_occupancy
  Mo  Mo0  1  0.573276  0.791524  0.057085  1
  Mo  Mo1  1  0.926722  0.208479  0.557101  1
  Mo  Mo2  1  0.073276  0.708476  0.942915  1
  Mo  Mo3  1  0.426722  0.291521  0.442899  1
  Mo  Mo4  1  0.676998  0.697707  0.477862  1
  Mo  Mo5  1  0.823004  0.302290  0.977845  1
  Mo  Mo6  1  0.176998  0.802293  0.522138  1
  Mo  Mo7  1  0.323004  0.197710  0.022155  1
  H  H8  1  0.807366  0.571120  0.902212  1
  H  H9  1  0.692634  0.428879  0.402210  1
  H  H10  1  0.307366  0.928880  0.097788  1
  H  H11  1  0.192634  0.071121  0.597790  1
  H  H12  1  0.405990  0.550687  0.296515  1
  H  H13  1  0.094009  0.449315  0.796511  1
  H  H14  1  0.905990  0.949313  0.703485  1
  H  H15  1  0.594009  0.050685  0.203489  1
  H  H16  1  0.448964  0.919962  0.636994  1
  H  H17  1  0.051035  0.080038  0.136995  1
  H  H18  1  0.948964  0.580038  0.363006  1
  H  H19  1  0.551035  0.419962  0.863005  1
  C  C20  1  0.778152  0.884944  0.252706  1
  C  C21  1  0.721853  0.115059  0.752703  1
  C  C22  1  0.278152  0.615056  0.747294  1
  C  C23  1  0.221853  0.384941  0.247297  1
  C  C24  1  0.755046  0.619078  0.004317  1
  C  C25  1  0.744954  0.380922  0.504317  1
  C  C26  1  0.255046  0.880922  0.995683  1
  C  C27  1  0.244954  0.119078  0.495683  1
  C  C28  1  0.470659  0.604844  0.286291  1
  C  C29  1  0.029340  0.395155  0.786287  1
  C  C30  1  0.970659  0.895156  0.713709  1
  C  C31  1  0.529340  0.104845  0.213713  1
  C  C32  1  0.499454  0.870819  0.533598  1
  C  C33  1  0.000545  0.129180  0.033597  1
  C  C34  1  0.999454  0.629181  0.466402  1
  C  C35  1  0.500545  0.370820  0.966403  1
  O  O36  1  0.713336  0.895169  0.096216  1
  O  O37  1  0.786668  0.104829  0.596205  1
  O  O38  1  0.213336  0.604831  0.903784  1
  O  O39  1  0.286668  0.395171  0.403795  1
  O  O40  1  0.788846  0.825807  0.414115  1
  O  O41  1  0.711152  0.174194  0.914121  1
  O  O42  1  0.288846  0.674193  0.585885  1
  O  O43  1  0.211152  0.325806  0.085879  1
  O  O44  1  0.692919  0.677611  0.897474  1
  O  O45  1  0.807079  0.322391  0.397479  1
  O  O46  1  0.192919  0.822389  0.102526  1
  O  O47  1  0.307079  0.177609  0.602521  1
  O  O48  1  0.762896  0.610929  0.216421  1
  O  O49  1  0.737101  0.389076  0.716420  1
  O  O50  1  0.262896  0.889071  0.783579  1
  O  O51  1  0.237101  0.110924  0.283580  1
  O  O52  1  0.468068  0.664964  0.119857  1
  O  O53  1  0.031933  0.335039  0.619853  1
  O  O54  1  0.968068  0.835036  0.880143  1
  O  O55  1  0.531933  0.164961  0.380147  1
  O  O56  1  0.539706  0.600078  0.441710  1
  O  O57  1  0.960293  0.399925  0.941709  1
  O  O58  1  0.039706  0.899922  0.558290  1
  O  O59  1  0.460293  0.100074  0.058291  1
  O  O60  1  0.488173  0.876199  0.322392  1
  O  O61  1  0.011830  0.123797  0.822394  1
  O  O62  1  0.988173  0.623801  0.677608  1
  O  O63  1  0.511830  0.376203  0.177606  1
  O  O64  1  0.563501  0.813633  0.639872  1
  O  O65  1  0.936501  0.186364  0.139867  1
  O  O66  1  0.063501  0.686367  0.360128  1
  O  O67  1  0.436501  0.313636  0.860133  1
