# generated using pymatgen
data_Mn6OF11
_symmetry_space_group_name_H-M   'P 1'
_cell_length_a   4.91211636
_cell_length_b   8.25577511
_cell_length_c   5.93234322
_cell_angle_alpha   92.13076473
_cell_angle_beta   89.06508030
_cell_angle_gamma   90.95706084
_symmetry_Int_Tables_number   1
_chemical_formula_structural   Mn6OF11
_chemical_formula_sum   'Mn6 O1 F11'
_cell_volume   240.34672102
_cell_formula_units_Z   1
loop_
 _symmetry_equiv_pos_site_id
 _symmetry_equiv_pos_as_xyz
  1  'x, y, z'
loop_
 _atom_site_type_symbol
 _atom_site_label
 _atom_site_symmetry_multiplicity
 _atom_site_fract_x
 _atom_site_fract_y
 _atom_site_fract_z
 _atom_site_occupancy
  Mn  Mn0  1  0.516117  0.006905  0.487488  1
  Mn  Mn1  1  0.498002  0.663915  0.167546  1
  Mn  Mn2  1  0.501132  0.332233  0.834322  1
  Mn  Mn3  1  0.010142  0.671882  0.661387  1
  Mn  Mn4  1  0.981468  0.318134  0.337668  1
  Mn  Mn5  1  0.982253  0.002940  0.019301  1
  O  O6  1  0.789100  0.101291  0.306121  1
  F  F7  1  0.804857  0.437657  0.632080  1
  F  F8  1  0.810524  0.767102  0.961145  1
  F  F9  1  0.695916  0.097886  0.789005  1
  F  F10  1  0.692845  0.772029  0.465657  1
  F  F11  1  0.699698  0.436034  0.129043  1
  F  F12  1  0.306338  0.566614  0.867478  1
  F  F13  1  0.306521  0.230224  0.534704  1
  F  F14  1  0.308829  0.899338  0.208004  1
  F  F15  1  0.188279  0.554835  0.366216  1
  F  F16  1  0.192508  0.232922  0.036716  1
  F  F17  1  0.215472  0.908057  0.696121  1
