# generated using pymatgen
data_Co3(O2F)2
_symmetry_space_group_name_H-M   'P 1'
_cell_length_a   7.42490828
_cell_length_b   5.44647436
_cell_length_c   5.44647436
_cell_angle_alpha   67.93133383
_cell_angle_beta   68.75557590
_cell_angle_gamma   68.75557590
_symmetry_Int_Tables_number   1
_chemical_formula_structural   Co3(O2F)2
_chemical_formula_sum   'Co6 O8 F4'
_cell_volume   183.60513531
_cell_formula_units_Z   2
loop_
 _symmetry_equiv_pos_site_id
 _symmetry_equiv_pos_as_xyz
  1  'x, y, z'
loop_
 _atom_site_type_symbol
 _atom_site_label
 _atom_site_symmetry_multiplicity
 _atom_site_fract_x
 _atom_site_fract_y
 _atom_site_fract_z
 _atom_site_occupancy
  Co  Co0  1  0.857629  0.678917  0.678917  1
  Co  Co1  1  0.325256  0.658971  0.658971  1
  Co  Co2  1  0.654532  0.337067  0.337067  1
  Co  Co3  1  0.178443  0.338880  0.338880  1
  Co  Co4  1  0.496654  0.997390  0.997390  1
  Co  Co5  1  0.996896  0.992248  0.992248  1
  O  O6  1  0.330416  0.360043  0.969951  1
  O  O7  1  0.668560  0.030012  0.642074  1
  O  O8  1  0.371606  0.443046  0.443046  1
  O  O9  1  0.048872  0.763984  0.763984  1
  O  O10  1  0.330416  0.969951  0.360043  1
  O  O11  1  0.668560  0.642074  0.030012  1
  O  O12  1  0.002572  0.306303  0.693160  1
  O  O13  1  0.002572  0.693160  0.306303  1
  F  F14  1  0.612890  0.576633  0.576633  1
  F  F15  1  0.305165  0.881742  0.881742  1
  F  F16  1  0.953623  0.228011  0.228011  1
  F  F17  1  0.695340  0.101569  0.101569  1
