# generated using pymatgen
data_Li5Mn2P2(CO7)2
_symmetry_space_group_name_H-M   'P 1'
_cell_length_a   8.51357504
_cell_length_b   10.09104126
_cell_length_c   6.44234928
_cell_angle_alpha   90.00000000
_cell_angle_beta   90.00000000
_cell_angle_gamma   86.09875257
_symmetry_Int_Tables_number   1
_chemical_formula_structural   Li5Mn2P2(CO7)2
_chemical_formula_sum   'Li10 Mn4 P4 C4 O28'
_cell_volume   552.18512231
_cell_formula_units_Z   2
loop_
 _symmetry_equiv_pos_site_id
 _symmetry_equiv_pos_as_xyz
  1  'x, y, z'
loop_
 _atom_site_type_symbol
 _atom_site_label
 _atom_site_symmetry_multiplicity
 _atom_site_fract_x
 _atom_site_fract_y
 _atom_site_fract_z
 _atom_site_occupancy
  Li  Li0  1  0.097015  0.382864  0.250000  1
  Li  Li1  1  0.247706  0.119258  0.020098  1
  Li  Li2  1  0.247706  0.119258  0.479902  1
  Li  Li3  1  0.261677  0.635958  0.020694  1
  Li  Li4  1  0.261677  0.635958  0.479306  1
  Li  Li5  1  0.738323  0.364042  0.520694  1
  Li  Li6  1  0.738323  0.364042  0.979306  1
  Li  Li7  1  0.752294  0.880742  0.520098  1
  Li  Li8  1  0.752294  0.880742  0.979902  1
  Li  Li9  1  0.902985  0.617136  0.750000  1
  Mn  Mn10  1  0.338655  0.392634  0.750000  1
  Mn  Mn11  1  0.341190  0.898623  0.750000  1
  Mn  Mn12  1  0.658810  0.101377  0.250000  1
  Mn  Mn13  1  0.661345  0.607366  0.250000  1
  P  P14  1  0.414254  0.361123  0.250000  1
  P  P15  1  0.418389  0.863252  0.250000  1
  P  P16  1  0.581611  0.136749  0.750000  1
  P  P17  1  0.585746  0.638877  0.750000  1
  C  C18  1  0.035813  0.360552  0.750000  1
  C  C19  1  0.046483  0.853707  0.750000  1
  C  C20  1  0.953517  0.146293  0.250000  1
  C  C21  1  0.964187  0.639448  0.250000  1
  O  O22  1  0.075910  0.483154  0.750000  1
  O  O23  1  0.096149  0.185164  0.250000  1
  O  O24  1  0.080170  0.974455  0.750000  1
  O  O25  1  0.151990  0.267231  0.750000  1
  O  O26  1  0.107171  0.668224  0.250000  1
  O  O27  1  0.165012  0.759880  0.750000  1
  O  O28  1  0.311964  0.414429  0.063724  1
  O  O29  1  0.311964  0.414429  0.436276  1
  O  O30  1  0.326420  0.920713  0.059892  1
  O  O31  1  0.326420  0.920713  0.440108  1
  O  O32  1  0.408536  0.094810  0.750000  1
  O  O33  1  0.429784  0.207034  0.250000  1
  O  O34  1  0.419339  0.586311  0.750000  1
  O  O35  1  0.427223  0.708138  0.250000  1
  O  O36  1  0.572777  0.291862  0.750000  1
  O  O37  1  0.580661  0.413689  0.250000  1
  O  O38  1  0.570216  0.792966  0.750000  1
  O  O39  1  0.591464  0.905190  0.250000  1
  O  O40  1  0.673580  0.079287  0.940108  1
  O  O41  1  0.673580  0.079287  0.559892  1
  O  O42  1  0.688036  0.585571  0.563724  1
  O  O43  1  0.688036  0.585571  0.936276  1
  O  O44  1  0.834988  0.240120  0.250000  1
  O  O45  1  0.892829  0.331776  0.750000  1
  O  O46  1  0.848010  0.732769  0.250000  1
  O  O47  1  0.919830  0.025545  0.250000  1
  O  O48  1  0.903851  0.814836  0.750000  1
  O  O49  1  0.924090  0.516846  0.250000  1
