# generated using pymatgen
data_V4(OF3)3
_symmetry_space_group_name_H-M   'P 1'
_cell_length_a   5.23140805
_cell_length_b   7.57439764
_cell_length_c   5.41658202
_cell_angle_alpha   92.52075913
_cell_angle_beta   90.32683427
_cell_angle_gamma   90.00114370
_symmetry_Int_Tables_number   1
_chemical_formula_structural   V4(OF3)3
_chemical_formula_sum   'V4 O3 F9'
_cell_volume   214.41960530
_cell_formula_units_Z   1
loop_
 _symmetry_equiv_pos_site_id
 _symmetry_equiv_pos_as_xyz
  1  'x, y, z'
loop_
 _atom_site_type_symbol
 _atom_site_label
 _atom_site_symmetry_multiplicity
 _atom_site_fract_x
 _atom_site_fract_y
 _atom_site_fract_z
 _atom_site_occupancy
  V  V0  1  0.480875  0.494719  0.477701  1
  V  V1  1  0.525687  0.993907  0.466919  1
  V  V2  1  0.997762  0.500314  0.003379  1
  V  V3  1  0.034908  0.006591  0.974792  1
  O  O4  1  0.708733  0.960501  0.220011  1
  O  O5  1  0.298713  0.460549  0.222128  1
  O  O6  1  0.279714  0.043106  0.789416  1
  F  F7  1  0.898828  0.249182  0.004073  1
  F  F8  1  0.797130  0.549656  0.305196  1
  F  F9  1  0.781044  0.942647  0.719723  1
  F  F10  1  0.694396  0.543176  0.786720  1
  F  F11  1  0.598805  0.249632  0.513439  1
  F  F12  1  0.402097  0.750824  0.506908  1
  F  F13  1  0.205241  0.053798  0.296191  1
  F  F14  1  0.202436  0.449190  0.707861  1
  F  F15  1  0.093629  0.752209  0.005543  1
