# generated using pymatgen
data_SrB6(H4O7)2
_symmetry_space_group_name_H-M   'P 1'
_cell_length_a   14.65940742
_cell_length_b   8.29975978
_cell_length_c   10.01047664
_cell_angle_alpha   90.00000000
_cell_angle_beta   114.30886231
_cell_angle_gamma   90.00000000
_symmetry_Int_Tables_number   1
_chemical_formula_structural   SrB6(H4O7)2
_chemical_formula_sum   'Sr4 B24 H32 O56'
_cell_volume   1109.98457351
_cell_formula_units_Z   4
loop_
 _symmetry_equiv_pos_site_id
 _symmetry_equiv_pos_as_xyz
  1  'x, y, z'
loop_
 _atom_site_type_symbol
 _atom_site_label
 _atom_site_symmetry_multiplicity
 _atom_site_fract_x
 _atom_site_fract_y
 _atom_site_fract_z
 _atom_site_occupancy
  Sr  Sr0  1  0.662770  0.442661  0.194537  1
  Sr  Sr1  1  0.837230  0.942661  0.805463  1
  Sr  Sr2  1  0.337230  0.557339  0.805463  1
  Sr  Sr3  1  0.162770  0.057339  0.194537  1
  B  B4  1  0.694675  0.347050  0.848184  1
  B  B5  1  0.805325  0.847050  0.151816  1
  B  B6  1  0.305325  0.652950  0.151816  1
  B  B7  1  0.194675  0.152950  0.848184  1
  B  B8  1  0.692325  0.341207  0.582991  1
  B  B9  1  0.807675  0.841207  0.417009  1
  B  B10  1  0.307675  0.658793  0.417009  1
  B  B11  1  0.192325  0.158793  0.582991  1
  B  B12  1  0.544589  0.252612  0.627983  1
  B  B13  1  0.955411  0.752612  0.372017  1
  B  B14  1  0.455411  0.747388  0.372017  1
  B  B15  1  0.044589  0.247388  0.627983  1
  B  B16  1  0.690481  0.046514  0.217150  1
  B  B17  1  0.809519  0.546514  0.782850  1
  B  B18  1  0.309519  0.953486  0.782850  1
  B  B19  1  0.190481  0.453486  0.217150  1
  B  B20  1  0.752198  0.107440  0.481891  1
  B  B21  1  0.747802  0.607440  0.518109  1
  B  B22  1  0.247802  0.892560  0.518109  1
  B  B23  1  0.252198  0.392560  0.481891  1
  B  B24  1  0.751968  0.113845  0.023022  1
  B  B25  1  0.748032  0.613845  0.976978  1
  B  B26  1  0.248032  0.886155  0.976978  1
  B  B27  1  0.251968  0.386155  0.023022  1
  H  H28  1  0.571312  0.851705  0.349497  1
  H  H29  1  0.928688  0.351705  0.650503  1
  H  H30  1  0.428688  0.148295  0.650503  1
  H  H31  1  0.071312  0.648295  0.349497  1
  H  H32  1  0.450106  0.417305  0.199628  1
  H  H33  1  0.049894  0.917305  0.800372  1
  H  H34  1  0.549894  0.582695  0.800372  1
  H  H35  1  0.950106  0.082695  0.199628  1
  H  H36  1  0.524741  0.327427  0.344620  1
  H  H37  1  0.975259  0.827427  0.655380  1
  H  H38  1  0.475259  0.672573  0.655380  1
  H  H39  1  0.024741  0.172573  0.344620  1
  H  H40  1  0.539803  0.041551  0.138526  1
  H  H41  1  0.960197  0.541551  0.861474  1
  H  H42  1  0.460197  0.958449  0.861474  1
  H  H43  1  0.039803  0.458449  0.138526  1
  H  H44  1  0.552437  0.768159  0.085390  1
  H  H45  1  0.947563  0.268159  0.914610  1
  H  H46  1  0.447563  0.231841  0.914610  1
  H  H47  1  0.052437  0.731841  0.085390  1
  H  H48  1  0.478740  0.673099  0.128587  1
  H  H49  1  0.021260  0.173099  0.871413  1
  H  H50  1  0.521260  0.326901  0.871413  1
  H  H51  1  0.978740  0.826901  0.128587  1
  H  H52  1  0.608037  0.862832  0.765751  1
  H  H53  1  0.891963  0.362832  0.234249  1
  H  H54  1  0.391963  0.137168  0.234249  1
  H  H55  1  0.108037  0.637168  0.765751  1
  H  H56  1  0.605691  0.891074  0.610727  1
  H  H57  1  0.894309  0.391074  0.389273  1
  H  H58  1  0.394309  0.108926  0.389273  1
  H  H59  1  0.105691  0.608926  0.610727  1
  O  O60  1  0.693963  0.471832  0.951898  1
  O  O61  1  0.806037  0.971832  0.048102  1
  O  O62  1  0.306037  0.528168  0.048102  1
  O  O63  1  0.193963  0.028168  0.951898  1
  O  O64  1  0.700593  0.459720  0.480943  1
  O  O65  1  0.799407  0.959720  0.519057  1
  O  O66  1  0.299407  0.540280  0.519057  1
  O  O67  1  0.200593  0.040280  0.480943  1
  O  O68  1  0.548374  0.820724  0.426033  1
  O  O69  1  0.951626  0.320724  0.573967  1
  O  O70  1  0.451626  0.179276  0.573967  1
  O  O71  1  0.048374  0.679276  0.426033  1
  O  O72  1  0.500889  0.332506  0.236057  1
  O  O73  1  0.999111  0.832506  0.763943  1
  O  O74  1  0.499111  0.667494  0.763943  1
  O  O75  1  0.000889  0.167494  0.236057  1
  O  O76  1  0.593640  0.962243  0.169737  1
  O  O77  1  0.906360  0.462243  0.830263  1
  O  O78  1  0.406360  0.037757  0.830263  1
  O  O79  1  0.093640  0.537757  0.169737  1
  O  O80  1  0.744792  0.699320  0.402288  1
  O  O81  1  0.755208  0.199320  0.597712  1
  O  O82  1  0.255208  0.300680  0.597712  1
  O  O83  1  0.244792  0.800680  0.402288  1
  O  O84  1  0.704734  0.156021  0.338842  1
  O  O85  1  0.795266  0.656021  0.661158  1
  O  O86  1  0.295266  0.843979  0.661158  1
  O  O87  1  0.204734  0.343979  0.338842  1
  O  O88  1  0.738974  0.713147  0.080079  1
  O  O89  1  0.761026  0.213147  0.919921  1
  O  O90  1  0.261026  0.286853  0.919921  1
  O  O91  1  0.238975  0.786853  0.080079  1
  O  O92  1  0.696027  0.148760  0.100329  1
  O  O93  1  0.803973  0.648760  0.899671  1
  O  O94  1  0.303973  0.851240  0.899671  1
  O  O95  1  0.196027  0.351240  0.100329  1
  O  O96  1  0.590492  0.293854  0.773105  1
  O  O97  1  0.909508  0.793854  0.226895  1
  O  O98  1  0.409508  0.706146  0.226895  1
  O  O99  1  0.090492  0.206146  0.773105  1
  O  O100  1  0.586414  0.292209  0.532338  1
  O  O101  1  0.913586  0.792209  0.467662  1
  O  O102  1  0.413586  0.707791  0.467662  1
  O  O103  1  0.086414  0.207791  0.532338  1
  O  O104  1  0.521688  0.659619  0.073953  1
  O  O105  1  0.978312  0.159619  0.926047  1
  O  O106  1  0.478312  0.340381  0.926047  1
  O  O107  1  0.021688  0.840381  0.073953  1
  O  O108  1  0.640997  0.924595  0.714768  1
  O  O109  1  0.859003  0.424595  0.285232  1
  O  O110  1  0.359003  0.075405  0.285232  1
  O  O111  1  0.140997  0.575405  0.714768  1
  O  O112  1  0.727714  0.419748  0.735729  1
  O  O113  1  0.772286  0.919748  0.264271  1
  O  O114  1  0.272286  0.580252  0.264271  1
  O  O115  1  0.227714  0.080252  0.735729  1
