# generated using pymatgen
data_CrP6(WO8)3
_symmetry_space_group_name_H-M   'P 1'
_cell_length_a   8.90255422
_cell_length_b   8.90255385
_cell_length_c   8.90255414
_cell_angle_alpha   58.91162969
_cell_angle_beta   58.91162859
_cell_angle_gamma   58.91162800
_symmetry_Int_Tables_number   1
_chemical_formula_structural   CrP6(WO8)3
_chemical_formula_sum   'Cr1 P6 W3 O24'
_cell_volume   486.52501447
_cell_formula_units_Z   1
loop_
 _symmetry_equiv_pos_site_id
 _symmetry_equiv_pos_as_xyz
  1  'x, y, z'
loop_
 _atom_site_type_symbol
 _atom_site_label
 _atom_site_symmetry_multiplicity
 _atom_site_fract_x
 _atom_site_fract_y
 _atom_site_fract_z
 _atom_site_occupancy
  Cr  Cr0  1  0.857273  0.857273  0.857273  1
  P  P1  1  0.034226  0.751001  0.469497  1
  P  P2  1  0.469497  0.034226  0.751001  1
  P  P3  1  0.751001  0.469497  0.034226  1
  P  P4  1  0.243286  0.542446  0.962918  1
  P  P5  1  0.542446  0.962918  0.243286  1
  P  P6  1  0.962918  0.243286  0.542446  1
  W  W7  1  0.142309  0.142309  0.142309  1
  W  W8  1  0.357161  0.357161  0.357161  1
  W  W9  1  0.641891  0.641891  0.641891  1
  O  O10  1  0.131825  0.283649  0.505166  1
  O  O11  1  0.283649  0.505166  0.131825  1
  O  O12  1  0.062231  0.920258  0.286646  1
  O  O13  1  0.505166  0.131825  0.283649  1
  O  O14  1  0.212353  0.580481  0.434200  1
  O  O15  1  0.010071  0.775942  0.635619  1
  O  O16  1  0.286646  0.062231  0.920258  1
  O  O17  1  0.434200  0.212353  0.580481  1
  O  O18  1  0.580481  0.434200  0.212353  1
  O  O19  1  0.221133  0.365798  0.991919  1
  O  O20  1  0.077393  0.715347  0.940860  1
  O  O21  1  0.365798  0.991919  0.221133  1
  O  O22  1  0.635619  0.010071  0.775942  1
  O  O23  1  0.920258  0.286646  0.062231  1
  O  O24  1  0.775942  0.635619  0.010071  1
  O  O25  1  0.421544  0.560119  0.788331  1
  O  O26  1  0.560119  0.788331  0.421544  1
  O  O27  1  0.715347  0.940860  0.077393  1
  O  O28  1  0.991919  0.221133  0.365798  1
  O  O29  1  0.788331  0.421544  0.560119  1
  O  O30  1  0.490549  0.866394  0.720167  1
  O  O31  1  0.940860  0.077393  0.715347  1
  O  O32  1  0.720167  0.490549  0.866394  1
  O  O33  1  0.866394  0.720167  0.490549  1
