# generated using pymatgen
data_Co29Ge13O56
_symmetry_space_group_name_H-M   'P 1'
_cell_length_a   10.29695704
_cell_length_b   10.29695704
_cell_length_c   10.29695704
_cell_angle_alpha   80.37762393
_cell_angle_beta   99.62237607
_cell_angle_gamma   80.37762393
_symmetry_Int_Tables_number   1
_chemical_formula_structural   Co29Ge13O56
_chemical_formula_sum   'Co29 Ge13 O56'
_cell_volume   1039.66061019
_cell_formula_units_Z   1
loop_
 _symmetry_equiv_pos_site_id
 _symmetry_equiv_pos_as_xyz
  1  'x, y, z'
loop_
 _atom_site_type_symbol
 _atom_site_label
 _atom_site_symmetry_multiplicity
 _atom_site_fract_x
 _atom_site_fract_y
 _atom_site_fract_z
 _atom_site_occupancy
  Co  Co0  1  0.198185  0.732532  0.911449  1
  Co  Co1  1  0.054766  0.517746  0.839524  1
  Co  Co2  1  0.338898  0.943946  0.982341  1
  Co  Co3  1  0.052595  0.519712  0.338007  1
  Co  Co4  1  0.338007  0.947405  0.480288  1
  Co  Co5  1  0.196785  0.232336  0.910764  1
  Co  Co6  1  0.124993  0.375259  0.624640  1
  Co  Co7  1  0.409951  0.803695  0.767325  1
  Co  Co8  1  0.249960  0.750040  0.249960  1
  Co  Co9  1  0.481773  0.658837  0.552287  1
  Co  Co10  1  0.624640  0.875007  0.624741  1
  Co  Co11  1  0.196305  0.232675  0.409951  1
  Co  Co12  1  0.056054  0.017659  0.338898  1
  Co  Co13  1  0.341163  0.447713  0.481773  1
  Co  Co14  1  0.697122  0.232094  0.910236  1
  Co  Co15  1  0.624407  0.375593  0.624407  1
  Co  Co16  1  0.267468  0.088551  0.198185  1
  Co  Co17  1  0.910764  0.803215  0.767664  1
  Co  Co18  1  0.839524  0.945234  0.482254  1
  Co  Co19  1  0.552287  0.518227  0.341163  1
  Co  Co20  1  0.480288  0.661993  0.052595  1
  Co  Co21  1  0.767906  0.089764  0.697122  1
  Co  Co22  1  0.910236  0.302878  0.767906  1
  Co  Co23  1  0.482254  0.160476  0.054766  1
  Co  Co24  1  0.767325  0.590049  0.196305  1
  Co  Co25  1  0.624741  0.375360  0.124993  1
  Co  Co26  1  0.911449  0.801815  0.267468  1
  Co  Co27  1  0.767664  0.089236  0.196785  1
  Co  Co28  1  0.982341  0.661102  0.056054  1
  Ge  Ge29  1  0.143522  0.714325  0.571242  1
  Ge  Ge30  1  0.678296  0.893437  0.963377  1
  Ge  Ge31  1  0.106563  0.036623  0.678296  1
  Ge  Ge32  1  0.393507  0.462680  0.822310  1
  Ge  Ge33  1  0.428059  0.143331  0.713449  1
  Ge  Ge34  1  0.571242  0.856478  0.285675  1
  Ge  Ge35  1  0.285675  0.428758  0.143522  1
  Ge  Ge36  1  0.713449  0.571941  0.856669  1
  Ge  Ge37  1  0.000795  0.999205  0.000795  1
  Ge  Ge38  1  0.537320  0.177690  0.393507  1
  Ge  Ge39  1  0.822310  0.606493  0.537320  1
  Ge  Ge40  1  0.856669  0.286551  0.428059  1
  Ge  Ge41  1  0.963377  0.321704  0.106563  1
  O  O42  1  0.018393  0.840457  0.946365  1
  O  O43  1  0.231744  0.912688  0.799687  1
  O  O44  1  0.017018  0.338814  0.946887  1
  O  O45  1  0.018906  0.839135  0.448847  1
  O  O46  1  0.091003  0.696225  0.731902  1
  O  O47  1  0.302660  0.767558  0.589455  1
  O  O48  1  0.160479  0.555196  0.517652  1
  O  O49  1  0.015686  0.340826  0.445574  1
  O  O50  1  0.445574  0.984314  0.659174  1
  O  O51  1  0.076923  0.692693  0.231157  1
  O  O52  1  0.088643  0.195721  0.730992  1
  O  O53  1  0.375310  0.622610  0.872651  1
  O  O54  1  0.234461  0.409638  0.803446  1
  O  O55  1  0.231157  0.923077  0.307307  1
  O  O56  1  0.519477  0.839522  0.944163  1
  O  O57  1  0.448327  0.479093  0.664729  1
  O  O58  1  0.384301  0.615699  0.384301  1
  O  O59  1  0.160478  0.055837  0.519477  1
  O  O60  1  0.516910  0.338872  0.947161  1
  O  O61  1  0.730992  0.911357  0.804279  1
  O  O62  1  0.087312  0.200313  0.231744  1
  O  O63  1  0.307307  0.768843  0.076923  1
  O  O64  1  0.304132  0.268331  0.588697  1
  O  O65  1  0.517652  0.839521  0.444804  1
  O  O66  1  0.160865  0.551153  0.018906  1
  O  O67  1  0.374386  0.124568  0.873050  1
  O  O68  1  0.448847  0.981094  0.160865  1
  O  O69  1  0.232442  0.410545  0.302660  1
  O  O70  1  0.588697  0.695868  0.731669  1
  O  O71  1  0.159543  0.053635  0.018393  1
  O  O72  1  0.873050  0.625614  0.875433  1
  O  O73  1  0.587822  0.195794  0.731217  1
  O  O74  1  0.731902  0.908997  0.303775  1
  O  O75  1  0.444804  0.482348  0.160479  1
  O  O76  1  0.303775  0.268098  0.091003  1
  O  O77  1  0.731217  0.412178  0.804206  1
  O  O78  1  0.589455  0.697340  0.232442  1
  O  O79  1  0.803446  0.765539  0.590362  1
  O  O80  1  0.946887  0.982982  0.661186  1
  O  O81  1  0.520907  0.335271  0.448327  1
  O  O82  1  0.377390  0.127349  0.375310  1
  O  O83  1  0.664729  0.551673  0.520907  1
  O  O84  1  0.661128  0.052839  0.516910  1
  O  O85  1  0.872651  0.624690  0.377390  1
  O  O86  1  0.590362  0.196554  0.234461  1
  O  O87  1  0.947161  0.483090  0.661128  1
  O  O88  1  0.799687  0.768256  0.087312  1
  O  O89  1  0.659174  0.554426  0.015686  1
  O  O90  1  0.804206  0.268783  0.587822  1
  O  O91  1  0.876886  0.123114  0.876886  1
  O  O92  1  0.731669  0.411303  0.304132  1
  O  O93  1  0.946365  0.981607  0.159543  1
  O  O94  1  0.875433  0.126949  0.374386  1
  O  O95  1  0.661186  0.053113  0.017018  1
  O  O96  1  0.944163  0.480523  0.160478  1
  O  O97  1  0.804279  0.269008  0.088643  1
