# generated using pymatgen
data_Fe4OF7
_symmetry_space_group_name_H-M   'P 1'
_cell_length_a   6.36389263
_cell_length_b   6.89738195
_cell_length_c   7.51274139
_cell_angle_alpha   90.00000000
_cell_angle_beta   115.05828803
_cell_angle_gamma   90.00000000
_symmetry_Int_Tables_number   1
_chemical_formula_structural   Fe4OF7
_chemical_formula_sum   'Fe8 O2 F14'
_cell_volume   298.72734234
_cell_formula_units_Z   2
loop_
 _symmetry_equiv_pos_site_id
 _symmetry_equiv_pos_as_xyz
  1  'x, y, z'
loop_
 _atom_site_type_symbol
 _atom_site_label
 _atom_site_symmetry_multiplicity
 _atom_site_fract_x
 _atom_site_fract_y
 _atom_site_fract_z
 _atom_site_occupancy
  Fe  Fe0  1  0.483824  0.000000  0.008286  1
  Fe  Fe1  1  0.024462  0.000000  0.008286  1
  Fe  Fe2  1  0.753874  0.500000  0.007748  1
  Fe  Fe3  1  0.254627  0.500000  0.009253  1
  Fe  Fe4  1  0.496126  0.000000  0.492252  1
  Fe  Fe5  1  0.995373  0.000000  0.490747  1
  Fe  Fe6  1  0.766176  0.500000  0.491714  1
  Fe  Fe7  1  0.225538  0.500000  0.491714  1
  O  O8  1  0.348937  0.000000  0.197873  1
  O  O9  1  0.901063  0.500000  0.302127  1
  F  F10  1  0.846357  0.000000  0.192714  1
  F  F11  1  0.492362  0.293228  0.990166  1
  F  F12  1  0.997804  0.293228  0.990166  1
  F  F13  1  0.492362  0.706772  0.990166  1
  F  F14  1  0.757638  0.206772  0.509834  1
  F  F15  1  0.252196  0.206772  0.509834  1
  F  F16  1  0.997804  0.706772  0.990166  1
  F  F17  1  0.655993  0.000000  0.811986  1
  F  F18  1  0.144783  0.000000  0.789565  1
  F  F19  1  0.403643  0.500000  0.307286  1
  F  F20  1  0.105217  0.500000  0.710435  1
  F  F21  1  0.594007  0.500000  0.688014  1
  F  F22  1  0.757638  0.793228  0.509834  1
  F  F23  1  0.252196  0.793228  0.509834  1
