# generated using pymatgen
data_Sb3H36(C3I2)4
_symmetry_space_group_name_H-M   'P 1'
_cell_length_a   13.47680681
_cell_length_b   13.47680681
_cell_length_c   13.47680681
_cell_angle_alpha   109.47122063
_cell_angle_beta   109.47122063
_cell_angle_gamma   109.47122063
_symmetry_Int_Tables_number   1
_chemical_formula_structural   Sb3H36(C3I2)4
_chemical_formula_sum   'Sb6 H72 C24 I16'
_cell_volume   1884.25257621
_cell_formula_units_Z   2
loop_
 _symmetry_equiv_pos_site_id
 _symmetry_equiv_pos_as_xyz
  1  'x, y, z'
loop_
 _atom_site_type_symbol
 _atom_site_label
 _atom_site_symmetry_multiplicity
 _atom_site_fract_x
 _atom_site_fract_y
 _atom_site_fract_z
 _atom_site_occupancy
  Sb  Sb0  1  0.625000  0.375000  0.250000  1
  Sb  Sb1  1  0.875000  0.125000  0.750000  1
  Sb  Sb2  1  0.750000  0.875000  0.125000  1
  Sb  Sb3  1  0.250000  0.625000  0.375000  1
  Sb  Sb4  1  0.125000  0.750000  0.875000  1
  Sb  Sb5  1  0.375000  0.250000  0.625000  1
  H  H6  1  0.760973  0.619910  0.383970  1
  H  H7  1  0.764060  0.880090  0.641062  1
  H  H8  1  0.739027  0.122997  0.858938  1
  H  H9  1  0.735940  0.377003  0.116030  1
  H  H10  1  0.883970  0.119910  0.260973  1
  H  H11  1  0.141062  0.380090  0.264060  1
  H  H12  1  0.358938  0.622997  0.239027  1
  H  H13  1  0.616030  0.877003  0.235940  1
  H  H14  1  0.383970  0.760973  0.619910  1
  H  H15  1  0.641062  0.764060  0.880090  1
  H  H16  1  0.858938  0.739027  0.122997  1
  H  H17  1  0.116030  0.735940  0.377003  1
  H  H18  1  0.260973  0.883970  0.119910  1
  H  H19  1  0.264060  0.141062  0.380090  1
  H  H20  1  0.239027  0.358938  0.622997  1
  H  H21  1  0.235940  0.616030  0.877003  1
  H  H22  1  0.619910  0.383970  0.760973  1
  H  H23  1  0.880090  0.641062  0.764060  1
  H  H24  1  0.122997  0.858938  0.739027  1
  H  H25  1  0.377003  0.116030  0.735940  1
  H  H26  1  0.119910  0.260973  0.883970  1
  H  H27  1  0.380090  0.264060  0.141062  1
  H  H28  1  0.622997  0.239027  0.358938  1
  H  H29  1  0.877003  0.235940  0.616030  1
  H  H30  1  0.635271  0.576307  0.244229  1
  H  H31  1  0.667921  0.923693  0.558964  1
  H  H32  1  0.864729  0.108958  0.941036  1
  H  H33  1  0.832079  0.391042  0.255771  1
  H  H34  1  0.744229  0.076307  0.135271  1
  H  H35  1  0.058964  0.423693  0.167921  1
  H  H36  1  0.441036  0.608958  0.364729  1
  H  H37  1  0.755771  0.891042  0.332079  1
  H  H38  1  0.244229  0.635271  0.576307  1
  H  H39  1  0.558964  0.667921  0.923693  1
  H  H40  1  0.941036  0.864729  0.108958  1
  H  H41  1  0.255771  0.832079  0.391042  1
  H  H42  1  0.135271  0.744229  0.076307  1
  H  H43  1  0.167921  0.058964  0.423693  1
  H  H44  1  0.364729  0.441036  0.608958  1
  H  H45  1  0.332079  0.755771  0.891042  1
  H  H46  1  0.576307  0.244229  0.635271  1
  H  H47  1  0.923693  0.558964  0.667921  1
  H  H48  1  0.108958  0.941036  0.864729  1
  H  H49  1  0.391042  0.255771  0.832079  1
  H  H50  1  0.076307  0.135271  0.744229  1
  H  H51  1  0.423693  0.167921  0.058964  1
  H  H52  1  0.608958  0.364729  0.441036  1
  H  H53  1  0.891042  0.332079  0.755771  1
  H  H54  1  0.612390  0.572005  0.367581  1
  H  H55  1  0.795576  0.927995  0.540385  1
  H  H56  1  0.887610  0.255191  0.959615  1
  H  H57  1  0.704424  0.244809  0.132419  1
  H  H58  1  0.867581  0.072005  0.112390  1
  H  H59  1  0.040385  0.427995  0.295576  1
  H  H60  1  0.459615  0.755191  0.387610  1
  H  H61  1  0.632419  0.744809  0.204424  1
  H  H62  1  0.367581  0.612390  0.572005  1
  H  H63  1  0.540385  0.795576  0.927995  1
  H  H64  1  0.959615  0.887610  0.255191  1
  H  H65  1  0.132419  0.704424  0.244809  1
  H  H66  1  0.112390  0.867581  0.072005  1
  H  H67  1  0.295576  0.040385  0.427995  1
  H  H68  1  0.387610  0.459615  0.755191  1
  H  H69  1  0.204424  0.632419  0.744809  1
  H  H70  1  0.572005  0.367581  0.612390  1
  H  H71  1  0.927995  0.540385  0.795576  1
  H  H72  1  0.255191  0.959615  0.887610  1
  H  H73  1  0.244809  0.132419  0.704424  1
  H  H74  1  0.072005  0.112390  0.867581  1
  H  H75  1  0.427995  0.295576  0.040385  1
  H  H76  1  0.755191  0.387610  0.459615  1
  H  H77  1  0.744809  0.204424  0.632419  1
  C  C78  1  0.663491  0.559321  0.320550  1
  C  C79  1  0.761229  0.940679  0.604169  1
  C  C80  1  0.836509  0.157059  0.895831  1
  C  C81  1  0.738771  0.342941  0.179450  1
  C  C82  1  0.820550  0.059321  0.163491  1
  C  C83  1  0.104169  0.440679  0.261229  1
  C  C84  1  0.395831  0.657059  0.336509  1
  C  C85  1  0.679450  0.842941  0.238771  1
  C  C86  1  0.320550  0.663491  0.559321  1
  C  C87  1  0.604169  0.761229  0.940679  1
  C  C88  1  0.895831  0.836509  0.157059  1
  C  C89  1  0.179450  0.738771  0.342941  1
  C  C90  1  0.163491  0.820550  0.059321  1
  C  C91  1  0.261229  0.104169  0.440679  1
  C  C92  1  0.336509  0.395831  0.657059  1
  C  C93  1  0.238771  0.679450  0.842941  1
  C  C94  1  0.559321  0.320550  0.663491  1
  C  C95  1  0.940679  0.604169  0.761229  1
  C  C96  1  0.157059  0.895831  0.836509  1
  C  C97  1  0.342941  0.179450  0.738771  1
  C  C98  1  0.059321  0.163491  0.820550  1
  C  C99  1  0.440679  0.261229  0.104169  1
  C  C100  1  0.657059  0.336509  0.395831  1
  C  C101  1  0.842941  0.238771  0.679450  1
  I  I102  1  0.500000  0.000000  0.118019  1
  I  I103  1  0.118019  0.500000  0.000000  1
  I  I104  1  0.000000  0.118019  0.500000  1
  I  I105  1  0.381981  0.381981  0.381981  1
  I  I106  1  0.618019  0.500000  0.000000  1
  I  I107  1  0.500000  0.000000  0.618019  1
  I  I108  1  0.000000  0.618019  0.500000  1
  I  I109  1  0.881981  0.881981  0.881981  1
  I  I110  1  0.500000  0.000000  0.367543  1
  I  I111  1  0.367543  0.500000  0.000000  1
  I  I112  1  0.000000  0.367543  0.500000  1
  I  I113  1  0.132457  0.132457  0.132457  1
  I  I114  1  0.867543  0.500000  0.000000  1
  I  I115  1  0.500000  0.000000  0.867543  1
  I  I116  1  0.000000  0.867543  0.500000  1
  I  I117  1  0.632457  0.632457  0.632457  1
