# generated using pymatgen
data_LiCuPO4
_symmetry_space_group_name_H-M   'P 1'
_cell_length_a   8.26096256
_cell_length_b   7.43572349
_cell_length_c   15.23128583
_cell_angle_alpha   90.00000000
_cell_angle_beta   87.90374776
_cell_angle_gamma   90.00000000
_symmetry_Int_Tables_number   1
_chemical_formula_structural   LiCuPO4
_chemical_formula_sum   'Li12 Cu12 P12 O48'
_cell_volume   934.97440387
_cell_formula_units_Z   12
loop_
 _symmetry_equiv_pos_site_id
 _symmetry_equiv_pos_as_xyz
  1  'x, y, z'
loop_
 _atom_site_type_symbol
 _atom_site_label
 _atom_site_symmetry_multiplicity
 _atom_site_fract_x
 _atom_site_fract_y
 _atom_site_fract_z
 _atom_site_occupancy
  Li  Li0  1  0.048400  0.739328  0.090389  1
  Li  Li1  1  0.091949  0.775753  0.728420  1
  Li  Li2  1  0.120187  0.732453  0.419678  1
  Li  Li3  1  0.379813  0.232453  0.080322  1
  Li  Li4  1  0.408051  0.275753  0.771580  1
  Li  Li5  1  0.451600  0.239328  0.409611  1
  Li  Li6  1  0.548400  0.760672  0.590389  1
  Li  Li7  1  0.591949  0.724247  0.228420  1
  Li  Li8  1  0.620187  0.767547  0.919678  1
  Li  Li9  1  0.879813  0.267547  0.580322  1
  Li  Li10  1  0.908051  0.224247  0.271580  1
  Li  Li11  1  0.951600  0.260672  0.909611  1
  Cu  Cu12  1  0.222734  0.016010  0.560654  1
  Cu  Cu13  1  0.248542  0.973073  0.912081  1
  Cu  Cu14  1  0.233997  0.107030  0.257347  1
  Cu  Cu15  1  0.266003  0.607030  0.242653  1
  Cu  Cu16  1  0.251458  0.473073  0.587919  1
  Cu  Cu17  1  0.277266  0.516010  0.939346  1
  Cu  Cu18  1  0.722734  0.483990  0.060654  1
  Cu  Cu19  1  0.748542  0.526927  0.412081  1
  Cu  Cu20  1  0.733997  0.392970  0.757347  1
  Cu  Cu21  1  0.766003  0.892970  0.742653  1
  Cu  Cu22  1  0.751458  0.026927  0.087919  1
  Cu  Cu23  1  0.777266  0.983990  0.439346  1
  P  P24  1  0.038833  0.320861  0.092258  1
  P  P25  1  0.084557  0.185747  0.729728  1
  P  P26  1  0.097432  0.318544  0.428912  1
  P  P27  1  0.402568  0.818544  0.071088  1
  P  P28  1  0.415443  0.685747  0.770272  1
  P  P29  1  0.461167  0.820861  0.407742  1
  P  P30  1  0.538833  0.179139  0.592258  1
  P  P31  1  0.584557  0.314253  0.229728  1
  P  P32  1  0.597432  0.181456  0.928912  1
  P  P33  1  0.902568  0.681456  0.571088  1
  P  P34  1  0.915443  0.814253  0.270272  1
  P  P35  1  0.961167  0.679139  0.907742  1
  O  O36  1  0.058191  0.502114  0.889460  1
  O  O37  1  0.057938  0.636022  0.621233  1
  O  O38  1  0.066663  0.808520  0.962727  1
  O  O39  1  0.077667  0.718448  0.293181  1
  O  O40  1  0.061223  0.185533  0.505628  1
  O  O41  1  0.086191  0.011998  0.670990  1
  O  O42  1  0.090941  0.135334  0.826860  1
  O  O43  1  0.082676  0.235241  0.180090  1
  O  O44  1  0.174697  0.493177  0.465391  1
  O  O45  1  0.199035  0.368700  0.040233  1
  O  O46  1  0.229578  0.236339  0.365378  1
  O  O47  1  0.226568  0.307051  0.698798  1
  O  O48  1  0.270422  0.736339  0.134622  1
  O  O49  1  0.273432  0.807051  0.801202  1
  O  O50  1  0.300965  0.868700  0.459767  1
  O  O51  1  0.325303  0.993177  0.034609  1
  O  O52  1  0.417324  0.735241  0.319910  1
  O  O53  1  0.409059  0.635334  0.673140  1
  O  O54  1  0.413809  0.511998  0.829010  1
  O  O55  1  0.422333  0.218448  0.206819  1
  O  O56  1  0.438777  0.685533  0.994372  1
  O  O57  1  0.433337  0.308520  0.537273  1
  O  O58  1  0.442062  0.136022  0.878767  1
  O  O59  1  0.441809  0.002114  0.610540  1
  O  O60  1  0.558191  0.997886  0.389460  1
  O  O61  1  0.557938  0.863978  0.121233  1
  O  O62  1  0.566663  0.691480  0.462727  1
  O  O63  1  0.561223  0.314467  0.005628  1
  O  O64  1  0.577667  0.781552  0.793181  1
  O  O65  1  0.586191  0.488002  0.170990  1
  O  O66  1  0.590941  0.364666  0.326860  1
  O  O67  1  0.582676  0.264759  0.680090  1
  O  O68  1  0.674697  0.006823  0.965391  1
  O  O69  1  0.699035  0.131300  0.540233  1
  O  O70  1  0.726568  0.192949  0.198798  1
  O  O71  1  0.729578  0.263661  0.865378  1
  O  O72  1  0.773432  0.692949  0.301202  1
  O  O73  1  0.770422  0.763661  0.634622  1
  O  O74  1  0.800965  0.631300  0.959767  1
  O  O75  1  0.825303  0.506823  0.534609  1
  O  O76  1  0.917324  0.764759  0.819910  1
  O  O77  1  0.909059  0.864666  0.173140  1
  O  O78  1  0.913809  0.988002  0.329010  1
  O  O79  1  0.938777  0.814467  0.494372  1
  O  O80  1  0.922333  0.281552  0.706819  1
  O  O81  1  0.933337  0.191480  0.037273  1
  O  O82  1  0.942062  0.363978  0.378767  1
  O  O83  1  0.941809  0.497886  0.110540  1
