# generated using pymatgen
data_Sr6Co4Bi2O15
_symmetry_space_group_name_H-M   'P 1'
_cell_length_a   5.58319599
_cell_length_b   16.69490425
_cell_length_c   16.69490441
_cell_angle_alpha   90.12962023
_cell_angle_beta   90.00000000
_cell_angle_gamma   90.00000000
_symmetry_Int_Tables_number   1
_chemical_formula_structural   Sr6Co4Bi2O15
_chemical_formula_sum   'Sr24 Co16 Bi8 O60'
_cell_volume   1556.14345800
_cell_formula_units_Z   4
loop_
 _symmetry_equiv_pos_site_id
 _symmetry_equiv_pos_as_xyz
  1  'x, y, z'
loop_
 _atom_site_type_symbol
 _atom_site_label
 _atom_site_symmetry_multiplicity
 _atom_site_fract_x
 _atom_site_fract_y
 _atom_site_fract_z
 _atom_site_occupancy
  Sr  Sr0  1  0.748711  0.771441  0.877623  1
  Sr  Sr1  1  0.251289  0.122377  0.228559  1
  Sr  Sr2  1  0.248134  0.277769  0.388098  1
  Sr  Sr3  1  0.249513  0.730849  0.376632  1
  Sr  Sr4  1  0.746510  0.224334  0.887368  1
  Sr  Sr5  1  0.248134  0.722231  0.611902  1
  Sr  Sr6  1  0.240761  0.492783  0.840252  1
  Sr  Sr7  1  0.251289  0.877623  0.771441  1
  Sr  Sr8  1  0.751866  0.388098  0.277769  1
  Sr  Sr9  1  0.750487  0.623368  0.269151  1
  Sr  Sr10  1  0.253490  0.887368  0.224334  1
  Sr  Sr11  1  0.748711  0.228559  0.122377  1
  Sr  Sr12  1  0.751866  0.611902  0.722231  1
  Sr  Sr13  1  0.253490  0.112632  0.775666  1
  Sr  Sr14  1  0.751717  0.003804  0.339989  1
  Sr  Sr15  1  0.751717  0.996196  0.660011  1
  Sr  Sr16  1  0.746510  0.775666  0.112632  1
  Sr  Sr17  1  0.750487  0.376632  0.730849  1
  Sr  Sr18  1  0.248283  0.339989  0.003804  1
  Sr  Sr19  1  0.249513  0.269151  0.623368  1
  Sr  Sr20  1  0.248283  0.660011  0.996196  1
  Sr  Sr21  1  0.759239  0.840252  0.492783  1
  Sr  Sr22  1  0.759239  0.159748  0.507217  1
  Sr  Sr23  1  0.240761  0.507217  0.159748  1
  Co  Co24  1  0.252814  0.917994  0.413186  1
  Co  Co25  1  0.752918  0.797365  0.684815  1
  Co  Co26  1  0.247082  0.684815  0.797365  1
  Co  Co27  1  0.739735  0.414927  0.090453  1
  Co  Co28  1  0.260265  0.090453  0.414927  1
  Co  Co29  1  0.750930  0.815244  0.297832  1
  Co  Co30  1  0.739735  0.585073  0.909547  1
  Co  Co31  1  0.252814  0.082006  0.586814  1
  Co  Co32  1  0.249070  0.297832  0.815244  1
  Co  Co33  1  0.747186  0.413186  0.917994  1
  Co  Co34  1  0.750930  0.184756  0.702168  1
  Co  Co35  1  0.247082  0.315185  0.202635  1
  Co  Co36  1  0.747186  0.586814  0.082006  1
  Co  Co37  1  0.260265  0.909547  0.585073  1
  Co  Co38  1  0.249070  0.702168  0.184756  1
  Co  Co39  1  0.752918  0.202635  0.315185  1
  Bi  Bi40  1  0.770450  0.004952  0.117854  1
  Bi  Bi41  1  0.730308  0.617634  0.493903  1
  Bi  Bi42  1  0.229550  0.117854  0.004952  1
  Bi  Bi43  1  0.269692  0.493903  0.617634  1
  Bi  Bi44  1  0.770450  0.995048  0.882146  1
  Bi  Bi45  1  0.730308  0.382366  0.506097  1
  Bi  Bi46  1  0.229550  0.882146  0.995048  1
  Bi  Bi47  1  0.269692  0.506097  0.382366  1
  O  O48  1  0.500000  0.742838  0.742838  1
  O  O49  1  0.848862  0.870643  0.993768  1
  O  O50  1  0.223971  0.596616  0.293415  1
  O  O51  1  0.759948  0.505138  0.163377  1
  O  O52  1  0.993501  0.129214  0.639660  1
  O  O53  1  0.483798  0.364623  0.867730  1
  O  O54  1  0.000000  0.242783  0.757217  1
  O  O55  1  0.010847  0.633004  0.863836  1
  O  O56  1  0.776029  0.706585  0.403384  1
  O  O57  1  0.227228  0.592960  0.703742  1
  O  O58  1  0.516202  0.132270  0.635377  1
  O  O59  1  0.272424  0.203817  0.907652  1
  O  O60  1  0.223971  0.403384  0.706585  1
  O  O61  1  0.255437  0.996419  0.663407  1
  O  O62  1  0.240052  0.163377  0.505138  1
  O  O63  1  0.500000  0.247678  0.752322  1
  O  O64  1  0.993501  0.870786  0.360340  1
  O  O65  1  0.006499  0.639660  0.129214  1
  O  O66  1  0.000000  0.748518  0.748518  1
  O  O67  1  0.776029  0.293415  0.596616  1
  O  O68  1  0.517668  0.862039  0.627174  1
  O  O69  1  0.516202  0.867730  0.364623  1
  O  O70  1  0.349497  0.370623  0.506519  1
  O  O71  1  0.772772  0.703742  0.592960  1
  O  O72  1  0.000000  0.757217  0.242783  1
  O  O73  1  0.848862  0.129357  0.006232  1
  O  O74  1  0.349497  0.629377  0.493481  1
  O  O75  1  0.989153  0.863836  0.633004  1
  O  O76  1  0.240052  0.836623  0.494862  1
  O  O77  1  0.257569  0.000000  0.500000  1
  O  O78  1  0.727576  0.907652  0.203817  1
  O  O79  1  0.000000  0.251482  0.251482  1
  O  O80  1  0.759948  0.494862  0.836623  1
  O  O81  1  0.517668  0.137961  0.372826  1
  O  O82  1  0.151138  0.006232  0.129357  1
  O  O83  1  0.272424  0.796183  0.092348  1
  O  O84  1  0.727576  0.092348  0.796183  1
  O  O85  1  0.744563  0.663407  0.996419  1
  O  O86  1  0.483798  0.635377  0.132270  1
  O  O87  1  0.275129  0.206792  0.096997  1
  O  O88  1  0.151138  0.993768  0.870643  1
  O  O89  1  0.772772  0.296258  0.407040  1
  O  O90  1  0.757283  0.000000  0.500000  1
  O  O91  1  0.242717  0.500000  0.000000  1
  O  O92  1  0.724871  0.903003  0.793208  1
  O  O93  1  0.500000  0.257162  0.257162  1
  O  O94  1  0.227228  0.407040  0.296258  1
  O  O95  1  0.482332  0.372826  0.137961  1
  O  O96  1  0.500000  0.752322  0.247678  1
  O  O97  1  0.744563  0.336593  0.003581  1
  O  O98  1  0.006499  0.360340  0.870786  1
  O  O99  1  0.275129  0.793208  0.903003  1
  O  O100  1  0.482332  0.627174  0.862039  1
  O  O101  1  0.989153  0.136164  0.366996  1
  O  O102  1  0.742431  0.500000  0.000000  1
  O  O103  1  0.010847  0.366996  0.136164  1
  O  O104  1  0.255437  0.003581  0.336593  1
  O  O105  1  0.650503  0.506519  0.370623  1
  O  O106  1  0.724871  0.096997  0.206792  1
  O  O107  1  0.650503  0.493481  0.629377  1
