# generated using pymatgen
data_CoH22S2N5O9
_symmetry_space_group_name_H-M   'P 1'
_cell_length_a   13.04954748
_cell_length_b   21.76715335
_cell_length_c   6.89104485
_cell_angle_alpha   90.00000000
_cell_angle_beta   90.00000000
_cell_angle_gamma   90.00000000
_symmetry_Int_Tables_number   1
_chemical_formula_structural   CoH22S2N5O9
_chemical_formula_sum   'Co4 H88 S8 N20 O36'
_cell_volume   1957.41163410
_cell_formula_units_Z   4
loop_
 _symmetry_equiv_pos_site_id
 _symmetry_equiv_pos_as_xyz
  1  'x, y, z'
loop_
 _atom_site_type_symbol
 _atom_site_label
 _atom_site_symmetry_multiplicity
 _atom_site_fract_x
 _atom_site_fract_y
 _atom_site_fract_z
 _atom_site_occupancy
  Co  Co0  1  0.872273  0.691816  0.342091  1
  Co  Co1  1  0.627727  0.308184  0.842091  1
  Co  Co2  1  0.372273  0.808184  0.657909  1
  Co  Co3  1  0.127727  0.191816  0.157909  1
  H  H4  1  0.673804  0.914205  0.073259  1
  H  H5  1  0.826196  0.085795  0.573259  1
  H  H6  1  0.173804  0.585795  0.926741  1
  H  H7  1  0.326196  0.414205  0.426741  1
  H  H8  1  0.174549  0.480682  0.346910  1
  H  H9  1  0.325451  0.519318  0.846910  1
  H  H10  1  0.674549  0.019318  0.653090  1
  H  H11  1  0.825451  0.980682  0.153090  1
  H  H12  1  0.672891  0.906304  0.966997  1
  H  H13  1  0.827109  0.093696  0.466997  1
  H  H14  1  0.172891  0.593696  0.033003  1
  H  H15  1  0.327109  0.406304  0.533003  1
  H  H16  1  0.667299  0.988190  0.697828  1
  H  H17  1  0.832701  0.011810  0.197828  1
  H  H18  1  0.167299  0.511810  0.302172  1
  H  H19  1  0.332701  0.488190  0.802172  1
  H  H20  1  0.874993  0.857476  0.569966  1
  H  H21  1  0.625007  0.142524  0.069966  1
  H  H22  1  0.374993  0.642524  0.430034  1
  H  H23  1  0.125007  0.357476  0.930034  1
  H  H24  1  0.904967  0.959372  0.810146  1
  H  H25  1  0.595033  0.040628  0.310146  1
  H  H26  1  0.404967  0.540628  0.189854  1
  H  H27  1  0.095033  0.459372  0.689854  1
  H  H28  1  0.685096  0.702783  0.005526  1
  H  H29  1  0.814904  0.297217  0.505526  1
  H  H30  1  0.185096  0.797217  0.994474  1
  H  H31  1  0.314904  0.202783  0.494474  1
  H  H32  1  0.552988  0.473025  0.365507  1
  H  H33  1  0.947012  0.526975  0.865507  1
  H  H34  1  0.052988  0.026975  0.634493  1
  H  H35  1  0.447012  0.973025  0.134493  1
  H  H36  1  0.694860  0.613250  0.989106  1
  H  H37  1  0.805140  0.386750  0.489106  1
  H  H38  1  0.194860  0.886750  0.010894  1
  H  H39  1  0.305140  0.113250  0.510894  1
  H  H40  1  0.521619  0.729236  0.708143  1
  H  H41  1  0.978381  0.270764  0.208143  1
  H  H42  1  0.021619  0.770764  0.291857  1
  H  H43  1  0.478381  0.229236  0.791857  1
  H  H44  1  0.782118  0.459866  0.610833  1
  H  H45  1  0.717882  0.540134  0.110833  1
  H  H46  1  0.282118  0.040134  0.389167  1
  H  H47  1  0.217882  0.959866  0.889167  1
  H  H48  1  0.169513  0.240655  0.283429  1
  H  H49  1  0.330487  0.759345  0.783429  1
  H  H50  1  0.669513  0.259345  0.716571  1
  H  H51  1  0.830487  0.740655  0.216571  1
  H  H52  1  0.904373  0.600792  0.704526  1
  H  H53  1  0.595627  0.399208  0.204526  1
  H  H54  1  0.404373  0.899208  0.295474  1
  H  H55  1  0.095627  0.100792  0.795474  1
  H  H56  1  0.777771  0.719905  0.622821  1
  H  H57  1  0.722229  0.280095  0.122821  1
  H  H58  1  0.277771  0.780095  0.377179  1
  H  H59  1  0.222229  0.219905  0.877179  1
  H  H60  1  0.295586  0.990550  0.753129  1
  H  H61  1  0.204414  0.009450  0.253129  1
  H  H62  1  0.795586  0.509450  0.246871  1
  H  H63  1  0.704414  0.490550  0.746871  1
  H  H64  1  0.822622  0.589173  0.867075  1
  H  H65  1  0.677378  0.410827  0.367075  1
  H  H66  1  0.322622  0.910827  0.132925  1
  H  H67  1  0.177378  0.089173  0.632925  1
  H  H68  1  0.651463  0.747820  0.165451  1
  H  H69  1  0.848537  0.252180  0.665451  1
  H  H70  1  0.151463  0.752180  0.834549  1
  H  H71  1  0.348537  0.247820  0.334549  1
  H  H72  1  0.670296  0.802361  0.848221  1
  H  H73  1  0.829704  0.197639  0.348221  1
  H  H74  1  0.170296  0.697639  0.151779  1
  H  H75  1  0.329704  0.302361  0.651779  1
  H  H76  1  0.818808  0.965862  0.458793  1
  H  H77  1  0.681192  0.034138  0.958793  1
  H  H78  1  0.318808  0.534138  0.541207  1
  H  H79  1  0.181192  0.465862  0.041207  1
  H  H80  1  0.987236  0.850135  0.502808  1
  H  H81  1  0.512764  0.149865  0.002808  1
  H  H82  1  0.487236  0.649865  0.497192  1
  H  H83  1  0.012764  0.350135  0.997192  1
  H  H84  1  0.985324  0.869887  0.758807  1
  H  H85  1  0.514676  0.130113  0.258807  1
  H  H86  1  0.485324  0.630113  0.241193  1
  H  H87  1  0.014676  0.369887  0.741193  1
  H  H88  1  0.141977  0.890741  0.962442  1
  H  H89  1  0.358023  0.109259  0.462442  1
  H  H90  1  0.641977  0.609259  0.037558  1
  H  H91  1  0.858023  0.390741  0.537558  1
  S  S92  1  0.079462  0.683095  0.416536  1
  S  S93  1  0.420538  0.316905  0.916536  1
  S  S94  1  0.579462  0.816905  0.583464  1
  S  S95  1  0.920538  0.183095  0.083464  1
  S  S96  1  0.978297  0.608317  0.397259  1
  S  S97  1  0.521703  0.391683  0.897259  1
  S  S98  1  0.478297  0.891683  0.602741  1
  S  S99  1  0.021703  0.108317  0.102741  1
  N  N100  1  0.207909  0.421046  0.007541  1
  N  N101  1  0.292091  0.578954  0.507541  1
  N  N102  1  0.707909  0.078954  0.992459  1
  N  N103  1  0.792091  0.921046  0.492459  1
  N  N104  1  0.016065  0.460487  0.684714  1
  N  N105  1  0.483935  0.539513  0.184714  1
  N  N106  1  0.516065  0.039513  0.315286  1
  N  N107  1  0.983935  0.960487  0.815286  1
  N  N108  1  0.002656  0.725257  0.290398  1
  N  N109  1  0.497344  0.274743  0.790398  1
  N  N110  1  0.502656  0.774743  0.709602  1
  N  N111  1  0.997344  0.225257  0.209602  1
  N  N112  1  0.759490  0.702329  0.485380  1
  N  N113  1  0.740510  0.297671  0.985380  1
  N  N114  1  0.259490  0.797671  0.514620  1
  N  N115  1  0.240510  0.202329  0.014620  1
  N  N116  1  0.517544  0.517428  0.370723  1
  N  N117  1  0.982456  0.482572  0.870723  1
  N  N118  1  0.017544  0.982572  0.629277  1
  N  N119  1  0.482456  0.017428  0.129277  1
  O  O120  1  0.182018  0.676097  0.279752  1
  O  O121  1  0.317982  0.323903  0.779752  1
  O  O122  1  0.682018  0.823903  0.720248  1
  O  O123  1  0.817982  0.176097  0.220248  1
  O  O124  1  0.214727  0.590076  0.603472  1
  O  O125  1  0.285273  0.409924  0.103472  1
  O  O126  1  0.714727  0.909924  0.396528  1
  O  O127  1  0.785273  0.090076  0.896528  1
  O  O128  1  0.163511  0.794877  0.547179  1
  O  O129  1  0.336489  0.205123  0.047179  1
  O  O130  1  0.663511  0.705123  0.452821  1
  O  O131  1  0.836489  0.294877  0.952821  1
  O  O132  1  0.895504  0.596498  0.846433  1
  O  O133  1  0.604496  0.403502  0.346433  1
  O  O134  1  0.395504  0.903502  0.153567  1
  O  O135  1  0.104496  0.096498  0.653567  1
  O  O136  1  0.758190  0.502761  0.126291  1
  O  O137  1  0.741810  0.497239  0.626291  1
  O  O138  1  0.258190  0.997239  0.873709  1
  O  O139  1  0.241810  0.002761  0.373709  1
  O  O140  1  0.974512  0.448487  0.018051  1
  O  O141  1  0.525488  0.551513  0.518051  1
  O  O142  1  0.474512  0.051513  0.981949  1
  O  O143  1  0.025488  0.948487  0.481949  1
  O  O144  1  0.666816  0.745704  0.026519  1
  O  O145  1  0.833184  0.254296  0.526519  1
  O  O146  1  0.166816  0.754296  0.973481  1
  O  O147  1  0.333184  0.245704  0.473481  1
  O  O148  1  0.936776  0.831029  0.589192  1
  O  O149  1  0.563224  0.168971  0.089192  1
  O  O150  1  0.436776  0.668971  0.410808  1
  O  O151  1  0.063224  0.331029  0.910808  1
  O  O152  1  0.017376  0.900122  0.855426  1
  O  O153  1  0.482624  0.099878  0.355426  1
  O  O154  1  0.517376  0.599878  0.144574  1
  O  O155  1  0.982624  0.400122  0.644574  1
