# generated using pymatgen
data_Fe4O7F
_symmetry_space_group_name_H-M   'P 1'
_cell_length_a   5.51444172
_cell_length_b   9.72168811
_cell_length_c   5.51444172
_cell_angle_alpha   78.67628603
_cell_angle_beta   66.01391825
_cell_angle_gamma   98.06469659
_symmetry_Int_Tables_number   1
_chemical_formula_structural   Fe4O7F
_chemical_formula_sum   'Fe8 O14 F2'
_cell_volume   256.72211609
_cell_formula_units_Z   2
loop_
 _symmetry_equiv_pos_site_id
 _symmetry_equiv_pos_as_xyz
  1  'x, y, z'
loop_
 _atom_site_type_symbol
 _atom_site_label
 _atom_site_symmetry_multiplicity
 _atom_site_fract_x
 _atom_site_fract_y
 _atom_site_fract_z
 _atom_site_occupancy
  Fe  Fe0  1  0.636316  0.257390  0.878926  1
  Fe  Fe1  1  0.891934  0.760898  0.631035  1
  Fe  Fe2  1  0.239992  0.495959  0.752256  1
  Fe  Fe3  1  0.748215  0.495959  0.244033  1
  Fe  Fe4  1  0.503031  0.995812  0.488766  1
  Fe  Fe5  1  0.369386  0.746692  0.122694  1
  Fe  Fe6  1  0.123446  0.249141  0.374306  1
  Fe  Fe7  1  0.984579  0.995812  0.007218  1
  O  O8  1  0.853159  0.402282  0.950876  1
  O  O9  1  0.921384  0.152699  0.770328  1
  O  O10  1  0.574888  0.846041  0.732097  1
  O  O11  1  0.329210  0.346651  0.978500  1
  O  O12  1  0.825151  0.346651  0.482558  1
  O  O13  1  0.888926  0.091914  0.297013  1
  O  O14  1  0.114274  0.911380  0.702894  1
  O  O15  1  0.360776  0.405095  0.455682  1
  O  O16  1  0.597057  0.898080  0.198978  1
  O  O17  1  0.670244  0.654026  0.022575  1
  O  O18  1  0.176602  0.654026  0.516218  1
  O  O19  1  0.423027  0.152699  0.268685  1
  O  O20  1  0.078138  0.846041  0.228846  1
  O  O21  1  0.138599  0.593906  0.044693  1
  F  F22  1  0.651779  0.598926  0.552854  1
  F  F23  1  0.399885  0.101916  0.797969  1
