# generated using pymatgen
data_Li4Co7(OF7)2
_symmetry_space_group_name_H-M   'P 1'
_cell_length_a   10.50236427
_cell_length_b   5.95271371
_cell_length_c   5.10191150
_cell_angle_alpha   89.03812073
_cell_angle_beta   88.94730443
_cell_angle_gamma   92.41002042
_symmetry_Int_Tables_number   1
_chemical_formula_structural   Li4Co7(OF7)2
_chemical_formula_sum   'Li4 Co7 O2 F14'
_cell_volume   318.57395942
_cell_formula_units_Z   1
loop_
 _symmetry_equiv_pos_site_id
 _symmetry_equiv_pos_as_xyz
  1  'x, y, z'
loop_
 _atom_site_type_symbol
 _atom_site_label
 _atom_site_symmetry_multiplicity
 _atom_site_fract_x
 _atom_site_fract_y
 _atom_site_fract_z
 _atom_site_occupancy
  Li  Li0  1  0.081012  0.235759  0.457113  1
  Li  Li1  1  0.406745  0.742458  0.975304  1
  Li  Li2  1  0.593255  0.257542  0.024696  1
  Li  Li3  1  0.918988  0.764241  0.542887  1
  Co  Co4  1  0.000000  0.500000  0.000000  1
  Co  Co5  1  0.242456  0.746101  0.504813  1
  Co  Co6  1  0.258260  0.233666  0.011874  1
  Co  Co7  1  0.500000  0.000000  0.500000  1
  Co  Co8  1  0.500000  0.500000  0.500000  1
  Co  Co9  1  0.741740  0.766334  0.988126  1
  Co  Co10  1  0.757544  0.253900  0.495187  1
  O  O11  1  0.412749  0.746045  0.337720  1
  O  O12  1  0.587251  0.253955  0.662280  1
  F  F13  1  0.075605  0.711886  0.704580  1
  F  F14  1  0.091031  0.254602  0.817516  1
  F  F15  1  0.179371  0.018254  0.290321  1
  F  F16  1  0.164764  0.486187  0.242516  1
  F  F17  1  0.332178  0.495675  0.774478  1
  F  F18  1  0.329899  0.980174  0.781006  1
  F  F19  1  0.430617  0.247041  0.212257  1
  F  F20  1  0.569383  0.752959  0.787743  1
  F  F21  1  0.670101  0.019826  0.218994  1
  F  F22  1  0.667822  0.504325  0.225522  1
  F  F23  1  0.835236  0.513813  0.757484  1
  F  F24  1  0.820629  0.981746  0.709679  1
  F  F25  1  0.908969  0.745398  0.182484  1
  F  F26  1  0.924395  0.288114  0.295420  1
