# generated using pymatgen
data_LiVF4
_symmetry_space_group_name_H-M   'P 1'
_cell_length_a   4.61411749
_cell_length_b   11.87664811
_cell_length_c   5.18541001
_cell_angle_alpha   90.00000000
_cell_angle_beta   90.00000000
_cell_angle_gamma   90.00000000
_symmetry_Int_Tables_number   1
_chemical_formula_structural   LiVF4
_chemical_formula_sum   'Li4 V4 F16'
_cell_volume   284.16176369
_cell_formula_units_Z   4
loop_
 _symmetry_equiv_pos_site_id
 _symmetry_equiv_pos_as_xyz
  1  'x, y, z'
loop_
 _atom_site_type_symbol
 _atom_site_label
 _atom_site_symmetry_multiplicity
 _atom_site_fract_x
 _atom_site_fract_y
 _atom_site_fract_z
 _atom_site_occupancy
  Li  Li0  1  0.000000  0.320974  0.750000  1
  Li  Li1  1  0.000000  0.679026  0.250000  1
  Li  Li2  1  0.500000  0.179026  0.250000  1
  Li  Li3  1  0.500000  0.820974  0.750000  1
  V  V4  1  0.000000  0.071113  0.750000  1
  V  V5  1  0.000000  0.928887  0.250000  1
  V  V6  1  0.500000  0.428887  0.250000  1
  V  V7  1  0.500000  0.571113  0.750000  1
  F  F8  1  0.228723  0.053848  0.086816  1
  F  F9  1  0.228723  0.946152  0.586816  1
  F  F10  1  0.231351  0.816585  0.089967  1
  F  F11  1  0.231351  0.183415  0.589967  1
  F  F12  1  0.268649  0.316585  0.089967  1
  F  F13  1  0.268649  0.683415  0.589967  1
  F  F14  1  0.271277  0.553848  0.086816  1
  F  F15  1  0.271277  0.446152  0.586816  1
  F  F16  1  0.728723  0.446152  0.913184  1
  F  F17  1  0.728723  0.553848  0.413184  1
  F  F18  1  0.731351  0.683415  0.910033  1
  F  F19  1  0.731351  0.316585  0.410033  1
  F  F20  1  0.768649  0.183415  0.910033  1
  F  F21  1  0.768649  0.816585  0.410033  1
  F  F22  1  0.771277  0.946152  0.913184  1
  F  F23  1  0.771277  0.053848  0.413184  1
