# generated using pymatgen
data_Li5Mn3Co2(PO4)6
_symmetry_space_group_name_H-M   'P 1'
_cell_length_a   8.30759456
_cell_length_b   8.86652165
_cell_length_c   8.78990918
_cell_angle_alpha   59.89646399
_cell_angle_beta   59.37105123
_cell_angle_gamma   61.85225346
_symmetry_Int_Tables_number   1
_chemical_formula_structural   Li5Mn3Co2(PO4)6
_chemical_formula_sum   'Li5 Mn3 Co2 P6 O24'
_cell_volume   461.20699330
_cell_formula_units_Z   1
loop_
 _symmetry_equiv_pos_site_id
 _symmetry_equiv_pos_as_xyz
  1  'x, y, z'
loop_
 _atom_site_type_symbol
 _atom_site_label
 _atom_site_symmetry_multiplicity
 _atom_site_fract_x
 _atom_site_fract_y
 _atom_site_fract_z
 _atom_site_occupancy
  Li  Li0  1  0.517210  0.167192  0.155807  1
  Li  Li1  1  0.244813  0.870206  0.646998  1
  Li  Li2  1  0.716867  0.137360  0.329630  1
  Li  Li3  1  0.703323  0.822522  0.152221  1
  Li  Li4  1  0.716764  0.330217  0.813257  1
  Mn  Mn5  1  0.069855  0.642247  0.644790  1
  Mn  Mn6  1  0.436110  0.848603  0.859815  1
  Mn  Mn7  1  0.947396  0.346031  0.347463  1
  Co  Co8  1  0.999613  0.015236  0.997371  1
  Co  Co9  1  0.496389  0.496826  0.497762  1
  P  P10  1  0.256988  0.251624  0.541149  1
  P  P11  1  0.250393  0.945120  0.243355  1
  P  P12  1  0.262249  0.546781  0.944418  1
  P  P13  1  0.758631  0.453333  0.043693  1
  P  P14  1  0.776085  0.037656  0.743882  1
  P  P15  1  0.736863  0.749803  0.466675  1
  O  O16  1  0.068143  0.096370  0.300177  1
  O  O17  1  0.074448  0.508355  0.108514  1
  O  O18  1  0.072790  0.328415  0.490128  1
  O  O19  1  0.210403  0.090259  0.733876  1
  O  O20  1  0.442785  0.186524  0.392040  1
  O  O21  1  0.281593  0.397581  0.571195  1
  O  O22  1  0.232495  0.928979  0.081368  1
  O  O23  1  0.259671  0.751968  0.407879  1
  O  O24  1  0.575572  0.603662  0.017727  1
  O  O25  1  0.274540  0.585073  0.741663  1
  O  O26  1  0.782521  0.267300  0.044410  1
  O  O27  1  0.598082  0.986681  0.795274  1
  O  O28  1  0.442196  0.974119  0.185149  1
  O  O29  1  0.236343  0.744094  0.926162  1
  O  O30  1  0.740178  0.412358  0.250907  1
  O  O31  1  0.447176  0.399559  0.966679  1
  O  O32  1  0.745845  0.240000  0.595127  1
  O  O33  1  0.779553  0.052602  0.912781  1
  O  O34  1  0.706256  0.613591  0.425297  1
  O  O35  1  0.540156  0.818162  0.613375  1
  O  O36  1  0.786784  0.907925  0.274911  1
  O  O37  1  0.899051  0.659635  0.545549  1
  O  O38  1  0.944525  0.506893  0.895147  1
  O  O39  1  0.969345  0.902136  0.673375  1
