# generated using pymatgen
data_LiTeHO4
_symmetry_space_group_name_H-M   'P 1'
_cell_length_a   6.43343559
_cell_length_b   6.11882192
_cell_length_c   5.11623297
_cell_angle_alpha   90.00000000
_cell_angle_beta   129.56978393
_cell_angle_gamma   90.00000000
_symmetry_Int_Tables_number   1
_chemical_formula_structural   LiTeHO4
_chemical_formula_sum   'Li2 Te2 H2 O8'
_cell_volume   155.24962556
_cell_formula_units_Z   2
loop_
 _symmetry_equiv_pos_site_id
 _symmetry_equiv_pos_as_xyz
  1  'x, y, z'
loop_
 _atom_site_type_symbol
 _atom_site_label
 _atom_site_symmetry_multiplicity
 _atom_site_fract_x
 _atom_site_fract_y
 _atom_site_fract_z
 _atom_site_occupancy
  Li  Li0  1  0.391784  0.000107  0.779278  1
  Li  Li1  1  0.608216  0.500107  0.220722  1
  Te  Te2  1  0.007611  0.248297  0.018990  1
  Te  Te3  1  0.992389  0.748297  0.981010  1
  H  H4  1  0.027548  0.743893  0.485626  1
  H  H5  1  0.972452  0.243893  0.514374  1
  O  O6  1  0.179864  0.756077  0.464056  1
  O  O7  1  0.182040  0.240058  0.480950  1
  O  O8  1  0.228880  0.997329  0.050575  1
  O  O9  1  0.237861  0.498591  0.074271  1
  O  O10  1  0.771120  0.497329  0.949425  1
  O  O11  1  0.762139  0.998591  0.925729  1
  O  O12  1  0.817960  0.740058  0.519050  1
  O  O13  1  0.820136  0.256077  0.535944  1
