# generated using pymatgen
data_Li7Mn8(BO3)8
_symmetry_space_group_name_H-M   'P 1'
_cell_length_a   5.24330677
_cell_length_b   9.12870354
_cell_length_c   11.54530055
_cell_angle_alpha   68.89833776
_cell_angle_beta   77.67245355
_cell_angle_gamma   89.29851270
_symmetry_Int_Tables_number   1
_chemical_formula_structural   Li7Mn8(BO3)8
_chemical_formula_sum   'Li7 Mn8 B8 O24'
_cell_volume   502.40001636
_cell_formula_units_Z   1
loop_
 _symmetry_equiv_pos_site_id
 _symmetry_equiv_pos_as_xyz
  1  'x, y, z'
loop_
 _atom_site_type_symbol
 _atom_site_label
 _atom_site_symmetry_multiplicity
 _atom_site_fract_x
 _atom_site_fract_y
 _atom_site_fract_z
 _atom_site_occupancy
  Li  Li0  1  0.031794  0.033293  0.090584  1
  Li  Li1  1  0.274582  0.244263  0.331859  1
  Li  Li2  1  0.522738  0.541062  0.067549  1
  Li  Li3  1  0.298016  0.287738  0.583145  1
  Li  Li4  1  0.761022  0.735832  0.347913  1
  Li  Li5  1  0.800974  0.788910  0.586664  1
  Li  Li6  1  0.979193  0.007033  0.837768  1
  Mn  Mn7  1  0.249936  0.565664  0.367249  1
  Mn  Mn8  1  0.275891  0.939262  0.622168  1
  Mn  Mn9  1  0.530371  0.853956  0.115454  1
  Mn  Mn10  1  0.472304  0.162895  0.868047  1
  Mn  Mn11  1  0.740785  0.060658  0.373016  1
  Mn  Mn12  1  0.999282  0.353669  0.124976  1
  Mn  Mn13  1  0.771535  0.446512  0.627695  1
  Mn  Mn14  1  0.986249  0.649077  0.863008  1
  B  B15  1  0.031424  0.681870  0.129303  1
  B  B16  1  0.238364  0.893421  0.373735  1
  B  B17  1  0.516840  0.186260  0.126978  1
  B  B18  1  0.279967  0.613764  0.613893  1
  B  B19  1  0.476007  0.819087  0.873781  1
  B  B20  1  0.739199  0.394907  0.368614  1
  B  B21  1  0.768819  0.111975  0.626293  1
  B  B22  1  0.951330  0.300803  0.890821  1
  O  O23  1  0.023068  0.113477  0.641595  1
  O  O24  1  0.278394  0.651674  0.156324  1
  O  O25  1  0.103920  0.711025  0.657148  1
  O  O26  1  0.408002  0.083190  0.085164  1
  O  O27  1  0.388572  0.313916  0.141003  1
  O  O28  1  0.179566  0.497666  0.579357  1
  O  O29  1  0.037855  0.406160  0.941954  1
  O  O30  1  0.068538  0.161443  0.903867  1
  O  O31  1  0.335010  0.013137  0.405782  1
  O  O32  1  0.408092  0.795921  0.330675  1
  O  O33  1  0.238953  0.849049  0.833634  1
  O  O34  1  0.472949  0.367348  0.388787  1
  O  O35  1  0.541752  0.635229  0.604186  1
  O  O36  1  0.764386  0.157539  0.159622  1
  O  O37  1  0.597343  0.218055  0.656975  1
  O  O38  1  0.681133  0.003989  0.579938  1
  O  O39  1  0.906914  0.577699  0.090616  1
  O  O40  1  0.909146  0.811564  0.141514  1
  O  O41  1  0.589505  0.680376  0.887056  1
  O  O42  1  0.594615  0.933775  0.904982  1
  O  O43  1  0.845643  0.507953  0.400980  1
  O  O44  1  0.909898  0.298901  0.316514  1
  O  O45  1  0.749097  0.342934  0.830318  1
  O  O46  1  0.971396  0.871822  0.388468  1
