# generated using pymatgen
data_Li3Ti2(FeO4)2
_symmetry_space_group_name_H-M   'P 1'
_cell_length_a   6.05315167
_cell_length_b   5.99365211
_cell_length_c   5.93920637
_cell_angle_alpha   60.24484833
_cell_angle_beta   61.03383712
_cell_angle_gamma   91.05279900
_symmetry_Int_Tables_number   1
_chemical_formula_structural   Li3Ti2(FeO4)2
_chemical_formula_sum   'Li3 Ti2 Fe2 O8'
_cell_volume   153.87885442
_cell_formula_units_Z   1
loop_
 _symmetry_equiv_pos_site_id
 _symmetry_equiv_pos_as_xyz
  1  'x, y, z'
loop_
 _atom_site_type_symbol
 _atom_site_label
 _atom_site_symmetry_multiplicity
 _atom_site_fract_x
 _atom_site_fract_y
 _atom_site_fract_z
 _atom_site_occupancy
  Li  Li0  1  0.000000  0.500000  0.000000  1
  Li  Li1  1  0.500000  0.000000  0.500000  1
  Li  Li2  1  0.500000  0.500000  0.000000  1
  Ti  Ti3  1  0.000000  0.000000  0.500000  1
  Ti  Ti4  1  0.000000  0.000000  0.000000  1
  Fe  Fe5  1  0.000000  0.500000  0.500000  1
  Fe  Fe6  1  0.500000  0.000000  0.000000  1
  O  O7  1  0.222003  0.766677  0.492360  1
  O  O8  1  0.785779  0.779880  0.963038  1
  O  O9  1  0.219456  0.754234  0.020481  1
  O  O10  1  0.220962  0.229886  0.523448  1
  O  O11  1  0.779038  0.770114  0.476552  1
  O  O12  1  0.780544  0.245766  0.979518  1
  O  O13  1  0.214221  0.220120  0.036962  1
  O  O14  1  0.777997  0.233323  0.507640  1
