# generated using pymatgen
data_Li24MnCr11O36
_symmetry_space_group_name_H-M   'P 1'
_cell_length_a   8.75049627
_cell_length_b   8.71068282
_cell_length_c   10.24352513
_cell_angle_alpha   89.99999768
_cell_angle_beta   72.92851369
_cell_angle_gamma   60.15039576
_symmetry_Int_Tables_number   1
_chemical_formula_structural   Li24MnCr11O36
_chemical_formula_sum   'Li24 Mn1 Cr11 O36'
_cell_volume   637.23650343
_cell_formula_units_Z   1
loop_
 _symmetry_equiv_pos_site_id
 _symmetry_equiv_pos_as_xyz
  1  'x, y, z'
loop_
 _atom_site_type_symbol
 _atom_site_label
 _atom_site_symmetry_multiplicity
 _atom_site_fract_x
 _atom_site_fract_y
 _atom_site_fract_z
 _atom_site_occupancy
  Li  Li0  1  0.168123  0.004914  0.499541  1
  Li  Li1  1  0.166232  0.167184  0.250292  1
  Li  Li2  1  0.166971  0.006291  0.998941  1
  Li  Li3  1  0.167100  0.327784  0.000515  1
  Li  Li4  1  0.499159  0.999738  0.000264  1
  Li  Li5  1  0.166669  0.166732  0.750118  1
  Li  Li6  1  0.166544  0.326470  0.499930  1
  Li  Li7  1  0.498707  0.001999  0.500639  1
  Li  Li8  1  0.167959  0.667373  0.999361  1
  Li  Li9  1  0.167507  0.665565  0.499736  1
  Li  Li10  1  0.499696  0.339929  0.501059  1
  Li  Li11  1  0.500434  0.500083  0.249708  1
  Li  Li12  1  0.498544  0.339703  0.000459  1
  Li  Li13  1  0.500123  0.659680  0.000070  1
  Li  Li14  1  0.833246  0.333602  0.000792  1
  Li  Li15  1  0.499998  0.500067  0.749882  1
  Li  Li16  1  0.499567  0.661551  0.499485  1
  Li  Li17  1  0.833420  0.333516  0.499208  1
  Li  Li18  1  0.833080  0.670885  0.499570  1
  Li  Li19  1  0.833333  0.833667  0.250000  1
  Li  Li20  1  0.833586  0.670632  0.000430  1
  Li  Li21  1  0.832909  0.995468  0.000266  1
  Li  Li22  1  0.833333  0.832918  0.750000  1
  Li  Li23  1  0.833758  0.995043  0.499734  1
  Mn  Mn24  1  0.833333  0.497088  0.250000  1
  Cr  Cr25  1  0.158244  0.504630  0.250671  1
  Cr  Cr26  1  0.493465  0.175343  0.251186  1
  Cr  Cr27  1  0.174223  0.491342  0.749582  1
  Cr  Cr28  1  0.507863  0.159769  0.750397  1
  Cr  Cr29  1  0.173202  0.835476  0.248814  1
  Cr  Cr30  1  0.833333  0.160286  0.250000  1
  Cr  Cr31  1  0.158804  0.834298  0.749603  1
  Cr  Cr32  1  0.833333  0.173809  0.750000  1
  Cr  Cr33  1  0.508423  0.829541  0.249329  1
  Cr  Cr34  1  0.492443  0.832233  0.750418  1
  Cr  Cr35  1  0.833333  0.508155  0.750000  1
  O  O36  1  0.357258  0.074491  0.364693  1
  O  O37  1  0.001577  0.569914  0.138836  1
  O  O38  1  0.356147  0.066730  0.865214  1
  O  O39  1  0.332669  0.266554  0.138201  1
  O  O40  1  0.001545  0.567338  0.637183  1
  O  O41  1  0.339827  0.258526  0.638182  1
  O  O42  1  0.327765  0.406277  0.362405  1
  O  O43  1  0.023435  0.736039  0.364299  1
  O  O44  1  0.665883  0.100476  0.363075  1
  O  O45  1  0.332215  0.402421  0.861442  1
  O  O46  1  0.309409  0.598415  0.135307  1
  O  O47  1  0.665469  0.232564  0.137390  1
  O  O48  1  0.022564  0.741728  0.864774  1
  O  O49  1  0.659274  0.098498  0.861848  1
  O  O50  1  0.000783  0.933026  0.136925  1
  O  O51  1  0.310520  0.589544  0.634786  1
  O  O52  1  0.677271  0.233512  0.637470  1
  O  O53  1  0.007393  0.924440  0.638152  1
  O  O54  1  0.001198  0.064699  0.362610  1
  O  O55  1  0.333998  0.765890  0.361799  1
  O  O56  1  0.687868  0.406281  0.363358  1
  O  O57  1  0.989396  0.077449  0.862530  1
  O  O58  1  0.338901  0.900709  0.137595  1
  O  O59  1  0.978799  0.260816  0.136642  1
  O  O60  1  0.326839  0.765021  0.861818  1
  O  O61  1  0.688779  0.408048  0.864185  1
  O  O62  1  0.672777  0.589001  0.138023  1
  O  O63  1  0.334451  0.901304  0.638558  1
  O  O64  1  0.977888  0.263494  0.635815  1
  O  O65  1  0.666394  0.600859  0.637595  1
  O  O66  1  0.665090  0.738158  0.361164  1
  O  O67  1  0.993890  0.428444  0.361977  1
  O  O68  1  0.665122  0.735549  0.862817  1
  O  O69  1  0.643231  0.926141  0.135701  1
  O  O70  1  0.000273  0.433919  0.862405  1
  O  O71  1  0.644103  0.930960  0.635226  1
