# generated using pymatgen
data_NbSb3(PO4)6
_symmetry_space_group_name_H-M   'P 1'
_cell_length_a   9.08133043
_cell_length_b   9.08133081
_cell_length_c   9.08133049
_cell_angle_alpha   58.25157044
_cell_angle_beta   58.25157306
_cell_angle_gamma   58.25157855
_symmetry_Int_Tables_number   1
_chemical_formula_structural   NbSb3(PO4)6
_chemical_formula_sum   'Nb1 Sb3 P6 O24'
_cell_volume   508.37146771
_cell_formula_units_Z   1
loop_
 _symmetry_equiv_pos_site_id
 _symmetry_equiv_pos_as_xyz
  1  'x, y, z'
loop_
 _atom_site_type_symbol
 _atom_site_label
 _atom_site_symmetry_multiplicity
 _atom_site_fract_x
 _atom_site_fract_y
 _atom_site_fract_z
 _atom_site_occupancy
  Nb  Nb0  1  0.858458  0.858458  0.858458  1
  Sb  Sb1  1  0.143379  0.143379  0.143379  1
  Sb  Sb2  1  0.357934  0.357934  0.357934  1
  Sb  Sb3  1  0.644485  0.644485  0.644485  1
  P  P4  1  0.039089  0.749949  0.462633  1
  P  P5  1  0.462633  0.039089  0.749949  1
  P  P6  1  0.749949  0.462633  0.039089  1
  P  P7  1  0.252254  0.537889  0.960880  1
  P  P8  1  0.537889  0.960880  0.252254  1
  P  P9  1  0.960880  0.252254  0.537889  1
  O  O10  1  0.127055  0.273154  0.519028  1
  O  O11  1  0.273154  0.519028  0.127055  1
  O  O12  1  0.062631  0.919298  0.283506  1
  O  O13  1  0.519028  0.127055  0.273154  1
  O  O14  1  0.216486  0.579993  0.446109  1
  O  O15  1  -0.000507  0.784047  0.632079  1
  O  O16  1  0.283506  0.062631  0.919298  1
  O  O17  1  0.446109  0.216486  0.579993  1
  O  O18  1  0.579993  0.446109  0.216486  1
  O  O19  1  0.225558  0.371160  0.984763  1
  O  O20  1  0.078083  0.712241  0.933399  1
  O  O21  1  0.371160  0.984763  0.225558  1
  O  O22  1  0.632079  -0.000507  0.784047  1
  O  O23  1  0.919298  0.283506  0.062631  1
  O  O24  1  0.784047  0.632079  -0.000507  1
  O  O25  1  0.420627  0.563630  0.781450  1
  O  O26  1  0.563630  0.781450  0.420627  1
  O  O27  1  0.712241  0.933399  0.078083  1
  O  O28  1  0.984763  0.225558  0.371160  1
  O  O29  1  0.781450  0.420627  0.563630  1
  O  O30  1  0.483184  0.873760  0.722318  1
  O  O31  1  0.933399  0.078083  0.712241  1
  O  O32  1  0.722318  0.483184  0.873760  1
  O  O33  1  0.873760  0.722318  0.483184  1
