# generated using pymatgen
data_Li4Ti2Fe3Sb3O16
_symmetry_space_group_name_H-M   'P 1'
_cell_length_a   6.23397851
_cell_length_b   6.15869491
_cell_length_c   9.75147426
_cell_angle_alpha   89.97476666
_cell_angle_beta   91.36072885
_cell_angle_gamma   119.63847332
_symmetry_Int_Tables_number   1
_chemical_formula_structural   Li4Ti2Fe3Sb3O16
_chemical_formula_sum   'Li4 Ti2 Fe3 Sb3 O16'
_cell_volume   325.28669047
_cell_formula_units_Z   1
loop_
 _symmetry_equiv_pos_site_id
 _symmetry_equiv_pos_as_xyz
  1  'x, y, z'
loop_
 _atom_site_type_symbol
 _atom_site_label
 _atom_site_symmetry_multiplicity
 _atom_site_fract_x
 _atom_site_fract_y
 _atom_site_fract_z
 _atom_site_occupancy
  Li  Li0  1  0.343830  0.671915  0.892592  1
  Li  Li1  1  0.973979  0.987034  0.983493  1
  Li  Li2  1  0.990357  0.995082  0.502335  1
  Li  Li3  1  0.646769  0.323427  0.401018  1
  Ti  Ti4  1  0.355160  0.677711  0.504137  1
  Ti  Ti5  1  0.715858  0.357910  0.974651  1
  Fe  Fe6  1  0.655949  0.827966  0.214651  1
  Fe  Fe7  1  0.840565  0.663078  0.710382  1
  Fe  Fe8  1  0.840462  0.177470  0.710523  1
  Sb  Sb9  1  0.162918  0.827968  0.215864  1
  Sb  Sb10  1  0.162975  0.334958  0.215912  1
  Sb  Sb11  1  0.352535  0.176282  0.716468  1
  O  O12  1  0.191992  0.846129  0.593741  1
  O  O13  1  0.020681  0.510373  0.337328  1
  O  O14  1  0.313422  0.656811  0.101441  1
  O  O15  1  0.002365  0.001055  0.315721  1
  O  O16  1  0.024376  0.012060  0.800399  1
  O  O17  1  0.191909  0.345864  0.593725  1
  O  O18  1  0.459510  0.947971  0.345400  1
  O  O19  1  0.459648  0.511704  0.345404  1
  O  O20  1  0.305868  0.152903  0.104245  1
  O  O21  1  0.656905  0.828569  0.586557  1
  O  O22  1  0.517135  0.472157  0.850058  1
  O  O23  1  0.517092  0.044980  0.850035  1
  O  O24  1  0.652796  0.326575  0.603349  1
  O  O25  1  0.840288  0.668689  0.092232  1
  O  O26  1  0.964521  0.482238  0.853956  1
  O  O27  1  0.840135  0.171418  0.092219  1
