# generated using pymatgen
data_V7(O2F3)3
_symmetry_space_group_name_H-M   'P 1'
_cell_length_a   9.95238388
_cell_length_b   18.14584971
_cell_length_c   5.09632360
_cell_angle_alpha   81.92746170
_cell_angle_beta   90.00000000
_cell_angle_gamma   90.00000000
_symmetry_Int_Tables_number   1
_chemical_formula_structural   V7(O2F3)3
_chemical_formula_sum   'V28 O24 F36'
_cell_volume   911.24796598
_cell_formula_units_Z   4
loop_
 _symmetry_equiv_pos_site_id
 _symmetry_equiv_pos_as_xyz
  1  'x, y, z'
loop_
 _atom_site_type_symbol
 _atom_site_label
 _atom_site_symmetry_multiplicity
 _atom_site_fract_x
 _atom_site_fract_y
 _atom_site_fract_z
 _atom_site_occupancy
  V  V0  1  0.148585  0.071611  0.686868  1
  V  V1  1  0.148117  0.929135  0.257194  1
  V  V2  1  0.146684  0.347803  0.563116  1
  V  V3  1  0.142186  0.653642  0.381136  1
  V  V4  1  0.144654  0.491791  0.046155  1
  V  V5  1  0.149736  0.210321  0.186449  1
  V  V6  1  0.148420  0.791164  0.894215  1
  V  V7  1  0.350264  0.789679  0.396770  1
  V  V8  1  0.351580  0.208836  0.685379  1
  V  V9  1  0.355346  0.508209  0.537947  1
  V  V10  1  0.357814  0.346358  0.034777  1
  V  V11  1  0.353316  0.652197  0.910918  1
  V  V12  1  0.351415  0.928389  0.758479  1
  V  V13  1  0.351883  0.070865  0.186329  1
  V  V14  1  0.648117  0.070865  0.686329  1
  V  V15  1  0.648585  0.928389  0.258479  1
  V  V16  1  0.642186  0.346358  0.534777  1
  V  V17  1  0.646684  0.652197  0.410918  1
  V  V18  1  0.644654  0.508209  0.037947  1
  V  V19  1  0.649736  0.789679  0.896770  1
  V  V20  1  0.648420  0.208836  0.185379  1
  V  V21  1  0.851580  0.791164  0.394215  1
  V  V22  1  0.850264  0.210321  0.686449  1
  V  V23  1  0.855346  0.491791  0.546155  1
  V  V24  1  0.857814  0.653642  0.881136  1
  V  V25  1  0.853316  0.347803  0.063116  1
  V  V26  1  0.851415  0.071611  0.186868  1
  V  V27  1  0.851883  0.929135  0.757194  1
  O  O28  1  0.236180  0.428309  0.792220  1
  O  O29  1  0.230541  0.142316  0.943442  1
  O  O30  1  0.230373  0.856522  0.584383  1
  O  O31  1  0.230569  0.282449  0.863715  1
  O  O32  1  0.231785  0.712121  0.650464  1
  O  O33  1  0.250000  0.000000  0.469530  1
  O  O34  1  0.250000  0.000000  0.968042  1
  O  O35  1  0.268215  0.287879  0.362586  1
  O  O36  1  0.269431  0.717551  0.146165  1
  O  O37  1  0.269459  0.857684  0.085757  1
  O  O38  1  0.269627  0.143478  0.440904  1
  O  O39  1  0.263820  0.571691  0.220529  1
  O  O40  1  0.736180  0.571691  0.720529  1
  O  O41  1  0.730541  0.857684  0.585757  1
  O  O42  1  0.730373  0.143478  0.940904  1
  O  O43  1  0.730569  0.717551  0.646165  1
  O  O44  1  0.731785  0.287879  0.862586  1
  O  O45  1  0.750000  0.000000  0.468042  1
  O  O46  1  0.750000  0.000000  0.969530  1
  O  O47  1  0.769431  0.282449  0.363715  1
  O  O48  1  0.768215  0.712121  0.150464  1
  O  O49  1  0.769459  0.142316  0.443442  1
  O  O50  1  0.769627  0.856522  0.084383  1
  O  O51  1  0.763820  0.428309  0.292220  1
  F  F52  1  0.001609  0.001970  0.148489  1
  F  F53  1  0.998391  0.001970  0.648489  1
  F  F54  1  0.025534  0.126084  0.344110  1
  F  F55  1  0.027006  0.878540  0.962221  1
  F  F56  1  0.030168  0.256631  0.508069  1
  F  F57  1  0.034628  0.752457  0.253350  1
  F  F58  1  0.046608  0.384825  0.197886  1
  F  F59  1  0.033018  0.628902  0.063979  1
  F  F60  1  0.035648  0.504167  0.379855  1
  F  F61  1  0.215331  0.569571  0.727795  1
  F  F62  1  0.284669  0.430429  0.297365  1
  F  F63  1  0.464352  0.495833  0.884023  1
  F  F64  1  0.466982  0.371098  0.692880  1
  F  F65  1  0.453392  0.615175  0.582711  1
  F  F66  1  0.465372  0.247543  0.005807  1
  F  F67  1  0.469832  0.743369  0.764699  1
  F  F68  1  0.472994  0.121460  0.840759  1
  F  F69  1  0.474466  0.873916  0.470193  1
  F  F70  1  0.498391  0.998030  0.150459  1
  F  F71  1  0.501609  0.998030  0.650459  1
  F  F72  1  0.525534  0.873916  0.970193  1
  F  F73  1  0.527006  0.121460  0.340759  1
  F  F74  1  0.530168  0.743369  0.264699  1
  F  F75  1  0.534628  0.247543  0.505807  1
  F  F76  1  0.546608  0.615175  0.082711  1
  F  F77  1  0.533018  0.371098  0.192880  1
  F  F78  1  0.535648  0.495833  0.384023  1
  F  F79  1  0.715331  0.430429  0.797365  1
  F  F80  1  0.784669  0.569571  0.227795  1
  F  F81  1  0.964352  0.504167  0.879855  1
  F  F82  1  0.966982  0.628902  0.563979  1
  F  F83  1  0.953392  0.384825  0.697886  1
  F  F84  1  0.969832  0.256631  0.008069  1
  F  F85  1  0.965372  0.752457  0.753350  1
  F  F86  1  0.972994  0.878540  0.462221  1
  F  F87  1  0.974466  0.126084  0.844110  1
