# generated using pymatgen
data_NaV2P2(H4O7)2
_symmetry_space_group_name_H-M   'P 1'
_cell_length_a   6.36877215
_cell_length_b   6.35893928
_cell_length_c   13.44634403
_cell_angle_alpha   80.17558681
_cell_angle_beta   87.32965418
_cell_angle_gamma   89.85888896
_symmetry_Int_Tables_number   1
_chemical_formula_structural   NaV2P2(H4O7)2
_chemical_formula_sum   'Na2 V4 P4 H16 O28'
_cell_volume   535.98180741
_cell_formula_units_Z   2
loop_
 _symmetry_equiv_pos_site_id
 _symmetry_equiv_pos_as_xyz
  1  'x, y, z'
loop_
 _atom_site_type_symbol
 _atom_site_label
 _atom_site_symmetry_multiplicity
 _atom_site_fract_x
 _atom_site_fract_y
 _atom_site_fract_z
 _atom_site_occupancy
  Na  Na0  1  0.414073  0.011409  0.747001  1
  Na  Na1  1  0.585927  0.988591  0.252999  1
  V  V2  1  0.241037  0.735994  0.546410  1
  V  V3  1  0.758963  0.264006  0.453590  1
  V  V4  1  0.755955  0.761147  0.952387  1
  V  V5  1  0.244045  0.238853  0.047614  1
  P  P6  1  0.748454  0.747416  0.502050  1
  P  P7  1  0.251546  0.252584  0.497950  1
  P  P8  1  0.749821  0.248687  0.001855  1
  P  P9  1  0.250179  0.751313  0.998145  1
  H  H10  1  0.348612  0.550352  0.742400  1
  H  H11  1  0.651388  0.449648  0.257600  1
  H  H12  1  0.157518  0.677132  0.785439  1
  H  H13  1  0.842482  0.322868  0.214561  1
  H  H14  1  0.819627  0.758674  0.728768  1
  H  H15  1  0.180373  0.241326  0.271232  1
  H  H16  1  0.864853  0.984229  0.755862  1
  H  H17  1  0.135147  0.015771  0.244138  1
  H  H18  1  0.080029  0.284216  0.692820  1
  H  H19  1  0.919971  0.715784  0.307180  1
  H  H20  1  0.020334  0.228409  0.811171  1
  H  H21  1  0.979666  0.771591  0.188829  1
  H  H22  1  0.617213  0.430837  0.689695  1
  H  H23  1  0.382787  0.569163  0.310305  1
  H  H24  1  0.615768  0.397088  0.810001  1
  H  H25  1  0.384232  0.602912  0.189999  1
  O  O26  1  0.251987  0.779954  0.423522  1
  O  O27  1  0.748013  0.220046  0.576478  1
  O  O28  1  0.221144  0.418997  0.569908  1
  O  O29  1  0.778856  0.581003  0.430092  1
  O  O30  1  0.263165  0.033034  0.568871  1
  O  O31  1  0.736835  0.966966  0.431129  1
  O  O32  1  0.933258  0.738766  0.574489  1
  O  O33  1  0.066742  0.261234  0.425511  1
  O  O34  1  0.546249  0.701186  0.571018  1
  O  O35  1  0.453751  0.298814  0.428982  1
  O  O36  1  0.450695  0.788582  0.927888  1
  O  O37  1  0.549305  0.211418  0.072112  1
  O  O38  1  0.066778  0.750983  0.926425  1
  O  O39  1  0.933222  0.249017  0.073575  1
  O  O40  1  0.748409  0.706394  0.073954  1
  O  O41  1  0.251591  0.293606  0.926046  1
  O  O42  1  0.740659  0.461070  0.924643  1
  O  O43  1  0.259341  0.538930  0.075357  1
  O  O44  1  0.776547  0.075236  0.934828  1
  O  O45  1  0.223453  0.924764  0.065172  1
  O  O46  1  0.248951  0.673673  0.724957  1
  O  O47  1  0.751049  0.326327  0.275043  1
  O  O48  1  0.769827  0.854863  0.774410  1
  O  O49  1  0.230173  0.145137  0.225590  1
  O  O50  1  0.052304  0.167456  0.750317  1
  O  O51  1  0.947696  0.832544  0.249683  1
  O  O52  1  0.536246  0.371468  0.751722  1
  O  O53  1  0.463754  0.628532  0.248278  1
