# generated using pymatgen
data_Mn2P4O13
_symmetry_space_group_name_H-M   'P 1'
_cell_length_a   7.15245054
_cell_length_b   8.79443874
_cell_length_c   8.25885187
_cell_angle_alpha   90.00000000
_cell_angle_beta   90.00000000
_cell_angle_gamma   66.00567103
_symmetry_Int_Tables_number   1
_chemical_formula_structural   Mn2P4O13
_chemical_formula_sum   'Mn4 P8 O26'
_cell_volume   474.60462541
_cell_formula_units_Z   2
loop_
 _symmetry_equiv_pos_site_id
 _symmetry_equiv_pos_as_xyz
  1  'x, y, z'
loop_
 _atom_site_type_symbol
 _atom_site_label
 _atom_site_symmetry_multiplicity
 _atom_site_fract_x
 _atom_site_fract_y
 _atom_site_fract_z
 _atom_site_occupancy
  Mn  Mn0  1  0.415085  0.709206  0.387145  1
  Mn  Mn1  1  0.875708  0.709206  0.612855  1
  Mn  Mn2  1  0.124292  0.290794  0.112855  1
  Mn  Mn3  1  0.584915  0.290794  0.887145  1
  P  P4  1  0.278320  0.881085  0.029004  1
  P  P5  1  0.840595  0.881085  0.970996  1
  P  P6  1  0.941837  0.672055  0.257732  1
  P  P7  1  0.386108  0.672055  0.742268  1
  P  P8  1  0.613892  0.327945  0.242268  1
  P  P9  1  0.058163  0.327945  0.757732  1
  P  P10  1  0.721680  0.118915  0.529004  1
  P  P11  1  0.159405  0.118915  0.470996  1
  O  O12  1  0.746167  0.944533  0.563457  1
  O  O13  1  0.309300  0.944533  0.436543  1
  O  O14  1  0.061079  0.877842  0.000000  1
  O  O15  1  0.791052  0.828505  0.143805  1
  O  O16  1  0.380442  0.828505  0.856195  1
  O  O17  1  0.844710  0.752826  0.848534  1
  O  O18  1  0.402465  0.752826  0.151466  1
  O  O19  1  0.108116  0.712110  0.330724  1
  O  O20  1  0.179775  0.712110  0.669276  1
  O  O21  1  0.538688  0.668502  0.608075  1
  O  O22  1  0.792810  0.668502  0.391925  1
  O  O23  1  0.472444  0.526296  0.859686  1
  O  O24  1  0.001261  0.526296  0.140314  1
  O  O25  1  0.527556  0.473704  0.359686  1
  O  O26  1  0.998739  0.473704  0.640314  1
  O  O27  1  0.461312  0.331498  0.108075  1
  O  O28  1  0.207190  0.331498  0.891925  1
  O  O29  1  0.891884  0.287890  0.830724  1
  O  O30  1  0.820225  0.287890  0.169276  1
  O  O31  1  0.155290  0.247174  0.348534  1
  O  O32  1  0.597535  0.247174  0.651466  1
  O  O33  1  0.619558  0.171495  0.356195  1
  O  O34  1  0.208948  0.171495  0.643805  1
  O  O35  1  0.938921  0.122158  0.500000  1
  O  O36  1  0.690700  0.055467  0.936543  1
  O  O37  1  0.253833  0.055467  0.063457  1
