# generated using pymatgen
data_Mn12O5F19
_symmetry_space_group_name_H-M   'P 1'
_cell_length_a   4.88158109
_cell_length_b   5.84931763
_cell_length_c   15.93277738
_cell_angle_alpha   89.38072386
_cell_angle_beta   90.01206118
_cell_angle_gamma   86.67807709
_symmetry_Int_Tables_number   1
_chemical_formula_structural   Mn12O5F19
_chemical_formula_sum   'Mn12 O5 F19'
_cell_volume   454.15210265
_cell_formula_units_Z   1
loop_
 _symmetry_equiv_pos_site_id
 _symmetry_equiv_pos_as_xyz
  1  'x, y, z'
loop_
 _atom_site_type_symbol
 _atom_site_label
 _atom_site_symmetry_multiplicity
 _atom_site_fract_x
 _atom_site_fract_y
 _atom_site_fract_z
 _atom_site_occupancy
  Mn  Mn0  1  0.010982  0.147568  0.422218  1
  Mn  Mn1  1  0.994224  0.851358  0.245882  1
  Mn  Mn2  1  0.976040  0.164787  0.084701  1
  Mn  Mn3  1  0.019189  0.151595  0.751369  1
  Mn  Mn4  1  0.024704  0.833441  0.582589  1
  Mn  Mn5  1  0.004733  0.827939  0.907714  1
  Mn  Mn6  1  0.494504  0.357412  0.586086  1
  Mn  Mn7  1  0.506774  0.329867  0.924556  1
  Mn  Mn8  1  0.514906  0.321255  0.249024  1
  Mn  Mn9  1  0.521105  0.645011  0.082257  1
  Mn  Mn10  1  0.487035  0.675395  0.418392  1
  Mn  Mn11  1  0.470315  0.668421  0.746382  1
  O  O12  1  0.215385  0.882416  0.479569  1
  O  O13  1  0.221638  0.881623  0.801382  1
  O  O14  1  0.285300  0.628530  0.641277  1
  O  O15  1  0.721953  0.381133  0.031865  1
  O  O16  1  0.790044  0.112787  0.187195  1
  F  F17  1  0.238057  0.101734  0.308520  1
  F  F18  1  0.231811  0.131331  0.641347  1
  F  F19  1  0.200060  0.122304  0.977740  1
  F  F20  1  0.241684  0.889836  0.130489  1
  F  F21  1  0.265742  0.398264  0.140783  1
  F  F22  1  0.267289  0.611942  0.302709  1
  F  F23  1  0.273725  0.386041  0.470983  1
  F  F24  1  0.265625  0.381325  0.814413  1
  F  F25  1  0.273805  0.617172  0.975193  1
  F  F26  1  0.727686  0.616480  0.196357  1
  F  F27  1  0.734909  0.388587  0.365032  1
  F  F28  1  0.740994  0.603036  0.526403  1
  F  F29  1  0.702083  0.623849  0.852741  1
  F  F30  1  0.728622  0.390949  0.702467  1
  F  F31  1  0.767685  0.105402  0.534521  1
  F  F32  1  0.762556  0.897811  0.359031  1
  F  F33  1  0.764496  0.874843  0.017607  1
  F  F34  1  0.769094  0.117529  0.856059  1
  F  F35  1  0.785247  0.881028  0.685147  1
