# generated using pymatgen
data_Li3Sn2(PO4)3
_symmetry_space_group_name_H-M   'P 1'
_cell_length_a   5.05430998
_cell_length_b   5.05430998
_cell_length_c   20.42423907
_cell_angle_alpha   90.18471681
_cell_angle_beta   90.18471681
_cell_angle_gamma   66.37278619
_symmetry_Int_Tables_number   1
_chemical_formula_structural   Li3Sn2(PO4)3
_chemical_formula_sum   'Li6 Sn4 P6 O24'
_cell_volume   478.01733817
_cell_formula_units_Z   2
loop_
 _symmetry_equiv_pos_site_id
 _symmetry_equiv_pos_as_xyz
  1  'x, y, z'
loop_
 _atom_site_type_symbol
 _atom_site_label
 _atom_site_symmetry_multiplicity
 _atom_site_fract_x
 _atom_site_fract_y
 _atom_site_fract_z
 _atom_site_occupancy
  Li  Li0  1  0.006465  0.006465  0.816153  1
  Li  Li1  1  0.335674  0.335674  0.579116  1
  Li  Li2  1  0.332797  0.332797  0.892388  1
  Li  Li3  1  0.667203  0.667203  0.440946  1
  Li  Li4  1  0.993535  0.993535  0.517180  1
  Li  Li5  1  0.664326  0.664326  0.754217  1
  Sn  Sn6  1  0.000000  0.000000  0.166667  1
  Sn  Sn7  1  0.001069  0.001069  0.986679  1
  Sn  Sn8  1  0.998931  0.998931  0.346654  1
  Sn  Sn9  1  0.000000  0.000000  0.666667  1
  P  P10  1  0.347142  0.347142  0.421885  1
  P  P11  1  0.357579  0.357579  0.063142  1
  P  P12  1  0.359000  0.359000  0.752435  1
  P  P13  1  0.642421  0.642421  0.270191  1
  P  P14  1  0.641000  0.641000  0.580898  1
  P  P15  1  0.652858  0.652858  0.911448  1
  O  O16  1  0.235058  0.700142  0.060059  1
  O  O17  1  0.241482  0.690519  0.417205  1
  O  O18  1  0.247837  0.695241  0.759328  1
  O  O19  1  0.299858  0.764942  0.273275  1
  O  O20  1  0.304759  0.752163  0.574005  1
  O  O21  1  0.309481  0.758518  0.916129  1
  O  O22  1  0.728882  0.728882  0.205404  1
  O  O23  1  0.760520  0.760520  0.524395  1
  O  O24  1  0.746795  0.746795  0.849762  1
  O  O25  1  0.248797  0.248797  0.000629  1
  O  O26  1  0.271118  0.271118  0.127929  1
  O  O27  1  0.240453  0.240453  0.359557  1
  O  O28  1  0.759547  0.759547  0.973777  1
  O  O29  1  0.751203  0.751203  0.332705  1
  O  O30  1  0.253205  0.253205  0.483571  1
  O  O31  1  0.717588  0.717588  0.649632  1
  O  O32  1  0.282412  0.282412  0.683701  1
  O  O33  1  0.239480  0.239480  0.808938  1
  O  O34  1  0.764942  0.299858  0.273275  1
  O  O35  1  0.758518  0.309481  0.916129  1
  O  O36  1  0.752163  0.304759  0.574005  1
  O  O37  1  0.700142  0.235058  0.060059  1
  O  O38  1  0.695241  0.247837  0.759328  1
  O  O39  1  0.690519  0.241482  0.417205  1
