# generated using pymatgen
data_Zn(NO3)2
_symmetry_space_group_name_H-M   'P 1'
_cell_length_a   7.62162380
_cell_length_b   7.62154444
_cell_length_c   7.62096283
_cell_angle_alpha   90.01151823
_cell_angle_beta   89.99419081
_cell_angle_gamma   89.98196399
_symmetry_Int_Tables_number   1
_chemical_formula_structural   Zn(NO3)2
_chemical_formula_sum   'Zn4 N8 O24'
_cell_volume   442.69060562
_cell_formula_units_Z   4
loop_
 _symmetry_equiv_pos_site_id
 _symmetry_equiv_pos_as_xyz
  1  'x, y, z'
loop_
 _atom_site_type_symbol
 _atom_site_label
 _atom_site_symmetry_multiplicity
 _atom_site_fract_x
 _atom_site_fract_y
 _atom_site_fract_z
 _atom_site_occupancy
  Zn  Zn0  1  0.000019  0.999995  0.999990  1
  Zn  Zn1  1  0.999999  0.499997  0.499996  1
  Zn  Zn2  1  0.499980  0.000001  0.500016  1
  Zn  Zn3  1  0.499992  0.499985  0.000001  1
  N  N4  1  0.165535  0.665821  0.834156  1
  N  N5  1  0.165855  0.834328  0.334341  1
  N  N6  1  0.334350  0.334043  0.334416  1
  N  N7  1  0.334046  0.165412  0.834168  1
  N  N8  1  0.665603  0.666023  0.665577  1
  N  N9  1  0.665867  0.834485  0.165805  1
  N  N10  1  0.834201  0.165678  0.665688  1
  N  N11  1  0.834487  0.334224  0.165903  1
  O  O12  1  0.045076  0.720514  0.327196  1
  O  O13  1  0.045235  0.779328  0.827212  1
  O  O14  1  0.172757  0.954903  0.220554  1
  O  O15  1  0.172782  0.545105  0.720602  1
  O  O16  1  0.220616  0.172823  0.954847  1
  O  O17  1  0.220592  0.327230  0.454832  1
  O  O18  1  0.279382  0.827205  0.454812  1
  O  O19  1  0.279522  0.672769  0.954939  1
  O  O20  1  0.327231  0.455008  0.220473  1
  O  O21  1  0.327224  0.045260  0.720677  1
  O  O22  1  0.454784  0.220686  0.327181  1
  O  O23  1  0.455035  0.279560  0.827227  1
  O  O24  1  0.545039  0.720479  0.172787  1
  O  O25  1  0.545245  0.779291  0.672823  1
  O  O26  1  0.672753  0.954814  0.279347  1
  O  O27  1  0.672776  0.544979  0.779547  1
  O  O28  1  0.720600  0.172779  0.545152  1
  O  O29  1  0.720471  0.327227  0.045038  1
  O  O30  1  0.779416  0.672770  0.545167  1
  O  O31  1  0.779402  0.827207  0.045152  1
  O  O32  1  0.827245  0.045089  0.779431  1
  O  O33  1  0.827216  0.454872  0.279372  1
  O  O34  1  0.954777  0.220675  0.172782  1
  O  O35  1  0.954910  0.279454  0.672792  1
