# generated using pymatgen
data_Li6V3P8O29
_symmetry_space_group_name_H-M   'P 1'
_cell_length_a   9.82479658
_cell_length_b   9.79772912
_cell_length_c   13.97464680
_cell_angle_alpha   89.68375231
_cell_angle_beta   89.73213971
_cell_angle_gamma   59.74612280
_symmetry_Int_Tables_number   1
_chemical_formula_structural   Li6V3P8O29
_chemical_formula_sum   'Li12 V6 P16 O58'
_cell_volume   1161.97313156
_cell_formula_units_Z   2
loop_
 _symmetry_equiv_pos_site_id
 _symmetry_equiv_pos_as_xyz
  1  'x, y, z'
loop_
 _atom_site_type_symbol
 _atom_site_label
 _atom_site_symmetry_multiplicity
 _atom_site_fract_x
 _atom_site_fract_y
 _atom_site_fract_z
 _atom_site_occupancy
  Li  Li0  1  0.907980  0.761591  0.064775  1
  Li  Li1  1  0.760076  0.900498  0.561958  1
  Li  Li2  1  0.902076  0.332583  0.558829  1
  Li  Li3  1  0.663823  0.674541  0.885765  1
  Li  Li4  1  0.766194  0.324215  0.060980  1
  Li  Li5  1  0.327160  0.905670  0.060696  1
  Li  Li6  1  0.664451  0.233522  0.440165  1
  Li  Li7  1  0.336398  0.758058  0.561837  1
  Li  Li8  1  0.235529  0.099057  0.438971  1
  Li  Li9  1  0.099671  0.235097  0.940107  1
  Li  Li10  1  0.989220  0.964232  0.995657  1
  Li  Li11  1  0.015047  0.948743  0.494206  1
  V  V12  1  0.563562  0.436581  0.249596  1
  V  V13  1  0.433849  0.561697  0.753965  1
  V  V14  1  0.562942  0.003655  0.751526  1
  V  V15  1  0.436145  0.001050  0.246987  1
  V  V16  1  0.003191  0.566646  0.252460  1
  V  V17  1  0.000364  0.438735  0.745251  1
  P  P18  1  0.908383  0.776267  0.846669  1
  P  P19  1  0.771424  0.913665  0.343476  1
  P  P20  1  0.912282  0.313783  0.341551  1
  P  P21  1  0.669913  0.665157  0.127476  1
  P  P22  1  0.661306  0.668764  0.629561  1
  P  P23  1  0.779242  0.314550  0.842349  1
  P  P24  1  0.690452  0.225873  0.657875  1
  P  P25  1  0.313908  0.909927  0.842105  1
  P  P26  1  0.694024  0.085297  0.158278  1
  P  P27  1  0.312520  0.775022  0.344737  1
  P  P28  1  0.221570  0.695946  0.159376  1
  P  P29  1  0.333375  0.331799  0.368169  1
  P  P30  1  0.331485  0.330998  0.870904  1
  P  P31  1  0.082689  0.698600  0.661030  1
  P  P32  1  0.227753  0.086379  0.656375  1
  P  P33  1  0.085988  0.229468  0.157512  1
  O  O34  1  0.986942  0.803876  0.580019  1
  O  O35  1  0.911532  0.744457  0.337329  1
  O  O36  1  0.801919  0.993400  0.077696  1
  O  O37  1  0.741549  0.917405  0.837798  1
  O  O38  1  0.897064  0.624963  0.831136  1
  O  O39  1  0.813090  0.676527  0.165529  1
  O  O40  1  0.906947  0.471051  0.328568  1
  O  O41  1  0.000616  0.228082  0.068037  1
  O  O42  1  0.924169  0.338902  0.836247  1
  O  O43  1  0.670936  0.812787  0.671373  1
  O  O44  1  0.615524  0.915309  0.330001  1
  O  O45  1  0.809119  0.512491  0.667703  1
  O  O46  1  0.670679  0.662628  0.019158  1
  O  O47  1  0.656821  0.672524  0.522636  1
  O  O48  1  0.680217  0.510741  0.167999  1
  O  O49  1  0.478693  0.894887  0.830421  1
  O  O50  1  0.513400  0.810508  0.164999  1
  O  O51  1  0.745041  0.334870  0.340966  1
  O  O52  1  0.796494  0.206723  0.751447  1
  O  O53  1  0.779955  0.223623  0.568514  1
  O  O54  1  0.786752  0.230063  0.933307  1
  O  O55  1  0.628969  0.480040  0.830435  1
  O  O56  1  0.509845  0.675024  0.673045  1
  O  O57  1  0.659763  0.258444  0.158863  1
  O  O58  1  0.468989  0.617643  0.330506  1
  O  O59  1  0.340289  0.917576  0.336456  1
  O  O60  1  0.790033  0.011867  0.257321  1
  O  O61  1  0.777098  0.993899  0.435034  1
  O  O62  1  0.224492  0.997686  0.568718  1
  O  O63  1  0.667569  0.081939  0.658686  1
  O  O64  1  0.534665  0.381827  0.669199  1
  O  O65  1  0.336574  0.744491  0.841256  1
  O  O66  1  0.490017  0.320931  0.329080  1
  O  O67  1  0.380176  0.541700  0.168172  1
  O  O68  1  0.205527  0.803720  0.077829  1
  O  O69  1  0.229288  0.787048  0.437476  1
  O  O70  1  0.198446  0.792774  0.258419  1
  O  O71  1  0.253756  0.661864  0.658024  1
  O  O72  1  0.477309  0.184074  0.822933  1
  O  O73  1  0.540313  0.081306  0.166212  1
  O  O74  1  0.337502  0.475880  0.825232  1
  O  O75  1  0.333573  0.324996  0.976800  1
  O  O76  1  0.335463  0.322966  0.474983  1
  O  O77  1  0.193192  0.483568  0.323476  1
  O  O78  1  0.381647  0.087633  0.666723  1
  O  O79  1  0.323107  0.187605  0.325597  1
  O  O80  1  0.082388  0.664415  0.159836  1
  O  O81  1  0.011394  0.788686  0.760515  1
  O  O82  1  0.985626  0.779166  0.938321  1
  O  O83  1  0.075509  0.543537  0.668380  1
  O  O84  1  0.183548  0.332127  0.828476  1
  O  O85  1  0.085803  0.384310  0.170933  1
  O  O86  1  0.256054  0.085549  0.157424  1
  O  O87  1  0.228319  0.002325  0.930659  1
  O  O88  1  0.205925  0.002478  0.750549  1
  O  O89  1  0.082070  0.255345  0.656079  1
  O  O90  1  0.000272  0.223502  0.430520  1
  O  O91  1  0.000434  0.203756  0.249299  1
