# generated using pymatgen
data_K9Mg3Nb5(PO5)8
_symmetry_space_group_name_H-M   'P 1'
_cell_length_a   7.02539171
_cell_length_b   6.86882721
_cell_length_c   25.24510038
_cell_angle_alpha   93.06094513
_cell_angle_beta   92.67632115
_cell_angle_gamma   89.67852365
_symmetry_Int_Tables_number   1
_chemical_formula_structural   K9Mg3Nb5(PO5)8
_chemical_formula_sum   'K9 Mg3 Nb5 P8 O40'
_cell_volume   1215.16178799
_cell_formula_units_Z   1
loop_
 _symmetry_equiv_pos_site_id
 _symmetry_equiv_pos_as_xyz
  1  'x, y, z'
loop_
 _atom_site_type_symbol
 _atom_site_label
 _atom_site_symmetry_multiplicity
 _atom_site_fract_x
 _atom_site_fract_y
 _atom_site_fract_z
 _atom_site_occupancy
  K  K0  1  0.163650  0.465191  0.337518  1
  K  K1  1  0.001598  0.339815  0.725076  1
  K  K2  1  0.264343  0.699504  0.948131  1
  K  K3  1  0.381969  0.828484  0.456502  1
  K  K4  1  0.429839  0.090766  0.833535  1
  K  K5  1  0.650394  0.202077  0.142219  1
  K  K6  1  0.659209  0.682312  0.103654  1
  K  K7  1  0.722801  0.340428  0.252585  1
  K  K8  1  0.773314  0.751589  0.632555  1
  Mg  Mg9  1  0.292847  0.594536  0.613032  1
  Mg  Mg10  1  0.646675  0.340721  0.388397  1
  Mg  Mg11  1  0.815810  0.674141  0.876104  1
  Nb  Nb12  1  0.202611  0.501913  0.147143  1
  Nb  Nb13  1  0.700660  0.385913  0.949235  1
  Nb  Nb14  1  0.399280  0.189817  0.021013  1
  Nb  Nb15  1  0.517831  0.268726  0.516939  1
  Nb  Nb16  1  0.481686  0.791154  0.263330  1
  P  P17  1  0.982097  0.863429  0.262285  1
  P  P18  1  0.975831  0.800682  0.783854  1
  P  P19  1  0.090327  0.016999  0.139518  1
  P  P20  1  0.141450  0.022601  0.622006  1
  P  P21  1  0.976242  0.988260  0.346878  1
  P  P22  1  0.936859  0.072515  0.874733  1
  P  P23  1  0.970053  0.322886  0.486021  1
  P  P24  1  0.930102  0.980029  0.008291  1
  O  O25  1  0.262538  0.433099  0.077915  1
  O  O26  1  0.952299  0.472744  0.164157  1
  O  O27  1  0.948671  0.114273  0.617961  1
  O  O28  1  0.053366  0.488202  0.635144  1
  O  O29  1  0.158590  0.236099  0.498789  1
  O  O30  1  0.139504  0.049840  0.020410  1
  O  O31  1  0.164735  0.741534  0.262272  1
  O  O32  1  0.166110  0.900418  0.792131  1
  O  O33  1  0.239434  0.176631  0.151448  1
  O  O34  1  0.176678  0.810313  0.140656  1
  O  O35  1  0.296398  0.093588  0.659934  1
  O  O36  1  0.163346  0.837008  0.587558  1
  O  O37  1  0.554334  0.431508  0.015027  1
  O  O38  1  0.419337  0.538028  0.197245  1
  O  O39  1  0.428441  0.499260  0.549604  1
  O  O40  1  0.523028  0.419076  0.757841  1
  O  O41  1  0.435625  0.111636  0.952158  1
  O  O42  1  0.522427  0.209505  0.443058  1
  O  O43  1  0.825613  0.934253  0.824138  1
  O  O44  1  0.458402  0.965166  0.318316  1
  O  O45  1  0.521532  0.014342  0.061801  1
  O  O46  1  0.490023  0.045785  0.548225  1
  O  O47  1  0.463102  0.659257  0.676048  1
  O  O48  1  0.527835  0.951540  0.211719  1
  O  O49  1  0.517142  0.525002  0.798980  1
  O  O50  1  0.580157  0.569322  0.906481  1
  O  O51  1  0.485933  0.569671  0.379590  1
  O  O52  1  0.536919  0.529849  0.322070  1
  O  O53  1  0.845636  0.164707  0.349952  1
  O  O54  1  0.027236  0.862052  0.391694  1
  O  O55  1  0.745295  0.189813  0.889045  1
  O  O56  1  0.947794  0.902598  0.917301  1
  O  O57  1  0.815407  0.322548  0.525094  1
  O  O58  1  0.807954  0.159606  0.001464  1
  O  O59  1  0.801877  0.740106  0.266098  1
  O  O60  1  0.886006  0.795039  0.728616  1
  O  O61  1  0.972915  0.042095  0.230326  1
  O  O62  1  0.922301  0.409268  0.433801  1
  O  O63  1  0.962503  0.604498  0.812142  1
  O  O64  1  0.933278  0.498932  0.949487  1
