# generated using pymatgen
data_LiFe2(BO3)2
_symmetry_space_group_name_H-M   'P 1'
_cell_length_a   5.27131727
_cell_length_b   9.12548193
_cell_length_c   10.18063929
_cell_angle_alpha   90.43274382
_cell_angle_beta   90.77970370
_cell_angle_gamma   89.72654950
_symmetry_Int_Tables_number   1
_chemical_formula_structural   LiFe2(BO3)2
_chemical_formula_sum   'Li4 Fe8 B8 O24'
_cell_volume   489.65780054
_cell_formula_units_Z   4
loop_
 _symmetry_equiv_pos_site_id
 _symmetry_equiv_pos_as_xyz
  1  'x, y, z'
loop_
 _atom_site_type_symbol
 _atom_site_label
 _atom_site_symmetry_multiplicity
 _atom_site_fract_x
 _atom_site_fract_y
 _atom_site_fract_z
 _atom_site_occupancy
  Li  Li0  1  0.340747  0.011021  0.844348  1
  Li  Li1  1  0.657375  0.993899  0.127791  1
  Li  Li2  1  0.851776  0.486565  0.334349  1
  Li  Li3  1  0.845303  0.510401  0.832096  1
  Fe  Fe4  1  0.161389  0.172975  0.122837  1
  Fe  Fe5  1  0.840645  0.152030  0.373172  1
  Fe  Fe6  1  0.336492  0.345417  0.870523  1
  Fe  Fe7  1  0.649780  0.327972  0.617940  1
  Fe  Fe8  1  0.341121  0.675447  0.367150  1
  Fe  Fe9  1  0.154996  0.829072  0.623745  1
  Fe  Fe10  1  0.655067  0.657178  0.116291  1
  Fe  Fe11  1  0.839971  0.842401  0.872668  1
  B  B12  1  0.153458  0.165475  0.626257  1
  B  B13  1  0.338288  0.344378  0.367498  1
  B  B14  1  0.832559  0.170262  0.873797  1
  B  B15  1  0.662488  0.322840  0.124773  1
  B  B16  1  0.340814  0.667952  0.867352  1
  B  B17  1  0.660826  0.667392  0.623289  1
  B  B18  1  0.156132  0.843834  0.124902  1
  B  B19  1  0.831967  0.822416  0.367134  1
  O  O20  1  0.244333  0.028170  0.650470  1
  O  O21  1  0.086792  0.173057  0.915726  1
  O  O22  1  0.692938  0.044596  0.884531  1
  O  O23  1  0.209101  0.222192  0.318663  1
  O  O24  1  0.302373  0.286079  0.659128  1
  O  O25  1  0.795456  0.192448  0.154428  1
  O  O26  1  0.911828  0.186701  0.574667  1
  O  O27  1  0.419583  0.308794  0.072715  1
  O  O28  1  0.218739  0.478467  0.367482  1
  O  O29  1  0.589134  0.331443  0.415777  1
  O  O30  1  0.724953  0.299951  0.822935  1
  O  O31  1  0.194943  0.545578  0.868272  1
  O  O32  1  0.769923  0.454640  0.148064  1
  O  O33  1  0.289958  0.724577  0.175996  1
  O  O34  1  0.424050  0.695407  0.566624  1
  O  O35  1  0.744962  0.527470  0.641963  1
  O  O36  1  0.596014  0.664600  0.906588  1
  O  O37  1  0.073738  0.811336  0.426493  1
  O  O38  1  0.233815  0.802506  0.825251  1
  O  O39  1  0.709938  0.688509  0.337894  1
  O  O40  1  0.808415  0.784296  0.666246  1
  O  O41  1  0.284869  0.975254  0.113071  1
  O  O42  1  0.905754  0.831651  0.083429  1
  O  O43  1  0.726504  0.952135  0.336804  1
