# generated using pymatgen
data_BaLaI5
_symmetry_space_group_name_H-M   'P 1'
_cell_length_a   8.55165527
_cell_length_b   27.08204128
_cell_length_c   11.99812445
_cell_angle_alpha   90.00000000
_cell_angle_beta   89.89696022
_cell_angle_gamma   90.00000000
_symmetry_Int_Tables_number   1
_chemical_formula_structural   BaLaI5
_chemical_formula_sum   'Ba8 La8 I40'
_cell_volume   2778.71651086
_cell_formula_units_Z   8
loop_
 _symmetry_equiv_pos_site_id
 _symmetry_equiv_pos_as_xyz
  1  'x, y, z'
loop_
 _atom_site_type_symbol
 _atom_site_label
 _atom_site_symmetry_multiplicity
 _atom_site_fract_x
 _atom_site_fract_y
 _atom_site_fract_z
 _atom_site_occupancy
  Ba  Ba0  1  0.122494  0.524464  0.739658  1
  Ba  Ba1  1  0.339602  0.258021  0.500790  1
  Ba  Ba2  1  0.377506  0.024464  0.760342  1
  Ba  Ba3  1  0.160398  0.758021  0.999210  1
  Ba  Ba4  1  0.839602  0.241979  0.000790  1
  Ba  Ba5  1  0.622494  0.975536  0.239658  1
  Ba  Ba6  1  0.660398  0.741979  0.499210  1
  Ba  Ba7  1  0.877506  0.475536  0.260342  1
  La  La8  1  0.266198  0.374212  0.949959  1
  La  La9  1  0.233802  0.874212  0.550041  1
  La  La10  1  0.239856  0.114507  0.109244  1
  La  La11  1  0.260144  0.614507  0.390756  1
  La  La12  1  0.739856  0.385493  0.609244  1
  La  La13  1  0.760144  0.885493  0.890756  1
  La  La14  1  0.766198  0.125788  0.449959  1
  La  La15  1  0.733802  0.625788  0.050041  1
  I  I16  1  0.064368  0.117459  0.882971  1
  I  I17  1  0.052434  0.349213  0.500399  1
  I  I18  1  0.079467  0.162806  0.552022  1
  I  I19  1  0.088733  0.923174  0.776424  1
  I  I20  1  0.055963  0.591215  0.175130  1
  I  I21  1  0.038769  0.361769  0.155808  1
  I  I22  1  0.167663  0.271384  0.843150  1
  I  I23  1  0.132876  0.217356  0.207075  1
  I  I24  1  0.241233  0.987129  0.491553  1
  I  I25  1  0.213530  0.499933  0.435149  1
  I  I26  1  0.332337  0.771384  0.656850  1
  I  I27  1  0.286470  0.999933  0.064851  1
  I  I28  1  0.258767  0.487129  0.008447  1
  I  I29  1  0.367124  0.717356  0.292925  1
  I  I30  1  0.411267  0.423174  0.723576  1
  I  I31  1  0.420533  0.662806  0.947978  1
  I  I32  1  0.461231  0.861769  0.344192  1
  I  I33  1  0.444037  0.091215  0.324870  1
  I  I34  1  0.447566  0.849213  0.999601  1
  I  I35  1  0.435632  0.617459  0.617029  1
  I  I36  1  0.564368  0.382541  0.382971  1
  I  I37  1  0.552434  0.150787  0.000399  1
  I  I38  1  0.555963  0.908785  0.675130  1
  I  I39  1  0.538769  0.138231  0.655808  1
  I  I40  1  0.579467  0.337194  0.052022  1
  I  I41  1  0.588733  0.576826  0.276425  1
  I  I42  1  0.632876  0.282644  0.707075  1
  I  I43  1  0.741233  0.512871  0.991553  1
  I  I44  1  0.713530  0.000067  0.935149  1
  I  I45  1  0.667663  0.228616  0.343150  1
  I  I46  1  0.786470  0.500067  0.564851  1
  I  I47  1  0.758767  0.012871  0.508447  1
  I  I48  1  0.867124  0.782644  0.792925  1
  I  I49  1  0.832337  0.728616  0.156850  1
  I  I50  1  0.961231  0.638231  0.844192  1
  I  I51  1  0.944037  0.408785  0.824870  1
  I  I52  1  0.911267  0.076826  0.223576  1
  I  I53  1  0.920533  0.837194  0.447978  1
  I  I54  1  0.947566  0.650787  0.499601  1
  I  I55  1  0.935632  0.882541  0.117029  1
