# generated using pymatgen
data_MnPO4
_symmetry_space_group_name_H-M   'P 1'
_cell_length_a   6.88497588
_cell_length_b   8.95155348
_cell_length_c   8.95155861
_cell_angle_alpha   95.53387988
_cell_angle_beta   63.30613708
_cell_angle_gamma   116.69377729
_symmetry_Int_Tables_number   1
_chemical_formula_structural   MnPO4
_chemical_formula_sum   'Mn6 P6 O24'
_cell_volume   436.50923959
_cell_formula_units_Z   6
loop_
 _symmetry_equiv_pos_site_id
 _symmetry_equiv_pos_as_xyz
  1  'x, y, z'
loop_
 _atom_site_type_symbol
 _atom_site_label
 _atom_site_symmetry_multiplicity
 _atom_site_fract_x
 _atom_site_fract_y
 _atom_site_fract_z
 _atom_site_occupancy
  Mn  Mn0  1  0.808244  0.380888  0.935922  1
  Mn  Mn1  1  0.749998  0.726784  0.726785  1
  Mn  Mn2  1  0.308254  0.064073  0.619117  1
  Mn  Mn3  1  0.691746  0.935927  0.380883  1
  Mn  Mn4  1  0.250002  0.273216  0.273215  1
  Mn  Mn5  1  0.191756  0.619112  0.064078  1
  P  P6  1  0.847574  0.120807  0.652764  1
  P  P7  1  0.749995  0.292966  0.292966  1
  P  P8  1  0.347573  0.347235  0.879195  1
  P  P9  1  0.652427  0.652765  0.120805  1
  P  P10  1  0.250005  0.707034  0.707034  1
  P  P11  1  0.152426  0.879193  0.347236  1
  O  O12  1  0.746902  0.185052  0.820598  1
  O  O13  1  0.866600  0.170961  0.265459  1
  O  O14  1  0.645233  0.041543  0.591738  1
  O  O15  1  0.955069  0.472446  0.270342  1
  O  O16  1  0.919187  0.736477  0.482474  1
  O  O17  1  0.908580  0.980549  0.682313  1
  O  O18  1  0.591422  0.682317  0.980548  1
  O  O19  1  0.580819  0.482471  0.736482  1
  O  O20  1  0.544920  0.270339  0.472448  1
  O  O21  1  0.854763  0.591735  0.041540  1
  O  O22  1  0.633394  0.265459  0.170960  1
  O  O23  1  0.246893  0.179402  0.814951  1
  O  O24  1  0.753107  0.820598  0.185049  1
  O  O25  1  0.366606  0.734541  0.829040  1
  O  O26  1  0.145237  0.408265  0.958460  1
  O  O27  1  0.455080  0.729661  0.527552  1
  O  O28  1  0.419181  0.517529  0.263518  1
  O  O29  1  0.408578  0.317683  0.019452  1
  O  O30  1  0.091420  0.019451  0.317687  1
  O  O31  1  0.080813  0.263523  0.517526  1
  O  O32  1  0.044931  0.527554  0.729658  1
  O  O33  1  0.354767  0.958457  0.408262  1
  O  O34  1  0.133400  0.829039  0.734541  1
  O  O35  1  0.253098  0.814948  0.179402  1
