# generated using pymatgen
data_Li3MnV(PO4)3
_symmetry_space_group_name_H-M   'P 1'
_cell_length_a   9.88910276
_cell_length_b   9.88910264
_cell_length_c   9.80683062
_cell_angle_alpha   87.05460921
_cell_angle_beta   92.94539072
_cell_angle_gamma   95.45147976
_symmetry_Int_Tables_number   1
_chemical_formula_structural   Li3MnV(PO4)3
_chemical_formula_sum   'Li12 Mn4 V4 P12 O48'
_cell_volume   952.41001800
_cell_formula_units_Z   4
loop_
 _symmetry_equiv_pos_site_id
 _symmetry_equiv_pos_as_xyz
  1  'x, y, z'
loop_
 _atom_site_type_symbol
 _atom_site_label
 _atom_site_symmetry_multiplicity
 _atom_site_fract_x
 _atom_site_fract_y
 _atom_site_fract_z
 _atom_site_occupancy
  Li  Li0  1  0.013644  0.512723  0.250277  1
  Li  Li1  1  0.983750  0.258055  0.383954  1
  Li  Li2  1  0.226736  0.567006  0.460831  1
  Li  Li3  1  0.222506  0.734346  0.176547  1
  Li  Li4  1  0.258055  0.983750  0.616046  1
  Li  Li5  1  0.378615  0.746982  0.822638  1
  Li  Li6  1  0.512723  0.013644  0.749723  1
  Li  Li7  1  0.567006  0.226736  0.539169  1
  Li  Li8  1  0.679894  0.913309  0.982467  1
  Li  Li9  1  0.734346  0.222506  0.823453  1
  Li  Li10  1  0.746982  0.378615  0.177362  1
  Li  Li11  1  0.913309  0.679894  0.017533  1
  Mn  Mn12  1  0.469674  0.469674  1.000000  1
  Mn  Mn13  1  0.737204  0.974316  0.276939  1
  Mn  Mn14  1  0.756759  0.756759  0.500000  1
  Mn  Mn15  1  0.974316  0.737204  0.723061  1
  V  V16  1  0.029926  0.248871  0.783162  1
  V  V17  1  0.245849  0.245849  0.000000  1
  V  V18  1  0.248871  0.029926  0.216838  1
  V  V19  1  0.534182  0.534182  0.500000  1
  P  P20  1  0.054901  0.815642  0.408138  1
  P  P21  1  0.174440  0.944192  0.900926  1
  P  P22  1  0.160385  0.548436  0.932949  1
  P  P23  1  0.318421  0.340319  0.302304  1
  P  P24  1  0.340319  0.318421  0.697696  1
  P  P25  1  0.444133  0.841383  0.421884  1
  P  P26  1  0.548436  0.160385  0.067051  1
  P  P27  1  0.651603  0.684008  0.798008  1
  P  P28  1  0.684008  0.651603  0.201992  1
  P  P29  1  0.841383  0.444133  0.578116  1
  P  P30  1  0.815642  0.054901  0.591862  1
  P  P31  1  0.944192  0.174440  0.099074  1
  O  O32  1  0.035391  0.866977  0.862619  1
  O  O33  1  0.090917  0.824102  0.563554  1
  O  O34  1  0.111610  0.608986  0.794691  1
  O  O35  1  0.113504  0.950891  0.336630  1
  O  O36  1  0.107138  0.691142  0.346490  1
  O  O37  1  0.125204  0.387881  0.928928  1
  O  O38  1  0.094671  0.599229  0.057496  1
  O  O39  1  0.102295  0.160149  0.125968  1
  O  O40  1  0.160149  0.102295  0.874032  1
  O  O41  1  0.182789  0.311514  0.671239  1
  O  O42  1  0.203704  0.909623  0.056120  1
  O  O43  1  0.194336  0.402117  0.351322  1
  O  O44  1  0.289721  0.911614  0.813579  1
  O  O45  1  0.318692  0.586942  0.943609  1
  O  O46  1  0.311514  0.182789  0.328761  1
  O  O47  1  0.323573  0.372121  0.140896  1
  O  O48  1  0.367591  0.881406  0.285553  1
  O  O49  1  0.407155  0.910657  0.547039  1
  O  O50  1  0.372121  0.323573  0.859104  1
  O  O51  1  0.397496  0.455716  0.632173  1
  O  O52  1  0.413423  0.681504  0.440521  1
  O  O53  1  0.402117  0.194336  0.648678  1
  O  O54  1  0.387881  0.125204  0.071072  1
  O  O55  1  0.455716  0.397496  0.367827  1
  O  O56  1  0.576620  0.804114  0.839987  1
  O  O57  1  0.545776  0.593678  0.144943  1
  O  O58  1  0.593678  0.545776  0.855057  1
  O  O59  1  0.602766  0.877859  0.403652  1
  O  O60  1  0.628325  0.675910  0.635128  1
  O  O61  1  0.599229  0.094671  0.942504  1
  O  O62  1  0.586942  0.318692  0.056391  1
  O  O63  1  0.608986  0.111610  0.205309  1
  O  O64  1  0.675910  0.628325  0.364872  1
  O  O65  1  0.705574  0.805430  0.158073  1
  O  O66  1  0.681504  0.413423  0.559479  1
  O  O67  1  0.691142  0.107138  0.653510  1
  O  O68  1  0.805430  0.705574  0.841927  1
  O  O69  1  0.815793  0.896963  0.623084  1
  O  O70  1  0.804114  0.576620  0.160013  1
  O  O71  1  0.824102  0.090917  0.436446  1
  O  O72  1  0.877859  0.602766  0.596348  1
  O  O73  1  0.896963  0.815793  0.376916  1
  O  O74  1  0.881406  0.367591  0.714447  1
  O  O75  1  0.909623  0.203704  0.943880  1
  O  O76  1  0.910657  0.407155  0.452961  1
  O  O77  1  0.866977  0.035391  0.137381  1
  O  O78  1  0.911614  0.289721  0.186421  1
  O  O79  1  0.950891  0.113504  0.663370  1
