# generated using pymatgen
data_LiTi(PO3)4
_symmetry_space_group_name_H-M   'P 1'
_cell_length_a   10.36401114
_cell_length_b   9.14943958
_cell_length_c   10.06566961
_cell_angle_alpha   90.00000000
_cell_angle_beta   72.57389713
_cell_angle_gamma   90.00000000
_symmetry_Int_Tables_number   1
_chemical_formula_structural   LiTi(PO3)4
_chemical_formula_sum   'Li4 Ti4 P16 O48'
_cell_volume   910.66941043
_cell_formula_units_Z   4
loop_
 _symmetry_equiv_pos_site_id
 _symmetry_equiv_pos_as_xyz
  1  'x, y, z'
loop_
 _atom_site_type_symbol
 _atom_site_label
 _atom_site_symmetry_multiplicity
 _atom_site_fract_x
 _atom_site_fract_y
 _atom_site_fract_z
 _atom_site_occupancy
  Li  Li0  1  0.990420  0.449263  0.854766  1
  Li  Li1  1  0.490420  0.050737  0.354766  1
  Li  Li2  1  0.509580  0.949263  0.645234  1
  Li  Li3  1  0.009580  0.550737  0.145234  1
  Ti  Ti4  1  0.187956  0.196893  0.996953  1
  Ti  Ti5  1  0.312044  0.696893  0.503047  1
  Ti  Ti6  1  0.687956  0.303107  0.496953  1
  Ti  Ti7  1  0.812044  0.803107  0.003047  1
  P  P8  1  0.141395  0.834298  0.041840  1
  P  P9  1  0.025618  0.884019  0.678641  1
  P  P10  1  0.240457  0.997056  0.243405  1
  P  P11  1  0.259543  0.497056  0.256595  1
  P  P12  1  0.242835  0.103063  0.659953  1
  P  P13  1  0.257165  0.603063  0.840047  1
  P  P14  1  0.358605  0.334298  0.458160  1
  P  P15  1  0.525618  0.615981  0.178641  1
  P  P16  1  0.474382  0.384019  0.821359  1
  P  P17  1  0.641395  0.665702  0.541840  1
  P  P18  1  0.742835  0.396937  0.159953  1
  P  P19  1  0.757165  0.896937  0.340047  1
  P  P20  1  0.740457  0.502944  0.743405  1
  P  P21  1  0.759543  0.002944  0.756595  1
  P  P22  1  0.974382  0.115981  0.321359  1
  P  P23  1  0.858605  0.165702  0.958160  1
  O  O24  1  0.008521  0.754720  0.076026  1
  O  O25  1  0.023754  0.183442  0.177874  1
  O  O26  1  0.105530  0.057099  0.360385  1
  O  O27  1  0.185340  0.852799  0.182062  1
  O  O28  1  0.160632  0.452340  0.183026  1
  O  O29  1  0.114643  0.798522  0.559114  1
  O  O30  1  0.093624  0.040786  0.689300  1
  O  O31  1  0.215631  0.608636  0.371836  1
  O  O32  1  0.284369  0.108636  0.128164  1
  O  O33  1  0.241619  0.223908  0.542855  1
  O  O34  1  0.339368  0.952340  0.316974  1
  O  O35  1  0.153963  0.486096  0.897366  1
  O  O36  1  0.314660  0.352799  0.317938  1
  O  O37  1  0.153867  0.978806  0.967569  1
  O  O38  1  0.394470  0.557099  0.139615  1
  O  O39  1  0.247732  0.686538  0.714618  1
  O  O40  1  0.252268  0.186538  0.785382  1
  O  O41  1  0.346133  0.478806  0.532431  1
  O  O42  1  0.346037  0.986096  0.602634  1
  O  O43  1  0.258381  0.723908  0.957145  1
  O  O44  1  0.476246  0.683442  0.322126  1
  O  O45  1  0.491479  0.254720  0.423974  1
  O  O46  1  0.614643  0.701478  0.059114  1
  O  O47  1  0.406376  0.540786  0.810700  1
  O  O48  1  0.593624  0.459214  0.189300  1
  O  O49  1  0.385357  0.298522  0.940886  1
  O  O50  1  0.508521  0.745280  0.576026  1
  O  O51  1  0.523754  0.316558  0.677874  1
  O  O52  1  0.741619  0.276092  0.042855  1
  O  O53  1  0.653963  0.013904  0.397366  1
  O  O54  1  0.653867  0.521194  0.467569  1
  O  O55  1  0.747732  0.813462  0.214618  1
  O  O56  1  0.752268  0.313462  0.285382  1
  O  O57  1  0.605530  0.442901  0.860385  1
  O  O58  1  0.846133  0.021194  0.032431  1
  O  O59  1  0.685340  0.647201  0.682062  1
  O  O60  1  0.846037  0.513904  0.102634  1
  O  O61  1  0.660632  0.047660  0.683026  1
  O  O62  1  0.758381  0.776092  0.457145  1
  O  O63  1  0.715631  0.891364  0.871836  1
  O  O64  1  0.784369  0.391364  0.628164  1
  O  O65  1  0.906376  0.959214  0.310700  1
  O  O66  1  0.885357  0.201478  0.440886  1
  O  O67  1  0.839368  0.547660  0.816974  1
  O  O68  1  0.814660  0.147201  0.817938  1
  O  O69  1  0.894470  0.942901  0.639615  1
  O  O70  1  0.976246  0.816558  0.822126  1
  O  O71  1  0.991479  0.245280  0.923974  1
