# generated using pymatgen
data_Li3V2(PO4)3
_symmetry_space_group_name_H-M   'P 1'
_cell_length_a   8.56103781
_cell_length_b   12.07336980
_cell_length_c   8.79102053
_cell_angle_alpha   90.00000000
_cell_angle_beta   90.00000000
_cell_angle_gamma   90.63753149
_symmetry_Int_Tables_number   1
_chemical_formula_structural   Li3V2(PO4)3
_chemical_formula_sum   'Li12 V8 P12 O48'
_cell_volume   908.58869069
_cell_formula_units_Z   4
loop_
 _symmetry_equiv_pos_site_id
 _symmetry_equiv_pos_as_xyz
  1  'x, y, z'
loop_
 _atom_site_type_symbol
 _atom_site_label
 _atom_site_symmetry_multiplicity
 _atom_site_fract_x
 _atom_site_fract_y
 _atom_site_fract_z
 _atom_site_occupancy
  Li  Li0  1  0.079418  0.690570  0.086978  1
  Li  Li1  1  0.065906  0.346413  0.512105  1
  Li  Li2  1  0.179868  0.177967  0.779596  1
  Li  Li3  1  0.320132  0.322033  0.279596  1
  Li  Li4  1  0.420582  0.809430  0.586978  1
  Li  Li5  1  0.434094  0.153587  0.012105  1
  Li  Li6  1  0.565906  0.846413  0.987895  1
  Li  Li7  1  0.579418  0.190570  0.413022  1
  Li  Li8  1  0.679868  0.677967  0.720404  1
  Li  Li9  1  0.820132  0.822033  0.220404  1
  Li  Li10  1  0.934094  0.653587  0.487895  1
  Li  Li11  1  0.920582  0.309430  0.913022  1
  V  V12  1  0.244953  0.894772  0.028031  1
  V  V13  1  0.255047  0.605228  0.528031  1
  V  V14  1  0.255725  0.391382  0.965834  1
  V  V15  1  0.244275  0.108618  0.465834  1
  V  V16  1  0.755725  0.891382  0.534166  1
  V  V17  1  0.744275  0.608618  0.034166  1
  V  V18  1  0.744953  0.394772  0.471969  1
  V  V19  1  0.755047  0.105228  0.971969  1
  P  P20  1  0.039011  0.490749  0.248802  1
  P  P21  1  0.113612  0.848129  0.382576  1
  P  P22  1  0.114402  0.146906  0.110652  1
  P  P23  1  0.386388  0.651871  0.882576  1
  P  P24  1  0.385598  0.353094  0.610652  1
  P  P25  1  0.460989  0.009251  0.748802  1
  P  P26  1  0.539011  0.990749  0.251198  1
  P  P27  1  0.614402  0.646906  0.389348  1
  P  P28  1  0.613612  0.348129  0.117424  1
  P  P29  1  0.885598  0.853094  0.889348  1
  P  P30  1  0.886388  0.151871  0.617424  1
  P  P31  1  0.960989  0.509251  0.751198  1
  O  O32  1  0.051440  0.444908  0.872013  1
  O  O33  1  0.052835  0.897818  0.889919  1
  O  O34  1  0.055869  0.600183  0.666308  1
  O  O35  1  0.058285  0.189034  0.578314  1
  O  O36  1  0.097567  0.582155  0.360452  1
  O  O37  1  0.122414  0.830964  0.206077  1
  O  O38  1  0.137873  0.970200  0.420697  1
  O  O39  1  0.127940  0.245454  0.993837  1
  O  O40  1  0.171328  0.187011  0.269078  1
  O  O41  1  0.184307  0.433587  0.177111  1
  O  O42  1  0.230350  0.775432  0.471023  1
  O  O43  1  0.269650  0.724568  0.971023  1
  O  O44  1  0.235880  0.061259  0.050298  1
  O  O45  1  0.264120  0.438741  0.550298  1
  O  O46  1  0.315693  0.066413  0.677111  1
  O  O47  1  0.328672  0.312989  0.769078  1
  O  O48  1  0.362127  0.529800  0.920697  1
  O  O49  1  0.372060  0.254546  0.493837  1
  O  O50  1  0.377586  0.669036  0.706077  1
  O  O51  1  0.402433  0.917845  0.860452  1
  O  O52  1  0.444131  0.899817  0.166308  1
  O  O53  1  0.447165  0.602182  0.389919  1
  O  O54  1  0.441715  0.310966  0.078314  1
  O  O55  1  0.448560  0.055092  0.372013  1
  O  O56  1  0.551440  0.944908  0.627987  1
  O  O57  1  0.558285  0.689034  0.921686  1
  O  O58  1  0.552835  0.397817  0.610081  1
  O  O59  1  0.555869  0.100183  0.833692  1
  O  O60  1  0.597567  0.082155  0.139548  1
  O  O61  1  0.622414  0.330964  0.293923  1
  O  O62  1  0.627940  0.745454  0.506163  1
  O  O63  1  0.637873  0.470200  0.079303  1
  O  O64  1  0.671328  0.687011  0.230922  1
  O  O65  1  0.684307  0.933586  0.322889  1
  O  O66  1  0.735880  0.561259  0.449702  1
  O  O67  1  0.764120  0.938741  0.949702  1
  O  O68  1  0.730350  0.275432  0.028977  1
  O  O69  1  0.769650  0.224568  0.528977  1
  O  O70  1  0.815693  0.566414  0.822889  1
  O  O71  1  0.828672  0.812989  0.730922  1
  O  O72  1  0.872060  0.754546  0.006163  1
  O  O73  1  0.862127  0.029800  0.579303  1
  O  O74  1  0.877586  0.169036  0.793923  1
  O  O75  1  0.902433  0.417845  0.639548  1
  O  O76  1  0.941715  0.810966  0.421686  1
  O  O77  1  0.944131  0.399817  0.333692  1
  O  O78  1  0.947165  0.102182  0.110081  1
  O  O79  1  0.948560  0.555092  0.127987  1
