# generated using pymatgen
data_Na3IO
_symmetry_space_group_name_H-M   'P 1'
_cell_length_a   6.79856586
_cell_length_b   6.79721227
_cell_length_c   16.58140295
_cell_angle_alpha   90.00266594
_cell_angle_beta   89.99921871
_cell_angle_gamma   120.00305899
_symmetry_Int_Tables_number   1
_chemical_formula_structural   Na3IO
_chemical_formula_sum   'Na18 I6 O6'
_cell_volume   663.56987115
_cell_formula_units_Z   6
loop_
 _symmetry_equiv_pos_site_id
 _symmetry_equiv_pos_as_xyz
  1  'x, y, z'
loop_
 _atom_site_type_symbol
 _atom_site_label
 _atom_site_symmetry_multiplicity
 _atom_site_fract_x
 _atom_site_fract_y
 _atom_site_fract_z
 _atom_site_occupancy
  Na  Na0  1  0.166025  0.834017  0.920905  1
  Na  Na1  1  0.166024  0.834011  0.579100  1
  Na  Na2  1  0.057251  0.528640  0.750004  1
  Na  Na3  1  0.166044  0.332073  0.579099  1
  Na  Na4  1  0.166029  0.332089  0.920897  1
  Na  Na5  1  0.471416  0.942835  0.750009  1
  Na  Na6  1  0.471395  0.528637  0.749995  1
  Na  Na7  1  0.331986  0.166035  0.079104  1
  Na  Na8  1  0.332011  0.165916  0.420899  1
  Na  Na9  1  0.667969  0.834050  0.920901  1
  Na  Na10  1  0.667987  0.834027  0.579101  1
  Na  Na11  1  0.528568  0.471332  0.250011  1
  Na  Na12  1  0.528553  0.057133  0.249995  1
  Na  Na13  1  0.833926  0.667984  0.079091  1
  Na  Na14  1  0.833942  0.667884  0.420918  1
  Na  Na15  1  0.942725  0.471327  0.250000  1
  Na  Na16  1  0.833948  0.166048  0.079106  1
  Na  Na17  1  0.833948  0.165927  0.420901  1
  I  I18  1  0.333220  0.666896  0.099463  1
  I  I19  1  0.999906  0.999586  0.250006  1
  I  I20  1  0.333186  0.665829  0.400558  1
  I  I21  1  0.000054  0.000163  0.750004  1
  I  I22  1  0.667101  0.334025  0.599436  1
  I  I23  1  0.666917  0.333761  0.900479  1
  O  O24  1  0.333387  0.666759  0.850537  1
  O  O25  1  0.999980  0.000103  0.000003  1
  O  O26  1  1.000000  0.999937  0.500005  1
  O  O27  1  0.333403  0.666802  0.649472  1
  O  O28  1  0.666583  0.333108  0.350537  1
  O  O29  1  0.666578  0.333332  0.149466  1
