# generated using pymatgen
data_Li2Ti3SnO8
_symmetry_space_group_name_H-M   'P 1'
_cell_length_a   5.98905370
_cell_length_b   5.99158226
_cell_length_c   10.03415715
_cell_angle_alpha   90.01147731
_cell_angle_beta   89.99425894
_cell_angle_gamma   120.01396010
_symmetry_Int_Tables_number   1
_chemical_formula_structural   Li2Ti3SnO8
_chemical_formula_sum   'Li4 Ti6 Sn2 O16'
_cell_volume   311.78135833
_cell_formula_units_Z   2
loop_
 _symmetry_equiv_pos_site_id
 _symmetry_equiv_pos_as_xyz
  1  'x, y, z'
loop_
 _atom_site_type_symbol
 _atom_site_label
 _atom_site_symmetry_multiplicity
 _atom_site_fract_x
 _atom_site_fract_y
 _atom_site_fract_z
 _atom_site_occupancy
  Li  Li0  1  0.333397  0.666678  0.896316  1
  Li  Li1  1  0.999884  0.999934  0.993167  1
  Li  Li2  1  0.000116  0.000050  0.493167  1
  Li  Li3  1  0.666603  0.333282  0.396316  1
  Ti  Ti4  1  0.169663  0.830285  0.214862  1
  Ti  Ti5  1  0.660461  0.830160  0.214818  1
  Ti  Ti6  1  0.339539  0.169699  0.714818  1
  Ti  Ti7  1  0.830166  0.169730  0.714851  1
  Ti  Ti8  1  0.169834  0.339564  0.214851  1
  Ti  Ti9  1  0.830337  0.660622  0.714862  1
  Sn  Sn10  1  0.333310  0.666726  0.491207  1
  Sn  Sn11  1  0.666690  0.333415  0.991207  1
  O  O12  1  0.158960  0.841245  0.601277  1
  O  O13  1  0.033660  0.516824  0.335617  1
  O  O14  1  0.333112  0.666635  0.106502  1
  O  O15  1  0.000115  0.000072  0.311215  1
  O  O16  1  0.999885  -0.000042  0.811215  1
  O  O17  1  0.158894  0.317670  0.601301  1
  O  O18  1  0.483244  0.966184  0.335703  1
  O  O19  1  0.483246  0.517016  0.335690  1
  O  O20  1  0.317713  0.158902  0.101391  1
  O  O21  1  0.682287  0.841189  0.601391  1
  O  O22  1  0.516756  0.482940  0.835703  1
  O  O23  1  0.516754  0.033770  0.835690  1
  O  O24  1  0.666888  0.333524  0.606502  1
  O  O25  1  0.841040  0.682285  0.101277  1
  O  O26  1  0.966340  0.483165  0.835617  1
  O  O27  1  0.841106  0.158776  0.101301  1
