# generated using pymatgen
data_V2O3F
_symmetry_space_group_name_H-M   'P 1'
_cell_length_a   4.72532833
_cell_length_b   4.72532833
_cell_length_c   15.05490723
_cell_angle_alpha   90.00000000
_cell_angle_beta   90.00000000
_cell_angle_gamma   94.56433232
_symmetry_Int_Tables_number   1
_chemical_formula_structural   V2O3F
_chemical_formula_sum   'V10 O15 F5'
_cell_volume   335.09084154
_cell_formula_units_Z   5
loop_
 _symmetry_equiv_pos_site_id
 _symmetry_equiv_pos_as_xyz
  1  'x, y, z'
loop_
 _atom_site_type_symbol
 _atom_site_label
 _atom_site_symmetry_multiplicity
 _atom_site_fract_x
 _atom_site_fract_y
 _atom_site_fract_z
 _atom_site_occupancy
  V  V0  1  0.000610  0.999390  0.400047  1
  V  V1  1  0.000610  0.999390  0.199953  1
  V  V2  1  0.002352  0.997648  0.999776  1
  V  V3  1  0.002352  0.997648  0.600224  1
  V  V4  1  0.006894  0.993106  0.800000  1
  V  V5  1  0.550330  0.449670  0.100316  1
  V  V6  1  0.550330  0.449670  0.499684  1
  V  V7  1  0.456390  0.543610  0.699459  1
  V  V8  1  0.456390  0.543610  0.900541  1
  V  V9  1  0.451757  0.548243  0.300000  1
  O  O10  1  0.198951  0.801049  0.900305  1
  O  O11  1  0.198951  0.801049  0.699695  1
  O  O12  1  0.194864  0.805136  0.300000  1
  O  O13  1  0.310836  0.305014  0.000363  1
  O  O14  1  0.308898  0.307716  0.200073  1
  O  O15  1  0.308898  0.307716  0.399927  1
  O  O16  1  0.310836  0.305014  0.599637  1
  O  O17  1  0.304196  0.310281  0.800000  1
  O  O18  1  0.694986  0.689164  0.000363  1
  O  O19  1  0.692284  0.691102  0.200073  1
  O  O20  1  0.692284  0.691102  0.399927  1
  O  O21  1  0.694986  0.689164  0.599637  1
  O  O22  1  0.689719  0.695804  0.800000  1
  O  O23  1  0.806862  0.193138  0.099810  1
  O  O24  1  0.806862  0.193138  0.500190  1
  F  F25  1  0.199664  0.800336  0.099870  1
  F  F26  1  0.199664  0.800336  0.500130  1
  F  F27  1  0.801899  0.198101  0.300000  1
  F  F28  1  0.803172  0.196828  0.899511  1
  F  F29  1  0.803172  0.196828  0.700489  1
