# generated using pymatgen
data_LiFe2(BO3)2
_symmetry_space_group_name_H-M   'P 1'
_cell_length_a   5.23741848
_cell_length_b   9.09770600
_cell_length_c   11.35785275
_cell_angle_alpha   67.44020173
_cell_angle_beta   76.81997696
_cell_angle_gamma   89.33797461
_symmetry_Int_Tables_number   1
_chemical_formula_structural   LiFe2(BO3)2
_chemical_formula_sum   'Li4 Fe8 B8 O24'
_cell_volume   484.87038225
_cell_formula_units_Z   4
loop_
 _symmetry_equiv_pos_site_id
 _symmetry_equiv_pos_as_xyz
  1  'x, y, z'
loop_
 _atom_site_type_symbol
 _atom_site_label
 _atom_site_symmetry_multiplicity
 _atom_site_fract_x
 _atom_site_fract_y
 _atom_site_fract_z
 _atom_site_occupancy
  Li  Li0  1  0.718024  0.723169  0.903176  1
  Li  Li1  1  0.733302  0.752082  0.161552  1
  Li  Li2  1  0.467751  0.461349  0.416866  1
  Li  Li3  1  0.023856  0.004756  0.646889  1
  Fe  Fe4  1  0.971459  0.663729  0.381886  1
  Fe  Fe5  1  0.742311  0.070905  0.878921  1
  Fe  Fe6  1  0.535501  0.832855  0.626706  1
  Fe  Fe7  1  0.750591  0.426723  0.132630  1
  Fe  Fe8  1  0.229988  0.554949  0.881951  1
  Fe  Fe9  1  0.482308  0.137638  0.376934  1
  Fe  Fe10  1  0.008093  0.357141  0.633334  1
  Fe  Fe11  1  0.265904  0.942802  0.123170  1
  B  B12  1  0.979203  0.311985  0.385900  1
  B  B13  1  0.729881  0.403916  0.873797  1
  B  B14  1  0.517079  0.184711  0.621906  1
  B  B15  1  0.767630  0.094239  0.134201  1
  B  B16  1  0.469805  0.815508  0.368467  1
  B  B17  1  0.236611  0.886570  0.880480  1
  B  B18  1  0.031896  0.682726  0.637562  1
  B  B19  1  0.262457  0.616481  0.119014  1
  O  O20  1  0.983950  0.901374  0.862637  1
  O  O21  1  0.883692  0.302873  0.825710  1
  O  O22  1  0.847356  0.504240  0.918405  1
  O  O23  1  0.903503  0.813935  0.637420  1
  O  O24  1  0.944331  0.580882  0.586139  1
  O  O25  1  0.759138  0.173280  0.658391  1
  O  O26  1  0.731516  0.323320  0.353057  1
  O  O27  1  0.470137  0.403418  0.880128  1
  O  O28  1  0.388322  0.772290  0.848344  1
  O  O29  1  0.556115  0.914352  0.421578  1
  O  O30  1  0.602664  0.685463  0.362255  1
  O  O31  1  0.352706  0.981242  0.928391  1
  O  O32  1  0.650073  0.991492  0.090812  1
  O  O33  1  0.372543  0.314479  0.614997  1
  O  O34  1  0.426037  0.067123  0.587016  1
  O  O35  1  0.615069  0.194467  0.182912  1
  O  O36  1  0.528567  0.616053  0.115938  1
  O  O37  1  0.254581  0.648453  0.686744  1
  O  O38  1  0.247969  0.849190  0.318859  1
  O  O39  1  0.065658  0.427715  0.425058  1
  O  O40  1  0.129807  0.189409  0.383435  1
  O  O41  1  0.140595  0.516216  0.078683  1
  O  O42  1  0.108001  0.723968  0.160229  1
  O  O43  1  0.028350  0.094864  0.126007  1
