# generated using pymatgen
data_LiSiBiO4
_symmetry_space_group_name_H-M   'P 1'
_cell_length_a   10.11590172
_cell_length_b   10.11596248
_cell_length_c   8.21303062
_cell_angle_alpha   89.99607549
_cell_angle_beta   89.99873382
_cell_angle_gamma   120.00251803
_symmetry_Int_Tables_number   1
_chemical_formula_structural   LiSiBiO4
_chemical_formula_sum   'Li8 Si8 Bi8 O32'
_cell_volume   727.83822916
_cell_formula_units_Z   8
loop_
 _symmetry_equiv_pos_site_id
 _symmetry_equiv_pos_as_xyz
  1  'x, y, z'
loop_
 _atom_site_type_symbol
 _atom_site_label
 _atom_site_symmetry_multiplicity
 _atom_site_fract_x
 _atom_site_fract_y
 _atom_site_fract_z
 _atom_site_occupancy
  Li  Li0  1  0.234397  0.917159  0.695615  1
  Li  Li1  1  0.082855  0.317251  0.695630  1
  Li  Li2  1  0.333348  0.666661  0.213910  1
  Li  Li3  1  0.317246  0.234382  0.195631  1
  Li  Li4  1  0.682737  0.765585  0.695647  1
  Li  Li5  1  0.666679  0.333347  0.713906  1
  Li  Li6  1  0.917165  0.682769  0.195645  1
  Li  Li7  1  0.765577  0.082845  0.195644  1
  Si  Si8  1  0.221304  0.906878  0.323666  1
  Si  Si9  1  0.093093  0.314425  0.323669  1
  Si  Si10  1  0.333330  0.666668  0.755029  1
  Si  Si11  1  0.314423  0.221340  0.823676  1
  Si  Si12  1  0.685567  0.778630  0.323677  1
  Si  Si13  1  0.666650  0.333347  0.255050  1
  Si  Si14  1  0.906906  0.685576  0.823676  1
  Si  Si15  1  0.778645  0.093089  0.823678  1
  Bi  Bi16  1  0.025805  0.490792  0.979584  1
  Bi  Bi17  1  0.464970  0.974224  0.979710  1
  Bi  Bi18  1  0.000024  0.000058  0.048278  1
  Bi  Bi19  1  0.999991  0.000042  0.548283  1
  Bi  Bi20  1  0.490767  0.464965  0.479649  1
  Bi  Bi21  1  0.509241  0.534982  0.979642  1
  Bi  Bi22  1  0.534997  0.025756  0.479713  1
  Bi  Bi23  1  0.974233  0.509234  0.479579  1
  O  O24  1  0.065130  0.748889  0.367171  1
  O  O25  1  0.013116  0.830280  0.700649  1
  O  O26  1  0.299867  0.016461  0.485141  1
  O  O27  1  0.983565  0.283385  0.485153  1
  O  O28  1  0.129514  0.485061  0.257560  1
  O  O29  1  0.158639  0.540771  0.698242  1
  O  O30  1  0.355544  0.870479  0.257538  1
  O  O31  1  0.382165  0.841389  0.698144  1
  O  O32  1  0.333273  0.666737  0.959790  1
  O  O33  1  0.251120  0.316209  0.367110  1
  O  O34  1  0.169797  0.182908  0.700584  1
  O  O35  1  0.514964  0.644459  0.257525  1
  O  O36  1  0.459233  0.617845  0.698297  1
  O  O37  1  0.283368  0.299798  0.985149  1
  O  O38  1  0.817100  0.986869  0.700642  1
  O  O39  1  0.683745  0.934902  0.367174  1
  O  O40  1  0.182899  0.013099  0.200577  1
  O  O41  1  0.316231  0.065080  0.867122  1
  O  O42  1  0.716541  0.700114  0.485152  1
  O  O43  1  0.485062  0.355552  0.757588  1
  O  O44  1  0.540754  0.382135  0.198193  1
  O  O45  1  0.830271  0.817160  0.200658  1
  O  O46  1  0.748859  0.683753  0.867176  1
  O  O47  1  0.666553  0.333331  0.459815  1
  O  O48  1  0.644456  0.129518  0.757521  1
  O  O49  1  0.617837  0.158614  0.198243  1
  O  O50  1  0.870496  0.514965  0.757524  1
  O  O51  1  0.841370  0.459225  0.198321  1
  O  O52  1  0.016424  0.716551  0.985148  1
  O  O53  1  0.700106  0.983559  0.985160  1
  O  O54  1  0.934889  0.251115  0.867137  1
  O  O55  1  0.986863  0.169776  0.200610  1
