# generated using pymatgen
data_LiV3O5F3
_symmetry_space_group_name_H-M   'P 1'
_cell_length_a   6.65582449
_cell_length_b   3.83493221
_cell_length_c   12.05330104
_cell_angle_alpha   90.00000000
_cell_angle_beta   77.40558757
_cell_angle_gamma   90.00000000
_symmetry_Int_Tables_number   1
_chemical_formula_structural   LiV3O5F3
_chemical_formula_sum   'Li2 V6 O10 F6'
_cell_volume   300.25330621
_cell_formula_units_Z   2
loop_
 _symmetry_equiv_pos_site_id
 _symmetry_equiv_pos_as_xyz
  1  'x, y, z'
loop_
 _atom_site_type_symbol
 _atom_site_label
 _atom_site_symmetry_multiplicity
 _atom_site_fract_x
 _atom_site_fract_y
 _atom_site_fract_z
 _atom_site_occupancy
  Li  Li0  1  0.181378  0.750000  0.312630  1
  Li  Li1  1  0.811884  0.250000  0.678973  1
  V  V2  1  0.135612  0.250000  0.056334  1
  V  V3  1  0.321236  0.250000  0.544207  1
  V  V4  1  0.270542  0.250000  0.798601  1
  V  V5  1  0.727137  0.750000  0.201007  1
  V  V6  1  0.680070  0.750000  0.461066  1
  V  V7  1  0.920418  0.750000  0.924770  1
  O  O8  1  0.034769  0.750000  0.069584  1
  O  O9  1  0.126068  0.250000  0.670491  1
  O  O10  1  0.181731  0.750000  0.828937  1
  O  O11  1  0.491901  0.750000  0.279989  1
  O  O12  1  0.388091  0.750000  0.524023  1
  O  O13  1  0.351846  0.250000  0.953454  1
  O  O14  1  0.616050  0.250000  0.476032  1
  O  O15  1  0.501135  0.250000  0.710545  1
  O  O16  1  0.864024  0.750000  0.329597  1
  O  O17  1  0.966580  0.250000  0.935397  1
  F  F18  1  0.205673  0.250000  0.199226  1
  F  F19  1  0.179679  0.250000  0.426434  1
  F  F20  1  0.661535  0.750000  0.046646  1
  F  F21  1  0.794509  0.250000  0.175699  1
  F  F22  1  0.821343  0.750000  0.579382  1
  F  F23  1  0.766788  0.750000  0.816981  1
