# generated using pymatgen
data_Li2VCrP2(HO5)2
_symmetry_space_group_name_H-M   'P 1'
_cell_length_a   5.42490178
_cell_length_b   7.38992288
_cell_length_c   5.16593698
_cell_angle_alpha   108.96142362
_cell_angle_beta   97.86113589
_cell_angle_gamma   106.57883222
_symmetry_Int_Tables_number   1
_chemical_formula_structural   Li2VCrP2(HO5)2
_chemical_formula_sum   'Li2 V1 Cr1 P2 H2 O10'
_cell_volume   181.60419536
_cell_formula_units_Z   1
loop_
 _symmetry_equiv_pos_site_id
 _symmetry_equiv_pos_as_xyz
  1  'x, y, z'
loop_
 _atom_site_type_symbol
 _atom_site_label
 _atom_site_symmetry_multiplicity
 _atom_site_fract_x
 _atom_site_fract_y
 _atom_site_fract_z
 _atom_site_occupancy
  Li  Li0  1  0.397794  0.823119  0.747974  1
  Li  Li1  1  0.602206  0.176881  0.252026  1
  V  V2  1  0.000000  0.500000  0.000000  1
  Cr  Cr3  1  0.000000  0.000000  0.000000  1
  P  P4  1  0.358636  0.230988  0.675880  1
  P  P5  1  0.641364  0.769012  0.324120  1
  H  H6  1  0.059224  0.337346  0.359800  1
  H  H7  1  0.940776  0.662654  0.640200  1
  O  O8  1  0.050610  0.727847  0.837879  1
  O  O9  1  0.205299  0.380763  0.725676  1
  O  O10  1  0.344732  0.658117  0.304253  1
  O  O11  1  0.251032  0.070525  0.368418  1
  O  O12  1  0.338393  0.119643  0.886489  1
  O  O13  1  0.661607  0.880357  0.113511  1
  O  O14  1  0.748968  0.929475  0.631582  1
  O  O15  1  0.655268  0.341883  0.695747  1
  O  O16  1  0.794701  0.619237  0.274324  1
  O  O17  1  0.949390  0.272153  0.162121  1
