# generated using pymatgen
data_Sr20Fe9Co(MoO6)10
_symmetry_space_group_name_H-M   'P 1'
_cell_length_a   5.64195397
_cell_length_b   56.31137429
_cell_length_c   11.33611485
_cell_angle_alpha   119.92377545
_cell_angle_beta   119.78062686
_cell_angle_gamma   90.05235885
_symmetry_Int_Tables_number   1
_chemical_formula_structural   Sr20Fe9Co(MoO6)10
_chemical_formula_sum   'Sr40 Fe18 Co2 Mo20 O120'
_cell_volume   2556.86484069
_cell_formula_units_Z   2
loop_
 _symmetry_equiv_pos_site_id
 _symmetry_equiv_pos_as_xyz
  1  'x, y, z'
loop_
 _atom_site_type_symbol
 _atom_site_label
 _atom_site_symmetry_multiplicity
 _atom_site_fract_x
 _atom_site_fract_y
 _atom_site_fract_z
 _atom_site_occupancy
  Sr  Sr0  1  0.250732  0.075073  0.750388  1
  Sr  Sr1  1  0.250768  0.275009  0.750716  1
  Sr  Sr2  1  0.249767  0.174835  0.749405  1
  Sr  Sr3  1  0.249937  0.375019  0.749469  1
  Sr  Sr4  1  0.251570  0.475109  0.750493  1
  Sr  Sr5  1  0.251943  0.574800  0.751155  1
  Sr  Sr6  1  0.249455  0.674634  0.748879  1
  Sr  Sr7  1  0.257052  0.775441  0.756314  1
  Sr  Sr8  1  0.256841  0.876040  0.756449  1
  Sr  Sr9  1  0.250555  0.975017  0.750351  1
  Sr  Sr10  1  0.250357  0.074806  0.248840  1
  Sr  Sr11  1  0.250787  0.174745  0.250559  1
  Sr  Sr12  1  0.250719  0.274961  0.249241  1
  Sr  Sr13  1  0.250719  0.374971  0.248750  1
  Sr  Sr14  1  0.250454  0.474971  0.250286  1
  Sr  Sr15  1  0.250207  0.575102  0.249215  1
  Sr  Sr16  1  0.244567  0.673560  0.245438  1
  Sr  Sr17  1  0.244819  0.774396  0.243522  1
  Sr  Sr18  1  0.246853  0.875585  0.247367  1
  Sr  Sr19  1  0.248740  0.974778  0.248050  1
  Sr  Sr20  1  0.749793  0.024898  0.750785  1
  Sr  Sr21  1  0.749546  0.125029  0.749714  1
  Sr  Sr22  1  0.749281  0.225029  0.751250  1
  Sr  Sr23  1  0.749281  0.325039  0.750759  1
  Sr  Sr24  1  0.749213  0.425255  0.749441  1
  Sr  Sr25  1  0.749643  0.525194  0.751160  1
  Sr  Sr26  1  0.751260  0.625222  0.751950  1
  Sr  Sr27  1  0.753147  0.724415  0.752633  1
  Sr  Sr28  1  0.755181  0.825604  0.756478  1
  Sr  Sr29  1  0.755433  0.926440  0.754562  1
  Sr  Sr30  1  0.748057  0.025200  0.248845  1
  Sr  Sr31  1  0.748430  0.124891  0.249507  1
  Sr  Sr32  1  0.750063  0.224981  0.250531  1
  Sr  Sr33  1  0.749232  0.324991  0.249284  1
  Sr  Sr34  1  0.750233  0.425165  0.250595  1
  Sr  Sr35  1  0.749268  0.524927  0.249612  1
  Sr  Sr36  1  0.749445  0.624983  0.249649  1
  Sr  Sr37  1  0.743159  0.723960  0.243551  1
  Sr  Sr38  1  0.742948  0.824559  0.243686  1
  Sr  Sr39  1  0.750545  0.925366  0.251121  1
  Fe  Fe40  1  0.000539  0.000203  0.502648  1
  Fe  Fe41  1  0.001869  0.100078  0.501130  1
  Fe  Fe42  1  0.999544  0.200108  0.498739  1
  Fe  Fe43  1  0.000000  0.300000  0.500000  1
  Fe  Fe44  1  0.000456  0.399892  0.501261  1
  Fe  Fe45  1  0.998131  0.499922  0.498870  1
  Fe  Fe46  1  -0.000539  0.599797  0.497352  1
  Fe  Fe47  1  0.000000  0.800000  0.500000  1
  Fe  Fe48  1  0.004239  0.999910  0.001385  1
  Fe  Fe49  1  0.998920  0.099671  0.999474  1
  Fe  Fe50  1  0.998547  0.200125  0.999898  1
  Fe  Fe51  1  0.000000  0.300000  0.000000  1
  Fe  Fe52  1  0.001453  0.399875  0.000102  1
  Fe  Fe53  1  0.995761  0.600090  -0.001385  1
  Fe  Fe54  1  0.000000  0.800000  0.000000  1
  Fe  Fe55  1  0.005262  0.900775  0.005187  1
  Fe  Fe56  1  0.001080  0.500329  0.000526  1
  Fe  Fe57  1  0.994738  0.699225  0.994813  1
  Co  Co58  1  -0.001274  0.699477  0.498623  1
  Co  Co59  1  0.001274  0.900523  0.501377  1
  Mo  Mo60  1  0.500050  0.049890  0.499802  1
  Mo  Mo61  1  0.498867  0.149871  0.498855  1
  Mo  Mo62  1  0.499880  0.250008  0.499863  1
  Mo  Mo63  1  0.500120  0.349992  0.500137  1
  Mo  Mo64  1  0.501133  0.450129  0.501145  1
  Mo  Mo65  1  0.499950  0.550110  0.500198  1
  Mo  Mo66  1  0.498617  0.649906  0.498645  1
  Mo  Mo67  1  0.499645  0.749432  0.498759  1
  Mo  Mo68  1  0.501383  0.950094  0.501355  1
  Mo  Mo69  1  0.500355  0.850568  0.501241  1
  Mo  Mo70  1  0.500769  0.049995  0.000071  1
  Mo  Mo71  1  0.500024  0.149982  -0.000122  1
  Mo  Mo72  1  0.499192  0.249887  0.999528  1
  Mo  Mo73  1  0.500808  0.350113  0.000472  1
  Mo  Mo74  1  0.499976  0.450018  0.000122  1
  Mo  Mo75  1  0.499231  0.550005  -0.000071  1
  Mo  Mo76  1  0.498925  0.649773  -0.000559  1
  Mo  Mo77  1  0.498541  0.749508  0.998183  1
  Mo  Mo78  1  0.501075  0.950227  0.000559  1
  Mo  Mo79  1  0.501459  0.850492  0.001817  1
  O  O80  1  0.247750  0.124879  0.749186  1
  O  O81  1  0.250052  0.025304  0.750481  1
  O  O82  1  0.248933  0.225507  0.753093  1
  O  O83  1  0.249737  0.325447  0.753228  1
  O  O84  1  0.249099  0.424986  0.749319  1
  O  O85  1  0.247444  0.525276  0.750095  1
  O  O86  1  0.255785  0.626075  0.757787  1
  O  O87  1  0.260169  0.726489  0.761324  1
  O  O88  1  0.253769  0.825125  0.753371  1
  O  O89  1  0.258948  0.925694  0.759587  1
  O  O90  1  0.214225  0.071488  0.499995  1
  O  O91  1  0.213066  0.171430  0.500905  1
  O  O92  1  0.213605  0.271350  0.499454  1
  O  O93  1  0.213617  0.371381  0.498040  1
  O  O94  1  0.214087  0.471711  0.500918  1
  O  O95  1  0.214613  0.571747  0.501391  1
  O  O96  1  0.217989  0.670687  0.500767  1
  O  O97  1  0.221350  0.771147  0.501008  1
  O  O98  1  0.224286  0.870265  0.499534  1
  O  O99  1  0.215493  0.971571  0.499372  1
  O  O100  1  0.289532  0.022324  0.499576  1
  O  O101  1  0.291381  0.122347  0.500023  1
  O  O102  1  0.293673  0.222325  0.504126  1
  O  O103  1  0.291380  0.322327  0.503216  1
  O  O104  1  0.290421  0.422591  0.500163  1
  O  O105  1  0.293172  0.522792  0.502440  1
  O  O106  1  0.288904  0.622212  0.502067  1
  O  O107  1  0.295473  0.722669  0.500664  1
  O  O108  1  0.290687  0.821884  0.499885  1
  O  O109  1  0.287897  0.922468  0.499483  1
  O  O110  1  0.248962  0.025127  0.250269  1
  O  O111  1  0.248302  0.124973  0.248627  1
  O  O112  1  0.254844  0.225437  0.253502  1
  O  O113  1  0.253163  0.325274  0.252797  1
  O  O114  1  0.248490  0.425073  0.249566  1
  O  O115  1  0.250793  0.525140  0.250443  1
  O  O116  1  0.250949  0.624839  0.249407  1
  O  O117  1  0.258305  0.726128  0.259341  1
  O  O118  1  0.257523  0.825577  0.257831  1
  O  O119  1  0.248970  0.924787  0.249856  1
  O  O120  1  0.749207  0.074860  0.749557  1
  O  O121  1  0.751510  0.174927  0.750434  1
  O  O122  1  0.746837  0.274726  0.747203  1
  O  O123  1  0.745156  0.374563  0.746498  1
  O  O124  1  0.751698  0.475027  0.751373  1
  O  O125  1  0.751038  0.574873  0.749731  1
  O  O126  1  0.751030  0.675213  0.750144  1
  O  O127  1  0.742477  0.774423  0.742169  1
  O  O128  1  0.741695  0.873872  0.740659  1
  O  O129  1  0.749051  0.975161  0.750593  1
  O  O130  1  0.706828  0.077208  0.497560  1
  O  O131  1  0.709579  0.177409  0.499837  1
  O  O132  1  0.708620  0.277673  0.496784  1
  O  O133  1  0.706327  0.377675  0.495874  1
  O  O134  1  0.708619  0.477653  0.499977  1
  O  O135  1  0.710468  0.577676  0.500424  1
  O  O136  1  0.712103  0.677532  0.500517  1
  O  O137  1  0.704527  0.877331  0.499336  1
  O  O138  1  0.709313  0.778116  0.500115  1
  O  O139  1  0.711096  0.977788  0.497933  1
  O  O140  1  0.221384  0.070618  0.998007  1
  O  O141  1  0.225156  0.170809  0.001353  1
  O  O142  1  0.218296  0.270847  0.998252  1
  O  O143  1  0.217773  0.370822  0.997668  1
  O  O144  1  0.224975  0.470642  0.000988  1
  O  O145  1  0.221245  0.570506  0.998529  1
  O  O146  1  0.216666  0.671750  0.003843  1
  O  O147  1  0.213111  0.771610  0.000595  1
  O  O148  1  0.208638  0.870723  0.995741  1
  O  O149  1  0.216215  0.971265  0.001027  1
  O  O150  1  0.785387  0.028253  0.498609  1
  O  O151  1  0.785913  0.128289  0.499082  1
  O  O152  1  0.786383  0.228619  0.501960  1
  O  O153  1  0.786395  0.328650  0.500546  1
  O  O154  1  0.785775  0.528512  0.500005  1
  O  O155  1  0.786934  0.428570  0.499095  1
  O  O156  1  0.784507  0.628429  0.500628  1
  O  O157  1  0.775714  0.729735  0.500466  1
  O  O158  1  0.778650  0.828853  0.498992  1
  O  O159  1  0.782011  0.929313  0.499233  1
  O  O160  1  0.283872  0.021639  -0.000323  1
  O  O161  1  0.282067  0.121567  -0.000025  1
  O  O162  1  0.286156  0.221517  0.001787  1
  O  O163  1  0.284445  0.321705  0.001374  1
  O  O164  1  0.281079  0.421533  -0.000491  1
  O  O165  1  0.285022  0.521329  0.000384  1
  O  O166  1  0.286387  0.621257  0.999746  1
  O  O167  1  0.290804  0.721779  0.004327  1
  O  O168  1  0.283588  0.821081  -0.000884  1
  O  O169  1  0.285489  0.921060  0.998752  1
  O  O170  1  0.752556  0.074724  0.249905  1
  O  O171  1  0.750901  0.175014  0.250681  1
  O  O172  1  0.750263  0.274554  0.246772  1
  O  O173  1  0.751067  0.374493  0.246907  1
  O  O174  1  0.752250  0.475121  0.250814  1
  O  O175  1  0.749948  0.574696  0.249519  1
  O  O176  1  0.741052  0.674306  0.240413  1
  O  O177  1  0.739831  0.873511  0.238676  1
  O  O178  1  0.746231  0.774875  0.246629  1
  O  O179  1  0.744215  0.973925  0.242213  1
  O  O180  1  0.714978  0.078671  0.999616  1
  O  O181  1  0.715555  0.278295  0.998626  1
  O  O182  1  0.718921  0.178467  0.000491  1
  O  O183  1  0.713844  0.378483  0.998213  1
  O  O184  1  0.717933  0.478433  0.000025  1
  O  O185  1  0.716128  0.578361  0.000323  1
  O  O186  1  0.716412  0.778919  0.000884  1
  O  O187  1  0.714511  0.678940  0.001248  1
  O  O188  1  0.709196  0.878221  0.995673  1
  O  O189  1  0.713613  0.978743  0.000254  1
  O  O190  1  0.778755  0.029494  0.001471  1
  O  O191  1  0.775025  0.129358  0.999012  1
  O  O192  1  0.782227  0.229178  0.002332  1
  O  O193  1  0.781704  0.329153  0.001748  1
  O  O194  1  0.774844  0.429192  0.998647  1
  O  O195  1  0.778616  0.529382  0.001993  1
  O  O196  1  0.783785  0.628735  0.998973  1
  O  O197  1  0.791362  0.729277  0.004259  1
  O  O198  1  0.786889  0.828390  -0.000595  1
  O  O199  1  0.783334  0.928250  0.996157  1
