# generated using pymatgen
data_Li4Cr3NiO8
_symmetry_space_group_name_H-M   'P 1'
_cell_length_a   5.10989176
_cell_length_b   5.89050223
_cell_length_c   10.20608179
_cell_angle_alpha   89.83011911
_cell_angle_beta   80.39171813
_cell_angle_gamma   73.00236938
_symmetry_Int_Tables_number   1
_chemical_formula_structural   Li4Cr3NiO8
_chemical_formula_sum   'Li8 Cr6 Ni2 O16'
_cell_volume   289.31825925
_cell_formula_units_Z   2
loop_
 _symmetry_equiv_pos_site_id
 _symmetry_equiv_pos_as_xyz
  1  'x, y, z'
loop_
 _atom_site_type_symbol
 _atom_site_label
 _atom_site_symmetry_multiplicity
 _atom_site_fract_x
 _atom_site_fract_y
 _atom_site_fract_z
 _atom_site_occupancy
  Li  Li0  1  0.000759  0.004616  0.996179  1
  Li  Li1  1  0.996227  0.006969  0.500315  1
  Li  Li2  1  0.999992  0.250001  0.250034  1
  Li  Li3  1  -0.000000  0.249974  0.749968  1
  Li  Li4  1  0.003751  0.493062  0.999694  1
  Li  Li5  1  0.999263  0.495380  0.503830  1
  Li  Li6  1  0.999977  0.750014  0.250015  1
  Li  Li7  1  0.000000  0.750036  0.749972  1
  Cr  Cr8  1  0.499550  0.126064  0.376656  1
  Cr  Cr9  1  0.500462  0.373944  0.123345  1
  Cr  Cr10  1  0.500828  0.624137  0.376332  1
  Cr  Cr11  1  0.500514  0.621327  0.872289  1
  Cr  Cr12  1  0.499169  0.875861  0.123677  1
  Cr  Cr13  1  0.499451  0.878643  0.627702  1
  Ni  Ni14  1  0.498989  0.125136  0.875256  1
  Ni  Ni15  1  0.501042  0.374843  0.624716  1
  O  O16  1  0.269593  0.184957  0.064778  1
  O  O17  1  0.266913  0.175233  0.558551  1
  O  O18  1  0.725594  0.067538  0.189302  1
  O  O19  1  0.723014  0.064130  0.686175  1
  O  O20  1  0.274403  0.432449  0.310671  1
  O  O21  1  0.730509  0.315002  0.435166  1
  O  O22  1  0.277013  0.436019  0.813918  1
  O  O23  1  0.733100  0.324856  0.941439  1
  O  O24  1  0.274011  0.681417  0.058715  1
  O  O25  1  0.723593  0.568753  0.189726  1
  O  O26  1  0.278946  0.685121  0.561275  1
  O  O27  1  0.733193  0.575429  0.693257  1
  O  O28  1  0.276411  0.931270  0.310258  1
  O  O29  1  0.726024  0.818579  0.441258  1
  O  O30  1  0.266741  0.924481  0.806842  1
  O  O31  1  0.720966  0.814754  0.938687  1
