# generated using pymatgen
data_Li4Co3P4O15
_symmetry_space_group_name_H-M   'P 1'
_cell_length_a   17.53134061
_cell_length_b   6.43659073
_cell_length_c   10.45728376
_cell_angle_alpha   90.00000000
_cell_angle_beta   90.00000000
_cell_angle_gamma   90.00000000
_symmetry_Int_Tables_number   1
_chemical_formula_structural   Li4Co3P4O15
_chemical_formula_sum   'Li16 Co12 P16 O60'
_cell_volume   1180.02148807
_cell_formula_units_Z   4
loop_
 _symmetry_equiv_pos_site_id
 _symmetry_equiv_pos_as_xyz
  1  'x, y, z'
loop_
 _atom_site_type_symbol
 _atom_site_label
 _atom_site_symmetry_multiplicity
 _atom_site_fract_x
 _atom_site_fract_y
 _atom_site_fract_z
 _atom_site_occupancy
  Li  Li0  1  0.005630  0.322473  0.479760  1
  Li  Li1  1  0.034567  0.194950  0.049388  1
  Li  Li2  1  0.096418  0.938542  0.818444  1
  Li  Li3  1  0.203245  0.365857  0.243865  1
  Li  Li4  1  0.296755  0.865857  0.743865  1
  Li  Li5  1  0.403582  0.438542  0.318444  1
  Li  Li6  1  0.465433  0.694950  0.549388  1
  Li  Li7  1  0.494370  0.822473  0.979761  1
  Li  Li8  1  0.505630  0.322473  0.020240  1
  Li  Li9  1  0.534566  0.194950  0.450612  1
  Li  Li10  1  0.596418  0.938542  0.681556  1
  Li  Li11  1  0.703245  0.365857  0.256135  1
  Li  Li12  1  0.796755  0.865857  0.756135  1
  Li  Li13  1  0.903582  0.438542  0.181556  1
  Li  Li14  1  0.965434  0.694950  0.950612  1
  Li  Li15  1  0.994370  0.822473  0.520239  1
  Co  Co16  1  0.134269  0.592754  0.495000  1
  Co  Co17  1  0.165761  0.599967  0.000417  1
  Co  Co18  1  0.240471  0.325672  0.741792  1
  Co  Co19  1  0.259529  0.825672  0.241792  1
  Co  Co20  1  0.334239  0.099967  0.500417  1
  Co  Co21  1  0.365731  0.092754  0.995000  1
  Co  Co22  1  0.634269  0.592754  0.005000  1
  Co  Co23  1  0.665761  0.599967  0.499583  1
  Co  Co24  1  0.740471  0.325672  0.758208  1
  Co  Co25  1  0.759529  0.825672  0.258208  1
  Co  Co26  1  0.834239  0.099967  0.999583  1
  Co  Co27  1  0.865731  0.092754  0.505000  1
  P  P28  1  0.049399  0.633713  0.225517  1
  P  P29  1  0.061843  0.459983  0.759740  1
  P  P30  1  0.172959  0.088930  0.480889  1
  P  P31  1  0.205328  0.097481  0.004110  1
  P  P32  1  0.294672  0.597481  0.504110  1
  P  P33  1  0.327041  0.588930  0.980889  1
  P  P34  1  0.438157  0.959983  0.259740  1
  P  P35  1  0.450601  0.133713  0.725517  1
  P  P36  1  0.549400  0.633713  0.274483  1
  P  P37  1  0.561843  0.459983  0.740260  1
  P  P38  1  0.672959  0.088930  0.019111  1
  P  P39  1  0.705328  0.097481  0.495890  1
  P  P40  1  0.794672  0.597481  0.995890  1
  P  P41  1  0.827041  0.588930  0.519111  1
  P  P42  1  0.938157  0.959983  0.240260  1
  P  P43  1  0.950600  0.133713  0.774483  1
  O  O44  1  0.005829  0.495798  0.131123  1
  O  O45  1  0.020775  0.871412  0.190959  1
  O  O46  1  0.031271  0.597682  0.367397  1
  O  O47  1  0.046313  0.558292  0.628364  1
  O  O48  1  0.078813  0.625903  0.862166  1
  O  O49  1  0.118756  0.281130  0.760511  1
  O  O50  1  0.120202  0.901613  0.502196  1
  O  O51  1  0.135001  0.632169  0.197095  1
  O  O52  1  0.124199  0.284194  0.455775  1
  O  O53  1  0.151420  0.914763  0.980776  1
  O  O54  1  0.154557  0.286137  0.039472  1
  O  O55  1  0.228957  0.111343  0.598197  1
  O  O56  1  0.230380  0.068597  0.365170  1
  O  O57  1  0.234951  0.564163  0.613497  1
  O  O58  1  0.241708  0.622162  0.383662  1
  O  O59  1  0.258292  0.122162  0.883662  1
  O  O60  1  0.265049  0.064163  0.113497  1
  O  O61  1  0.269620  0.568597  0.865170  1
  O  O62  1  0.271043  0.611343  0.098197  1
  O  O63  1  0.345443  0.786137  0.539472  1
  O  O64  1  0.348580  0.414763  0.480776  1
  O  O65  1  0.375801  0.784194  0.955775  1
  O  O66  1  0.364999  0.132169  0.697095  1
  O  O67  1  0.379798  0.401613  0.002196  1
  O  O68  1  0.381244  0.781130  0.260511  1
  O  O69  1  0.421187  0.125903  0.362166  1
  O  O70  1  0.453687  0.058292  0.128364  1
  O  O71  1  0.468729  0.097682  0.867397  1
  O  O72  1  0.479225  0.371412  0.690959  1
  O  O73  1  0.494171  0.995798  0.631123  1
  O  O74  1  0.505829  0.495798  0.368877  1
  O  O75  1  0.520775  0.871412  0.309041  1
  O  O76  1  0.531271  0.597682  0.132603  1
  O  O77  1  0.546313  0.558292  0.871636  1
  O  O78  1  0.578813  0.625903  0.637834  1
  O  O79  1  0.618756  0.281130  0.739489  1
  O  O80  1  0.620202  0.901613  0.997804  1
  O  O81  1  0.635001  0.632169  0.302905  1
  O  O82  1  0.624199  0.284194  0.044225  1
  O  O83  1  0.651420  0.914763  0.519224  1
  O  O84  1  0.654557  0.286137  0.460528  1
  O  O85  1  0.728957  0.111343  0.901803  1
  O  O86  1  0.730380  0.068597  0.134830  1
  O  O87  1  0.734951  0.564163  0.886503  1
  O  O88  1  0.741708  0.622162  0.116338  1
  O  O89  1  0.758292  0.122162  0.616338  1
  O  O90  1  0.765049  0.064163  0.386503  1
  O  O91  1  0.769620  0.568597  0.634830  1
  O  O92  1  0.771043  0.611343  0.401803  1
  O  O93  1  0.845443  0.786137  0.960528  1
  O  O94  1  0.848580  0.414763  0.019224  1
  O  O95  1  0.875801  0.784194  0.544225  1
  O  O96  1  0.864999  0.132169  0.802905  1
  O  O97  1  0.879798  0.401613  0.497804  1
  O  O98  1  0.881244  0.781130  0.239489  1
  O  O99  1  0.921187  0.125903  0.137834  1
  O  O100  1  0.953687  0.058292  0.371636  1
  O  O101  1  0.968729  0.097682  0.632603  1
  O  O102  1  0.979225  0.371412  0.809041  1
  O  O103  1  0.994171  0.995798  0.868877  1
