# generated using pymatgen
data_Li4Ti4Mn5O18
_symmetry_space_group_name_H-M   'P 1'
_cell_length_a   9.12685087
_cell_length_b   26.23829777
_cell_length_c   2.91091281
_cell_angle_alpha   90.00002494
_cell_angle_beta   90.00004532
_cell_angle_gamma   89.99055806
_symmetry_Int_Tables_number   1
_chemical_formula_structural   Li4Ti4Mn5O18
_chemical_formula_sum   'Li8 Ti8 Mn10 O36'
_cell_volume   697.08510368
_cell_formula_units_Z   2
loop_
 _symmetry_equiv_pos_site_id
 _symmetry_equiv_pos_as_xyz
  1  'x, y, z'
loop_
 _atom_site_type_symbol
 _atom_site_label
 _atom_site_symmetry_multiplicity
 _atom_site_fract_x
 _atom_site_fract_y
 _atom_site_fract_z
 _atom_site_occupancy
  Li  Li0  1  0.196448  0.985008  0.000001  1
  Li  Li1  1  0.203727  0.183708  0.000001  1
  Li  Li2  1  0.296257  0.683705  1.000000  1
  Li  Li3  1  0.303620  0.485026  0.000000  1
  Li  Li4  1  0.696383  0.514970  0.000000  1
  Li  Li5  1  0.703753  0.316295  0.000001  1
  Li  Li6  1  0.796265  0.816286  0.000000  1
  Li  Li7  1  0.803555  0.014984  0.000001  1
  Ti  Ti8  1  0.995107  0.101470  0.000000  1
  Ti  Ti9  1  0.147809  0.807839  0.500001  1
  Ti  Ti10  1  0.352192  0.307893  0.500000  1
  Ti  Ti11  1  0.504881  0.601442  0.000003  1
  Ti  Ti12  1  0.495120  0.398556  0.999998  1
  Ti  Ti13  1  0.647797  0.692106  0.500003  1
  Ti  Ti14  1  0.852193  0.192158  0.500001  1
  Ti  Ti15  1  0.004892  0.898526  0.000003  1
  Mn  Mn16  1  0.000009  0.500005  0.000001  1
  Mn  Mn17  1  0.010719  0.309261  0.999998  1
  Mn  Mn18  1  0.152893  0.585449  0.499998  1
  Mn  Mn19  1  0.347118  0.085483  0.500000  1
  Mn  Mn20  1  0.489297  0.809203  0.000000  1
  Mn  Mn21  1  0.499997  -0.000003  -0.000001  1
  Mn  Mn22  1  0.510699  0.190797  0.999999  1
  Mn  Mn23  1  0.652891  0.914516  0.500002  1
  Mn  Mn24  1  0.847105  0.414565  0.500000  1
  Mn  Mn25  1  0.989297  0.690759  0.000001  1
  O  O26  1  0.986416  0.425909  0.000000  1
  O  O27  1  0.013588  0.574100  1.000000  1
  O  O28  1  0.059904  0.942020  0.500002  1
  O  O29  1  0.049166  0.155218  0.499999  1
  O  O30  1  0.118203  0.666943  0.500003  1
  O  O31  1  0.099303  0.763467  0.000001  1
  O  O32  1  0.142782  0.499541  0.499999  1
  O  O33  1  0.142800  0.291145  0.499998  1
  O  O34  1  0.183468  0.858585  0.000001  1
  O  O35  1  0.203539  0.083843  -0.000000  1
  O  O36  1  0.296491  0.583805  0.999997  1
  O  O37  1  0.316527  0.358639  0.000000  1
  O  O38  1  0.357224  0.791102  0.499996  1
  O  O39  1  0.357231  0.999554  0.499999  1
  O  O40  1  0.400743  0.263523  0.000000  1
  O  O41  1  0.381808  0.166978  0.499997  1
  O  O42  1  0.450802  0.655192  0.500001  1
  O  O43  1  0.440058  0.442047  0.499999  1
  O  O44  1  0.486422  0.074095  0.999999  1
  O  O45  1  0.513583  0.925901  0.000002  1
  O  O46  1  0.559937  0.557950  0.500001  1
  O  O47  1  0.549194  0.344807  0.500000  1
  O  O48  1  0.618189  0.833021  0.499997  1
  O  O49  1  0.599240  0.736477  0.000003  1
  O  O50  1  0.642765  0.000440  0.500000  1
  O  O51  1  0.642771  0.208898  0.499999  1
  O  O52  1  0.683461  0.641360  0.000001  1
  O  O53  1  0.703506  0.416207  0.000002  1
  O  O54  1  0.796466  0.916151  0.000003  1
  O  O55  1  0.816532  0.141410  0.999999  1
  O  O56  1  0.857194  0.708855  0.500000  1
  O  O57  1  0.857234  0.500467  0.500000  1
  O  O58  1  0.900699  0.236531  -0.000000  1
  O  O59  1  0.881799  0.333065  0.499997  1
  O  O60  1  0.950834  0.844776  0.500000  1
  O  O61  1  0.940099  0.057974  0.499999  1
