# generated using pymatgen
data_LiVPO4
_symmetry_space_group_name_H-M   'P 1'
_cell_length_a   18.91249286
_cell_length_b   5.55952788
_cell_length_c   8.47666747
_cell_angle_alpha   90.00000000
_cell_angle_beta   90.00000000
_cell_angle_gamma   90.00000000
_symmetry_Int_Tables_number   1
_chemical_formula_structural   LiVPO4
_chemical_formula_sum   'Li12 V12 P12 O48'
_cell_volume   891.27522842
_cell_formula_units_Z   12
loop_
 _symmetry_equiv_pos_site_id
 _symmetry_equiv_pos_as_xyz
  1  'x, y, z'
loop_
 _atom_site_type_symbol
 _atom_site_label
 _atom_site_symmetry_multiplicity
 _atom_site_fract_x
 _atom_site_fract_y
 _atom_site_fract_z
 _atom_site_occupancy
  Li  Li0  1  0.082974  0.251974  0.081020  1
  Li  Li1  1  0.083689  0.720939  0.581529  1
  Li  Li2  1  0.249537  0.231377  0.416359  1
  Li  Li3  1  0.250463  0.731377  0.916359  1
  Li  Li4  1  0.416311  0.220939  0.081529  1
  Li  Li5  1  0.417026  0.751974  0.581020  1
  Li  Li6  1  0.582974  0.251974  0.418980  1
  Li  Li7  1  0.583689  0.720939  0.918471  1
  Li  Li8  1  0.749537  0.231377  0.083641  1
  Li  Li9  1  0.750463  0.731377  0.583641  1
  Li  Li10  1  0.916311  0.220939  0.418471  1
  Li  Li11  1  0.917026  0.751974  0.918980  1
  V  V12  1  0.000367  0.235904  0.750288  1
  V  V13  1  0.166284  0.736841  0.249390  1
  V  V14  1  0.167027  0.235568  0.748590  1
  V  V15  1  0.332973  0.735568  0.248590  1
  V  V16  1  0.333716  0.236841  0.749390  1
  V  V17  1  0.499633  0.735904  0.250288  1
  V  V18  1  0.500367  0.235904  0.749712  1
  V  V19  1  0.666284  0.736841  0.250610  1
  V  V20  1  0.667027  0.235568  0.751410  1
  V  V21  1  0.832973  0.735568  0.251410  1
  V  V22  1  0.833716  0.236841  0.750610  1
  V  V23  1  0.999633  0.735904  0.249712  1
  P  P24  1  0.082825  0.234206  0.396088  1
  P  P25  1  0.083851  0.737330  0.896304  1
  P  P26  1  0.249550  0.236902  0.101990  1
  P  P27  1  0.250450  0.736902  0.601990  1
  P  P28  1  0.416148  0.237330  0.396304  1
  P  P29  1  0.417175  0.734206  0.896088  1
  P  P30  1  0.582825  0.234206  0.103912  1
  P  P31  1  0.583851  0.737330  0.603696  1
  P  P32  1  0.749550  0.236902  0.398010  1
  P  P33  1  0.750450  0.736902  0.898010  1
  P  P34  1  0.916149  0.237330  0.103696  1
  P  P35  1  0.917175  0.734206  0.603912  1
  O  O36  1  0.015660  0.232493  0.497684  1
  O  O37  1  0.016473  0.735962  0.997472  1
  O  O38  1  0.083679  0.960039  0.780746  1
  O  O39  1  0.083867  0.510372  0.783012  1
  O  O40  1  0.082679  0.461501  0.283302  1
  O  O41  1  0.082868  0.011968  0.280065  1
  O  O42  1  0.150355  0.235249  0.496597  1
  O  O43  1  0.151195  0.737454  0.997097  1
  O  O44  1  0.182343  0.239053  0.000774  1
  O  O45  1  0.182895  0.735242  0.501444  1
  O  O46  1  0.250328  0.961525  0.716489  1
  O  O47  1  0.250643  0.511945  0.716546  1
  O  O48  1  0.249357  0.011945  0.216546  1
  O  O49  1  0.249672  0.461525  0.216489  1
  O  O50  1  0.317105  0.235242  0.001444  1
  O  O51  1  0.317657  0.739053  0.500774  1
  O  O52  1  0.348805  0.237454  0.497097  1
  O  O53  1  0.349645  0.735249  0.996597  1
  O  O54  1  0.417132  0.511969  0.780065  1
  O  O55  1  0.417321  0.961501  0.783302  1
  O  O56  1  0.416133  0.010372  0.283012  1
  O  O57  1  0.416321  0.460039  0.280746  1
  O  O58  1  0.483527  0.235962  0.497472  1
  O  O59  1  0.484340  0.732493  0.997684  1
  O  O60  1  0.515660  0.232493  0.002316  1
  O  O61  1  0.516473  0.735962  0.502528  1
  O  O62  1  0.583679  0.960039  0.719254  1
  O  O63  1  0.583867  0.510372  0.716988  1
  O  O64  1  0.582679  0.461501  0.216698  1
  O  O65  1  0.582868  0.011968  0.219935  1
  O  O66  1  0.650355  0.235249  0.003404  1
  O  O67  1  0.651195  0.737454  0.502903  1
  O  O68  1  0.682343  0.239053  0.499226  1
  O  O69  1  0.682895  0.735242  0.998556  1
  O  O70  1  0.750328  0.961525  0.783511  1
  O  O71  1  0.750643  0.511945  0.783454  1
  O  O72  1  0.749357  0.011945  0.283454  1
  O  O73  1  0.749672  0.461525  0.283511  1
  O  O74  1  0.817105  0.235242  0.498556  1
  O  O75  1  0.817657  0.739053  0.999226  1
  O  O76  1  0.848805  0.237454  0.002903  1
  O  O77  1  0.849645  0.735249  0.503403  1
  O  O78  1  0.917132  0.511969  0.719935  1
  O  O79  1  0.917321  0.961501  0.716698  1
  O  O80  1  0.916133  0.010372  0.216988  1
  O  O81  1  0.916321  0.460039  0.219254  1
  O  O82  1  0.983527  0.235962  0.002528  1
  O  O83  1  0.984340  0.732493  0.502316  1
