# generated using pymatgen
data_TiV4CoO12
_symmetry_space_group_name_H-M   'P 1'
_cell_length_a   6.82674831
_cell_length_b   6.82674849
_cell_length_c   5.74850503
_cell_angle_alpha   75.13572292
_cell_angle_beta   104.86426969
_cell_angle_gamma   95.60412146
_symmetry_Int_Tables_number   1
_chemical_formula_structural   TiV4CoO12
_chemical_formula_sum   'Ti1 V4 Co1 O12'
_cell_volume   250.13040147
_cell_formula_units_Z   1
loop_
 _symmetry_equiv_pos_site_id
 _symmetry_equiv_pos_as_xyz
  1  'x, y, z'
loop_
 _atom_site_type_symbol
 _atom_site_label
 _atom_site_symmetry_multiplicity
 _atom_site_fract_x
 _atom_site_fract_y
 _atom_site_fract_z
 _atom_site_occupancy
  Ti  Ti0  1  0.905040  0.905040  0.250000  1
  V  V1  1  0.204583  0.611792  0.748551  1
  V  V2  1  0.384855  0.803495  0.250907  1
  V  V3  1  0.611792  0.204583  0.751449  1
  V  V4  1  0.803495  0.384855  0.249093  1
  Co  Co5  1  0.086322  0.086322  0.750000  1
  O  O6  1  0.034799  0.812541  0.621069  1
  O  O7  1  0.086004  0.382641  0.760457  1
  O  O8  1  0.177986  0.969657  0.123947  1
  O  O9  1  0.380122  0.647074  0.558427  1
  O  O10  1  0.382641  0.086004  0.739543  1
  O  O11  1  0.332814  0.626184  0.049603  1
  O  O12  1  0.647074  0.380122  0.941573  1
  O  O13  1  0.640514  0.913578  0.268672  1
  O  O14  1  0.626184  0.332814  0.450397  1
  O  O15  1  0.812541  0.034799  0.878931  1
  O  O16  1  0.913578  0.640514  0.231328  1
  O  O17  1  0.969657  0.177986  0.376053  1
