# generated using pymatgen
data_Li2Fe(PO3)5
_symmetry_space_group_name_H-M   'P 1'
_cell_length_a   12.45644674
_cell_length_b   9.61331785
_cell_length_c   5.35173995
_cell_angle_alpha   90.00000000
_cell_angle_beta   94.65229181
_cell_angle_gamma   90.00000000
_symmetry_Int_Tables_number   1
_chemical_formula_structural   Li2Fe(PO3)5
_chemical_formula_sum   'Li4 Fe2 P10 O30'
_cell_volume   638.74752943
_cell_formula_units_Z   2
loop_
 _symmetry_equiv_pos_site_id
 _symmetry_equiv_pos_as_xyz
  1  'x, y, z'
loop_
 _atom_site_type_symbol
 _atom_site_label
 _atom_site_symmetry_multiplicity
 _atom_site_fract_x
 _atom_site_fract_y
 _atom_site_fract_z
 _atom_site_occupancy
  Li  Li0  1  0.078612  0.595870  0.120064  1
  Li  Li1  1  0.440198  0.636021  0.343410  1
  Li  Li2  1  0.578612  0.404130  0.620064  1
  Li  Li3  1  0.940198  0.363979  0.843410  1
  Fe  Fe4  1  0.493113  0.008764  0.530673  1
  Fe  Fe5  1  0.993113  0.991236  0.030673  1
  P  P6  1  0.080461  0.193537  0.472290  1
  P  P7  1  0.144152  0.481593  0.609229  1
  P  P8  1  0.245119  0.012001  0.270785  1
  P  P9  1  0.360788  0.474790  0.881861  1
  P  P10  1  0.409970  0.180541  0.037328  1
  P  P11  1  0.580461  0.806463  0.972290  1
  P  P12  1  0.644152  0.518407  0.109229  1
  P  P13  1  0.745119  0.987999  0.770785  1
  P  P14  1  0.860788  0.525210  0.381861  1
  P  P15  1  0.909970  0.819459  0.537328  1
  O  O16  1  0.011310  0.153604  0.234829  1
  O  O17  1  0.034549  0.169743  0.718383  1
  O  O18  1  0.065009  0.491682  0.804918  1
  O  O19  1  0.110980  0.350058  0.423818  1
  O  O20  1  0.153295  0.933171  0.134288  1
  O  O21  1  0.163291  0.601616  0.442854  1
  O  O22  1  0.196178  0.116184  0.468322  1
  O  O23  1  0.252201  0.414500  0.740287  1
  O  O24  1  0.293748  0.110481  0.062081  1
  O  O25  1  0.340872  0.593522  0.049727  1
  O  O26  1  0.338284  0.938882  0.413331  1
  O  O27  1  0.386825  0.339268  0.067132  1
  O  O28  1  0.442528  0.483355  0.692787  1
  O  O29  1  0.445315  0.145060  0.781773  1
  O  O30  1  0.487603  0.140676  0.258828  1
  O  O31  1  0.511310  0.846396  0.734829  1
  O  O32  1  0.534549  0.830257  0.218383  1
  O  O33  1  0.565009  0.508318  0.304918  1
  O  O34  1  0.610980  0.649942  0.923818  1
  O  O35  1  0.653295  0.066829  0.634288  1
  O  O36  1  0.663291  0.398384  0.942854  1
  O  O37  1  0.696178  0.883816  0.968322  1
  O  O38  1  0.752201  0.585500  0.240287  1
  O  O39  1  0.793748  0.889519  0.562081  1
  O  O40  1  0.840872  0.406478  0.549727  1
  O  O41  1  0.838284  0.061118  0.913331  1
  O  O42  1  0.886825  0.660732  0.567132  1
  O  O43  1  0.942528  0.516645  0.192787  1
  O  O44  1  0.945315  0.854940  0.281773  1
  O  O45  1  0.987603  0.859324  0.758828  1
