# generated using pymatgen
data_Li2V3BiO8
_symmetry_space_group_name_H-M   'P 1'
_cell_length_a   8.80335973
_cell_length_b   8.79877836
_cell_length_c   8.71214996
_cell_angle_alpha   90.22500110
_cell_angle_beta   89.94922961
_cell_angle_gamma   90.01018016
_symmetry_Int_Tables_number   1
_chemical_formula_structural   Li2V3BiO8
_chemical_formula_sum   'Li8 V12 Bi4 O32'
_cell_volume   674.82729969
_cell_formula_units_Z   4
loop_
 _symmetry_equiv_pos_site_id
 _symmetry_equiv_pos_as_xyz
  1  'x, y, z'
loop_
 _atom_site_type_symbol
 _atom_site_label
 _atom_site_symmetry_multiplicity
 _atom_site_fract_x
 _atom_site_fract_y
 _atom_site_fract_z
 _atom_site_occupancy
  Li  Li0  1  -0.001814  -0.000341  0.002567  1
  Li  Li1  1  0.250215  0.249897  0.248578  1
  Li  Li2  1  0.254296  0.753047  0.747335  1
  Li  Li3  1  0.498639  0.999384  0.502595  1
  Li  Li4  1  0.507562  0.497039  0.996788  1
  Li  Li5  1  0.746887  0.252819  0.750742  1
  Li  Li6  1  0.754453  0.744995  0.253700  1
  Li  Li7  1  0.992739  0.503908  0.498141  1
  V  V8  1  0.103841  0.142492  0.626226  1
  V  V9  1  0.125949  0.397627  0.852668  1
  V  V10  1  0.145338  0.627490  0.106949  1
  V  V11  1  0.353152  0.374855  0.609383  1
  V  V12  1  0.375460  0.612545  0.356637  1
  V  V13  1  0.395781  0.852489  0.124494  1
  V  V14  1  0.606786  0.361105  0.371282  1
  V  V15  1  0.621386  0.103520  0.146219  1
  V  V16  1  0.645422  0.874345  0.898866  1
  V  V17  1  0.856675  0.126305  0.393592  1
  V  V18  1  0.873028  0.889109  0.641738  1
  V  V19  1  0.888266  0.638712  0.879996  1
  Bi  Bi20  1  0.121033  0.879082  0.374235  1
  Bi  Bi21  1  0.376969  0.118968  0.876408  1
  Bi  Bi22  1  0.621472  0.623810  0.629066  1
  Bi  Bi23  1  0.879982  0.370654  0.125478  1
  O  O24  1  0.096091  0.138793  0.404845  1
  O  O25  1  0.095816  0.916266  0.642698  1
  O  O26  1  0.122296  0.623479  0.885707  1
  O  O27  1  0.109524  0.165224  0.844777  1
  O  O28  1  0.136512  0.392549  0.085879  1
  O  O29  1  0.129806  0.373327  0.623970  1
  O  O30  1  0.144940  0.609581  0.326452  1
  O  O31  1  0.164061  0.850970  0.111366  1
  O  O32  1  0.333608  0.149124  0.609494  1
  O  O33  1  0.367571  0.393724  0.820250  1
  O  O34  1  0.370018  0.623800  0.125880  1
  O  O35  1  0.360238  0.607898  0.585982  1
  O  O36  1  0.391452  0.822333  0.367304  1
  O  O37  1  0.374841  0.387753  0.382856  1
  O  O38  1  0.395518  0.082639  0.140030  1
  O  O39  1  0.416815  0.866487  0.882239  1
  O  O40  1  0.587026  0.360166  0.593270  1
  O  O41  1  0.601353  0.582622  0.357267  1
  O  O42  1  0.622381  0.877957  0.127147  1
  O  O43  1  0.605830  0.336601  0.155042  1
  O  O44  1  0.637078  0.116723  0.927435  1
  O  O45  1  0.621908  0.127665  0.363505  1
  O  O46  1  0.659055  0.891455  0.661680  1
  O  O47  1  0.664038  0.635711  0.889778  1
  O  O48  1  0.832130  0.356405  0.387407  1
  O  O49  1  0.854761  0.110455  0.163803  1
  O  O50  1  0.873480  0.862103  0.874293  1
  O  O51  1  0.866243  0.891993  0.414426  1
  O  O52  1  0.888874  0.666847  0.645653  1
  O  O53  1  0.878929  0.120727  0.624141  1
  O  O54  1  0.888555  0.426019  0.856753  1
  O  O55  1  0.915732  0.638888  0.105128  1
