# generated using pymatgen
data_Li7Bi2P7O24
_symmetry_space_group_name_H-M   'P 1'
_cell_length_a   16.15529713
_cell_length_b   5.24686106
_cell_length_c   12.18278555
_cell_angle_alpha   90.00000000
_cell_angle_beta   95.48378786
_cell_angle_gamma   90.00000000
_symmetry_Int_Tables_number   1
_chemical_formula_structural   Li7Bi2P7O24
_chemical_formula_sum   'Li14 Bi4 P14 O48'
_cell_volume   1027.94269901
_cell_formula_units_Z   2
loop_
 _symmetry_equiv_pos_site_id
 _symmetry_equiv_pos_as_xyz
  1  'x, y, z'
loop_
 _atom_site_type_symbol
 _atom_site_label
 _atom_site_symmetry_multiplicity
 _atom_site_fract_x
 _atom_site_fract_y
 _atom_site_fract_z
 _atom_site_occupancy
  Li  Li0  1  0.032835  0.767809  0.523286  1
  Li  Li1  1  0.131874  0.779670  0.884664  1
  Li  Li2  1  0.032835  0.232191  0.023286  1
  Li  Li3  1  0.131874  0.220330  0.384663  1
  Li  Li4  1  0.423545  0.166555  0.559028  1
  Li  Li5  1  0.423545  0.833445  0.059028  1
  Li  Li6  1  0.500000  0.711943  0.750000  1
  Li  Li7  1  0.500000  0.288057  0.250000  1
  Li  Li8  1  0.576455  0.166555  0.940972  1
  Li  Li9  1  0.576455  0.833445  0.440972  1
  Li  Li10  1  0.868126  0.779670  0.615336  1
  Li  Li11  1  0.967165  0.767809  0.976714  1
  Li  Li12  1  0.868126  0.220330  0.115336  1
  Li  Li13  1  0.967165  0.232191  0.476714  1
  Bi  Bi14  1  0.276711  0.668430  0.691536  1
  Bi  Bi15  1  0.276711  0.331570  0.191536  1
  Bi  Bi16  1  0.723289  0.668430  0.808464  1
  Bi  Bi17  1  0.723289  0.331570  0.308464  1
  P  P18  1  0.000000  0.465991  0.750000  1
  P  P19  1  0.000000  0.534009  0.250000  1
  P  P20  1  0.129957  0.135287  0.658237  1
  P  P21  1  0.129957  0.864713  0.158237  1
  P  P22  1  0.277468  0.391505  0.947752  1
  P  P23  1  0.277468  0.608495  0.447752  1
  P  P24  1  0.398434  0.180889  0.808614  1
  P  P25  1  0.398434  0.819111  0.308614  1
  P  P26  1  0.601566  0.180889  0.691386  1
  P  P27  1  0.601566  0.819111  0.191386  1
  P  P28  1  0.722532  0.391505  0.552248  1
  P  P29  1  0.722532  0.608495  0.052248  1
  P  P30  1  0.870043  0.135287  0.841763  1
  P  P31  1  0.870043  0.864713  0.341763  1
  O  O32  1  0.017036  0.606901  0.858121  1
  O  O33  1  0.017036  0.393099  0.358121  1
  O  O34  1  0.077855  0.279805  0.748970  1
  O  O35  1  0.073527  0.113501  0.549935  1
  O  O36  1  0.077855  0.720195  0.248970  1
  O  O37  1  0.073527  0.886499  0.049935  1
  O  O38  1  0.148115  0.879160  0.717069  1
  O  O39  1  0.214686  0.244682  0.011133  1
  O  O40  1  0.207684  0.290341  0.645571  1
  O  O41  1  0.148115  0.120840  0.217069  1
  O  O42  1  0.214686  0.755318  0.511133  1
  O  O43  1  0.234686  0.596607  0.872257  1
  O  O44  1  0.207684  0.709659  0.145571  1
  O  O45  1  0.234686  0.403393  0.372257  1
  O  O46  1  0.311256  0.174594  0.867473  1
  O  O47  1  0.311256  0.825406  0.367473  1
  O  O48  1  0.379874  0.014538  0.703728  1
  O  O49  1  0.349452  0.504801  0.527238  1
  O  O50  1  0.410580  0.462878  0.777835  1
  O  O51  1  0.379874  0.985462  0.203728  1
  O  O52  1  0.349452  0.495199  0.027238  1
  O  O53  1  0.410580  0.537122  0.277835  1
  O  O54  1  0.464078  0.063121  0.890042  1
  O  O55  1  0.464078  0.936879  0.390042  1
  O  O56  1  0.535922  0.063121  0.609958  1
  O  O57  1  0.535922  0.936879  0.109958  1
  O  O58  1  0.589420  0.462878  0.722165  1
  O  O59  1  0.650548  0.504801  0.972762  1
  O  O60  1  0.620126  0.014538  0.796272  1
  O  O61  1  0.589420  0.537122  0.222165  1
  O  O62  1  0.650548  0.495199  0.472762  1
  O  O63  1  0.620126  0.985462  0.296272  1
  O  O64  1  0.688744  0.174594  0.632527  1
  O  O65  1  0.688744  0.825406  0.132527  1
  O  O66  1  0.765314  0.596607  0.627743  1
  O  O67  1  0.792316  0.290341  0.854429  1
  O  O68  1  0.765314  0.403393  0.127743  1
  O  O69  1  0.785314  0.244682  0.488867  1
  O  O70  1  0.851885  0.879160  0.782931  1
  O  O71  1  0.792316  0.709659  0.354429  1
  O  O72  1  0.785314  0.755318  0.988867  1
  O  O73  1  0.851885  0.120840  0.282931  1
  O  O74  1  0.926473  0.113501  0.950065  1
  O  O75  1  0.922145  0.279805  0.751030  1
  O  O76  1  0.926473  0.886499  0.450065  1
  O  O77  1  0.922145  0.720195  0.251030  1
  O  O78  1  0.982964  0.606901  0.641879  1
  O  O79  1  0.982964  0.393099  0.141879  1
