# generated using pymatgen
data_Na5(NiO2)6
_symmetry_space_group_name_H-M   'P 1'
_cell_length_a   6.85380105
_cell_length_b   6.90597896
_cell_length_c   5.98443077
_cell_angle_alpha   76.84093460
_cell_angle_beta   112.78998226
_cell_angle_gamma   113.19305311
_symmetry_Int_Tables_number   1
_chemical_formula_structural   Na5(NiO2)6
_chemical_formula_sum   'Na5 Ni6 O12'
_cell_volume   239.09344954
_cell_formula_units_Z   1
loop_
 _symmetry_equiv_pos_site_id
 _symmetry_equiv_pos_as_xyz
  1  'x, y, z'
loop_
 _atom_site_type_symbol
 _atom_site_label
 _atom_site_symmetry_multiplicity
 _atom_site_fract_x
 _atom_site_fract_y
 _atom_site_fract_z
 _atom_site_occupancy
  Na  Na0  1  0.510024  0.006272  0.263081  1
  Na  Na1  1  0.833347  0.333331  0.083313  1
  Na  Na2  1  0.518900  0.016087  0.745023  1
  Na  Na3  1  0.147768  0.650588  0.421642  1
  Na  Na4  1  0.156635  0.660379  0.903586  1
  Ni  Ni5  1  0.001951  0.999552  0.002773  1
  Ni  Ni6  1  0.001484  0.000315  0.503193  1
  Ni  Ni7  1  0.336204  0.331869  0.335001  1
  Ni  Ni8  1  0.664724  0.667132  0.163879  1
  Ni  Ni9  1  0.330474  0.334818  0.831690  1
  Ni  Ni10  1  0.665172  0.666337  0.663486  1
  O  O11  1  0.228998  0.029113  0.373405  1
  O  O12  1  0.548807  0.364798  0.178927  1
  O  O13  1  0.117294  0.301545  0.478739  1
  O  O14  1  0.230117  0.032255  0.873789  1
  O  O15  1  0.890217  0.694708  0.033540  1
  O  O16  1  0.436557  0.634442  0.292880  1
  O  O17  1  0.549385  0.365131  0.688117  1
  O  O18  1  0.117833  0.301851  0.987552  1
  O  O19  1  0.776448  0.971962  0.133128  1
  O  O20  1  0.887451  0.700051  0.529032  1
  O  O21  1  0.437660  0.637520  0.793261  1
  O  O22  1  0.779215  0.966610  0.637630  1
