# generated using pymatgen
data_MnV(P2O7)2
_symmetry_space_group_name_H-M   'P 1'
_cell_length_a   4.82467347
_cell_length_b   8.09355276
_cell_length_c   7.01138066
_cell_angle_alpha   92.47445871
_cell_angle_beta   108.29586686
_cell_angle_gamma   88.75126414
_symmetry_Int_Tables_number   1
_chemical_formula_structural   MnV(P2O7)2
_chemical_formula_sum   'Mn1 V1 P4 O14'
_cell_volume   259.69308845
_cell_formula_units_Z   1
loop_
 _symmetry_equiv_pos_site_id
 _symmetry_equiv_pos_as_xyz
  1  'x, y, z'
loop_
 _atom_site_type_symbol
 _atom_site_label
 _atom_site_symmetry_multiplicity
 _atom_site_fract_x
 _atom_site_fract_y
 _atom_site_fract_z
 _atom_site_occupancy
  Mn  Mn0  1  0.788369  0.003447  0.272359  1
  V  V1  1  0.207809  0.503742  0.717855  1
  P  P2  1  0.403396  0.173176  0.519627  1
  P  P3  1  0.223798  0.780054  0.093148  1
  P  P4  1  0.786375  0.285093  0.911522  1
  P  P5  1  0.600388  0.684402  0.483804  1
  O  O6  1  0.042131  0.341241  0.841377  1
  O  O7  1  0.150589  0.672942  0.894794  1
  O  O8  1  0.173939  0.040699  0.472537  1
  O  O9  1  0.264342  0.348903  0.528957  1
  O  O10  1  0.386884  0.665101  0.607283  1
  O  O11  1  0.575210  0.437612  0.897065  1
  O  O12  1  0.604651  0.148095  0.748803  1
  O  O13  1  0.407749  0.646938  0.252506  1
  O  O14  1  0.406063  0.930060  0.091063  1
  O  O15  1  0.597395  0.179148  0.387268  1
  O  O16  1  0.731406  0.851981  0.506181  1
  O  O17  1  0.829905  0.542213  0.531947  1
  O  O18  1  0.883186  0.205947  0.109087  1
  O  O19  1  0.941717  0.822767  0.137422  1
