# generated using pymatgen
data_Na2Ti12O25
_symmetry_space_group_name_H-M   'P 1'
_cell_length_a   14.65693745
_cell_length_b   7.52213708
_cell_length_c   10.10487736
_cell_angle_alpha   68.14824103
_cell_angle_beta   104.68957328
_cell_angle_gamma   90.00066665
_symmetry_Int_Tables_number   1
_chemical_formula_structural   Na2Ti12O25
_chemical_formula_sum   'Na4 Ti24 O50'
_cell_volume   994.69167688
_cell_formula_units_Z   2
loop_
 _symmetry_equiv_pos_site_id
 _symmetry_equiv_pos_as_xyz
  1  'x, y, z'
loop_
 _atom_site_type_symbol
 _atom_site_label
 _atom_site_symmetry_multiplicity
 _atom_site_fract_x
 _atom_site_fract_y
 _atom_site_fract_z
 _atom_site_occupancy
  Na  Na0  1  0.041649  0.602416  0.294949  1
  Na  Na1  1  0.493354  0.489819  0.020624  1
  Na  Na2  1  0.958801  0.397179  0.705771  1
  Na  Na3  1  0.959533  0.898198  0.703513  1
  Ti  Ti4  1  0.123799  0.503993  0.991186  1
  Ti  Ti5  1  0.123487  0.004742  0.991347  1
  Ti  Ti6  1  0.175409  0.158382  0.684351  1
  Ti  Ti7  1  0.176078  0.657102  0.685290  1
  Ti  Ti8  1  0.293093  0.767229  0.967886  1
  Ti  Ti9  1  0.293595  0.265428  0.967126  1
  Ti  Ti10  1  0.239414  0.301823  0.393956  1
  Ti  Ti11  1  0.239113  0.803980  0.394441  1
  Ti  Ti12  1  0.352353  0.410529  0.678879  1
  Ti  Ti13  1  0.352969  0.910110  0.679917  1
  Ti  Ti14  1  0.406388  0.068277  0.363125  1
  Ti  Ti15  1  0.405820  0.568658  0.363279  1
  Ti  Ti16  1  0.593320  0.931544  0.637352  1
  Ti  Ti17  1  0.592925  0.431703  0.636325  1
  Ti  Ti18  1  0.647571  0.088728  0.321469  1
  Ti  Ti19  1  0.647466  0.589854  0.321011  1
  Ti  Ti20  1  0.758916  0.196975  0.606524  1
  Ti  Ti21  1  0.758877  0.696403  0.607066  1
  Ti  Ti22  1  0.705569  0.233538  0.031602  1
  Ti  Ti23  1  0.706592  0.734424  0.032049  1
  Ti  Ti24  1  0.823885  0.341955  0.315303  1
  Ti  Ti25  1  0.824541  0.841989  0.316032  1
  Ti  Ti26  1  0.878130  0.491319  0.016061  1
  Ti  Ti27  1  0.878153  0.992758  0.015702  1
  O  O28  1  0.075013  0.618695  0.760755  1
  O  O29  1  0.074552  0.120761  0.760434  1
  O  O30  1  0.157199  0.256012  0.987710  1
  O  O31  1  0.156857  0.757252  0.985884  1
  O  O32  1  0.999641  0.997125  0.997441  1
  O  O33  1  0.999774  0.505292  0.997512  1
  O  O34  1  0.136394  0.271528  0.481210  1
  O  O35  1  0.136433  0.747165  0.481825  1
  O  O36  1  0.217880  0.389831  0.719907  1
  O  O37  1  0.216955  0.891857  0.717156  1
  O  O38  1  0.258254  0.036569  0.926981  1
  O  O39  1  0.258140  0.536282  0.927677  1
  O  O40  1  0.175807  0.404288  0.203374  1
  O  O41  1  0.175743  0.892289  0.203345  1
  O  O42  1  0.279420  0.533448  0.433089  1
  O  O43  1  0.279118  0.033467  0.433145  1
  O  O44  1  0.317710  0.177412  0.644692  1
  O  O45  1  0.317241  0.679174  0.642405  1
  O  O46  1  0.396997  0.322114  0.878609  1
  O  O47  1  0.396879  0.799042  0.879232  1
  O  O48  1  0.377647  0.813982  0.372544  1
  O  O49  1  0.378085  0.312677  0.374258  1
  O  O50  1  0.365478  0.176576  0.156441  1
  O  O51  1  0.365398  0.667321  0.156453  1
  O  O52  1  0.461268  0.945777  0.607063  1
  O  O53  1  0.461012  0.447197  0.606951  1
  O  O54  1  0.538848  0.054652  0.392869  1
  O  O55  1  0.538605  0.552437  0.392978  1
  O  O56  1  0.635472  0.826060  0.842861  1
  O  O57  1  0.635169  0.330828  0.842464  1
  O  O58  1  0.621897  0.186588  0.626877  1
  O  O59  1  0.621647  0.687087  0.625810  1
  O  O60  1  0.602526  0.200504  0.122046  1
  O  O61  1  0.602747  0.677509  0.121949  1
  O  O62  1  0.683061  0.320816  0.357835  1
  O  O63  1  0.682938  0.822093  0.356110  1
  O  O64  1  0.721149  0.466431  0.567391  1
  O  O65  1  0.721350  0.966273  0.567365  1
  O  O66  1  0.826346  0.103061  0.794554  1
  O  O67  1  0.826412  0.602533  0.794711  1
  O  O68  1  0.741439  0.463153  0.072898  1
  O  O69  1  0.740773  0.963382  0.073600  1
  O  O70  1  0.783159  0.108396  0.282315  1
  O  O71  1  0.782191  0.608687  0.282948  1
  O  O72  1  0.865198  0.240568  0.520829  1
  O  O73  1  0.865410  0.737954  0.521410  1
  O  O74  1  0.841933  0.244329  0.010956  1
  O  O75  1  0.841465  0.745412  0.009444  1
  O  O76  1  0.922230  0.394010  0.235209  1
  O  O77  1  0.922535  0.870614  0.235221  1
