# generated using pymatgen
data_FeOF
_symmetry_space_group_name_H-M   'P 1'
_cell_length_a   9.49817256
_cell_length_b   14.28270572
_cell_length_c   3.09587462
_cell_angle_alpha   90.00000000
_cell_angle_beta   90.00000000
_cell_angle_gamma   90.53790291
_symmetry_Int_Tables_number   1
_chemical_formula_structural   FeOF
_chemical_formula_sum   'Fe12 O12 F12'
_cell_volume   419.96661561
_cell_formula_units_Z   12
loop_
 _symmetry_equiv_pos_site_id
 _symmetry_equiv_pos_as_xyz
  1  'x, y, z'
loop_
 _atom_site_type_symbol
 _atom_site_label
 _atom_site_symmetry_multiplicity
 _atom_site_fract_x
 _atom_site_fract_y
 _atom_site_fract_z
 _atom_site_occupancy
  Fe  Fe0  1  0.013866  0.995935  0.000000  1
  Fe  Fe1  1  0.009070  0.336037  0.000000  1
  Fe  Fe2  1  0.008568  0.660354  0.000000  1
  Fe  Fe3  1  0.289778  0.163458  0.500000  1
  Fe  Fe4  1  0.229491  0.499332  0.500000  1
  Fe  Fe5  1  0.224710  0.828962  0.500000  1
  Fe  Fe6  1  0.504715  0.324667  0.000000  1
  Fe  Fe7  1  0.510110  0.000090  0.000000  1
  Fe  Fe8  1  0.515846  0.666909  0.000000  1
  Fe  Fe9  1  0.726831  0.165692  0.500000  1
  Fe  Fe10  1  0.747647  0.520979  0.500000  1
  Fe  Fe11  1  0.724967  0.833696  0.500000  1
  O  O12  1  0.098635  0.599403  0.500000  1
  O  O13  1  0.098824  0.940370  0.500000  1
  O  O14  1  0.143500  0.767874  0.000000  1
  O  O15  1  0.150854  0.428261  0.000000  1
  O  O16  1  0.345894  0.237524  0.000000  1
  O  O17  1  0.404951  0.059731  0.500000  1
  O  O18  1  0.602225  0.274012  0.500000  1
  O  O19  1  0.598345  0.934627  0.500000  1
  O  O20  1  0.584610  0.599262  0.500000  1
  O  O21  1  0.659960  0.102313  0.000000  1
  O  O22  1  0.652728  0.766708  0.000000  1
  O  O23  1  0.848571  0.565960  0.000000  1
  F  F24  1  0.090870  0.265071  0.500000  1
  F  F25  1  0.151654  0.107980  0.000000  1
  F  F26  1  0.343655  0.561556  0.000000  1
  F  F27  1  0.343493  0.891396  0.000000  1
  F  F28  1  0.404910  0.405006  0.500000  1
  F  F29  1  0.395862  0.729362  0.500000  1
  F  F30  1  0.655917  0.436019  0.000000  1
  F  F31  1  0.857057  0.235113  0.000000  1
  F  F32  1  0.850419  0.901195  0.000000  1
  F  F33  1  0.909893  0.069730  0.500000  1
  F  F34  1  0.900778  0.392004  0.500000  1
  F  F35  1  0.900797  0.733410  0.500000  1
