# generated using pymatgen
data_LiCu2P3H8O13
_symmetry_space_group_name_H-M   'P 1'
_cell_length_a   6.80791438
_cell_length_b   9.29374173
_cell_length_c   9.87627920
_cell_angle_alpha   94.69595792
_cell_angle_beta   104.30286733
_cell_angle_gamma   107.68105312
_symmetry_Int_Tables_number   1
_chemical_formula_structural   LiCu2P3H8O13
_chemical_formula_sum   'Li2 Cu4 P6 H16 O26'
_cell_volume   568.51728896
_cell_formula_units_Z   2
loop_
 _symmetry_equiv_pos_site_id
 _symmetry_equiv_pos_as_xyz
  1  'x, y, z'
loop_
 _atom_site_type_symbol
 _atom_site_label
 _atom_site_symmetry_multiplicity
 _atom_site_fract_x
 _atom_site_fract_y
 _atom_site_fract_z
 _atom_site_occupancy
  Li  Li0  1  0.635781  0.749262  0.612170  1
  Li  Li1  1  0.364219  0.250738  0.387830  1
  Cu  Cu2  1  0.194531  0.657398  0.961624  1
  Cu  Cu3  1  0.560821  0.947484  0.848862  1
  Cu  Cu4  1  0.439179  0.052516  0.151138  1
  Cu  Cu5  1  0.805469  0.342602  0.038376  1
  P  P6  1  0.078941  0.978873  0.822464  1
  P  P7  1  0.270065  0.296268  0.967363  1
  P  P8  1  0.177985  0.222875  0.661341  1
  P  P9  1  0.822015  0.777125  0.338659  1
  P  P10  1  0.729935  0.703732  0.032637  1
  P  P11  1  0.921059  0.021127  0.177536  1
  H  H12  1  0.030950  0.454868  0.680548  1
  H  H13  1  0.271312  0.799399  0.546397  1
  H  H14  1  0.275260  0.693471  0.659731  1
  H  H15  1  0.081340  0.423800  0.316590  1
  H  H16  1  0.204648  0.797973  0.254902  1
  H  H17  1  0.432894  0.790152  0.280387  1
  H  H18  1  0.337570  0.434852  0.223666  1
  H  H19  1  0.518415  0.455392  0.633085  1
  H  H20  1  0.481585  0.544608  0.366915  1
  H  H21  1  0.662430  0.565148  0.776334  1
  H  H22  1  0.567106  0.209848  0.719613  1
  H  H23  1  0.795352  0.202027  0.745098  1
  H  H24  1  0.918660  0.576200  0.683410  1
  H  H25  1  0.724740  0.306529  0.340269  1
  H  H26  1  0.728688  0.200601  0.453603  1
  H  H27  1  0.969050  0.545132  0.319452  1
  O  O28  1  0.246925  0.916750  0.900387  1
  O  O29  1  0.062677  0.565200  0.712227  1
  O  O30  1  0.040224  0.760587  0.385570  1
  O  O31  1  0.080029  0.130597  0.917475  1
  O  O32  1  0.371833  0.776255  0.625148  1
  O  O33  1  0.307660  0.331153  0.814576  1
  O  O34  1  0.161411  0.052756  0.692699  1
  O  O35  1  0.526721  0.719603  0.942467  1
  O  O36  1  0.322251  0.813352  0.209543  1
  O  O37  1  0.172654  0.406617  0.022311  1
  O  O38  1  0.333257  0.262075  0.573647  1
  O  O39  1  0.152384  0.118026  0.232985  1
  O  O40  1  0.366139  0.444865  0.327454  1
  O  O41  1  0.633861  0.555135  0.672546  1
  O  O42  1  0.847616  0.881974  0.767015  1
  O  O43  1  0.666743  0.737925  0.426353  1
  O  O44  1  0.827346  0.593383  0.977689  1
  O  O45  1  0.677749  0.186648  0.790457  1
  O  O46  1  0.473279  0.280397  0.057533  1
  O  O47  1  0.838589  0.947244  0.307301  1
  O  O48  1  0.692340  0.668847  0.185424  1
  O  O49  1  0.628167  0.223745  0.374852  1
  O  O50  1  0.919971  0.869403  0.082525  1
  O  O51  1  0.959776  0.239413  0.614430  1
  O  O52  1  0.937323  0.434800  0.287773  1
  O  O53  1  0.753075  0.083250  0.099613  1
