# generated using pymatgen
data_Ca2Ti6N2O11
_symmetry_space_group_name_H-M   'P 1'
_cell_length_a   3.75455845
_cell_length_b   7.74556155
_cell_length_c   9.50175829
_cell_angle_alpha   80.72736430
_cell_angle_beta   90.08231621
_cell_angle_gamma   76.14146781
_symmetry_Int_Tables_number   1
_chemical_formula_structural   Ca2Ti6N2O11
_chemical_formula_sum   'Ca2 Ti6 N2 O11'
_cell_volume   264.54165050
_cell_formula_units_Z   1
loop_
 _symmetry_equiv_pos_site_id
 _symmetry_equiv_pos_as_xyz
  1  'x, y, z'
loop_
 _atom_site_type_symbol
 _atom_site_label
 _atom_site_symmetry_multiplicity
 _atom_site_fract_x
 _atom_site_fract_y
 _atom_site_fract_z
 _atom_site_occupancy
  Ca  Ca0  1  0.525115  0.937124  0.810075  1
  Ca  Ca1  1  0.440716  0.108803  0.262674  1
  Ti  Ti2  1  0.110109  0.777124  0.087709  1
  Ti  Ti3  1  0.165643  0.668215  0.430170  1
  Ti  Ti4  1  0.223895  0.548675  0.755476  1
  Ti  Ti5  1  0.756328  0.483735  0.223659  1
  Ti  Ti6  1  0.838825  0.315257  0.562270  1
  Ti  Ti7  1  0.874250  0.247212  0.923200  1
  N  N8  1  0.648052  0.701213  0.097976  1
  N  N9  1  0.997910  0.004247  0.984256  1
  O  O10  1  0.065291  0.869513  0.285298  1
  O  O11  1  0.128495  0.750422  0.598022  1
  O  O12  1  0.151133  0.693663  0.885518  1
  O  O13  1  0.701479  0.595854  0.416975  1
  O  O14  1  0.756150  0.484343  0.749422  1
  O  O15  1  0.249960  0.496861  0.257019  1
  O  O16  1  0.296780  0.401238  0.567776  1
  O  O17  1  0.351265  0.293245  0.882532  1
  O  O18  1  0.848347  0.296731  0.112725  1
  O  O19  1  0.885058  0.223699  0.396891  1
  O  O20  1  0.934686  0.124877  0.704483  1
