# generated using pymatgen
data_Li4CrF6
_symmetry_space_group_name_H-M   'P 1'
_cell_length_a   4.96913538
_cell_length_b   4.96018162
_cell_length_c   9.35161654
_cell_angle_alpha   90.00074728
_cell_angle_beta   93.03124958
_cell_angle_gamma   90.00134732
_symmetry_Int_Tables_number   1
_chemical_formula_structural   Li4CrF6
_chemical_formula_sum   'Li8 Cr2 F12'
_cell_volume   230.17440293
_cell_formula_units_Z   2
loop_
 _symmetry_equiv_pos_site_id
 _symmetry_equiv_pos_as_xyz
  1  'x, y, z'
loop_
 _atom_site_type_symbol
 _atom_site_label
 _atom_site_symmetry_multiplicity
 _atom_site_fract_x
 _atom_site_fract_y
 _atom_site_fract_z
 _atom_site_occupancy
  Li  Li0  1  0.011149  0.014613  0.640910  1
  Li  Li1  1  0.003139  0.485291  0.248638  1
  Li  Li2  1  0.488891  0.514440  0.859119  1
  Li  Li3  1  0.503193  0.014724  0.748674  1
  Li  Li4  1  0.496770  0.985278  0.251373  1
  Li  Li5  1  0.511257  0.485384  0.140933  1
  Li  Li6  1  0.996767  0.514726  0.751353  1
  Li  Li7  1  0.988744  0.985558  0.359090  1
  Cr  Cr8  1  0.000392  0.999857  -0.000067  1
  Cr  Cr9  1  0.500066  0.499982  0.499845  1
  F  F10  1  0.214785  0.222634  0.811671  1
  F  F11  1  0.207580  0.198401  0.169947  1
  F  F12  1  0.210229  0.206574  0.494245  1
  F  F13  1  0.289920  0.705999  0.005729  1
  F  F14  1  0.285022  0.722726  0.688396  1
  F  F15  1  0.292274  0.698582  0.330063  1
  F  F16  1  0.707429  0.301676  0.669799  1
  F  F17  1  0.714733  0.277417  0.311618  1
  F  F18  1  0.710586  0.293347  0.994349  1
  F  F19  1  0.789572  0.793944  0.505639  1
  F  F20  1  0.792465  0.801511  0.830207  1
  F  F21  1  0.785037  0.777333  0.188456  1
