# generated using pymatgen
data_Li2Mn5F17
_symmetry_space_group_name_H-M   'P 1'
_cell_length_a   7.53135273
_cell_length_b   12.80721108
_cell_length_c   15.17292292
_cell_angle_alpha   90.00000000
_cell_angle_beta   90.00000000
_cell_angle_gamma   107.09925282
_symmetry_Int_Tables_number   1
_chemical_formula_structural   Li2Mn5F17
_chemical_formula_sum   'Li8 Mn20 F68'
_cell_volume   1398.82183145
_cell_formula_units_Z   4
loop_
 _symmetry_equiv_pos_site_id
 _symmetry_equiv_pos_as_xyz
  1  'x, y, z'
loop_
 _atom_site_type_symbol
 _atom_site_label
 _atom_site_symmetry_multiplicity
 _atom_site_fract_x
 _atom_site_fract_y
 _atom_site_fract_z
 _atom_site_occupancy
  Li  Li0  1  0.000000  0.000000  0.000000  1
  Li  Li1  1  0.000000  0.000000  0.500000  1
  Li  Li2  1  0.295317  0.590634  0.250000  1
  Li  Li3  1  0.254170  0.508341  0.463827  1
  Li  Li4  1  0.254170  0.508341  0.036173  1
  Li  Li5  1  0.704683  0.409366  0.750000  1
  Li  Li6  1  0.745830  0.491659  0.963827  1
  Li  Li7  1  0.745830  0.491659  0.536173  1
  Mn  Mn8  1  0.116019  0.735437  0.874995  1
  Mn  Mn9  1  0.116019  0.735437  0.625005  1
  Mn  Mn10  1  0.250330  0.996687  0.750000  1
  Mn  Mn11  1  0.123127  0.744665  0.120001  1
  Mn  Mn12  1  0.123127  0.744665  0.379999  1
  Mn  Mn13  1  0.621539  0.744665  0.120001  1
  Mn  Mn14  1  0.621539  0.744665  0.379999  1
  Mn  Mn15  1  0.380582  0.264563  0.374995  1
  Mn  Mn16  1  0.380582  0.264563  0.125005  1
  Mn  Mn17  1  0.746358  0.996687  0.750000  1
  Mn  Mn18  1  0.253642  0.003313  0.250000  1
  Mn  Mn19  1  0.619418  0.735437  0.625005  1
  Mn  Mn20  1  0.619418  0.735437  0.874995  1
  Mn  Mn21  1  0.378461  0.255335  0.620001  1
  Mn  Mn22  1  0.378461  0.255335  0.879999  1
  Mn  Mn23  1  0.876873  0.255335  0.620001  1
  Mn  Mn24  1  0.876873  0.255335  0.879999  1
  Mn  Mn25  1  0.749670  0.003313  0.250000  1
  Mn  Mn26  1  0.883981  0.264563  0.374995  1
  Mn  Mn27  1  0.883981  0.264563  0.125005  1
  F  F28  1  0.985629  0.597818  0.908274  1
  F  F29  1  0.985629  0.597818  0.591726  1
  F  F30  1  0.137179  0.888485  0.154557  1
  F  F31  1  0.137179  0.888485  0.345443  1
  F  F32  1  0.097284  0.797517  0.505562  1
  F  F33  1  0.097284  0.797517  0.994438  1
  F  F34  1  0.242293  0.881209  0.844050  1
  F  F35  1  0.242293  0.881209  0.655950  1
  F  F36  1  0.118818  0.607776  0.084796  1
  F  F37  1  0.118818  0.607776  0.415204  1
  F  F38  1  0.133791  0.691001  0.750000  1
  F  F39  1  0.152505  0.692801  0.250000  1
  F  F40  1  0.117173  0.234345  0.154113  1
  F  F41  1  0.019135  0.038270  0.250000  1
  F  F42  1  0.395363  0.790726  0.390673  1
  F  F43  1  0.352774  0.705547  0.595382  1
  F  F44  1  0.117173  0.234345  0.345887  1
  F  F45  1  0.150110  0.300218  0.633521  1
  F  F46  1  0.150110  0.300218  0.866479  1
  F  F47  1  0.395363  0.790726  0.109327  1
  F  F48  1  0.479808  0.959616  0.250000  1
  F  F49  1  0.352774  0.705547  0.904618  1
  F  F50  1  0.387811  0.402182  0.091726  1
  F  F51  1  0.387811  0.402182  0.408274  1
  F  F52  1  0.540297  0.692801  0.250000  1
  F  F53  1  0.248694  0.111515  0.654557  1
  F  F54  1  0.248694  0.111515  0.845443  1
  F  F55  1  0.557209  0.691001  0.750000  1
  F  F56  1  0.488958  0.607776  0.415204  1
  F  F57  1  0.488958  0.607776  0.084796  1
  F  F58  1  0.299767  0.202483  0.005562  1
  F  F59  1  0.299767  0.202483  0.494438  1
  F  F60  1  0.638915  0.881209  0.844050  1
  F  F61  1  0.638915  0.881209  0.655950  1
  F  F62  1  0.361085  0.118791  0.155950  1
  F  F63  1  0.361085  0.118791  0.344050  1
  F  F64  1  0.700233  0.797517  0.505562  1
  F  F65  1  0.700233  0.797517  0.994438  1
  F  F66  1  0.511042  0.392224  0.584796  1
  F  F67  1  0.511042  0.392224  0.915204  1
  F  F68  1  0.442791  0.308999  0.250000  1
  F  F69  1  0.751306  0.888485  0.154557  1
  F  F70  1  0.751306  0.888485  0.345443  1
  F  F71  1  0.459703  0.307199  0.750000  1
  F  F72  1  0.612189  0.597818  0.591726  1
  F  F73  1  0.612189  0.597818  0.908274  1
  F  F74  1  0.882827  0.765655  0.654113  1
  F  F75  1  0.520192  0.040384  0.750000  1
  F  F76  1  0.647226  0.294453  0.095382  1
  F  F77  1  0.980865  0.961730  0.750000  1
  F  F78  1  0.849890  0.699781  0.366479  1
  F  F79  1  0.647226  0.294453  0.404618  1
  F  F80  1  0.849890  0.699781  0.133521  1
  F  F81  1  0.882827  0.765655  0.845887  1
  F  F82  1  0.604637  0.209274  0.609327  1
  F  F83  1  0.604637  0.209274  0.890673  1
  F  F84  1  0.847495  0.307199  0.750000  1
  F  F85  1  0.866209  0.308999  0.250000  1
  F  F86  1  0.881182  0.392224  0.584796  1
  F  F87  1  0.881182  0.392224  0.915204  1
  F  F88  1  0.757707  0.118791  0.344050  1
  F  F89  1  0.757707  0.118791  0.155950  1
  F  F90  1  0.902716  0.202483  0.494438  1
  F  F91  1  0.902716  0.202483  0.005562  1
  F  F92  1  0.862821  0.111515  0.654557  1
  F  F93  1  0.862821  0.111515  0.845443  1
  F  F94  1  0.014371  0.402182  0.408274  1
  F  F95  1  0.014371  0.402182  0.091726  1
