# generated using pymatgen
data_Ti5Cr(PO4)6
_symmetry_space_group_name_H-M   'P 1'
_cell_length_a   8.47521219
_cell_length_b   8.47521190
_cell_length_c   8.47521216
_cell_angle_alpha   61.89505484
_cell_angle_beta   61.89505290
_cell_angle_gamma   61.89505327
_symmetry_Int_Tables_number   1
_chemical_formula_structural   Ti5Cr(PO4)6
_chemical_formula_sum   'Ti5 Cr1 P6 O24'
_cell_volume   448.72412224
_cell_formula_units_Z   1
loop_
 _symmetry_equiv_pos_site_id
 _symmetry_equiv_pos_as_xyz
  1  'x, y, z'
loop_
 _atom_site_type_symbol
 _atom_site_label
 _atom_site_symmetry_multiplicity
 _atom_site_fract_x
 _atom_site_fract_y
 _atom_site_fract_z
 _atom_site_occupancy
  Ti  Ti0  1  0.002812  0.002812  0.002812  1
  Ti  Ti1  1  0.499594  0.499594  0.499594  1
  Ti  Ti2  1  0.141572  0.141572  0.141572  1
  Ti  Ti3  1  0.358810  0.358810  0.358810  1
  Ti  Ti4  1  0.639962  0.639962  0.639962  1
  Cr  Cr5  1  0.858228  0.858228  0.858228  1
  P  P6  1  0.041502  0.749207  0.460508  1
  P  P7  1  0.460508  0.041502  0.749207  1
  P  P8  1  0.246141  0.544674  0.958086  1
  P  P9  1  0.544674  0.958086  0.246141  1
  P  P10  1  0.958086  0.246141  0.544674  1
  P  P11  1  0.749207  0.460508  0.041502  1
  O  O12  1  0.114583  0.316607  0.502135  1
  O  O13  1  0.316607  0.502135  0.114583  1
  O  O14  1  0.057372  0.906475  0.261007  1
  O  O15  1  0.502135  0.114583  0.316607  1
  O  O16  1  0.007560  0.814718  0.614994  1
  O  O17  1  0.241461  0.592871  0.440637  1
  O  O18  1  0.261007  0.057372  0.906475  1
  O  O19  1  0.440637  0.241461  0.592871  1
  O  O20  1  0.178699  0.386566  0.999514  1
  O  O21  1  0.592871  0.440637  0.241461  1
  O  O22  1  0.091439  0.743678  0.943426  1
  O  O23  1  0.386566  0.999514  0.178699  1
  O  O24  1  0.614994  0.007560  0.814718  1
  O  O25  1  0.906475  0.261007  0.057372  1
  O  O26  1  0.403285  0.557816  0.759700  1
  O  O27  1  0.814718  0.614994  0.007560  1
  O  O28  1  0.557816  0.759700  0.403285  1
  O  O29  1  0.743678  0.943426  0.091439  1
  O  O30  1  0.759700  0.403285  0.557816  1
  O  O31  1  0.999514  0.178699  0.386566  1
  O  O32  1  0.498379  0.885871  0.680109  1
  O  O33  1  0.943426  0.091439  0.743678  1
  O  O34  1  0.680109  0.498379  0.885871  1
  O  O35  1  0.885871  0.680109  0.498379  1
