# generated using pymatgen
data_Li7V3P8O29
_symmetry_space_group_name_H-M   'P 1'
_cell_length_a   9.86703020
_cell_length_b   9.89288108
_cell_length_c   13.88665381
_cell_angle_alpha   89.69372113
_cell_angle_beta   89.70914134
_cell_angle_gamma   59.86274018
_symmetry_Int_Tables_number   1
_chemical_formula_structural   Li7V3P8O29
_chemical_formula_sum   'Li14 V6 P16 O58'
_cell_volume   1172.26898348
_cell_formula_units_Z   2
loop_
 _symmetry_equiv_pos_site_id
 _symmetry_equiv_pos_as_xyz
  1  'x, y, z'
loop_
 _atom_site_type_symbol
 _atom_site_label
 _atom_site_symmetry_multiplicity
 _atom_site_fract_x
 _atom_site_fract_y
 _atom_site_fract_z
 _atom_site_occupancy
  Li  Li0  1  0.913800  0.773136  0.062852  1
  Li  Li1  1  0.765110  0.907327  0.562036  1
  Li  Li2  1  0.907555  0.327441  0.562335  1
  Li  Li3  1  0.662835  0.661617  0.380974  1
  Li  Li4  1  0.668779  0.665522  0.883839  1
  Li  Li5  1  0.771743  0.317359  0.066646  1
  Li  Li6  1  0.312539  0.912507  0.062884  1
  Li  Li7  1  0.325594  0.766178  0.561101  1
  Li  Li8  1  0.675480  0.097495  0.941605  1
  Li  Li9  1  0.223513  0.684377  0.941208  1
  Li  Li10  1  0.098397  0.666973  0.439454  1
  Li  Li11  1  0.233964  0.103444  0.439996  1
  Li  Li12  1  0.094120  0.226248  0.938129  1
  Li  Li13  1  0.948226  0.031387  0.492218  1
  V  V14  1  0.566113  0.430962  0.252690  1
  V  V15  1  0.437598  0.561422  0.747381  1
  V  V16  1  0.565861  0.001643  0.748074  1
  V  V17  1  0.433706  0.002151  0.251337  1
  V  V18  1  0.004457  0.561949  0.249299  1
  V  V19  1  -0.001188  0.433990  0.748211  1
  P  P20  1  0.907677  0.769211  0.842102  1
  P  P21  1  0.776152  0.907975  0.344490  1
  P  P22  1  0.910195  0.315646  0.342188  1
  P  P23  1  0.668426  0.666664  0.127474  1
  P  P24  1  0.664741  0.667898  0.624264  1
  P  P25  1  0.768867  0.319358  0.846009  1
  P  P26  1  0.694166  0.224016  0.658615  1
  P  P27  1  0.322577  0.907318  0.842546  1
  P  P28  1  0.683261  0.085479  0.158657  1
  P  P29  1  0.315887  0.774762  0.342842  1
  P  P30  1  0.233651  0.680096  0.157227  1
  P  P31  1  0.331432  0.331067  0.372824  1
  P  P32  1  0.335402  0.332425  0.871933  1
  P  P33  1  0.086764  0.684808  0.656654  1
  P  P34  1  0.229981  0.084399  0.656852  1
  P  P35  1  0.089303  0.231292  0.156774  1
  O  O36  1  0.998217  0.778495  0.568167  1
  O  O37  1  0.921080  0.742178  0.342424  1
  O  O38  1  0.758542  0.993148  0.068349  1
  O  O39  1  0.744588  0.921704  0.841760  1
  O  O40  1  0.879403  0.631362  0.826988  1
  O  O41  1  0.817642  0.668819  0.168307  1
  O  O42  1  0.896879  0.478923  0.330694  1
  O  O43  1  0.999567  0.240669  0.067195  1
  O  O44  1  0.919249  0.328315  0.844919  1
  O  O45  1  0.673748  0.813294  0.662999  1
  O  O46  1  0.626717  0.894316  0.332034  1
  O  O47  1  0.808425  0.513624  0.659490  1
  O  O48  1  0.666844  0.676239  0.018959  1
  O  O49  1  0.654414  0.675159  0.516073  1
  O  O50  1  0.673966  0.515622  0.163561  1
  O  O51  1  0.489259  0.883780  0.824356  1
  O  O52  1  0.517601  0.814986  0.169303  1
  O  O53  1  0.747766  0.336555  0.341797  1
  O  O54  1  0.783375  0.206148  0.759367  1
  O  O55  1  0.803676  0.206886  0.578033  1
  O  O56  1  0.746057  0.250962  0.937394  1
  O  O57  1  0.627766  0.486930  0.824886  1
  O  O58  1  0.510609  0.676900  0.667303  1
  O  O59  1  0.670229  0.244911  0.158037  1
  O  O60  1  0.480223  0.632148  0.334296  1
  O  O61  1  0.330636  0.923952  0.342834  1
  O  O62  1  0.792288  0.993965  0.250402  1
  O  O63  1  0.780128  0.990516  0.434180  1
  O  O64  1  0.237166  0.994395  0.567515  1
  O  O65  1  0.665090  0.083462  0.658575  1
  O  O66  1  0.540201  0.382265  0.662901  1
  O  O67  1  0.336345  0.745025  0.844270  1
  O  O68  1  0.475442  0.328937  0.331790  1
  O  O69  1  0.379541  0.522915  0.172345  1
  O  O70  1  0.239929  0.764075  0.067340  1
  O  O71  1  0.225250  0.772743  0.431135  1
  O  O72  1  0.212605  0.791784  0.249346  1
  O  O73  1  0.251536  0.668094  0.658668  1
  O  O74  1  0.486408  0.182471  0.830929  1
  O  O75  1  0.523707  0.095480  0.177119  1
  O  O76  1  0.339134  0.480013  0.823558  1
  O  O77  1  0.342720  0.342251  0.978485  1
  O  O78  1  0.310877  0.335522  0.479600  1
  O  O79  1  0.179886  0.484519  0.329373  1
  O  O80  1  0.383538  0.088912  0.672433  1
  O  O81  1  0.323607  0.184527  0.331498  1
  O  O82  1  0.083445  0.667876  0.158478  1
  O  O83  1  0.997968  0.789750  0.751048  1
  O  O84  1  0.000327  0.754163  0.931332  1
  O  O85  1  0.094435  0.528881  0.667049  1
  O  O86  1  0.188467  0.331158  0.834828  1
  O  O87  1  0.100905  0.378772  0.171554  1
  O  O88  1  0.252573  0.082377  0.158160  1
  O  O89  1  0.246826  0.001438  0.931635  1
  O  O90  1  0.214417  0.995723  0.750933  1
  O  O91  1  0.085399  0.246785  0.656906  1
  O  O92  1  0.001982  0.227448  0.431355  1
  O  O93  1  0.001515  0.210908  0.249589  1
