# generated using pymatgen
data_LiMnV(P2O7)2
_symmetry_space_group_name_H-M   'P 1'
_cell_length_a   13.66357908
_cell_length_b   8.15058778
_cell_length_c   9.97549218
_cell_angle_alpha   90.45208772
_cell_angle_beta   70.94793487
_cell_angle_gamma   88.29099165
_symmetry_Int_Tables_number   1
_chemical_formula_structural   LiMnV(P2O7)2
_chemical_formula_sum   'Li4 Mn4 V4 P16 O56'
_cell_volume   1049.42862100
_cell_formula_units_Z   4
loop_
 _symmetry_equiv_pos_site_id
 _symmetry_equiv_pos_as_xyz
  1  'x, y, z'
loop_
 _atom_site_type_symbol
 _atom_site_label
 _atom_site_symmetry_multiplicity
 _atom_site_fract_x
 _atom_site_fract_y
 _atom_site_fract_z
 _atom_site_occupancy
  Li  Li0  1  0.456971  0.863438  0.128588  1
  Li  Li1  1  0.206818  0.863443  0.878106  1
  Li  Li2  1  0.791835  0.357880  0.120529  1
  Li  Li3  1  0.956386  0.862867  0.627706  1
  Mn  Mn4  1  0.061744  0.007508  0.329252  1
  Mn  Mn5  1  0.313583  0.006629  0.578514  1
  Mn  Mn6  1  0.808250  0.992854  0.087252  1
  Mn  Mn7  1  0.562970  0.006279  0.827834  1
  V  V8  1  0.441159  0.494750  0.161510  1
  V  V9  1  0.193348  0.495055  0.910264  1
  V  V10  1  0.690350  0.504578  0.417448  1
  V  V11  1  0.941607  0.494309  0.659646  1
  P  P12  1  0.009595  0.780571  0.099907  1
  P  P13  1  0.238902  0.287349  0.153934  1
  P  P14  1  0.090940  0.176142  0.611710  1
  P  P15  1  0.258577  0.782099  0.350138  1
  P  P16  1  0.158427  0.678825  0.643136  1
  P  P17  1  0.589852  0.177601  0.112616  1
  P  P18  1  0.490411  0.288600  0.404440  1
  P  P19  1  0.657961  0.681774  0.141602  1
  P  P20  1  0.340891  0.176341  0.861602  1
  P  P21  1  0.509467  0.782345  0.599130  1
  P  P22  1  0.409018  0.679365  0.892943  1
  P  P23  1  0.840737  0.175165  0.359238  1
  P  P24  1  0.739112  0.287024  0.653054  1
  P  P25  1  0.908125  0.678208  0.393479  1
  P  P26  1  0.759033  0.781245  0.850182  1
  P  P27  1  0.991051  0.289351  0.901732  1
  O  O28  1  0.056572  0.933246  0.141260  1
  O  O29  1  0.196017  0.439751  0.096861  1
  O  O30  1  0.275285  0.149849  0.026642  1
  O  O31  1  0.165558  0.202094  0.275861  1
  O  O32  1  0.163588  0.826259  0.307287  1
  O  O33  1  0.053419  0.038036  0.537631  1
  O  O34  1  0.057919  0.347251  0.575017  1
  O  O35  1  0.043675  0.671292  0.650244  1
  O  O36  1  0.338450  0.336194  0.183777  1
  O  O37  1  0.340727  0.687157  0.229164  1
  O  O38  1  0.024904  0.149403  0.777914  1
  O  O39  1  0.226432  0.652773  0.477856  1
  O  O40  1  0.306822  0.933426  0.391676  1
  O  O41  1  0.205499  0.172659  0.594583  1
  O  O42  1  0.555718  0.038457  0.036238  1
  O  O43  1  0.557814  0.348437  0.074024  1
  O  O44  1  0.182874  0.844295  0.693054  1
  O  O45  1  0.190227  0.534823  0.719318  1
  O  O46  1  0.543058  0.670309  0.150388  1
  O  O47  1  0.446227  0.439466  0.346875  1
  O  O48  1  0.089751  0.334181  0.933683  1
  O  O49  1  0.525767  0.150548  0.277009  1
  O  O50  1  0.092050  0.685976  0.979363  1
  O  O51  1  0.417091  0.203119  0.526218  1
  O  O52  1  0.705599  0.177432  0.095205  1
  O  O53  1  0.414170  0.826842  0.556353  1
  O  O54  1  0.303700  0.038370  0.786761  1
  O  O55  1  0.680427  0.847850  0.186958  1
  O  O56  1  0.308355  0.347669  0.824025  1
  O  O57  1  0.694409  0.536502  0.213395  1
  O  O58  1  0.293958  0.671888  0.900134  1
  O  O59  1  0.590245  0.341140  0.431964  1
  O  O60  1  0.586362  0.680307  0.479552  1
  O  O61  1  0.911924  0.212336  0.025699  1
  O  O62  1  0.476063  0.653379  0.728489  1
  O  O63  1  0.915427  0.820781  0.054322  1
  O  O64  1  0.555317  0.933013  0.644233  1
  O  O65  1  0.455624  0.173151  0.844242  1
  O  O66  1  0.809008  0.037719  0.279638  1
  O  O67  1  0.805720  0.345036  0.318820  1
  O  O68  1  0.432802  0.844683  0.944014  1
  O  O69  1  0.440325  0.535233  0.969681  1
  O  O70  1  0.794227  0.662370  0.400623  1
  O  O71  1  0.694214  0.440926  0.601750  1
  O  O72  1  0.775416  0.152111  0.524389  1
  O  O73  1  0.976143  0.652314  0.228021  1
  O  O74  1  0.667171  0.200333  0.775742  1
  O  O75  1  0.955190  0.175126  0.345587  1
  O  O76  1  0.664156  0.826112  0.807619  1
  O  O77  1  0.932057  0.843818  0.442938  1
  O  O78  1  0.942126  0.534815  0.468462  1
  O  O79  1  0.838661  0.337227  0.683897  1
  O  O80  1  0.841838  0.689234  0.728228  1
  O  O81  1  0.726620  0.648874  0.975372  1
  O  O82  1  0.805916  0.931780  0.896765  1
  O  O83  1  0.945634  0.441548  0.848296  1
