# generated using pymatgen
data_Li4Ti3Cr2Fe3O16
_symmetry_space_group_name_H-M   'P 1'
_cell_length_a   5.93658010
_cell_length_b   5.92610276
_cell_length_c   9.60517361
_cell_angle_alpha   89.99344449
_cell_angle_beta   90.38080237
_cell_angle_gamma   119.95969570
_symmetry_Int_Tables_number   1
_chemical_formula_structural   Li4Ti3Cr2Fe3O16
_chemical_formula_sum   'Li4 Ti3 Cr2 Fe3 O16'
_cell_volume   292.75548176
_cell_formula_units_Z   1
loop_
 _symmetry_equiv_pos_site_id
 _symmetry_equiv_pos_as_xyz
  1  'x, y, z'
loop_
 _atom_site_type_symbol
 _atom_site_label
 _atom_site_symmetry_multiplicity
 _atom_site_fract_x
 _atom_site_fract_y
 _atom_site_fract_z
 _atom_site_occupancy
  Li  Li0  1  0.338068  0.668806  0.891871  1
  Li  Li1  1  0.992940  0.996409  0.994872  1
  Li  Li2  1  0.993682  0.996866  0.496662  1
  Li  Li3  1  0.666215  0.333247  0.395510  1
  Ti  Ti4  1  0.169646  0.833007  0.213515  1
  Ti  Ti5  1  0.170456  0.337346  0.213510  1
  Ti  Ti6  1  0.338851  0.169398  0.714199  1
  Cr  Cr7  1  0.331684  0.666155  0.486253  1
  Cr  Cr8  1  0.673226  0.336315  0.982544  1
  Fe  Fe9  1  0.662112  0.831546  0.213667  1
  Fe  Fe10  1  0.831178  0.661238  0.712639  1
  Fe  Fe11  1  0.831119  0.169899  0.712580  1
  O  O12  1  0.172062  0.842003  0.600525  1
  O  O13  1  0.039000  0.519106  0.336912  1
  O  O14  1  0.326162  0.663164  0.104132  1
  O  O15  1  0.005235  0.002542  0.311012  1
  O  O16  1  0.001678  0.000848  0.809072  1
  O  O17  1  0.172292  0.330217  0.600519  1
  O  O18  1  0.471066  0.957695  0.341809  1
  O  O19  1  0.471683  0.514399  0.341764  1
  O  O20  1  0.330720  0.165591  0.105538  1
  O  O21  1  0.668321  0.834374  0.599529  1
  O  O22  1  0.514182  0.473355  0.840960  1
  O  O23  1  0.513805  0.040372  0.840887  1
  O  O24  1  0.660723  0.330444  0.603036  1
  O  O25  1  0.846062  0.672862  0.101535  1
  O  O26  1  0.962208  0.480787  0.841245  1
  O  O27  1  0.845625  0.172309  0.101541  1
