# generated using pymatgen
data_Li2Fe5B3O13
_symmetry_space_group_name_H-M   'P 1'
_cell_length_a   9.62085773
_cell_length_b   3.16669581
_cell_length_c   15.82880869
_cell_angle_alpha   90.00000000
_cell_angle_beta   108.50026005
_cell_angle_gamma   90.00000000
_symmetry_Int_Tables_number   1
_chemical_formula_structural   Li2Fe5B3O13
_chemical_formula_sum   'Li4 Fe10 B6 O26'
_cell_volume   457.32431713
_cell_formula_units_Z   2
loop_
 _symmetry_equiv_pos_site_id
 _symmetry_equiv_pos_as_xyz
  1  'x, y, z'
loop_
 _atom_site_type_symbol
 _atom_site_label
 _atom_site_symmetry_multiplicity
 _atom_site_fract_x
 _atom_site_fract_y
 _atom_site_fract_z
 _atom_site_occupancy
  Li  Li0  1  0.273871  0.250000  0.760946  1
  Li  Li1  1  0.384861  0.750000  0.951302  1
  Li  Li2  1  0.615139  0.250000  0.048698  1
  Li  Li3  1  0.726129  0.750000  0.239054  1
  Fe  Fe4  1  0.143329  0.250000  0.000588  1
  Fe  Fe5  1  0.040275  0.250000  0.374599  1
  Fe  Fe6  1  0.193799  0.750000  0.194991  1
  Fe  Fe7  1  0.355940  0.750000  0.437447  1
  Fe  Fe8  1  0.482760  0.750000  0.689007  1
  Fe  Fe9  1  0.517239  0.250000  0.310993  1
  Fe  Fe10  1  0.644060  0.250000  0.562553  1
  Fe  Fe11  1  0.806201  0.250000  0.805009  1
  Fe  Fe12  1  0.959725  0.750000  0.625401  1
  Fe  Fe13  1  0.856671  0.750000  0.999412  1
  B  B14  1  0.079697  0.750000  0.818332  1
  B  B15  1  0.206292  0.250000  0.574654  1
  B  B16  1  0.582299  0.750000  0.880084  1
  B  B17  1  0.417701  0.250000  0.119916  1
  B  B18  1  0.793708  0.750000  0.425346  1
  B  B19  1  0.920303  0.250000  0.181668  1
  O  O20  1  0.168852  0.750000  0.907421  1
  O  O21  1  0.068098  0.250000  0.583813  1
  O  O22  1  0.132203  0.750000  0.747760  1
  O  O23  1  0.071957  0.250000  0.201157  1
  O  O24  1  0.154362  0.750000  0.351227  1
  O  O25  1  0.227681  0.250000  0.492041  1
  O  O26  1  0.328679  0.250000  0.651873  1
  O  O27  1  0.081533  0.750000  0.058938  1
  O  O28  1  0.447328  0.750000  0.816565  1
  O  O29  1  0.610390  0.750000  0.971563  1
  O  O30  1  0.289330  0.250000  0.143055  1
  O  O31  1  0.384068  0.750000  0.289533  1
  O  O32  1  0.516836  0.750000  0.567707  1
  O  O33  1  0.483164  0.250000  0.432293  1
  O  O34  1  0.615932  0.250000  0.710467  1
  O  O35  1  0.710670  0.750000  0.856945  1
  O  O36  1  0.389610  0.250000  0.028437  1
  O  O37  1  0.552672  0.250000  0.183435  1
  O  O38  1  0.918467  0.250000  0.941062  1
  O  O39  1  0.671321  0.750000  0.348127  1
  O  O40  1  0.772319  0.750000  0.507959  1
  O  O41  1  0.845638  0.250000  0.648773  1
  O  O42  1  0.928043  0.750000  0.798843  1
  O  O43  1  0.867797  0.250000  0.252240  1
  O  O44  1  0.931902  0.750000  0.416187  1
  O  O45  1  0.831148  0.250000  0.092579  1
