# generated using pymatgen
data_Li6V3P8O29
_symmetry_space_group_name_H-M   'P 1'
_cell_length_a   9.83724229
_cell_length_b   9.81250622
_cell_length_c   13.92268594
_cell_angle_alpha   90.06568291
_cell_angle_beta   89.91564196
_cell_angle_gamma   59.89017329
_symmetry_Int_Tables_number   1
_chemical_formula_structural   Li6V3P8O29
_chemical_formula_sum   'Li12 V6 P16 O58'
_cell_volume   1162.58248973
_cell_formula_units_Z   2
loop_
 _symmetry_equiv_pos_site_id
 _symmetry_equiv_pos_as_xyz
  1  'x, y, z'
loop_
 _atom_site_type_symbol
 _atom_site_label
 _atom_site_symmetry_multiplicity
 _atom_site_fract_x
 _atom_site_fract_y
 _atom_site_fract_z
 _atom_site_occupancy
  Li  Li0  1  0.907054  0.765869  0.059971  1
  Li  Li1  1  0.907514  0.317647  0.558868  1
  Li  Li2  1  0.661970  0.674128  0.884828  1
  Li  Li3  1  0.764677  0.324317  0.061112  1
  Li  Li4  1  0.324134  0.906048  0.060879  1
  Li  Li5  1  0.690765  0.221789  0.442711  1
  Li  Li6  1  0.318462  0.771022  0.561611  1
  Li  Li7  1  0.339843  0.329319  0.614887  1
  Li  Li8  1  0.080790  0.697050  0.440151  1
  Li  Li9  1  0.224704  0.085954  0.439260  1
  Li  Li10  1  0.096866  0.235096  0.940513  1
  Li  Li11  1  0.988893  0.973925  0.992040  1
  V  V12  1  0.565552  0.433522  0.248793  1
  V  V13  1  0.432192  0.564273  0.756045  1
  V  V14  1  0.568144  0.001920  0.748805  1
  V  V15  1  0.439128  0.998490  0.249409  1
  V  V16  1  0.999906  0.569051  0.249864  1
  V  V17  1  0.000548  0.437388  0.749067  1
  P  P18  1  0.909395  0.777459  0.842170  1
  P  P19  1  0.769583  0.914539  0.344154  1
  P  P20  1  0.910802  0.321972  0.340900  1
  P  P21  1  0.667640  0.666887  0.125978  1
  P  P22  1  0.663383  0.665700  0.628904  1
  P  P23  1  0.775947  0.316091  0.844685  1
  P  P24  1  0.680867  0.229951  0.658890  1
  P  P25  1  0.316707  0.911862  0.843006  1
  P  P26  1  0.692273  0.082230  0.156739  1
  P  P27  1  0.319761  0.767565  0.342911  1
  P  P28  1  0.225122  0.689838  0.157636  1
  P  P29  1  0.333134  0.333223  0.371804  1
  P  P30  1  0.332024  0.330721  0.872751  1
  P  P31  1  0.092171  0.680421  0.657023  1
  P  P32  1  0.231283  0.090568  0.655927  1
  P  P33  1  0.087574  0.229018  0.157293  1
  O  O34  1  0.004562  0.752356  0.567594  1
  O  O35  1  0.917933  0.748087  0.341240  1
  O  O36  1  0.794525  0.995737  0.072534  1
  O  O37  1  0.743997  0.919593  0.835644  1
  O  O38  1  0.896134  0.625539  0.831190  1
  O  O39  1  0.812063  0.678219  0.163391  1
  O  O40  1  0.899330  0.482500  0.321564  1
  O  O41  1  0.999430  0.228449  0.068464  1
  O  O42  1  0.922845  0.335109  0.840727  1
  O  O43  1  0.653791  0.815877  0.675205  1
  O  O44  1  0.622052  0.898919  0.322751  1
  O  O45  1  0.818645  0.518668  0.671096  1
  O  O46  1  0.665339  0.668842  0.017597  1
  O  O47  1  0.662320  0.660704  0.522705  1
  O  O48  1  0.678392  0.511326  0.164036  1
  O  O49  1  0.480033  0.897362  0.834030  1
  O  O50  1  0.512886  0.811162  0.165859  1
  O  O51  1  0.746725  0.337853  0.342168  1
  O  O52  1  0.787603  0.215478  0.750660  1
  O  O53  1  0.758718  0.247793  0.570427  1
  O  O54  1  0.779623  0.229440  0.933994  1
  O  O55  1  0.627562  0.482251  0.833012  1
  O  O56  1  0.519973  0.656939  0.673239  1
  O  O57  1  0.660968  0.255029  0.161643  1
  O  O58  1  0.479895  0.618410  0.320884  1
  O  O59  1  0.337594  0.915170  0.341629  1
  O  O60  1  0.793004  0.000866  0.252014  1
  O  O61  1  0.757104  0.006843  0.431323  1
  O  O62  1  0.246972  0.994120  0.567948  1
  O  O63  1  0.664497  0.083492  0.659499  1
  O  O64  1  0.514219  0.375461  0.673553  1
  O  O65  1  0.335770  0.747919  0.840933  1
  O  O66  1  0.486168  0.328356  0.333927  1
  O  O67  1  0.379155  0.533669  0.167752  1
  O  O68  1  0.209559  0.795224  0.075520  1
  O  O69  1  0.248166  0.751826  0.434678  1
  O  O70  1  0.203754  0.787783  0.256702  1
  O  O71  1  0.256203  0.666194  0.659807  1
  O  O72  1  0.474310  0.183352  0.825303  1
  O  O73  1  0.536253  0.083759  0.166322  1
  O  O74  1  0.337326  0.476544  0.829307  1
  O  O75  1  0.326431  0.327413  0.978758  1
  O  O76  1  0.330705  0.331631  0.479933  1
  O  O77  1  0.185962  0.486497  0.333098  1
  O  O78  1  0.372319  0.116491  0.669614  1
  O  O79  1  0.329686  0.185009  0.331381  1
  O  O80  1  0.082563  0.661593  0.160155  1
  O  O81  1  0.003845  0.785234  0.750099  1
  O  O82  1  0.990915  0.780877  0.932283  1
  O  O83  1  0.118007  0.511068  0.675058  1
  O  O84  1  0.179482  0.334921  0.829897  1
  O  O85  1  0.093478  0.380007  0.171659  1
  O  O86  1  0.254800  0.081709  0.159479  1
  O  O87  1  0.224772  0.004681  0.930658  1
  O  O88  1  0.215526  0.002461  0.748965  1
  O  O89  1  0.079003  0.252726  0.654468  1
  O  O90  1  0.002280  0.245244  0.430694  1
  O  O91  1  0.999605  0.209183  0.250241  1
