# generated using pymatgen
data_SbH24C6(NCl2)3
_symmetry_space_group_name_H-M   'P 1'
_cell_length_a   9.58707939
_cell_length_b   10.24301696
_cell_length_c   11.24403110
_cell_angle_alpha   64.92450333
_cell_angle_beta   77.73886604
_cell_angle_gamma   77.12544529
_symmetry_Int_Tables_number   1
_chemical_formula_structural   SbH24C6(NCl2)3
_chemical_formula_sum   'Sb2 H48 C12 N6 Cl12'
_cell_volume   966.22494022
_cell_formula_units_Z   2
loop_
 _symmetry_equiv_pos_site_id
 _symmetry_equiv_pos_as_xyz
  1  'x, y, z'
loop_
 _atom_site_type_symbol
 _atom_site_label
 _atom_site_symmetry_multiplicity
 _atom_site_fract_x
 _atom_site_fract_y
 _atom_site_fract_z
 _atom_site_occupancy
  Sb  Sb0  1  0.173111  0.485694  0.348889  1
  Sb  Sb1  1  0.826889  0.514306  0.651111  1
  H  H2  1  0.701671  0.348161  0.357051  1
  H  H3  1  0.298329  0.651839  0.642949  1
  H  H4  1  0.574527  0.497541  0.328915  1
  H  H5  1  0.425473  0.502459  0.671085  1
  H  H6  1  0.748047  0.511475  0.320332  1
  H  H7  1  0.251953  0.488525  0.679668  1
  H  H8  1  0.120711  0.873064  0.422523  1
  H  H9  1  0.879289  0.126936  0.577477  1
  H  H10  1  0.001466  0.838608  0.351399  1
  H  H11  1  0.998534  0.161392  0.648601  1
  H  H12  1  0.962210  0.984319  0.388791  1
  H  H13  1  0.037790  0.015681  0.611209  1
  H  H14  1  0.529676  0.114114  0.578690  1
  H  H15  1  0.470324  0.885886  0.421310  1
  H  H16  1  0.359584  0.167743  0.642672  1
  H  H17  1  0.640416  0.832257  0.357328  1
  H  H18  1  0.398265  0.010117  0.624143  1
  H  H19  1  0.601735  0.989883  0.375857  1
  H  H20  1  0.821065  0.441200  0.136032  1
  H  H21  1  0.178935  0.558800  0.863968  1
  H  H22  1  0.640585  0.414795  0.146106  1
  H  H23  1  0.359415  0.585205  0.853894  1
  H  H24  1  0.700137  0.646670  0.960801  1
  H  H25  1  0.299863  0.353330  0.039199  1
  H  H26  1  0.731883  0.712345  0.074536  1
  H  H27  1  0.268117  0.287655  0.925464  1
  H  H28  1  0.555378  0.681661  0.077514  1
  H  H29  1  0.444622  0.318339  0.922486  1
  H  H30  1  0.171149  0.085307  0.236501  1
  H  H31  1  0.828851  0.914693  0.763499  1
  H  H32  1  0.202078  0.933445  0.189985  1
  H  H33  1  0.797922  0.066555  0.810015  1
  H  H34  1  0.063875  0.148888  0.024516  1
  H  H35  1  0.936125  0.851112  0.975484  1
  H  H36  1  0.926929  0.163694  0.153663  1
  H  H37  1  0.073071  0.836306  0.846337  1
  H  H38  1  0.958384  0.007176  0.114954  1
  H  H39  1  0.041616  0.992824  0.885046  1
  H  H40  1  0.575624  0.916725  0.779495  1
  H  H41  1  0.424376  0.083275  0.220505  1
  H  H42  1  0.531767  0.086011  0.798820  1
  H  H43  1  0.468233  0.913989  0.201180  1
  H  H44  1  0.408135  0.902397  0.989242  1
  H  H45  1  0.591865  0.097603  0.010758  1
  H  H46  1  0.325595  0.858264  0.887473  1
  H  H47  1  0.674405  0.141736  0.112527  1
  H  H48  1  0.275887  0.033657  0.893980  1
  H  H49  1  0.724113  0.966343  0.106020  1
  C  C50  1  0.706965  0.483017  0.156212  1
  C  C51  1  0.293035  0.516983  0.843788  1
  C  C52  1  0.670963  0.640534  0.062639  1
  C  C53  1  0.329037  0.359466  0.937361  1
  C  C54  1  0.119190  0.009539  0.221017  1
  C  C55  1  0.880810  0.990461  0.778983  1
  C  C56  1  0.010801  0.087145  0.123512  1
  C  C57  1  0.989199  0.912855  0.876488  1
  C  C58  1  0.487917  0.004419  0.784180  1
  C  C59  1  0.512083  0.995581  0.215820  1
  C  C60  1  0.366659  0.946730  0.893721  1
  C  C61  1  0.633341  0.053270  0.106279  1
  N  N62  1  0.680167  0.459830  0.299602  1
  N  N63  1  0.319833  0.540170  0.700398  1
  N  N64  1  0.047215  0.920383  0.354499  1
  N  N65  1  0.952785  0.079617  0.645501  1
  N  N66  1  0.440660  0.079324  0.649451  1
  N  N67  1  0.559340  0.920676  0.350549  1
  Cl  Cl68  1  0.139865  0.308117  0.659505  1
  Cl  Cl69  1  0.860135  0.691883  0.340495  1
  Cl  Cl70  1  0.389974  0.308504  0.335024  1
  Cl  Cl71  1  0.610026  0.691496  0.664976  1
  Cl  Cl72  1  0.358119  0.650032  0.364878  1
  Cl  Cl73  1  0.641881  0.349968  0.635122  1
  Cl  Cl74  1  0.030295  0.316728  0.327983  1
  Cl  Cl75  1  0.969705  0.683272  0.672017  1
  Cl  Cl76  1  0.202229  0.623806  0.109357  1
  Cl  Cl77  1  0.797771  0.376194  0.890643  1
  Cl  Cl78  1  0.736062  0.098193  0.438912  1
  Cl  Cl79  1  0.263938  0.901807  0.561088  1
