# generated using pymatgen
data_Mn12O5F19
_symmetry_space_group_name_H-M   'P 1'
_cell_length_a   4.81618266
_cell_length_b   5.86798081
_cell_length_c   16.01007688
_cell_angle_alpha   90.28058525
_cell_angle_beta   89.74863483
_cell_angle_gamma   88.92588099
_symmetry_Int_Tables_number   1
_chemical_formula_structural   Mn12O5F19
_chemical_formula_sum   'Mn12 O5 F19'
_cell_volume   452.37559428
_cell_formula_units_Z   1
loop_
 _symmetry_equiv_pos_site_id
 _symmetry_equiv_pos_as_xyz
  1  'x, y, z'
loop_
 _atom_site_type_symbol
 _atom_site_label
 _atom_site_symmetry_multiplicity
 _atom_site_fract_x
 _atom_site_fract_y
 _atom_site_fract_z
 _atom_site_occupancy
  Mn  Mn0  1  0.051027  0.184623  0.420411  1
  Mn  Mn1  1  0.987112  0.826487  0.243568  1
  Mn  Mn2  1  0.007639  0.135164  0.083959  1
  Mn  Mn3  1  0.986092  0.163043  0.746630  1
  Mn  Mn4  1  0.998365  0.845300  0.583199  1
  Mn  Mn5  1  0.029749  0.836629  0.904891  1
  Mn  Mn6  1  0.509586  0.350829  0.587066  1
  Mn  Mn7  1  0.506881  0.343402  0.921185  1
  Mn  Mn8  1  0.504204  0.354370  0.246956  1
  Mn  Mn9  1  0.501067  0.676956  0.093545  1
  Mn  Mn10  1  0.503549  0.640374  0.419580  1
  Mn  Mn11  1  0.485416  0.653632  0.750137  1
  O  O12  1  0.206439  0.871376  0.140065  1
  O  O13  1  0.224060  0.883090  0.796132  1
  O  O14  1  0.311913  0.393020  0.481735  1
  O  O15  1  0.706927  0.625625  0.196788  1
  O  O16  1  0.699457  0.388256  0.695133  1
  F  F17  1  0.226904  0.101924  0.299991  1
  F  F18  1  0.222659  0.125452  0.636462  1
  F  F19  1  0.230532  0.111417  0.970667  1
  F  F20  1  0.245456  0.891115  0.472146  1
  F  F21  1  0.260210  0.376047  0.138597  1
  F  F22  1  0.252981  0.597858  0.312742  1
  F  F23  1  0.264405  0.615522  0.640158  1
  F  F24  1  0.246712  0.398119  0.811456  1
  F  F25  1  0.286314  0.625993  0.981150  1
  F  F26  1  0.736519  0.392614  0.035071  1
  F  F27  1  0.744601  0.376626  0.359347  1
  F  F28  1  0.747124  0.609984  0.528228  1
  F  F29  1  0.721734  0.617530  0.859767  1
  F  F30  1  0.754149  0.114448  0.190293  1
  F  F31  1  0.774807  0.118618  0.527450  1
  F  F32  1  0.773785  0.864636  0.358528  1
  F  F33  1  0.773151  0.884787  0.015961  1
  F  F34  1  0.775093  0.117466  0.859234  1
  F  F35  1  0.743386  0.887668  0.691774  1
