# generated using pymatgen
data_LiNiPO4
_symmetry_space_group_name_H-M   'P 1'
_cell_length_a   13.29775001
_cell_length_b   5.06015346
_cell_length_c   17.57513704
_cell_angle_alpha   90.00000000
_cell_angle_beta   90.26877034
_cell_angle_gamma   90.00000000
_symmetry_Int_Tables_number   1
_chemical_formula_structural   LiNiPO4
_chemical_formula_sum   'Li16 Ni16 P16 O64'
_cell_volume   1182.59433429
_cell_formula_units_Z   16
loop_
 _symmetry_equiv_pos_site_id
 _symmetry_equiv_pos_as_xyz
  1  'x, y, z'
loop_
 _atom_site_type_symbol
 _atom_site_label
 _atom_site_symmetry_multiplicity
 _atom_site_fract_x
 _atom_site_fract_y
 _atom_site_fract_z
 _atom_site_occupancy
  Li  Li0  1  0.130230  0.233777  0.938649  1
  Li  Li1  1  0.162047  0.771703  0.718382  1
  Li  Li2  1  0.260478  0.176320  0.632896  1
  Li  Li3  1  0.261750  0.251860  0.124903  1
  Li  Li4  1  0.238250  0.751860  0.375097  1
  Li  Li5  1  0.239522  0.676320  0.867104  1
  Li  Li6  1  0.337954  0.271703  0.781618  1
  Li  Li7  1  0.369770  0.733777  0.561351  1
  Li  Li8  1  0.630230  0.266223  0.438649  1
  Li  Li9  1  0.662046  0.728297  0.218382  1
  Li  Li10  1  0.760478  0.323680  0.132896  1
  Li  Li11  1  0.761750  0.248140  0.624903  1
  Li  Li12  1  0.738250  0.748140  0.875097  1
  Li  Li13  1  0.739522  0.823680  0.367104  1
  Li  Li14  1  0.837954  0.228297  0.281618  1
  Li  Li15  1  0.869770  0.766223  0.061351  1
  Ni  Ni16  1  0.003591  0.248548  0.125539  1
  Ni  Ni17  1  0.008703  0.760928  0.377069  1
  Ni  Ni18  1  0.108508  0.743550  0.191397  1
  Ni  Ni19  1  0.109615  0.299418  0.455921  1
  Ni  Ni20  1  0.390385  0.799418  0.044079  1
  Ni  Ni21  1  0.391492  0.243550  0.308603  1
  Ni  Ni22  1  0.491297  0.260928  0.122931  1
  Ni  Ni23  1  0.496409  0.748548  0.374461  1
  Ni  Ni24  1  0.503591  0.251452  0.625539  1
  Ni  Ni25  1  0.508703  0.739072  0.877069  1
  Ni  Ni26  1  0.608508  0.756450  0.691397  1
  Ni  Ni27  1  0.609615  0.200582  0.955921  1
  Ni  Ni28  1  0.890385  0.700582  0.544079  1
  Ni  Ni29  1  0.891492  0.256450  0.808603  1
  Ni  Ni30  1  0.991297  0.239072  0.622931  1
  Ni  Ni31  1  0.996409  0.751452  0.874461  1
  P  P32  1  0.115725  0.235554  0.782726  1
  P  P33  1  0.123485  0.777506  0.539064  1
  P  P34  1  0.133252  0.694457  0.037068  1
  P  P35  1  0.134088  0.260444  0.291461  1
  P  P36  1  0.365912  0.760444  0.208539  1
  P  P37  1  0.366748  0.194457  0.462932  1
  P  P38  1  0.376515  0.277506  0.960936  1
  P  P39  1  0.384275  0.735554  0.717274  1
  P  P40  1  0.615725  0.264446  0.282726  1
  P  P41  1  0.623485  0.722494  0.039064  1
  P  P42  1  0.633252  0.805543  0.537068  1
  P  P43  1  0.634088  0.239556  0.791461  1
  P  P44  1  0.865912  0.739556  0.708539  1
  P  P45  1  0.866748  0.305543  0.962932  1
  P  P46  1  0.876515  0.222494  0.460936  1
  P  P47  1  0.884275  0.764446  0.217274  1
  O  O48  1  0.028553  0.398208  0.817318  1
  O  O49  1  0.043172  0.597080  0.576255  1
  O  O50  1  0.065078  0.905340  0.075029  1
  O  O51  1  0.082831  0.065043  0.542635  1
  O  O52  1  0.091888  0.610618  0.957970  1
  O  O53  1  0.098213  0.142283  0.699678  1
  O  O54  1  0.087378  0.130648  0.219281  1
  O  O55  1  0.097114  0.551662  0.299857  1
  O  O56  1  0.099614  0.090690  0.360308  1
  O  O57  1  0.128235  0.981362  0.832904  1
  O  O58  1  0.129019  0.698331  0.452310  1
  O  O59  1  0.133320  0.449223  0.093112  1
  O  O60  1  0.205618  0.427067  0.782876  1
  O  O61  1  0.225280  0.757982  0.576905  1
  O  O62  1  0.240682  0.792807  0.028537  1
  O  O63  1  0.247505  0.266921  0.289011  1
  O  O64  1  0.252495  0.766921  0.210989  1
  O  O65  1  0.259318  0.292807  0.471463  1
  O  O66  1  0.274720  0.257982  0.923095  1
  O  O67  1  0.294382  0.927067  0.717124  1
  O  O68  1  0.366680  0.949223  0.406888  1
  O  O69  1  0.370981  0.198331  0.047690  1
  O  O70  1  0.371765  0.481362  0.667096  1
  O  O71  1  0.400386  0.590690  0.139692  1
  O  O72  1  0.402886  0.051662  0.200143  1
  O  O73  1  0.401787  0.642283  0.800322  1
  O  O74  1  0.412622  0.630648  0.280719  1
  O  O75  1  0.408112  0.110618  0.542030  1
  O  O76  1  0.417169  0.565043  0.957365  1
  O  O77  1  0.434922  0.405340  0.424971  1
  O  O78  1  0.456828  0.097080  0.923745  1
  O  O79  1  0.471447  0.898208  0.682682  1
  O  O80  1  0.528553  0.101792  0.317318  1
  O  O81  1  0.543172  0.902920  0.076255  1
  O  O82  1  0.565078  0.594660  0.575029  1
  O  O83  1  0.582831  0.434957  0.042635  1
  O  O84  1  0.591888  0.889382  0.457970  1
  O  O85  1  0.587378  0.369352  0.719281  1
  O  O86  1  0.598213  0.357717  0.199678  1
  O  O87  1  0.597114  0.948338  0.799857  1
  O  O88  1  0.599614  0.409310  0.860308  1
  O  O89  1  0.628235  0.518638  0.332904  1
  O  O90  1  0.629019  0.801669  0.952310  1
  O  O91  1  0.633320  0.050777  0.593112  1
  O  O92  1  0.705618  0.072933  0.282876  1
  O  O93  1  0.725280  0.742018  0.076905  1
  O  O94  1  0.740682  0.707193  0.528537  1
  O  O95  1  0.747505  0.233079  0.789011  1
  O  O96  1  0.752495  0.733079  0.710989  1
  O  O97  1  0.759318  0.207193  0.971463  1
  O  O98  1  0.774720  0.242018  0.423095  1
  O  O99  1  0.794382  0.572933  0.217124  1
  O  O100  1  0.866680  0.550777  0.906888  1
  O  O101  1  0.870981  0.301669  0.547690  1
  O  O102  1  0.871765  0.018638  0.167096  1
  O  O103  1  0.900386  0.909310  0.639692  1
  O  O104  1  0.902886  0.448338  0.700143  1
  O  O105  1  0.912622  0.869352  0.780719  1
  O  O106  1  0.901787  0.857717  0.300322  1
  O  O107  1  0.908112  0.389382  0.042030  1
  O  O108  1  0.917169  0.934957  0.457365  1
  O  O109  1  0.934922  0.094660  0.924971  1
  O  O110  1  0.956828  0.402920  0.423745  1
  O  O111  1  0.971447  0.601792  0.182682  1
