# generated using pymatgen
data_LiFe(PO3)3
_symmetry_space_group_name_H-M   'P 1'
_cell_length_a   9.76822705
_cell_length_b   9.52500980
_cell_length_c   9.46942366
_cell_angle_alpha   110.54011661
_cell_angle_beta   104.47968559
_cell_angle_gamma   108.70337381
_symmetry_Int_Tables_number   1
_chemical_formula_structural   LiFe(PO3)3
_chemical_formula_sum   'Li4 Fe4 P12 O36'
_cell_volume   713.21372401
_cell_formula_units_Z   4
loop_
 _symmetry_equiv_pos_site_id
 _symmetry_equiv_pos_as_xyz
  1  'x, y, z'
loop_
 _atom_site_type_symbol
 _atom_site_label
 _atom_site_symmetry_multiplicity
 _atom_site_fract_x
 _atom_site_fract_y
 _atom_site_fract_z
 _atom_site_occupancy
  Li  Li0  1  0.258422  0.225493  0.767131  1
  Li  Li1  1  0.213758  0.308489  0.073940  1
  Li  Li2  1  0.786242  0.691511  0.926060  1
  Li  Li3  1  0.741578  0.774507  0.232869  1
  Fe  Fe4  1  0.507602  0.933990  0.331956  1
  Fe  Fe5  1  0.299546  0.173481  0.375562  1
  Fe  Fe6  1  0.700454  0.826519  0.624438  1
  Fe  Fe7  1  0.492398  0.066010  0.668044  1
  P  P8  1  0.084312  0.918320  0.807070  1
  P  P9  1  0.104879  0.853025  0.480589  1
  P  P10  1  0.353295  0.603927  0.990166  1
  P  P11  1  0.155552  0.785771  0.045835  1
  P  P12  1  0.290023  0.659583  0.419423  1
  P  P13  1  0.406676  0.567977  0.675330  1
  P  P14  1  0.593324  0.432023  0.324670  1
  P  P15  1  0.709977  0.340417  0.580577  1
  P  P16  1  0.844448  0.214229  0.954165  1
  P  P17  1  0.646705  0.396073  0.009834  1
  P  P18  1  0.895121  0.146975  0.519411  1
  P  P19  1  0.915688  0.081680  0.192930  1
  O  O20  1  0.001537  0.269575  0.950676  1
  O  O21  1  0.092312  0.819972  0.632931  1
  O  O22  1  0.159616  0.828823  0.897475  1
  O  O23  1  0.200218  0.631932  0.993009  1
  O  O24  1  0.142177  0.699578  0.387893  1
  O  O25  1  0.047008  0.172594  0.628812  1
  O  O26  1  0.197369  0.099507  0.890512  1
  O  O27  1  0.322034  0.431536  0.962105  1
  O  O28  1  0.368798  0.628473  0.834239  1
  O  O29  1  0.287348  0.613734  0.566583  1
  O  O30  1  0.296329  0.934916  0.207883  1
  O  O31  1  0.087478  0.136272  0.218672  1
  O  O32  1  0.268558  0.521856  0.269459  1
  O  O33  1  0.445081  0.827861  0.493468  1
  O  O34  1  0.351615  0.380424  0.593779  1
  O  O35  1  0.254317  0.017592  0.544162  1
  O  O36  1  0.574242  0.683837  0.717470  1
  O  O37  1  0.503431  0.250236  0.857112  1
  O  O38  1  0.496569  0.749764  0.142888  1
  O  O39  1  0.425758  0.316163  0.282530  1
  O  O40  1  0.745683  0.982408  0.455838  1
  O  O41  1  0.648385  0.619576  0.406221  1
  O  O42  1  0.554919  0.172139  0.506532  1
  O  O43  1  0.731441  0.478144  0.730541  1
  O  O44  1  0.912522  0.863728  0.781328  1
  O  O45  1  0.703671  0.065084  0.792117  1
  O  O46  1  0.712652  0.386266  0.433417  1
  O  O47  1  0.631202  0.371527  0.165761  1
  O  O48  1  0.677966  0.568464  0.037895  1
  O  O49  1  0.802631  0.900493  0.109488  1
  O  O50  1  0.952992  0.827406  0.371188  1
  O  O51  1  0.857823  0.300422  0.612107  1
  O  O52  1  0.799782  0.368068  0.006991  1
  O  O53  1  0.840384  0.171177  0.102525  1
  O  O54  1  0.907688  0.180028  0.367069  1
  O  O55  1  0.998463  0.730425  0.049324  1
