# generated using pymatgen
data_Na3BiBPO7
_symmetry_space_group_name_H-M   'P 1'
_cell_length_a   9.31541792
_cell_length_b   7.15139776
_cell_length_c   5.41038362
_cell_angle_alpha   90.00000000
_cell_angle_beta   91.07186822
_cell_angle_gamma   90.00000000
_symmetry_Int_Tables_number   1
_chemical_formula_structural   Na3BiBPO7
_chemical_formula_sum   'Na6 Bi2 B2 P2 O14'
_cell_volume   360.36726702
_cell_formula_units_Z   2
loop_
 _symmetry_equiv_pos_site_id
 _symmetry_equiv_pos_as_xyz
  1  'x, y, z'
loop_
 _atom_site_type_symbol
 _atom_site_label
 _atom_site_symmetry_multiplicity
 _atom_site_fract_x
 _atom_site_fract_y
 _atom_site_fract_z
 _atom_site_occupancy
  Na  Na0  1  0.070769  0.250000  0.757068  1
  Na  Na1  1  0.241730  0.007494  0.249091  1
  Na  Na2  1  0.241730  0.492506  0.249091  1
  Na  Na3  1  0.758270  0.507494  0.750909  1
  Na  Na4  1  0.758270  0.992506  0.750909  1
  Na  Na5  1  0.929231  0.750000  0.242932  1
  Bi  Bi6  1  0.347933  0.750000  0.770579  1
  Bi  Bi7  1  0.652067  0.250000  0.229421  1
  B  B8  1  0.057803  0.750000  0.733765  1
  B  B9  1  0.942197  0.250000  0.266235  1
  P  P10  1  0.403546  0.250000  0.703645  1
  P  P11  1  0.596454  0.750000  0.296355  1
  O  O12  1  0.085912  0.250000  0.283305  1
  O  O13  1  0.135397  0.750000  0.963506  1
  O  O14  1  0.147024  0.750000  0.523360  1
  O  O15  1  0.319869  0.077861  0.807080  1
  O  O16  1  0.319869  0.422139  0.807080  1
  O  O17  1  0.398169  0.250000  0.417846  1
  O  O18  1  0.434122  0.750000  0.211817  1
  O  O19  1  0.565878  0.250000  0.788183  1
  O  O20  1  0.601831  0.750000  0.582154  1
  O  O21  1  0.680131  0.577861  0.192920  1
  O  O22  1  0.680131  0.922139  0.192920  1
  O  O23  1  0.852976  0.250000  0.476640  1
  O  O24  1  0.864603  0.250000  0.036494  1
  O  O25  1  0.914088  0.750000  0.716695  1
