# generated using pymatgen
data_Li4Cr3GaO8
_symmetry_space_group_name_H-M   'P 1'
_cell_length_a   5.14083176
_cell_length_b   5.92751412
_cell_length_c   5.13302110
_cell_angle_alpha   89.99931603
_cell_angle_beta   80.41434397
_cell_angle_gamma   73.24761561
_symmetry_Int_Tables_number   1
_chemical_formula_structural   Li4Cr3GaO8
_chemical_formula_sum   'Li4 Cr3 Ga1 O8'
_cell_volume   147.49479663
_cell_formula_units_Z   1
loop_
 _symmetry_equiv_pos_site_id
 _symmetry_equiv_pos_as_xyz
  1  'x, y, z'
loop_
 _atom_site_type_symbol
 _atom_site_label
 _atom_site_symmetry_multiplicity
 _atom_site_fract_x
 _atom_site_fract_y
 _atom_site_fract_z
 _atom_site_occupancy
  Li  Li0  1  0.999619  0.000239  0.999871  1
  Li  Li1  1  0.000362  0.249757  0.500139  1
  Li  Li2  1  0.000029  0.499848  0.000386  1
  Li  Li3  1  0.999977  0.750145  0.499620  1
  Cr  Cr4  1  0.499986  0.125026  0.750012  1
  Cr  Cr5  1  0.499925  0.375272  0.250060  1
  Cr  Cr6  1  0.500117  0.874671  0.249924  1
  Ga  Ga7  1  0.499966  0.625034  0.749988  1
  O  O8  1  0.275905  0.180921  0.120629  1
  O  O9  1  0.724079  0.069033  0.379380  1
  O  O10  1  0.274392  0.431702  0.621225  1
  O  O11  1  0.725556  0.318893  0.878984  1
  O  O12  1  0.274220  0.681506  0.120699  1
  O  O13  1  0.725825  0.568435  0.379291  1
  O  O14  1  0.274435  0.931156  0.621039  1
  O  O15  1  0.725606  0.818360  0.878756  1
