# generated using pymatgen
data_CrH12N3(OF2)3
_symmetry_space_group_name_H-M   'P 1'
_cell_length_a   6.86241830
_cell_length_b   7.10065790
_cell_length_c   9.53353087
_cell_angle_alpha   80.23058189
_cell_angle_beta   82.82832107
_cell_angle_gamma   69.34562493
_symmetry_Int_Tables_number   1
_chemical_formula_structural   CrH12N3(OF2)3
_chemical_formula_sum   'Cr2 H24 N6 O6 F12'
_cell_volume   427.31944185
_cell_formula_units_Z   2
loop_
 _symmetry_equiv_pos_site_id
 _symmetry_equiv_pos_as_xyz
  1  'x, y, z'
loop_
 _atom_site_type_symbol
 _atom_site_label
 _atom_site_symmetry_multiplicity
 _atom_site_fract_x
 _atom_site_fract_y
 _atom_site_fract_z
 _atom_site_occupancy
  Cr  Cr0  1  0.500000  0.500000  0.500000  1
  Cr  Cr1  1  0.000000  0.000000  0.000000  1
  H  H2  1  0.280150  0.906324  0.644077  1
  H  H3  1  0.719850  0.093675  0.355923  1
  H  H4  1  0.226696  0.161557  0.627662  1
  H  H5  1  0.773304  0.838443  0.372338  1
  H  H6  1  0.030916  0.069682  0.628250  1
  H  H7  1  0.969084  0.930318  0.371750  1
  H  H8  1  0.333969  0.933996  0.422242  1
  H  H9  1  0.666031  0.066004  0.577758  1
  H  H10  1  0.880744  0.693933  0.808659  1
  H  H11  1  0.119256  0.306067  0.191341  1
  H  H12  1  0.760491  0.569716  0.728043  1
  H  H13  1  0.239509  0.430284  0.271957  1
  H  H14  1  0.098889  0.537842  0.625687  1
  H  H15  1  0.901111  0.462158  0.374313  1
  H  H16  1  0.883059  0.458492  0.887155  1
  H  H17  1  0.116941  0.541508  0.112845  1
  H  H18  1  0.591867  0.190918  0.859555  1
  H  H19  1  0.408133  0.809082  0.140445  1
  H  H20  1  0.337652  0.191250  0.902607  1
  H  H21  1  0.662348  0.808750  0.097393  1
  H  H22  1  0.390604  0.515605  0.813404  1
  H  H23  1  0.609396  0.484395  0.186596  1
  H  H24  1  0.501892  0.189670  0.026691  1
  H  H25  1  0.498108  0.810330  0.973309  1
  N  N26  1  0.186934  0.047323  0.596216  1
  N  N27  1  0.813066  0.952677  0.403784  1
  N  N28  1  0.882754  0.554795  0.787880  1
  N  N29  1  0.117246  0.445205  0.212120  1
  N  N30  1  0.452582  0.245350  0.924249  1
  N  N31  1  0.547418  0.754650  0.075751  1
  O  O32  1  0.212683  0.060843  0.445050  1
  O  O33  1  0.787317  0.939157  0.554950  1
  O  O34  1  0.076626  0.452446  0.719265  1
  O  O35  1  0.923374  0.547554  0.280735  1
  O  O36  1  0.376045  0.458685  0.915967  1
  O  O37  1  0.623955  0.541315  0.084033  1
  F  F38  1  0.800328  0.393890  0.516094  1
  F  F39  1  0.199672  0.606110  0.483906  1
  F  F40  1  0.519075  0.748887  0.382034  1
  F  F41  1  0.480925  0.251113  0.617966  1
  F  F42  1  0.540125  0.358448  0.332461  1
  F  F43  1  0.459875  0.641552  0.667539  1
  F  F44  1  0.845217  0.072274  0.826547  1
  F  F45  1  0.154783  0.927726  0.173453  1
  F  F46  1  0.009640  0.725197  0.996094  1
  F  F47  1  0.990360  0.274803  0.003906  1
  F  F48  1  0.734303  0.036487  0.118900  1
  F  F49  1  0.265697  0.963513  0.881100  1
