# generated using pymatgen
data_NiH14C10(N4O)2
_symmetry_space_group_name_H-M   'P 1'
_cell_length_a   7.67951143
_cell_length_b   7.67951143
_cell_length_c   8.24109057
_cell_angle_alpha   70.19997844
_cell_angle_beta   109.80002156
_cell_angle_gamma   122.72013103
_symmetry_Int_Tables_number   1
_chemical_formula_structural   NiH14C10(N4O)2
_chemical_formula_sum   'Ni1 H14 C10 N8 O2'
_cell_volume   377.21334622
_cell_formula_units_Z   1
loop_
 _symmetry_equiv_pos_site_id
 _symmetry_equiv_pos_as_xyz
  1  'x, y, z'
loop_
 _atom_site_type_symbol
 _atom_site_label
 _atom_site_symmetry_multiplicity
 _atom_site_fract_x
 _atom_site_fract_y
 _atom_site_fract_z
 _atom_site_occupancy
  Ni  Ni0  1  0.000000  0.000000  0.500000  1
  H  H1  1  0.771247  0.228753  0.235886  1
  H  H2  1  0.228753  0.771247  0.764114  1
  H  H3  1  0.911024  0.330723  0.770521  1
  H  H4  1  0.669277  0.088976  0.770521  1
  H  H5  1  0.088976  0.669277  0.229479  1
  H  H6  1  0.330723  0.911024  0.229479  1
  H  H7  1  0.902594  0.097406  0.923948  1
  H  H8  1  0.097406  0.902594  0.076052  1
  H  H9  1  0.737198  0.504799  0.824736  1
  H  H10  1  0.495201  0.262802  0.824736  1
  H  H11  1  0.262802  0.495201  0.175264  1
  H  H12  1  0.504799  0.737198  0.175264  1
  H  H13  1  0.616749  0.383251  0.013994  1
  H  H14  1  0.383251  0.616749  0.986006  1
  C  C15  1  0.819643  0.180357  0.154276  1
  C  C16  1  0.180357  0.819643  0.845724  1
  C  C17  1  0.815149  0.184851  0.854767  1
  C  C18  1  0.184851  0.815149  0.145233  1
  C  C19  1  0.646195  0.353805  0.907230  1
  C  C20  1  0.353805  0.646195  0.092770  1
  C  C21  1  0.233318  0.459274  0.578268  1
  C  C22  1  0.540726  0.766682  0.578268  1
  C  C23  1  0.766682  0.540726  0.421732  1
  C  C24  1  0.459274  0.233318  0.421732  1
  N  N25  1  0.103580  0.301103  0.529020  1
  N  N26  1  0.698897  0.896420  0.529020  1
  N  N27  1  0.896420  0.698897  0.470980  1
  N  N28  1  0.301103  0.103580  0.470980  1
  N  N29  1  0.368653  0.631347  0.638960  1
  N  N30  1  0.631347  0.368653  0.361040  1
  N  N31  1  0.763295  0.236705  0.980506  1
  N  N32  1  0.236705  0.763295  0.019494  1
  O  O33  1  0.920471  0.079529  0.223739  1
  O  O34  1  0.079529  0.920471  0.776261  1
