# generated using pymatgen
data_LiVCr(P2O7)2
_symmetry_space_group_name_H-M   'P 1'
_cell_length_a   9.71832501
_cell_length_b   16.83835253
_cell_length_c   7.15547931
_cell_angle_alpha   83.89403077
_cell_angle_beta   68.04318496
_cell_angle_gamma   73.29525701
_symmetry_Int_Tables_number   1
_chemical_formula_structural   LiVCr(P2O7)2
_chemical_formula_sum   'Li4 V4 Cr4 P16 O56'
_cell_volume   1040.16353250
_cell_formula_units_Z   4
loop_
 _symmetry_equiv_pos_site_id
 _symmetry_equiv_pos_as_xyz
  1  'x, y, z'
loop_
 _atom_site_type_symbol
 _atom_site_label
 _atom_site_symmetry_multiplicity
 _atom_site_fract_x
 _atom_site_fract_y
 _atom_site_fract_z
 _atom_site_occupancy
  Li  Li0  1  0.034750  0.432306  0.674898  1
  Li  Li1  1  0.409181  0.680405  0.325739  1
  Li  Li2  1  0.659075  0.180934  0.327643  1
  Li  Li3  1  0.285259  0.932402  0.674834  1
  V  V4  1  0.119722  0.247863  0.722508  1
  V  V5  1  0.369991  0.748049  0.728372  1
  V  V6  1  0.617082  0.253319  0.728019  1
  V  V7  1  0.866377  0.753095  0.722157  1
  Cr  Cr8  1  0.005645  0.502838  0.271617  1
  Cr  Cr9  1  0.255316  0.002988  0.270951  1
  Cr  Cr10  1  0.506208  0.498799  0.276344  1
  Cr  Cr11  1  0.756107  0.998470  0.276967  1
  P  P12  1  0.143102  0.591463  0.522780  1
  P  P13  1  0.394771  0.090379  0.523292  1
  P  P14  1  0.118206  0.891503  0.087030  1
  P  P15  1  0.368581  0.391707  0.084862  1
  P  P16  1  0.109831  0.641742  0.916570  1
  P  P17  1  0.363769  0.141694  0.915353  1
  P  P18  1  0.142154  0.839808  0.477654  1
  P  P19  1  0.391093  0.340969  0.475438  1
  P  P20  1  0.647471  0.587557  0.519483  1
  P  P21  1  0.895667  0.088393  0.518679  1
  P  P22  1  0.619281  0.891072  0.085791  1
  P  P23  1  0.868983  0.391120  0.088203  1
  P  P24  1  0.616389  0.640904  0.910684  1
  P  P25  1  0.862722  0.140995  0.911514  1
  P  P26  1  0.642015  0.839875  0.476477  1
  P  P27  1  0.893688  0.338845  0.478375  1
  O  O28  1  0.058820  0.089991  0.393011  1
  O  O29  1  0.013858  0.269173  0.530687  1
  O  O30  1  0.014734  0.165469  0.851371  1
  O  O31  1  0.086722  0.595036  0.111351  1
  O  O32  1  0.335746  0.095602  0.111475  1
  O  O33  1  0.195697  0.411787  0.142526  1
  O  O34  1  0.089680  0.520209  0.483321  1
  O  O35  1  0.339364  0.020197  0.483421  1
  O  O36  1  0.032716  0.676552  0.519337  1
  O  O37  1  0.284636  0.176084  0.518388  1
  O  O38  1  0.225563  0.337311  0.608244  1
  O  O39  1  0.232793  0.217715  0.904553  1
  O  O40  1  0.137419  0.574389  0.752721  1
  O  O41  1  0.387368  0.074114  0.752955  1
  O  O42  1  0.168834  0.824405  0.247452  1
  O  O43  1  0.417108  0.323135  0.247621  1
  O  O44  1  0.175991  0.967494  0.079327  1
  O  O45  1  0.425800  0.466735  0.085884  1
  O  O46  1  0.307848  0.591632  0.390333  1
  O  O47  1  0.558449  0.091480  0.389969  1
  O  O48  1  0.167519  0.923977  0.492274  1
  O  O49  1  0.409483  0.426042  0.489278  1
  O  O50  1  0.267951  0.768677  0.519109  1
  O  O51  1  0.514687  0.269652  0.520890  1
  O  O52  1  0.261328  0.669305  0.851585  1
  O  O53  1  0.513727  0.168909  0.849691  1
  O  O54  1  0.204586  0.844412  0.884490  1
  O  O55  1  0.451227  0.341262  0.888692  1
  O  O56  1  0.577238  0.598974  0.115715  1
  O  O57  1  0.826976  0.098638  0.115994  1
  O  O58  1  0.446129  0.911413  0.142116  1
  O  O59  1  0.696740  0.409589  0.142600  1
  O  O60  1  0.589919  0.519829  0.476613  1
  O  O61  1  0.840594  0.019433  0.475928  1
  O  O62  1  0.530784  0.673789  0.517610  1
  O  O63  1  0.779401  0.174052  0.517219  1
  O  O64  1  0.474626  0.835891  0.608194  1
  O  O65  1  0.729214  0.333602  0.607662  1
  O  O66  1  0.482609  0.718061  0.911114  1
  O  O67  1  0.730564  0.218482  0.913352  1
  O  O68  1  0.635188  0.574128  0.753666  1
  O  O69  1  0.884514  0.074428  0.753316  1
  O  O70  1  0.665823  0.822593  0.249725  1
  O  O71  1  0.918033  0.323960  0.249404  1
  O  O72  1  0.675554  0.966490  0.086682  1
  O  O73  1  0.925692  0.467528  0.080599  1
  O  O74  1  0.809514  0.590056  0.392514  1
  O  O75  1  0.657783  0.925912  0.489039  1
  O  O76  1  0.916294  0.423996  0.491887  1
  O  O77  1  0.760577  0.769992  0.531380  1
  O  O78  1  0.766924  0.665703  0.850003  1
  O  O79  1  0.702772  0.840582  0.890043  1
  O  O80  1  0.956227  0.344057  0.885803  1
  O  O81  1  0.946153  0.909874  0.142644  1
  O  O82  1  0.979150  0.835267  0.608339  1
  O  O83  1  0.980841  0.718097  0.907905  1
