# generated using pymatgen
data_LiFeP(H6O5)2
_symmetry_space_group_name_H-M   'P 1'
_cell_length_a   6.94341090
_cell_length_b   6.09562567
_cell_length_c   10.79784329
_cell_angle_alpha   89.99781997
_cell_angle_beta   89.99916588
_cell_angle_gamma   89.99972093
_symmetry_Int_Tables_number   1
_chemical_formula_structural   LiFeP(H6O5)2
_chemical_formula_sum   'Li2 Fe2 P2 H24 O20'
_cell_volume   457.01260245
_cell_formula_units_Z   2
loop_
 _symmetry_equiv_pos_site_id
 _symmetry_equiv_pos_as_xyz
  1  'x, y, z'
loop_
 _atom_site_type_symbol
 _atom_site_label
 _atom_site_symmetry_multiplicity
 _atom_site_fract_x
 _atom_site_fract_y
 _atom_site_fract_z
 _atom_site_occupancy
  Li  Li0  1  1.000000  0.462025  0.938937  1
  Li  Li1  1  0.500000  0.538005  0.438777  1
  Fe  Fe2  1  0.000000  0.387285  0.644459  1
  Fe  Fe3  1  0.500000  0.612983  0.144431  1
  P  P4  1  -0.000000  0.013313  0.264329  1
  P  P5  1  0.500000  0.986679  0.764340  1
  H  H6  1  0.999999  0.738105  0.471768  1
  H  H7  1  0.000001  0.839180  0.611291  1
  H  H8  1  0.118237  0.987785  0.767796  1
  H  H9  1  0.211077  0.224962  0.454579  1
  H  H10  1  0.163851  0.826626  0.074034  1
  H  H11  1  0.184711  0.630157  0.299970  1
  H  H12  1  0.251116  0.377473  0.289830  1
  H  H13  1  0.248907  0.622538  0.789859  1
  H  H14  1  0.315368  0.369823  0.800007  1
  H  H15  1  0.336222  0.173302  0.574022  1
  H  H16  1  0.288959  0.775009  0.954562  1
  H  H17  1  0.381787  0.012143  0.267762  1
  H  H18  1  0.500000  0.160847  0.111305  1
  H  H19  1  0.500000  0.262019  0.971852  1
  H  H20  1  0.618214  0.012143  0.267762  1
  H  H21  1  0.711042  0.775009  0.954562  1
  H  H22  1  0.663777  0.173301  0.574022  1
  H  H23  1  0.684633  0.369822  0.800007  1
  H  H24  1  0.751093  0.622537  0.789858  1
  H  H25  1  0.748885  0.377472  0.289830  1
  H  H26  1  0.815289  0.630157  0.299970  1
  H  H27  1  0.836149  0.826627  0.074034  1
  H  H28  1  0.788924  0.224962  0.454578  1
  H  H29  1  0.881763  0.987785  0.767796  1
  O  O30  1  0.000001  0.006464  0.121709  1
  O  O31  1  0.000000  0.772602  0.316948  1
  O  O32  1  0.000000  0.046209  0.724161  1
  O  O33  1  0.999999  0.700752  0.561907  1
  O  O34  1  0.183538  0.130416  0.314965  1
  O  O35  1  0.196136  0.467582  0.794675  1
  O  O36  1  0.252472  0.292447  0.535882  1
  O  O37  1  0.247728  0.707596  0.035942  1
  O  O38  1  0.303929  0.532383  0.294578  1
  O  O39  1  0.316463  0.869562  0.814987  1
  O  O40  1  0.499999  0.993503  0.621716  1
  O  O41  1  0.500001  0.227350  0.816959  1
  O  O42  1  0.500001  0.299352  0.061959  1
  O  O43  1  0.500002  0.953717  0.224135  1
  O  O44  1  0.683537  0.869561  0.814987  1
  O  O45  1  0.696073  0.532386  0.294576  1
  O  O46  1  0.752274  0.707597  0.035941  1
  O  O47  1  0.747524  0.292448  0.535882  1
  O  O48  1  0.803863  0.467583  0.794673  1
  O  O49  1  0.816459  0.130416  0.314967  1
