# generated using pymatgen
data_Fe3PWC15BrO15
_symmetry_space_group_name_H-M   'P 1'
_cell_length_a   9.22500259
_cell_length_b   9.34916336
_cell_length_c   28.67705812
_cell_angle_alpha   90.00000000
_cell_angle_beta   90.00000000
_cell_angle_gamma   90.78159002
_symmetry_Int_Tables_number   1
_chemical_formula_structural   Fe3PWC15BrO15
_chemical_formula_sum   'Fe12 P4 W4 C60 Br4 O60'
_cell_volume   2473.05304982
_cell_formula_units_Z   4
loop_
 _symmetry_equiv_pos_site_id
 _symmetry_equiv_pos_as_xyz
  1  'x, y, z'
loop_
 _atom_site_type_symbol
 _atom_site_label
 _atom_site_symmetry_multiplicity
 _atom_site_fract_x
 _atom_site_fract_y
 _atom_site_fract_z
 _atom_site_occupancy
  Fe  Fe0  1  0.181362  0.206886  0.457707  1
  Fe  Fe1  1  0.941546  0.779941  0.069926  1
  Fe  Fe2  1  0.310862  0.290198  0.811909  1
  Fe  Fe3  1  0.689138  0.709802  0.188091  1
  Fe  Fe4  1  0.189138  0.209802  0.311909  1
  Fe  Fe5  1  0.681362  0.706886  0.042293  1
  Fe  Fe6  1  0.810862  0.790198  0.688091  1
  Fe  Fe7  1  0.318638  0.293114  0.957707  1
  Fe  Fe8  1  0.058454  0.220059  0.930074  1
  Fe  Fe9  1  0.818638  0.793114  0.542293  1
  Fe  Fe10  1  0.441546  0.279941  0.430074  1
  Fe  Fe11  1  0.558454  0.720059  0.569926  1
  P  P12  1  0.238680  0.294132  0.385546  1
  P  P13  1  0.738680  0.794132  0.114454  1
  P  P14  1  0.261320  0.205868  0.885546  1
  P  P15  1  0.761320  0.705868  0.614454  1
  W  W16  1  0.378252  0.988573  0.840152  1
  W  W17  1  0.878252  0.488573  0.659848  1
  W  W18  1  0.621748  0.011427  0.159848  1
  W  W19  1  0.121748  0.511427  0.340152  1
  C  C20  1  0.978021  0.463596  0.595167  1
  C  C21  1  0.529025  0.210206  0.482078  1
  C  C22  1  0.576261  0.404073  0.407507  1
  C  C23  1  0.923739  0.095927  0.907507  1
  C  C24  1  0.499655  0.867427  0.604734  1
  C  C25  1  0.119758  0.219066  0.252520  1
  C  C26  1  0.489766  0.737919  0.037828  1
  C  C27  1  0.466223  0.790595  0.830532  1
  C  C28  1  0.989766  0.237919  0.462172  1
  C  C29  1  0.831765  0.968537  0.566815  1
  C  C30  1  0.427236  0.938868  0.188559  1
  C  C31  1  0.285176  0.360951  0.016341  1
  C  C32  1  0.033777  0.709405  0.330532  1
  C  C33  1  0.806628  0.113714  0.132883  1
  C  C34  1  0.256072  0.031390  0.312454  1
  C  C35  1  0.478021  0.963596  0.904833  1
  C  C36  1  0.927236  0.438868  0.311441  1
  C  C37  1  0.756072  0.531390  0.187546  1
  C  C38  1  0.966223  0.290595  0.669468  1
  C  C39  1  0.500345  0.132573  0.395266  1
  C  C40  1  0.743928  0.968610  0.687546  1
  C  C41  1  0.485094  0.342731  0.838627  1
  C  C42  1  0.999655  0.367427  0.895266  1
  C  C43  1  0.970975  0.289794  0.982078  1
  C  C44  1  0.131990  0.214756  0.797739  1
  C  C45  1  0.289889  0.959542  0.773918  1
  C  C46  1  0.423739  0.595927  0.592493  1
  C  C47  1  0.521979  0.036404  0.095167  1
  C  C48  1  0.714824  0.639049  0.983659  1
  C  C49  1  0.076261  0.904073  0.092493  1
  C  C50  1  0.072764  0.561132  0.688559  1
  C  C51  1  0.510234  0.262081  0.962172  1
  C  C52  1  0.380242  0.280934  0.752520  1
  C  C53  1  0.000345  0.632573  0.104734  1
  C  C54  1  0.210111  0.540458  0.273918  1
  C  C55  1  0.619758  0.719066  0.247480  1
  C  C56  1  0.368010  0.285244  0.297739  1
  C  C57  1  0.010234  0.762081  0.537828  1
  C  C58  1  0.029025  0.710206  0.017922  1
  C  C59  1  0.243928  0.468610  0.812454  1
  C  C60  1  0.668235  0.531463  0.066815  1
  C  C61  1  0.785176  0.860951  0.483659  1
  C  C62  1  0.470975  0.789794  0.517922  1
  C  C63  1  0.168235  0.031463  0.433185  1
  C  C64  1  0.193372  0.886286  0.867117  1
  C  C65  1  0.214824  0.139049  0.516341  1
  C  C66  1  0.710111  0.040458  0.226082  1
  C  C67  1  0.880242  0.780934  0.747480  1
  C  C68  1  0.789889  0.459542  0.726082  1
  C  C69  1  0.514906  0.657269  0.161373  1
  C  C70  1  0.014906  0.157269  0.338627  1
  C  C71  1  0.021979  0.536404  0.404833  1
  C  C72  1  0.693372  0.386286  0.632883  1
  C  C73  1  0.868010  0.785244  0.202261  1
  C  C74  1  0.572764  0.061132  0.811441  1
  C  C75  1  0.985094  0.842731  0.661373  1
  C  C76  1  0.331765  0.468537  0.933185  1
  C  C77  1  0.631990  0.714756  0.702261  1
  C  C78  1  0.533777  0.209405  0.169468  1
  C  C79  1  0.306628  0.613714  0.367117  1
  Br  Br80  1  0.797606  0.936389  0.019653  1
  Br  Br81  1  0.297606  0.436389  0.480347  1
  Br  Br82  1  0.702394  0.563611  0.519653  1
  Br  Br83  1  0.202394  0.063611  0.980347  1
  O  O84  1  0.755807  0.067448  0.262821  1
  O  O85  1  0.134631  0.748964  0.535640  1
  O  O86  1  0.592159  0.377863  0.856197  1
  O  O87  1  0.407841  0.622137  0.143803  1
  O  O88  1  0.365369  0.751036  0.035640  1
  O  O89  1  0.269139  0.404220  0.053727  1
  O  O90  1  0.185012  0.590285  0.704524  1
  O  O91  1  0.034144  0.432794  0.560616  1
  O  O92  1  0.814988  0.409715  0.295476  1
  O  O93  1  0.459921  0.961508  0.627369  1
  O  O94  1  0.634631  0.248964  0.964360  1
  O  O95  1  0.685012  0.090285  0.795476  1
  O  O96  1  0.199625  0.583375  0.811359  1
  O  O97  1  0.523789  0.682506  0.824368  1
  O  O98  1  0.314988  0.909715  0.204524  1
  O  O99  1  0.959921  0.461508  0.872631  1
  O  O100  1  0.517052  0.672466  0.711185  1
  O  O101  1  0.965856  0.567206  0.439384  1
  O  O102  1  0.255807  0.567448  0.237179  1
  O  O103  1  0.699625  0.083375  0.688641  1
  O  O104  1  0.582262  0.164065  0.515218  1
  O  O105  1  0.076446  0.222911  0.214824  1
  O  O106  1  0.082262  0.664065  0.984782  1
  O  O107  1  0.917738  0.335935  0.015218  1
  O  O108  1  0.094145  0.822664  0.880924  1
  O  O109  1  0.800375  0.416625  0.188641  1
  O  O110  1  0.417738  0.835935  0.484782  1
  O  O111  1  0.482948  0.327534  0.288815  1
  O  O112  1  0.907841  0.122137  0.356197  1
  O  O113  1  0.534144  0.932794  0.939384  1
  O  O114  1  0.842280  0.082202  0.582762  1
  O  O115  1  0.744193  0.432552  0.762821  1
  O  O116  1  0.333619  0.522102  0.607427  1
  O  O117  1  0.423554  0.277089  0.714824  1
  O  O118  1  0.657720  0.417798  0.082762  1
  O  O119  1  0.769139  0.904220  0.446273  1
  O  O120  1  0.342280  0.582202  0.917238  1
  O  O121  1  0.976211  0.817494  0.324368  1
  O  O122  1  0.730861  0.595780  0.946273  1
  O  O123  1  0.023789  0.182506  0.675632  1
  O  O124  1  0.157720  0.917798  0.417238  1
  O  O125  1  0.300375  0.916625  0.311359  1
  O  O126  1  0.923554  0.777089  0.785176  1
  O  O127  1  0.865369  0.251036  0.464360  1
  O  O128  1  0.576446  0.722911  0.285176  1
  O  O129  1  0.666381  0.477898  0.392573  1
  O  O130  1  0.594145  0.322664  0.619076  1
  O  O131  1  0.092159  0.877863  0.643803  1
  O  O132  1  0.405855  0.677336  0.380924  1
  O  O133  1  0.230861  0.095780  0.553727  1
  O  O134  1  0.476211  0.317494  0.175632  1
  O  O135  1  0.540079  0.038492  0.372631  1
  O  O136  1  0.465856  0.067206  0.060616  1
  O  O137  1  0.982948  0.827534  0.211185  1
  O  O138  1  0.166381  0.977898  0.107427  1
  O  O139  1  0.040079  0.538492  0.127369  1
  O  O140  1  0.244193  0.932552  0.737179  1
  O  O141  1  0.017052  0.172466  0.788815  1
  O  O142  1  0.905855  0.177336  0.119076  1
  O  O143  1  0.833619  0.022102  0.892573  1
