# generated using pymatgen
data_Li5Fe8(BO3)8
_symmetry_space_group_name_H-M   'P 1'
_cell_length_a   5.24495744
_cell_length_b   9.06812746
_cell_length_c   10.22098561
_cell_angle_alpha   90.98752871
_cell_angle_beta   90.41177808
_cell_angle_gamma   89.50564061
_symmetry_Int_Tables_number   1
_chemical_formula_structural   Li5Fe8(BO3)8
_chemical_formula_sum   'Li5 Fe8 B8 O24'
_cell_volume   486.02759097
_cell_formula_units_Z   1
loop_
 _symmetry_equiv_pos_site_id
 _symmetry_equiv_pos_as_xyz
  1  'x, y, z'
loop_
 _atom_site_type_symbol
 _atom_site_label
 _atom_site_symmetry_multiplicity
 _atom_site_fract_x
 _atom_site_fract_y
 _atom_site_fract_z
 _atom_site_occupancy
  Li  Li0  1  0.846125  0.828116  0.661437  1
  Li  Li1  1  0.811081  0.837628  0.167065  1
  Li  Li2  1  0.663207  0.677264  0.906093  1
  Li  Li3  1  0.316759  0.334414  0.150637  1
  Li  Li4  1  0.174983  0.171105  0.410690  1
  Fe  Fe5  1  0.824758  0.172990  0.634442  1
  Fe  Fe6  1  0.816315  0.501696  0.133425  1
  Fe  Fe7  1  0.677482  0.010826  0.885097  1
  Fe  Fe8  1  0.666148  0.351074  0.381535  1
  Fe  Fe9  1  0.350620  0.646322  0.624346  1
  Fe  Fe10  1  0.313708  0.002920  0.118900  1
  Fe  Fe11  1  0.183221  0.827903  0.380524  1
  Fe  Fe12  1  0.168801  0.494085  0.875665  1
  B  B13  1  0.848764  0.501476  0.635381  1
  B  B14  1  0.823691  0.166768  0.132986  1
  B  B15  1  0.677607  0.004633  0.382925  1
  B  B16  1  0.667042  0.341298  0.875752  1
  B  B17  1  0.327884  -0.002729  0.622210  1
  B  B18  1  0.330286  0.668042  0.124669  1
  B  B19  1  0.159522  0.499420  0.371366  1
  B  B20  1  0.171971  0.827232  0.876575  1
  O  O21  1  0.908284  0.507779  0.331823  1
  O  O22  1  0.909621  0.832189  0.860531  1
  O  O23  1  0.792685  0.217035  0.825560  1
  O  O24  1  0.781325  0.136313  0.430259  1
  O  O25  1  0.831655  0.884484  0.357273  1
  O  O26  1  0.809293  0.465250  0.916100  1
  O  O27  1  0.722873  0.634189  0.636058  1
  O  O28  1  0.704395  0.034564  0.094917  1
  O  O29  1  0.731279  0.373422  0.588197  1
  O  O30  1  0.676590  0.291474  0.162212  1
  O  O31  1  0.590339  0.680020  0.107782  1
  O  O32  1  0.586815  0.000391  0.657881  1
  O  O33  1  0.414609  -0.003251  0.355583  1
  O  O34  1  0.409901  0.342843  0.888840  1
  O  O35  1  0.304344  0.693469  0.848544  1
  O  O36  1  0.279674  0.627891  0.418647  1
  O  O37  1  0.290684  0.367395  0.364917  1
  O  O38  1  0.310476  0.946484  0.918683  1
  O  O39  1  0.201924  0.540110  0.085564  1
  O  O40  1  0.181727  0.123609  0.616519  1
  O  O41  1  0.213747  0.861900  0.585716  1
  O  O42  1  0.191540  0.788458  0.178262  1
  O  O43  1  0.084746  0.173142  0.142282  1
  O  O44  1  0.097978  0.491151  0.682091  1
