# generated using pymatgen
data_Tm2Sb2O7
_symmetry_space_group_name_H-M   'P 1'
_cell_length_a   7.53235581
_cell_length_b   7.53235581
_cell_length_c   10.55370137
_cell_angle_alpha   45.52822579
_cell_angle_beta   134.47177421
_cell_angle_gamma   118.83791099
_symmetry_Int_Tables_number   1
_chemical_formula_structural   Tm2Sb2O7
_chemical_formula_sum   'Tm4 Sb4 O14'
_cell_volume   304.86746198
_cell_formula_units_Z   2
loop_
 _symmetry_equiv_pos_site_id
 _symmetry_equiv_pos_as_xyz
  1  'x, y, z'
loop_
 _atom_site_type_symbol
 _atom_site_label
 _atom_site_symmetry_multiplicity
 _atom_site_fract_x
 _atom_site_fract_y
 _atom_site_fract_z
 _atom_site_occupancy
  Tm  Tm0  1  0.741828  0.741828  0.000000  1
  Tm  Tm1  1  0.779839  0.197195  0.541322  1
  Tm  Tm2  1  0.741828  0.741828  0.500000  1
  Tm  Tm3  1  0.197195  0.779839  0.458678  1
  Sb  Sb4  1  0.264808  0.264808  0.000000  1
  Sb  Sb5  1  0.226465  0.740136  0.993165  1
  Sb  Sb6  1  0.264808  0.264808  0.500000  1
  Sb  Sb7  1  0.740136  0.226465  0.006835  1
  O  O8  1  0.933770  0.017259  0.085416  1
  O  O9  1  0.933770  0.017259  0.331095  1
  O  O10  1  0.498893  0.994149  0.370507  1
  O  O11  1  0.422449  0.559295  0.046529  1
  O  O12  1  0.485641  0.980602  0.002519  1
  O  O13  1  0.422449  0.559295  0.316623  1
  O  O14  1  0.498893  0.994149  0.634237  1
  O  O15  1  0.994149  0.498893  0.365763  1
  O  O16  1  0.559295  0.422449  0.683377  1
  O  O17  1  0.980602  0.485641  0.997481  1
  O  O18  1  0.559295  0.422449  0.953471  1
  O  O19  1  0.994149  0.498893  0.629493  1
  O  O20  1  0.017259  0.933770  0.668905  1
  O  O21  1  0.017259  0.933770  0.914584  1
