# generated using pymatgen
data_LiMn2OF5
_symmetry_space_group_name_H-M   'P 1'
_cell_length_a   4.73219697
_cell_length_b   17.29305717
_cell_length_c   5.12000632
_cell_angle_alpha   88.54703034
_cell_angle_beta   90.00000000
_cell_angle_gamma   90.00000000
_symmetry_Int_Tables_number   1
_chemical_formula_structural   LiMn2OF5
_chemical_formula_sum   'Li4 Mn8 O4 F20'
_cell_volume   418.85666285
_cell_formula_units_Z   4
loop_
 _symmetry_equiv_pos_site_id
 _symmetry_equiv_pos_as_xyz
  1  'x, y, z'
loop_
 _atom_site_type_symbol
 _atom_site_label
 _atom_site_symmetry_multiplicity
 _atom_site_fract_x
 _atom_site_fract_y
 _atom_site_fract_z
 _atom_site_occupancy
  Li  Li0  1  0.010350  0.381795  0.251247  1
  Li  Li1  1  0.989233  0.610823  0.746404  1
  Li  Li2  1  0.489650  0.881795  0.251247  1
  Li  Li3  1  0.510767  0.110823  0.746404  1
  Mn  Mn4  1  0.010034  0.281616  0.764365  1
  Mn  Mn5  1  0.017978  0.055211  0.249411  1
  Mn  Mn6  1  0.044481  0.709964  0.225012  1
  Mn  Mn7  1  -0.000520  0.945780  0.757439  1
  Mn  Mn8  1  0.455519  0.209964  0.225012  1
  Mn  Mn9  1  0.482022  0.555211  0.249411  1
  Mn  Mn10  1  0.489966  0.781616  0.764365  1
  Mn  Mn11  1  0.500520  0.445780  0.757439  1
  O  O12  1  0.262344  0.784980  0.067778  1
  O  O13  1  0.243893  0.628237  0.084322  1
  O  O14  1  0.256107  0.128237  0.084322  1
  O  O15  1  0.237656  0.284980  0.067778  1
  F  F16  1  0.237016  0.959434  0.084235  1
  F  F17  1  0.232340  0.044527  0.569111  1
  F  F18  1  0.262952  0.209436  0.562391  1
  F  F19  1  0.226552  0.371255  0.582831  1
  F  F20  1  0.273448  0.871255  0.582831  1
  F  F21  1  0.237048  0.709436  0.562391  1
  F  F22  1  0.262984  0.459434  0.084235  1
  F  F23  1  0.267660  0.544527  0.569111  1
  F  F24  1  0.710755  0.472768  0.409358  1
  F  F25  1  0.711283  0.542743  0.930529  1
  F  F26  1  0.771394  0.291036  0.452406  1
  F  F27  1  0.786198  0.706838  0.935771  1
  F  F28  1  0.713398  0.135783  0.405502  1
  F  F29  1  0.714152  0.867775  0.921886  1
  F  F30  1  0.785848  0.367775  0.921886  1
  F  F31  1  0.786602  0.635783  0.405502  1
  F  F32  1  0.728606  0.791036  0.452406  1
  F  F33  1  0.713802  0.206838  0.935771  1
  F  F34  1  0.788717  0.042743  0.930529  1
  F  F35  1  0.789245  0.972768  0.409358  1
