# generated using pymatgen
data_V3Sb2(PO4)6
_symmetry_space_group_name_H-M   'P 1'
_cell_length_a   8.98041824
_cell_length_b   8.62670620
_cell_length_c   8.62670586
_cell_angle_alpha   60.00000530
_cell_angle_beta   61.29458562
_cell_angle_gamma   61.29457919
_symmetry_Int_Tables_number   1
_chemical_formula_structural   V3Sb2(PO4)6
_chemical_formula_sum   'V3 Sb2 P6 O24'
_cell_volume   481.61292773
_cell_formula_units_Z   1
loop_
 _symmetry_equiv_pos_site_id
 _symmetry_equiv_pos_as_xyz
  1  'x, y, z'
loop_
 _atom_site_type_symbol
 _atom_site_label
 _atom_site_symmetry_multiplicity
 _atom_site_fract_x
 _atom_site_fract_y
 _atom_site_fract_z
 _atom_site_occupancy
  V  V0  1  0.052143  0.649285  0.649285  1
  V  V1  1  0.424312  0.858563  0.858563  1
  V  V2  1  0.002708  0.332431  0.332431  1
  Sb  Sb3  1  0.895756  0.034748  0.034748  1
  Sb  Sb4  1  0.553480  0.482173  0.482173  1
  P  P5  1  0.269859  0.256433  0.549806  1
  P  P6  1  0.269859  0.923901  0.256433  1
  P  P7  1  0.269859  0.549806  0.923901  1
  P  P8  1  0.740357  0.478102  0.041679  1
  P  P9  1  0.740357  0.041679  0.739862  1
  P  P10  1  0.740357  0.739862  0.478102  1
  O  O11  1  0.109258  0.109280  0.293368  1
  O  O12  1  0.109258  0.488095  0.109280  1
  O  O13  1  0.109258  0.293368  0.488095  1
  O  O14  1  0.271707  0.062348  0.712578  1
  O  O15  1  0.441454  0.273962  0.395384  1
  O  O16  1  0.195186  0.400959  0.647969  1
  O  O17  1  0.271707  0.953367  0.062348  1
  O  O18  1  0.195186  0.755886  0.400959  1
  O  O19  1  0.565540  0.634885  0.021027  1
  O  O20  1  0.195186  0.647969  0.755886  1
  O  O21  1  0.744149  0.297423  0.038871  1
  O  O22  1  0.565540  0.021027  0.778548  1
  O  O23  1  0.441454  0.889199  0.273962  1
  O  O24  1  0.271707  0.712578  0.953367  1
  O  O25  1  0.755970  0.427520  0.238640  1
  O  O26  1  0.441454  0.395384  0.889199  1
  O  O27  1  0.755970  0.238640  0.577870  1
  O  O28  1  0.744149  0.038871  0.919558  1
  O  O29  1  0.755970  0.577870  0.427520  1
  O  O30  1  0.565540  0.778548  0.634885  1
  O  O31  1  0.744149  0.919558  0.297423  1
  O  O32  1  0.906330  0.661514  0.533866  1
  O  O33  1  0.906330  0.533866  0.898288  1
  O  O34  1  0.906330  0.898288  0.661514  1
