# generated using pymatgen
data_Li3Mn4(PO4)6
_symmetry_space_group_name_H-M   'P 1'
_cell_length_a   8.25768402
_cell_length_b   8.52593659
_cell_length_c   12.04415110
_cell_angle_alpha   89.76252834
_cell_angle_beta   89.43877259
_cell_angle_gamma   90.04070632
_symmetry_Int_Tables_number   1
_chemical_formula_structural   Li3Mn4(PO4)6
_chemical_formula_sum   'Li6 Mn8 P12 O48'
_cell_volume   847.91411911
_cell_formula_units_Z   2
loop_
 _symmetry_equiv_pos_site_id
 _symmetry_equiv_pos_as_xyz
  1  'x, y, z'
loop_
 _atom_site_type_symbol
 _atom_site_label
 _atom_site_symmetry_multiplicity
 _atom_site_fract_x
 _atom_site_fract_y
 _atom_site_fract_z
 _atom_site_occupancy
  Li  Li0  1  0.073201  0.090553  0.301636  1
  Li  Li1  1  0.195368  0.798739  0.829165  1
  Li  Li2  1  0.423172  0.607575  0.194944  1
  Li  Li3  1  0.577187  0.399948  0.803899  1
  Li  Li4  1  0.922825  0.506230  0.336808  1
  Li  Li5  1  0.916672  0.901750  0.691937  1
  Mn  Mn6  1  0.254790  0.030851  0.107204  1
  Mn  Mn7  1  0.255009  0.529088  0.396952  1
  Mn  Mn8  1  0.256262  0.970646  0.611836  1
  Mn  Mn9  1  0.245198  0.464162  0.885909  1
  Mn  Mn10  1  0.752624  0.530821  0.112045  1
  Mn  Mn11  1  0.742805  0.029898  0.384666  1
  Mn  Mn12  1  0.754896  0.466634  0.607103  1
  Mn  Mn13  1  0.748273  0.973443  0.893930  1
  P  P14  1  0.038119  0.246175  0.506184  1
  P  P15  1  0.113426  0.385223  0.146850  1
  P  P16  1  0.111486  0.113324  0.850771  1
  P  P17  1  0.389807  0.882847  0.361992  1
  P  P18  1  0.385356  0.611698  0.645718  1
  P  P19  1  0.466542  0.750692  0.992506  1
  P  P20  1  0.539805  0.250943  0.007257  1
  P  P21  1  0.612834  0.384663  0.349102  1
  P  P22  1  0.609844  0.113559  0.646177  1
  P  P23  1  0.883323  0.885150  0.144630  1
  P  P24  1  0.888612  0.618192  0.861539  1
  P  P25  1  0.962270  0.752518  0.494325  1
  O  O26  1  0.062249  0.887631  0.109494  1
  O  O27  1  0.059025  0.877757  0.558234  1
  O  O28  1  0.060844  0.670795  0.399988  1
  O  O29  1  0.068845  0.584875  0.826132  1
  O  O30  1  0.124483  0.206112  0.167313  1
  O  O31  1  0.141162  0.418137  0.023228  1
  O  O32  1  0.096035  0.365086  0.414448  1
  O  O33  1  0.119583  0.005347  0.744173  1
  O  O34  1  0.161705  0.281387  0.816203  1
  O  O35  1  0.192643  0.168786  0.551723  1
  O  O36  1  0.228530  0.482138  0.221767  1
  O  O37  1  0.266262  0.972008  0.294581  1
  O  O38  1  0.223903  0.038450  0.934355  1
  O  O39  1  0.268956  0.554439  0.553512  1
  O  O40  1  0.317312  0.672749  0.936731  1
  O  O41  1  0.321922  0.774416  0.686680  1
  O  O42  1  0.402450  0.855886  0.086232  1
  O  O43  1  0.374646  0.905955  0.488287  1
  O  O44  1  0.381864  0.700168  0.341334  1
  O  O45  1  0.370549  0.501014  0.749064  1
  O  O46  1  0.438808  0.175988  0.099736  1
  O  O47  1  0.435828  0.386685  0.393827  1
  O  O48  1  0.433479  0.070327  0.679036  1
  O  O49  1  0.443782  0.373871  0.937177  1
  O  O50  1  0.556946  0.620079  0.056921  1
  O  O51  1  0.563894  0.924535  0.323200  1
  O  O52  1  0.562362  0.610895  0.608369  1
  O  O53  1  0.566559  0.827762  0.898777  1
  O  O54  1  0.616266  0.487052  0.241103  1
  O  O55  1  0.623297  0.293273  0.666340  1
  O  O56  1  0.644702  0.081612  0.523461  1
  O  O57  1  0.599755  0.140119  0.913653  1
  O  O58  1  0.659013  0.215824  0.315495  1
  O  O59  1  0.692779  0.331856  0.052275  1
  O  O60  1  0.736262  0.451589  0.429939  1
  O  O61  1  0.769434  0.944877  0.051557  1
  O  O62  1  0.724914  0.017922  0.722513  1
  O  O63  1  0.769444  0.525711  0.793574  1
  O  O64  1  0.813614  0.829477  0.441004  1
  O  O65  1  0.824287  0.720914  0.184581  1
  O  O66  1  0.868442  0.994589  0.248170  1
  O  O67  1  0.901854  0.641644  0.586846  1
  O  O68  1  0.873007  0.592419  0.987316  1
  O  O69  1  0.884093  0.801223  0.839712  1
  O  O70  1  0.936815  0.431185  0.182848  1
  O  O71  1  0.937985  0.319378  0.599430  1
  O  O72  1  0.944075  0.126362  0.434059  1
  O  O73  1  0.930784  0.116079  0.887658  1
