# generated using pymatgen
data_Li5Fe8(BO3)8
_symmetry_space_group_name_H-M   'P 1'
_cell_length_a   5.30327937
_cell_length_b   9.02903143
_cell_length_c   11.18374667
_cell_angle_alpha   113.74676611
_cell_angle_beta   78.19955084
_cell_angle_gamma   90.36750008
_symmetry_Int_Tables_number   1
_chemical_formula_structural   Li5Fe8(BO3)8
_chemical_formula_sum   'Li5 Fe8 B8 O24'
_cell_volume   478.09080125
_cell_formula_units_Z   1
loop_
 _symmetry_equiv_pos_site_id
 _symmetry_equiv_pos_as_xyz
  1  'x, y, z'
loop_
 _atom_site_type_symbol
 _atom_site_label
 _atom_site_symmetry_multiplicity
 _atom_site_fract_x
 _atom_site_fract_y
 _atom_site_fract_z
 _atom_site_occupancy
  Li  Li0  1  0.164406  0.157288  0.341589  1
  Li  Li1  1  0.352085  0.296208  0.604902  1
  Li  Li2  1  0.601225  0.047925  0.079031  1
  Li  Li3  1  0.923740  0.425043  0.836787  1
  Li  Li4  1  0.671164  0.663293  0.343677  1
  Fe  Fe5  1  0.409980  0.262874  0.867391  1
  Fe  Fe6  1  0.095313  0.234907  0.120806  1
  Fe  Fe7  1  0.843739  0.126802  0.615423  1
  Fe  Fe8  1  0.657117  0.345989  0.376264  1
  Fe  Fe9  1  0.357347  0.655463  0.628064  1
  Fe  Fe10  1  0.152232  0.843437  0.369272  1
  Fe  Fe11  1  0.903413  0.780695  0.863460  1
  Fe  Fe12  1  0.595219  0.728620  0.118171  1
  B  B13  1  0.647382  0.013282  0.365965  1
  B  B14  1  0.885785  0.111747  0.878140  1
  B  B15  1  0.152424  0.515624  0.371291  1
  B  B16  1  0.397604  0.599208  0.870913  1
  B  B17  1  0.861531  0.480576  0.624345  1
  B  B18  1  0.596175  0.396588  0.129143  1
  B  B19  1  0.351858  0.978365  0.616917  1
  B  B20  1  0.102105  0.895935  0.122929  1
  O  O21  1  0.111808  0.143758  0.927399  1
  O  O22  1  0.452229  0.129609  0.656697  1
  O  O23  1  0.217650  0.039996  0.137271  1
  O  O24  1  0.493362  0.146914  0.385692  1
  O  O25  1  0.884948  0.031449  0.401254  1
  O  O26  1  0.808757  0.213566  0.823730  1
  O  O27  1  0.273727  0.464056  0.858699  1
  O  O28  1  0.065998  0.355841  0.327248  1
  O  O29  1  0.714681  0.282219  0.162993  1
  O  O30  1  0.618787  0.470924  0.588144  1
  O  O31  1  0.975641  0.350611  0.632475  1
  O  O32  1  0.378510  0.353776  0.079579  1
  O  O33  1  0.630460  0.627980  0.922355  1
  O  O34  1  0.384890  0.538083  0.417296  1
  O  O35  1  0.308106  0.710608  0.828638  1
  O  O36  1  0.979692  0.625625  0.655031  1
  O  O37  1  0.693120  0.541985  0.146260  1
  O  O38  1  0.222920  0.781363  0.151029  1
  O  O39  1  0.131698  0.961339  0.566169  1
  O  O40  1  0.474321  0.849138  0.623393  1
  O  O41  1  0.014075  0.635996  0.365579  1
  O  O42  1  0.742024  0.991875  0.892378  1
  O  O43  1  0.558372  0.855613  0.313718  1
  O  O44  1  0.862923  0.871670  0.086527  1
