# generated using pymatgen
data_Li5Fe3Co2(PO4)6
_symmetry_space_group_name_H-M   'P 1'
_cell_length_a   8.44224932
_cell_length_b   8.79503123
_cell_length_c   8.80789090
_cell_angle_alpha   60.03139022
_cell_angle_beta   59.31206913
_cell_angle_gamma   59.44696795
_symmetry_Int_Tables_number   1
_chemical_formula_structural   Li5Fe3Co2(PO4)6
_chemical_formula_sum   'Li5 Fe3 Co2 P6 O24'
_cell_volume   458.15755098
_cell_formula_units_Z   1
loop_
 _symmetry_equiv_pos_site_id
 _symmetry_equiv_pos_as_xyz
  1  'x, y, z'
loop_
 _atom_site_type_symbol
 _atom_site_label
 _atom_site_symmetry_multiplicity
 _atom_site_fract_x
 _atom_site_fract_y
 _atom_site_fract_z
 _atom_site_occupancy
  Li  Li0  1  0.522517  0.161018  0.158328  1
  Li  Li1  1  0.251225  0.858602  0.644441  1
  Li  Li2  1  0.713924  0.147564  0.328864  1
  Li  Li3  1  0.712036  0.813176  0.143725  1
  Li  Li4  1  0.712019  0.333088  0.811863  1
  Fe  Fe5  1  0.065486  0.642839  0.645549  1
  Fe  Fe6  1  0.435104  0.853752  0.857577  1
  Fe  Fe7  1  0.952816  0.348828  0.346466  1
  Co  Co8  1  0.001854  0.002884  0.003072  1
  Co  Co9  1  0.495748  0.495828  0.499606  1
  P  P10  1  0.258297  0.249747  0.547892  1
  P  P11  1  0.257321  0.946548  0.243096  1
  P  P12  1  0.259659  0.547440  0.945785  1
  P  P13  1  0.753886  0.457969  0.043412  1
  P  P14  1  0.769493  0.039400  0.743469  1
  P  P15  1  0.739166  0.747497  0.461275  1
  O  O16  1  0.075402  0.109196  0.306023  1
  O  O17  1  0.076454  0.504468  0.108105  1
  O  O18  1  0.074753  0.316717  0.501138  1
  O  O19  1  0.225607  0.087180  0.739918  1
  O  O20  1  0.446388  0.186532  0.397814  1
  O  O21  1  0.270415  0.406173  0.575610  1
  O  O22  1  0.224903  0.934865  0.089077  1
  O  O23  1  0.268702  0.755487  0.407720  1
  O  O24  1  0.568447  0.612637  0.004131  1
  O  O25  1  0.275979  0.578785  0.745249  1
  O  O26  1  0.786476  0.266724  0.043589  1
  O  O27  1  0.598294  0.983874  0.797160  1
  O  O28  1  0.447265  0.974704  0.176965  1
  O  O29  1  0.223844  0.750439  0.926874  1
  O  O30  1  0.725749  0.424281  0.248896  1
  O  O31  1  0.446983  0.397954  0.972881  1
  O  O32  1  0.735703  0.242351  0.596401  1
  O  O33  1  0.781974  0.050186  0.908599  1
  O  O34  1  0.726026  0.597266  0.422474  1
  O  O35  1  0.539654  0.810251  0.610039  1
  O  O36  1  0.779836  0.905190  0.271187  1
  O  O37  1  0.902939  0.669169  0.536042  1
  O  O38  1  0.931942  0.516189  0.898572  1
  O  O39  1  0.965717  0.896201  0.668121  1
