# generated using pymatgen
data_Li3SbS3
_symmetry_space_group_name_H-M   'P 1'
_cell_length_a   6.21629540
_cell_length_b   14.92073003
_cell_length_c   6.62996272
_cell_angle_alpha   90.00000000
_cell_angle_beta   96.82315580
_cell_angle_gamma   90.00000000
_symmetry_Int_Tables_number   1
_chemical_formula_structural   Li3SbS3
_chemical_formula_sum   'Li12 Sb4 S12'
_cell_volume   610.58481699
_cell_formula_units_Z   4
loop_
 _symmetry_equiv_pos_site_id
 _symmetry_equiv_pos_as_xyz
  1  'x, y, z'
loop_
 _atom_site_type_symbol
 _atom_site_label
 _atom_site_symmetry_multiplicity
 _atom_site_fract_x
 _atom_site_fract_y
 _atom_site_fract_z
 _atom_site_occupancy
  Li  Li0  1  0.177136  0.646041  0.526397  1
  Li  Li1  1  0.110839  0.425363  0.152964  1
  Li  Li2  1  0.389161  0.925363  0.347036  1
  Li  Li3  1  0.322864  0.146041  0.973603  1
  Li  Li4  1  0.120447  0.737696  0.104218  1
  Li  Li5  1  0.379553  0.237696  0.395782  1
  Li  Li6  1  0.620447  0.762304  0.604217  1
  Li  Li7  1  0.879553  0.262304  0.895783  1
  Li  Li8  1  0.677136  0.853959  0.026397  1
  Li  Li9  1  0.610839  0.074637  0.652964  1
  Li  Li10  1  0.889161  0.574637  0.847036  1
  Li  Li11  1  0.822864  0.353959  0.473603  1
  Sb  Sb12  1  0.075371  0.902953  0.764388  1
  Sb  Sb13  1  0.424629  0.402953  0.735612  1
  Sb  Sb14  1  0.575371  0.597047  0.264388  1
  Sb  Sb15  1  0.924629  0.097047  0.235611  1
  S  S16  1  0.042268  0.898193  0.131686  1
  S  S17  1  0.999236  0.262039  0.256957  1
  S  S18  1  0.028710  0.416296  0.773166  1
  S  S19  1  0.500764  0.762039  0.243043  1
  S  S20  1  0.471290  0.916296  0.726834  1
  S  S21  1  0.457732  0.398193  0.368314  1
  S  S22  1  0.542268  0.601807  0.631686  1
  S  S23  1  0.528710  0.083704  0.273166  1
  S  S24  1  0.499236  0.237961  0.756957  1
  S  S25  1  0.971290  0.583704  0.226834  1
  S  S26  1  0.000764  0.737961  0.743043  1
  S  S27  1  0.957732  0.101807  0.868314  1
