# generated using pymatgen
data_Sb8Cl2O11
_symmetry_space_group_name_H-M   'P 1'
_cell_length_a   19.99683256
_cell_length_b   4.20587284
_cell_length_c   11.17833499
_cell_angle_alpha   90.00000000
_cell_angle_beta   63.59502225
_cell_angle_gamma   90.00000000
_symmetry_Int_Tables_number   1
_chemical_formula_structural   Sb8Cl2O11
_chemical_formula_sum   'Sb16 Cl4 O22'
_cell_volume   842.06189176
_cell_formula_units_Z   2
loop_
 _symmetry_equiv_pos_site_id
 _symmetry_equiv_pos_as_xyz
  1  'x, y, z'
loop_
 _atom_site_type_symbol
 _atom_site_label
 _atom_site_symmetry_multiplicity
 _atom_site_fract_x
 _atom_site_fract_y
 _atom_site_fract_z
 _atom_site_occupancy
  Sb  Sb0  1  0.980777  0.693389  0.705939  1
  Sb  Sb1  1  0.072017  0.182682  0.873662  1
  Sb  Sb2  1  0.258404  0.977286  0.874840  1
  Sb  Sb3  1  0.241596  0.477286  0.625160  1
  Sb  Sb4  1  0.214414  0.452830  0.134355  1
  Sb  Sb5  1  0.285586  0.952830  0.365645  1
  Sb  Sb6  1  0.427983  0.682682  0.626338  1
  Sb  Sb7  1  0.519223  0.193389  0.794061  1
  Sb  Sb8  1  0.480777  0.806611  0.205939  1
  Sb  Sb9  1  0.572017  0.317318  0.373662  1
  Sb  Sb10  1  0.714414  0.047170  0.634355  1
  Sb  Sb11  1  0.785586  0.547170  0.865645  1
  Sb  Sb12  1  0.758404  0.522714  0.374840  1
  Sb  Sb13  1  0.741596  0.022714  0.125160  1
  Sb  Sb14  1  0.927983  0.817318  0.126338  1
  Sb  Sb15  1  0.019223  0.306611  0.294061  1
  Cl  Cl16  1  0.094794  0.996205  0.391103  1
  Cl  Cl17  1  0.405206  0.496205  0.108897  1
  Cl  Cl18  1  0.594794  0.503795  0.891103  1
  Cl  Cl19  1  0.905206  0.003795  0.608897  1
  O  O20  1  0.005830  0.076452  0.786645  1
  O  O21  1  0.129528  0.500908  0.730678  1
  O  O22  1  0.263025  0.462217  0.928801  1
  O  O23  1  0.000000  0.500000  0.000000  1
  O  O24  1  0.113782  0.412747  0.136166  1
  O  O25  1  0.265070  0.458463  0.431015  1
  O  O26  1  0.236975  0.962217  0.571199  1
  O  O27  1  0.370472  0.000908  0.769322  1
  O  O28  1  0.494170  0.576452  0.713355  1
  O  O29  1  0.234930  0.958463  0.068985  1
  O  O30  1  0.386218  0.912747  0.363834  1
  O  O31  1  0.500000  0.000000  0.500000  1
  O  O32  1  0.613782  0.087252  0.636166  1
  O  O33  1  0.765070  0.041537  0.931015  1
  O  O34  1  0.505830  0.423548  0.286645  1
  O  O35  1  0.629528  0.999092  0.230678  1
  O  O36  1  0.763025  0.037783  0.428801  1
  O  O37  1  0.734930  0.541537  0.568985  1
  O  O38  1  0.886218  0.587253  0.863834  1
  O  O39  1  0.736975  0.537783  0.071199  1
  O  O40  1  0.870472  0.499092  0.269322  1
  O  O41  1  0.994170  0.923548  0.213355  1
