# generated using pymatgen
data_CuCO3
_symmetry_space_group_name_H-M   'P 1'
_cell_length_a   13.84116753
_cell_length_b   13.83440867
_cell_length_c   3.38051228
_cell_angle_alpha   88.79106770
_cell_angle_beta   91.18274888
_cell_angle_gamma   119.80575408
_symmetry_Int_Tables_number   1
_chemical_formula_structural   CuCO3
_chemical_formula_sum   'Cu9 C9 O27'
_cell_volume   561.52201059
_cell_formula_units_Z   9
loop_
 _symmetry_equiv_pos_site_id
 _symmetry_equiv_pos_as_xyz
  1  'x, y, z'
loop_
 _atom_site_type_symbol
 _atom_site_label
 _atom_site_symmetry_multiplicity
 _atom_site_fract_x
 _atom_site_fract_y
 _atom_site_fract_z
 _atom_site_occupancy
  Cu  Cu0  1  0.241259  0.782155  0.074493  1
  Cu  Cu1  1  0.212862  0.456397  0.001714  1
  Cu  Cu2  1  0.213477  0.093956  0.021190  1
  Cu  Cu3  1  0.542210  0.759364  0.941141  1
  Cu  Cu4  1  0.573454  0.461619  0.937127  1
  Cu  Cu5  1  0.538974  0.113098  0.080458  1
  Cu  Cu6  1  0.880840  0.787870  0.952046  1
  Cu  Cu7  1  0.887794  0.425440  0.950038  1
  Cu  Cu8  1  0.905945  0.117978  0.033042  1
  C  C9  1  0.003931  0.668702  0.003033  1
  C  C10  1  0.333454  0.667062  0.000604  1
  C  C11  1  0.664432  0.995681  0.006302  1
  C  C12  1  0.330169  0.335491  0.991036  1
  C  C13  1  0.327346  0.997613  0.522257  1
  C  C14  1  0.670165  0.672632  0.475270  1
  C  C15  1  0.665858  0.332979  0.998589  1
  C  C16  1  0.999727  -0.000131  0.003845  1
  C  C17  1  0.000759  0.328766  0.507231  1
  O  O18  1  0.026767  0.922989  0.014133  1
  O  O19  1  0.095662  0.760530  0.065519  1
  O  O20  1  0.004880  0.575729  0.989379  1
  O  O21  1  0.299170  0.893576  0.547357  1
  O  O22  1  0.104552  0.405612  0.517602  1
  O  O23  1  0.226426  0.605274  0.021307  1
  O  O24  1  0.378739  0.773191  0.057012  1
  O  O25  1  0.075482  0.103511  0.017946  1
  O  O26  1  0.570802  0.994707  0.028056  1
  O  O27  1  0.237705  0.334877  0.036977  1
  O  O28  1  0.394633  0.623854  0.924306  1
  O  O29  1  0.423064  0.429341  0.970684  1
  O  O30  1  0.665030  0.904825  0.933702  1
  O  O31  1  0.331320  0.243318  0.967066  1
  O  O32  1  0.252938  0.029591  0.521470  1
  O  O33  1  0.594488  0.701167  0.448594  1
  O  O34  1  0.432773  0.073846  0.506051  1
  O  O35  1  0.640329  0.566502  0.488781  1
  O  O36  1  0.775716  0.746846  0.481946  1
  O  O37  1  0.895804  0.972685  0.978896  1
  O  O38  1  0.566605  0.319772  0.019754  1
  O  O39  1  0.751378  0.432114  0.993262  1
  O  O40  1  0.678706  0.246932  0.981783  1
  O  O41  1  0.911057  0.668007  0.954591  1
  O  O42  1  0.756468  0.087890  0.055883  1
  O  O43  1  0.923950  0.358456  0.500877  1
  O  O44  1  0.970527  0.223707  0.499612  1
