# generated using pymatgen
data_LiCr(PO3)4
_symmetry_space_group_name_H-M   'P 1'
_cell_length_a   7.24580187
_cell_length_b   7.64400183
_cell_length_c   8.41058217
_cell_angle_alpha   90.00000000
_cell_angle_beta   90.00000000
_cell_angle_gamma   91.97551284
_symmetry_Int_Tables_number   1
_chemical_formula_structural   LiCr(PO3)4
_chemical_formula_sum   'Li2 Cr2 P8 O24'
_cell_volume   465.55939596
_cell_formula_units_Z   2
loop_
 _symmetry_equiv_pos_site_id
 _symmetry_equiv_pos_as_xyz
  1  'x, y, z'
loop_
 _atom_site_type_symbol
 _atom_site_label
 _atom_site_symmetry_multiplicity
 _atom_site_fract_x
 _atom_site_fract_y
 _atom_site_fract_z
 _atom_site_occupancy
  Li  Li0  1  0.268582  0.855281  0.696734  1
  Li  Li1  1  0.731418  0.144719  0.196734  1
  Cr  Cr2  1  0.263549  0.336098  0.491988  1
  Cr  Cr3  1  0.736451  0.663902  0.991988  1
  P  P4  1  0.084572  0.982864  0.292967  1
  P  P5  1  0.066092  0.370645  0.875130  1
  P  P6  1  0.352107  0.807930  0.071946  1
  P  P7  1  0.371158  0.437765  0.124323  1
  P  P8  1  0.628842  0.562235  0.624323  1
  P  P9  1  0.647893  0.192070  0.571946  1
  P  P10  1  0.933908  0.629355  0.375130  1
  P  P11  1  0.915428  0.017136  0.792967  1
  O  O12  1  0.061962  0.803929  0.397972  1
  O  O13  1  0.051599  0.479541  0.418562  1
  O  O14  1  0.271039  0.809402  0.911453  1
  O  O15  1  0.074156  0.002203  0.685681  1
  O  O16  1  0.164926  0.375753  0.719334  1
  O  O17  1  0.273145  0.946094  0.193731  1
  O  O18  1  0.132404  0.127725  0.405586  1
  O  O19  1  0.215516  0.341497  0.017061  1
  O  O20  1  0.290970  0.625547  0.161531  1
  O  O21  1  0.383405  0.337208  0.277099  1
  O  O22  1  0.561102  0.831504  0.086244  1
  O  O23  1  0.446893  0.545439  0.536330  1
  O  O24  1  0.553107  0.454561  0.036330  1
  O  O25  1  0.438898  0.168496  0.586244  1
  O  O26  1  0.616595  0.662792  0.777099  1
  O  O27  1  0.709030  0.374453  0.661531  1
  O  O28  1  0.784484  0.658503  0.517061  1
  O  O29  1  0.867596  0.872275  0.905586  1
  O  O30  1  0.726855  0.053906  0.693731  1
  O  O31  1  0.835074  0.624247  0.219334  1
  O  O32  1  0.925844  0.997797  0.185681  1
  O  O33  1  0.728961  0.190598  0.411453  1
  O  O34  1  0.948401  0.520459  0.918562  1
  O  O35  1  0.938038  0.196071  0.897972  1
