# generated using pymatgen
data_CoH18C4N8(ClO)4
_symmetry_space_group_name_H-M   'P 1'
_cell_length_a   6.50136937
_cell_length_b   11.41147637
_cell_length_c   11.65928747
_cell_angle_alpha   90.00000000
_cell_angle_beta   103.59076508
_cell_angle_gamma   90.00000000
_symmetry_Int_Tables_number   1
_chemical_formula_structural   CoH18C4N8(ClO)4
_chemical_formula_sum   'Co2 H36 C8 N16 Cl8 O8'
_cell_volume   840.78403039
_cell_formula_units_Z   2
loop_
 _symmetry_equiv_pos_site_id
 _symmetry_equiv_pos_as_xyz
  1  'x, y, z'
loop_
 _atom_site_type_symbol
 _atom_site_label
 _atom_site_symmetry_multiplicity
 _atom_site_fract_x
 _atom_site_fract_y
 _atom_site_fract_z
 _atom_site_occupancy
  Co  Co0  1  0.500000  0.000000  0.500000  1
  Co  Co1  1  0.000000  0.500000  0.000000  1
  H  H2  1  0.288495  0.788610  0.505524  1
  H  H3  1  0.788495  0.711390  0.005524  1
  H  H4  1  0.711505  0.211390  0.494476  1
  H  H5  1  0.211505  0.288610  0.994476  1
  H  H6  1  0.133662  0.895384  0.496797  1
  H  H7  1  0.633662  0.604616  0.996797  1
  H  H8  1  0.866338  0.104616  0.503203  1
  H  H9  1  0.366338  0.395384  0.003203  1
  H  H10  1  0.006338  0.709593  0.211502  1
  H  H11  1  0.506338  0.790407  0.711502  1
  H  H12  1  0.993662  0.290407  0.788498  1
  H  H13  1  0.493662  0.209593  0.288498  1
  H  H14  1  0.124640  0.823900  0.307471  1
  H  H15  1  0.624640  0.676100  0.807471  1
  H  H16  1  0.875360  0.176100  0.692529  1
  H  H17  1  0.375360  0.323900  0.192529  1
  H  H18  1  0.089605  0.006718  0.257887  1
  H  H19  1  0.589605  0.493282  0.757887  1
  H  H20  1  0.910395  0.993282  0.742113  1
  H  H21  1  0.410395  0.506718  0.242113  1
  H  H22  1  0.874837  0.267940  0.138372  1
  H  H23  1  0.374837  0.232060  0.638372  1
  H  H24  1  0.125163  0.732060  0.861628  1
  H  H25  1  0.625163  0.767940  0.361628  1
  H  H26  1  0.035769  0.193175  0.260758  1
  H  H27  1  0.535769  0.306825  0.760758  1
  H  H28  1  0.964231  0.806825  0.739242  1
  H  H29  1  0.464231  0.693175  0.239242  1
  H  H30  1  0.670240  0.157333  0.985557  1
  H  H31  1  0.170240  0.342667  0.485557  1
  H  H32  1  0.329760  0.842667  0.014443  1
  H  H33  1  0.829760  0.657333  0.514443  1
  H  H34  1  0.696397  0.000332  0.990928  1
  H  H35  1  0.196397  0.499668  0.490928  1
  H  H36  1  0.303603  0.999668  0.009072  1
  H  H37  1  0.803603  0.500332  0.509072  1
  C  C38  1  0.923743  0.875229  0.151175  1
  C  C39  1  0.423743  0.624771  0.651175  1
  C  C40  1  0.076257  0.124771  0.848825  1
  C  C41  1  0.576257  0.375229  0.348825  1
  C  C42  1  0.875966  0.089211  0.127915  1
  C  C43  1  0.375966  0.410789  0.627915  1
  C  C44  1  0.124034  0.910789  0.872085  1
  C  C45  1  0.624034  0.589211  0.372085  1
  N  N46  1  0.027507  0.797355  0.228891  1
  N  N47  1  0.527507  0.702645  0.728891  1
  N  N48  1  0.972493  0.202645  0.771109  1
  N  N49  1  0.472493  0.297355  0.271109  1
  N  N50  1  0.969306  0.991626  0.184660  1
  N  N51  1  0.469306  0.508374  0.684660  1
  N  N52  1  0.030694  0.008374  0.815340  1
  N  N53  1  0.530694  0.491626  0.315340  1
  N  N54  1  0.938807  0.191866  0.177702  1
  N  N55  1  0.438807  0.308134  0.677702  1
  N  N56  1  0.061193  0.808134  0.822298  1
  N  N57  1  0.561193  0.691866  0.322298  1
  N  N58  1  0.730512  0.081468  0.026903  1
  N  N59  1  0.230512  0.418532  0.526903  1
  N  N60  1  0.269488  0.918532  0.973097  1
  N  N61  1  0.769488  0.581468  0.473097  1
  Cl  Cl62  1  0.498886  0.999333  0.295324  1
  Cl  Cl63  1  0.998886  0.500667  0.795324  1
  Cl  Cl64  1  0.501114  0.000667  0.704676  1
  Cl  Cl65  1  0.001114  0.499333  0.204676  1
  Cl  Cl66  1  0.184412  0.138049  0.455070  1
  Cl  Cl67  1  0.684412  0.361951  0.955070  1
  Cl  Cl68  1  0.815588  0.861951  0.544930  1
  Cl  Cl69  1  0.315588  0.638049  0.044930  1
  O  O70  1  0.256924  0.868037  0.468078  1
  O  O71  1  0.756924  0.631963  0.968078  1
  O  O72  1  0.743076  0.131963  0.531922  1
  O  O73  1  0.243076  0.368037  0.031922  1
  O  O74  1  0.796902  0.849657  0.055045  1
  O  O75  1  0.296902  0.650343  0.555045  1
  O  O76  1  0.203098  0.150343  0.944955  1
  O  O77  1  0.703098  0.349657  0.444955  1
