# generated using pymatgen
data_Li2V2(Si2O5)3
_symmetry_space_group_name_H-M   'P 1'
_cell_length_a   11.48096805
_cell_length_b   11.48096805
_cell_length_c   10.34981636
_cell_angle_alpha   90.00000000
_cell_angle_beta   90.00000000
_cell_angle_gamma   79.30648023
_symmetry_Int_Tables_number   1
_chemical_formula_structural   Li2V2(Si2O5)3
_chemical_formula_sum   'Li8 V8 Si24 O60'
_cell_volume   1340.54486915
_cell_formula_units_Z   4
loop_
 _symmetry_equiv_pos_site_id
 _symmetry_equiv_pos_as_xyz
  1  'x, y, z'
loop_
 _atom_site_type_symbol
 _atom_site_label
 _atom_site_symmetry_multiplicity
 _atom_site_fract_x
 _atom_site_fract_y
 _atom_site_fract_z
 _atom_site_occupancy
  Li  Li0  1  0.503465  0.003465  0.250000  1
  Li  Li1  1  0.996535  0.496535  0.750000  1
  Li  Li2  1  0.604675  0.604675  0.744437  1
  Li  Li3  1  0.104675  0.104675  0.755563  1
  Li  Li4  1  0.395325  0.395325  0.255563  1
  Li  Li5  1  0.895325  0.895325  0.244437  1
  Li  Li6  1  0.003465  0.503465  0.250000  1
  Li  Li7  1  0.496535  0.996535  0.750000  1
  V  V8  1  0.241336  0.758664  0.000000  1
  V  V9  1  0.159325  0.659325  0.250000  1
  V  V10  1  0.340675  0.840675  0.750000  1
  V  V11  1  0.258664  0.741336  0.500000  1
  V  V12  1  0.741336  0.258664  0.500000  1
  V  V13  1  0.840675  0.340675  0.750000  1
  V  V14  1  0.659325  0.159325  0.250000  1
  V  V15  1  0.758664  0.241336  0.000000  1
  Si  Si16  1  0.183235  0.966216  0.194213  1
  Si  Si17  1  0.033784  0.816765  0.805787  1
  Si  Si18  1  0.199315  0.418450  0.459186  1
  Si  Si19  1  0.081550  0.300685  0.959186  1
  Si  Si20  1  0.581550  0.800685  0.540814  1
  Si  Si21  1  0.699315  0.918450  0.040814  1
  Si  Si22  1  0.316765  0.533784  0.694213  1
  Si  Si23  1  0.466216  0.683235  0.305787  1
  Si  Si24  1  0.525232  0.740555  0.012652  1
  Si  Si25  1  0.025232  0.240555  0.487348  1
  Si  Si26  1  0.259445  0.474768  0.987348  1
  Si  Si27  1  0.759445  0.974768  0.512652  1
  Si  Si28  1  0.740555  0.525232  0.012652  1
  Si  Si29  1  0.240555  0.025232  0.487348  1
  Si  Si30  1  0.474768  0.259445  0.987348  1
  Si  Si31  1  0.974768  0.759445  0.512652  1
  Si  Si32  1  0.683235  0.466216  0.305787  1
  Si  Si33  1  0.533784  0.316765  0.694213  1
  Si  Si34  1  0.418450  0.199315  0.459186  1
  Si  Si35  1  0.300685  0.081550  0.959186  1
  Si  Si36  1  0.800685  0.581550  0.540814  1
  Si  Si37  1  0.918450  0.699315  0.040814  1
  Si  Si38  1  0.966216  0.183235  0.194213  1
  Si  Si39  1  0.816765  0.033784  0.805787  1
  O  O40  1  0.010439  0.755544  0.666730  1
  O  O41  1  0.244456  0.989561  0.333270  1
  O  O42  1  0.162151  0.833244  0.169959  1
  O  O43  1  0.166756  0.837849  0.830041  1
  O  O44  1  0.249957  0.910299  0.577081  1
  O  O45  1  0.089701  0.750043  0.422919  1
  O  O46  1  0.250043  0.589701  0.077081  1
  O  O47  1  0.410299  0.749957  0.922919  1
  O  O48  1  0.337849  0.666756  0.669959  1
  O  O49  1  0.333244  0.662151  0.330041  1
  O  O50  1  0.156880  0.486343  0.328054  1
  O  O51  1  0.013657  0.343120  0.828054  1
  O  O52  1  0.513657  0.843120  0.671946  1
  O  O53  1  0.656880  0.986343  0.171946  1
  O  O54  1  0.226252  0.502572  0.580671  1
  O  O55  1  0.997428  0.273748  0.080671  1
  O  O56  1  0.726252  0.002572  0.919329  1
  O  O57  1  0.497428  0.773748  0.419329  1
  O  O58  1  0.651799  0.902229  0.484886  1
  O  O59  1  0.097771  0.348201  0.515114  1
  O  O60  1  0.151799  0.402229  0.015114  1
  O  O61  1  0.597771  0.848201  0.984886  1
  O  O62  1  0.489561  0.744456  0.166730  1
  O  O63  1  0.255544  0.510439  0.833270  1
  O  O64  1  0.945938  0.945938  0.814613  1
  O  O65  1  0.615970  0.615970  0.971480  1
  O  O66  1  0.325404  0.325404  0.424683  1
  O  O67  1  0.054062  0.054062  0.185387  1
  O  O68  1  0.174596  0.174596  0.924683  1
  O  O69  1  0.115970  0.115970  0.528520  1
  O  O70  1  0.384030  0.384030  0.028520  1
  O  O71  1  0.445938  0.445938  0.685387  1
  O  O72  1  0.554062  0.554062  0.314613  1
  O  O73  1  0.884030  0.884030  0.471480  1
  O  O74  1  0.674596  0.674596  0.575317  1
  O  O75  1  0.825404  0.825404  0.075317  1
  O  O76  1  0.744456  0.489561  0.166730  1
  O  O77  1  0.510439  0.255544  0.833270  1
  O  O78  1  0.848201  0.597771  0.984886  1
  O  O79  1  0.402229  0.151799  0.015114  1
  O  O80  1  0.348201  0.097771  0.515114  1
  O  O81  1  0.902229  0.651799  0.484886  1
  O  O82  1  0.002572  0.726252  0.919329  1
  O  O83  1  0.502572  0.226252  0.580671  1
  O  O84  1  0.273748  0.997428  0.080671  1
  O  O85  1  0.773748  0.497428  0.419329  1
  O  O86  1  0.343120  0.013657  0.828054  1
  O  O87  1  0.486343  0.156880  0.328054  1
  O  O88  1  0.843120  0.513657  0.671946  1
  O  O89  1  0.986343  0.656880  0.171946  1
  O  O90  1  0.662151  0.333244  0.330041  1
  O  O91  1  0.666756  0.337849  0.669959  1
  O  O92  1  0.749957  0.410299  0.922919  1
  O  O93  1  0.589701  0.250043  0.077081  1
  O  O94  1  0.910299  0.249957  0.577081  1
  O  O95  1  0.750043  0.089701  0.422919  1
  O  O96  1  0.833244  0.162151  0.169959  1
  O  O97  1  0.837849  0.166756  0.830041  1
  O  O98  1  0.755544  0.010439  0.666730  1
  O  O99  1  0.989561  0.244456  0.333270  1
