# generated using pymatgen
data_LiV(CO3)2
_symmetry_space_group_name_H-M   'P 1'
_cell_length_a   8.01791984
_cell_length_b   8.04904067
_cell_length_c   5.36848235
_cell_angle_alpha   89.95011471
_cell_angle_beta   90.00000000
_cell_angle_gamma   119.87217855
_symmetry_Int_Tables_number   1
_chemical_formula_structural   LiV(CO3)2
_chemical_formula_sum   'Li3 V3 C6 O18'
_cell_volume   300.43166984
_cell_formula_units_Z   3
loop_
 _symmetry_equiv_pos_site_id
 _symmetry_equiv_pos_as_xyz
  1  'x, y, z'
loop_
 _atom_site_type_symbol
 _atom_site_label
 _atom_site_symmetry_multiplicity
 _atom_site_fract_x
 _atom_site_fract_y
 _atom_site_fract_z
 _atom_site_occupancy
  Li  Li0  1  0.000815  0.337072  0.498869  1
  Li  Li1  1  0.663744  0.662928  0.501131  1
  Li  Li2  1  0.334685  0.000000  0.500000  1
  V  V3  1  0.995664  0.667457  0.000770  1
  V  V4  1  0.328206  0.332543  0.999230  1
  V  V5  1  0.669638  0.000000  1.000000  1
  C  C6  1  0.333026  0.666814  0.248611  1
  C  C7  1  0.334132  0.668486  0.776887  1
  C  C8  1  0.001379  0.000054  0.238108  1
  C  C9  1  0.001325  -0.000054  0.761892  1
  C  C10  1  0.666212  0.333186  0.751389  1
  C  C11  1  0.665646  0.331514  0.223113  1
  O  O12  1  0.089738  0.902817  0.761792  1
  O  O13  1  0.223136  0.741810  0.250082  1
  O  O14  1  0.147226  0.574329  0.780972  1
  O  O15  1  0.099642  0.186429  0.760515  1
  O  O16  1  0.426085  0.854074  0.778007  1
  O  O17  1  0.258210  0.481484  0.250353  1
  O  O18  1  0.518594  0.775851  0.249392  1
  O  O19  1  0.186920  0.097183  0.238208  1
  O  O20  1  0.428041  0.575842  0.776020  1
  O  O21  1  0.481326  0.258190  0.749918  1
  O  O22  1  0.572897  0.425671  0.219028  1
  O  O23  1  0.814602  0.912584  0.762615  1
  O  O24  1  0.913212  0.813571  0.239485  1
  O  O25  1  0.572013  0.145926  0.221993  1
  O  O26  1  0.776725  0.518516  0.749647  1
  O  O27  1  0.742742  0.224149  0.750608  1
  O  O28  1  0.852199  0.424158  0.223980  1
  O  O29  1  0.902018  0.087416  0.237385  1
