# generated using pymatgen
data_Cu3OF5
_symmetry_space_group_name_H-M   'P 1'
_cell_length_a   6.97849714
_cell_length_b   5.53355353
_cell_length_c   5.87940608
_cell_angle_alpha   72.54600900
_cell_angle_beta   103.68969931
_cell_angle_gamma   106.81165764
_symmetry_Int_Tables_number   1
_chemical_formula_structural   Cu3OF5
_chemical_formula_sum   'Cu6 O2 F10'
_cell_volume   204.51566318
_cell_formula_units_Z   2
loop_
 _symmetry_equiv_pos_site_id
 _symmetry_equiv_pos_as_xyz
  1  'x, y, z'
loop_
 _atom_site_type_symbol
 _atom_site_label
 _atom_site_symmetry_multiplicity
 _atom_site_fract_x
 _atom_site_fract_y
 _atom_site_fract_z
 _atom_site_occupancy
  Cu  Cu0  1  0.996731  0.004279  0.000240  1
  Cu  Cu1  1  0.499327  0.017730  0.019588  1
  Cu  Cu2  1  0.341283  0.324309  0.327135  1
  Cu  Cu3  1  0.821018  0.346030  0.347399  1
  Cu  Cu4  1  0.154878  0.663602  0.662558  1
  Cu  Cu5  1  0.676680  0.660549  0.663130  1
  O  O6  1  0.539561  0.236158  0.242587  1
  O  O7  1  0.873638  0.568466  0.565928  1
  F  F8  1  0.799326  0.104726  0.106024  1
  F  F9  1  0.127848  0.415171  0.414022  1
  F  F10  1  0.845135  0.647248  0.050072  1
  F  F11  1  0.484329  0.683578  0.274482  1
  F  F12  1  0.822561  0.016795  0.619943  1
  F  F13  1  0.180916  0.969127  0.383995  1
  F  F14  1  0.519226  0.309349  0.719912  1
  F  F15  1  0.151161  0.363550  0.941000  1
  F  F16  1  0.458304  0.757177  0.752477  1
  F  F17  1  0.208076  0.912156  0.909510  1
