# generated using pymatgen
data_Li2MnV(P2O7)2
_symmetry_space_group_name_H-M   'P 1'
_cell_length_a   4.87032930
_cell_length_b   24.83438919
_cell_length_c   7.07510128
_cell_angle_alpha   90.47637989
_cell_angle_beta   108.80651920
_cell_angle_gamma   89.75643027
_symmetry_Int_Tables_number   1
_chemical_formula_structural   Li2MnV(P2O7)2
_chemical_formula_sum   'Li6 Mn3 V3 P12 O42'
_cell_volume   810.03006041
_cell_formula_units_Z   3
loop_
 _symmetry_equiv_pos_site_id
 _symmetry_equiv_pos_as_xyz
  1  'x, y, z'
loop_
 _atom_site_type_symbol
 _atom_site_label
 _atom_site_symmetry_multiplicity
 _atom_site_fract_x
 _atom_site_fract_y
 _atom_site_fract_z
 _atom_site_occupancy
  Li  Li0  1  0.174287  0.620496  0.673177  1
  Li  Li1  1  0.172259  0.953344  0.674864  1
  Li  Li2  1  0.176905  0.287055  0.674021  1
  Li  Li3  1  0.823821  0.119994  0.324987  1
  Li  Li4  1  0.821923  0.453644  0.325765  1
  Li  Li5  1  0.827211  0.786524  0.325383  1
  Mn  Mn6  1  0.212395  0.832927  0.727747  1
  Mn  Mn7  1  0.787155  0.665978  0.269094  1
  Mn  Mn8  1  0.785559  -0.000022  0.272703  1
  V  V9  1  0.215588  0.166729  0.725996  1
  V  V10  1  0.213276  0.499545  0.729149  1
  V  V11  1  0.784604  0.333170  0.271484  1
  P  P12  1  0.402031  0.059050  0.522827  1
  P  P13  1  0.400419  0.393399  0.523570  1
  P  P14  1  0.401700  0.725639  0.516426  1
  P  P15  1  0.213677  0.261183  0.085815  1
  P  P16  1  0.214844  0.595161  0.089476  1
  P  P17  1  0.213863  0.929153  0.091538  1
  P  P18  1  0.789060  0.095672  0.912989  1
  P  P19  1  0.786697  0.428159  0.914245  1
  P  P20  1  0.786773  0.762767  0.908693  1
  P  P21  1  0.599634  0.226758  0.475912  1
  P  P22  1  0.600379  0.560157  0.482052  1
  P  P23  1  0.599241  0.892490  0.483633  1
  O  O24  1  0.048760  0.108570  0.845638  1
  O  O25  1  0.055085  0.776331  0.849826  1
  O  O26  1  0.049759  0.441414  0.852417  1
  O  O27  1  0.128470  0.900918  0.890158  1
  O  O28  1  0.133775  0.232067  0.885202  1
  O  O29  1  0.132271  0.565509  0.889635  1
  O  O30  1  0.187165  0.011901  0.482420  1
  O  O31  1  0.191275  0.677712  0.480297  1
  O  O32  1  0.187226  0.345995  0.482553  1
  O  O33  1  0.249499  0.779810  0.493330  1
  O  O34  1  0.250372  0.113975  0.505269  1
  O  O35  1  0.247119  0.447684  0.507582  1
  O  O36  1  0.396583  0.225924  0.602665  1
  O  O37  1  0.392156  0.558350  0.605275  1
  O  O38  1  0.392002  0.890372  0.608892  1
  O  O39  1  0.600283  0.145582  0.912322  1
  O  O40  1  0.600668  0.478060  0.916712  1
  O  O41  1  0.597166  0.812428  0.908852  1
  O  O42  1  0.597245  0.051109  0.752488  1
  O  O43  1  0.596274  0.384366  0.752696  1
  O  O44  1  0.599096  0.718522  0.747557  1
  O  O45  1  0.404683  0.217738  0.245990  1
  O  O46  1  0.402925  0.885277  0.251398  1
  O  O47  1  0.403695  0.552083  0.250451  1
  O  O48  1  0.398028  0.311139  0.084287  1
  O  O49  1  0.398974  0.644860  0.086256  1
  O  O50  1  0.401786  0.978985  0.092117  1
  O  O51  1  0.603453  0.058067  0.393490  1
  O  O52  1  0.603038  0.392433  0.396210  1
  O  O53  1  0.607900  0.723655  0.389970  1
  O  O54  1  0.752183  0.281273  0.493216  1
  O  O55  1  0.755123  0.613859  0.504966  1
  O  O56  1  0.750188  0.946789  0.508132  1
  O  O57  1  0.812888  0.179433  0.515096  1
  O  O58  1  0.810195  0.511929  0.517608  1
  O  O59  1  0.810623  0.844514  0.518186  1
  O  O60  1  0.873102  0.068050  0.113705  1
  O  O61  1  0.872140  0.734581  0.108927  1
  O  O62  1  0.866408  0.399062  0.113825  1
  O  O63  1  0.949619  0.274586  0.147888  1
  O  O64  1  0.943047  0.608918  0.144599  1
  O  O65  1  0.944452  0.942784  0.150350  1
