# generated using pymatgen
data_Li8MnNi7(PO4)12
_symmetry_space_group_name_H-M   'P 1'
_cell_length_a   8.69402911
_cell_length_b   8.84826175
_cell_length_c   12.31644251
_cell_angle_alpha   90.15044628
_cell_angle_beta   89.92007418
_cell_angle_gamma   90.04067246
_symmetry_Int_Tables_number   1
_chemical_formula_structural   Li8MnNi7(PO4)12
_chemical_formula_sum   'Li8 Mn1 Ni7 P12 O48'
_cell_volume   947.46310627
_cell_formula_units_Z   1
loop_
 _symmetry_equiv_pos_site_id
 _symmetry_equiv_pos_as_xyz
  1  'x, y, z'
loop_
 _atom_site_type_symbol
 _atom_site_label
 _atom_site_symmetry_multiplicity
 _atom_site_fract_x
 _atom_site_fract_y
 _atom_site_fract_z
 _atom_site_occupancy
  Li  Li0  1  0.217212  0.721120  0.187258  1
  Li  Li1  1  0.217038  0.776382  0.810465  1
  Li  Li2  1  0.284768  0.223884  0.314849  1
  Li  Li3  1  0.280064  0.276757  0.686265  1
  Li  Li4  1  0.719191  0.722922  0.314590  1
  Li  Li5  1  0.713011  0.783626  0.685204  1
  Li  Li6  1  0.780783  0.223504  0.186494  1
  Li  Li7  1  0.783141  0.278674  0.816770  1
  Mn  Mn8  1  0.753112  0.462146  0.611184  1
  Ni  Ni9  1  0.253179  0.961717  0.613518  1
  Ni  Ni10  1  0.251893  0.538180  0.385780  1
  Ni  Ni11  1  0.246234  0.037485  0.116467  1
  Ni  Ni12  1  0.246040  0.462770  0.884184  1
  Ni  Ni13  1  0.752402  0.538357  0.114450  1
  Ni  Ni14  1  0.753905  0.962057  0.886470  1
  Ni  Ni15  1  0.748180  0.038853  0.383479  1
  P  P16  1  0.034599  0.251392  0.500570  1
  P  P17  1  0.462969  0.749800  0.997964  1
  P  P18  1  0.537061  0.250781  0.000744  1
  P  P19  1  0.957866  0.745547  0.500343  1
  P  P20  1  0.105649  0.391054  0.148358  1
  P  P21  1  0.105361  0.108611  0.852550  1
  P  P22  1  0.398353  0.605162  0.646451  1
  P  P23  1  0.394817  0.890310  0.352302  1
  P  P24  1  0.605370  0.113517  0.644827  1
  P  P25  1  0.607390  0.391624  0.357483  1
  P  P26  1  0.893126  0.607191  0.846010  1
  P  P27  1  0.894732  0.891261  0.148313  1
  O  O28  1  0.052202  0.638416  0.430243  1
  O  O29  1  0.056668  0.846725  0.573272  1
  O  O30  1  0.072959  0.892677  0.157048  1
  O  O31  1  0.070024  0.607091  0.840617  1
  O  O32  1  0.142629  0.167191  0.579936  1
  O  O33  1  0.147636  0.334389  0.423177  1
  O  O34  1  0.150896  0.438977  0.032838  1
  O  O35  1  0.151189  0.062448  0.968193  1
  O  O36  1  0.163326  0.234444  0.180411  1
  O  O37  1  0.164492  0.265000  0.821201  1
  O  O38  1  0.168474  0.512735  0.227079  1
  O  O39  1  0.169603  0.985749  0.774254  1
  O  O40  1  0.333896  0.012748  0.273850  1
  O  O41  1  0.334662  0.485569  0.725668  1
  O  O42  1  0.350105  0.765209  0.679900  1
  O  O43  1  0.335724  0.734177  0.320585  1
  O  O44  1  0.346777  0.559974  0.533598  1
  O  O45  1  0.348962  0.939304  0.467150  1
  O  O46  1  0.350644  0.831602  0.077772  1
  O  O47  1  0.347080  0.668298  0.921019  1
  O  O48  1  0.428560  0.115269  0.655027  1
  O  O49  1  0.430207  0.393839  0.348626  1
  O  O50  1  0.440621  0.144007  0.069868  1
  O  O51  1  0.440399  0.355821  0.930935  1
  O  O52  1  0.558961  0.640279  0.065546  1
  O  O53  1  0.558143  0.858907  0.929846  1
  O  O54  1  0.579006  0.599677  0.656105  1
  O  O55  1  0.572407  0.893177  0.342889  1
  O  O56  1  0.649670  0.334097  0.078562  1
  O  O57  1  0.649978  0.167121  0.922488  1
  O  O58  1  0.653183  0.063991  0.530660  1
  O  O59  1  0.653807  0.434801  0.474999  1
  O  O60  1  0.665497  0.235630  0.323153  1
  O  O61  1  0.667585  0.273977  0.675484  1
  O  O62  1  0.671292  0.514202  0.280246  1
  O  O63  1  0.671594  0.997123  0.725082  1
  O  O64  1  0.833563  0.014799  0.226995  1
  O  O65  1  0.827461  0.484908  0.764177  1
  O  O66  1  0.834977  0.734305  0.179325  1
  O  O67  1  0.831114  0.763649  0.817660  1
  O  O68  1  0.843044  0.553203  0.959148  1
  O  O69  1  0.850265  0.938730  0.033347  1
  O  O70  1  0.846614  0.658358  0.580203  1
  O  O71  1  0.850152  0.832111  0.423641  1
  O  O72  1  0.927482  0.108039  0.844910  1
  O  O73  1  0.927394  0.393833  0.155733  1
  O  O74  1  0.939572  0.145232  0.431392  1
  O  O75  1  0.942059  0.363506  0.572801  1
