# generated using pymatgen
data_Mn12O7F17
_symmetry_space_group_name_H-M   'P 1'
_cell_length_a   4.82324325
_cell_length_b   5.81488961
_cell_length_c   15.79341641
_cell_angle_alpha   90.46570978
_cell_angle_beta   90.39614783
_cell_angle_gamma   85.14741894
_symmetry_Int_Tables_number   1
_chemical_formula_structural   Mn12O7F17
_chemical_formula_sum   'Mn12 O7 F17'
_cell_volume   441.34116597
_cell_formula_units_Z   1
loop_
 _symmetry_equiv_pos_site_id
 _symmetry_equiv_pos_as_xyz
  1  'x, y, z'
loop_
 _atom_site_type_symbol
 _atom_site_label
 _atom_site_symmetry_multiplicity
 _atom_site_fract_x
 _atom_site_fract_y
 _atom_site_fract_z
 _atom_site_occupancy
  Mn  Mn0  1  0.994982  0.150471  0.416109  1
  Mn  Mn1  1  0.010909  0.828670  0.236890  1
  Mn  Mn2  1  0.005107  0.155641  0.079820  1
  Mn  Mn3  1  0.016730  0.150121  0.755709  1
  Mn  Mn4  1  0.031902  0.836054  0.578854  1
  Mn  Mn5  1  0.024476  0.823460  0.913243  1
  Mn  Mn6  1  0.485821  0.350382  0.586331  1
  Mn  Mn7  1  0.513315  0.356650  0.927423  1
  Mn  Mn8  1  0.508598  0.331939  0.259943  1
  Mn  Mn9  1  0.483342  0.653964  0.079801  1
  Mn  Mn10  1  0.507583  0.659219  0.418193  1
  Mn  Mn11  1  0.480913  0.670576  0.747041  1
  O  O12  1  0.223647  0.888212  0.128951  1
  O  O13  1  0.226601  0.884913  0.470390  1
  O  O14  1  0.216726  0.872633  0.807794  1
  O  O15  1  0.283634  0.623456  0.643025  1
  O  O16  1  0.286610  0.612687  0.973932  1
  O  O17  1  0.723011  0.387240  0.031177  1
  O  O18  1  0.722489  0.385399  0.367119  1
  F  F19  1  0.218100  0.110196  0.305159  1
  F  F20  1  0.234288  0.123102  0.642731  1
  F  F21  1  0.225996  0.119158  0.972000  1
  F  F22  1  0.251410  0.385339  0.151203  1
  F  F23  1  0.266715  0.618344  0.312348  1
  F  F24  1  0.252861  0.385806  0.474144  1
  F  F25  1  0.286282  0.372378  0.817871  1
  F  F26  1  0.699640  0.622279  0.189322  1
  F  F27  1  0.730877  0.610952  0.527201  1
  F  F28  1  0.727884  0.623918  0.850254  1
  F  F29  1  0.737223  0.391027  0.700157  1
  F  F30  1  0.768720  0.120911  0.186124  1
  F  F31  1  0.767912  0.111216  0.529415  1
  F  F32  1  0.761646  0.889541  0.352363  1
  F  F33  1  0.778145  0.881830  0.015968  1
  F  F34  1  0.766285  0.118954  0.866803  1
  F  F35  1  0.779623  0.893365  0.685195  1
