# generated using pymatgen
data_Ca2Ti6N2O11
_symmetry_space_group_name_H-M   'P 1'
_cell_length_a   3.80419486
_cell_length_b   7.64547273
_cell_length_c   9.39857034
_cell_angle_alpha   80.56721751
_cell_angle_beta   90.00000000
_cell_angle_gamma   75.59423436
_symmetry_Int_Tables_number   1
_chemical_formula_structural   Ca2Ti6N2O11
_chemical_formula_sum   'Ca2 Ti6 N2 O11'
_cell_volume   260.94346331
_cell_formula_units_Z   1
loop_
 _symmetry_equiv_pos_site_id
 _symmetry_equiv_pos_as_xyz
  1  'x, y, z'
loop_
 _atom_site_type_symbol
 _atom_site_label
 _atom_site_symmetry_multiplicity
 _atom_site_fract_x
 _atom_site_fract_y
 _atom_site_fract_z
 _atom_site_occupancy
  Ca  Ca0  1  0.559596  0.880808  0.741990  1
  Ca  Ca1  1  0.458555  0.082888  0.201149  1
  Ti  Ti2  1  0.121990  0.756018  0.078072  1
  Ti  Ti3  1  0.157460  0.685081  0.434907  1
  Ti  Ti4  1  0.243166  0.513668  0.771900  1
  Ti  Ti5  1  0.773295  0.453412  0.246862  1
  Ti  Ti6  1  0.835030  0.329939  0.579233  1
  Ti  Ti7  1  0.877413  0.245175  0.903476  1
  N  N8  1  0.759583  0.480832  0.746461  1
  N  N9  1  0.354045  0.291911  0.908290  1
  O  O10  1  0.058373  0.883254  0.293253  1
  O  O11  1  0.115442  0.769115  0.605434  1
  O  O12  1  0.148073  0.703855  0.891158  1
  O  O13  1  0.640839  0.718320  0.112875  1
  O  O14  1  0.696682  0.606635  0.427314  1
  O  O15  1  0.239180  0.521640  0.245174  1
  O  O16  1  0.301238  0.397524  0.572074  1
  O  O17  1  0.844860  0.310280  0.111115  1
  O  O18  1  0.874396  0.251207  0.395632  1
  O  O19  1  0.940431  0.119137  0.717871  1
  O  O20  1  0.000350  -0.000700  0.015758  1
