# generated using pymatgen
data_LiV(PO3)4
_symmetry_space_group_name_H-M   'P 1'
_cell_length_a   7.01831599
_cell_length_b   7.40437995
_cell_length_c   8.75420895
_cell_angle_alpha   90.00000000
_cell_angle_beta   90.00000000
_cell_angle_gamma   94.26484598
_symmetry_Int_Tables_number   1
_chemical_formula_structural   LiV(PO3)4
_chemical_formula_sum   'Li2 V2 P8 O24'
_cell_volume   453.66395112
_cell_formula_units_Z   2
loop_
 _symmetry_equiv_pos_site_id
 _symmetry_equiv_pos_as_xyz
  1  'x, y, z'
loop_
 _atom_site_type_symbol
 _atom_site_label
 _atom_site_symmetry_multiplicity
 _atom_site_fract_x
 _atom_site_fract_y
 _atom_site_fract_z
 _atom_site_occupancy
  Li  Li0  1  0.346869  0.667907  0.364715  1
  Li  Li1  1  0.653131  0.332093  0.864715  1
  V  V2  1  0.227525  0.227745  0.928486  1
  V  V3  1  0.772475  0.772255  0.428486  1
  P  P4  1  0.984782  0.414501  0.372375  1
  P  P5  1  0.082027  0.092931  0.575014  1
  P  P6  1  0.390552  0.594322  0.733732  1
  P  P7  1  0.428704  0.075315  0.376254  1
  P  P8  1  0.571296  0.924685  0.876254  1
  P  P9  1  0.609448  0.405678  0.233732  1
  P  P10  1  0.917973  0.907069  0.075014  1
  P  P11  1  0.015218  0.585499  0.872375  1
  O  O12  1  0.019608  0.774140  0.962092  1
  O  O13  1  0.984606  0.908372  0.545708  1
  O  O14  1  0.106596  0.451907  0.976845  1
  O  O15  1  0.077704  0.166001  0.734848  1
  O  O16  1  0.166890  0.635339  0.736810  1
  O  O17  1  0.177011  0.466858  0.310551  1
  O  O18  1  0.304640  0.093377  0.531964  1
  O  O19  1  0.307861  0.014906  0.245995  1
  O  O20  1  0.406496  0.398977  0.784272  1
  O  O21  1  0.477695  0.718644  0.870747  1
  O  O22  1  0.407355  0.039346  0.915116  1
  O  O23  1  0.468332  0.651491  0.581186  1
  O  O24  1  0.531668  0.348509  0.081186  1
  O  O25  1  0.592645  0.960654  0.415116  1
  O  O26  1  0.522305  0.281356  0.370747  1
  O  O27  1  0.593504  0.601023  0.284272  1
  O  O28  1  0.692139  0.985094  0.745995  1
  O  O29  1  0.695360  0.906623  0.031964  1
  O  O30  1  0.822989  0.533142  0.810551  1
  O  O31  1  0.833110  0.364661  0.236810  1
  O  O32  1  0.922296  0.833999  0.234848  1
  O  O33  1  0.893404  0.548093  0.476845  1
  O  O34  1  0.015394  0.091628  0.045708  1
  O  O35  1  0.980392  0.225860  0.462092  1
