# generated using pymatgen
data_Sr5Al10(Si7O24)2
_symmetry_space_group_name_H-M   'P 1'
_cell_length_a   7.25377312
_cell_length_b   7.76026685
_cell_length_c   23.29076447
_cell_angle_alpha   114.39934580
_cell_angle_beta   103.59478741
_cell_angle_gamma   103.58782597
_symmetry_Int_Tables_number   1
_chemical_formula_structural   Sr5Al10(Si7O24)2
_chemical_formula_sum   'Sr5 Al10 Si14 O48'
_cell_volume   1075.78028105
_cell_formula_units_Z   1
loop_
 _symmetry_equiv_pos_site_id
 _symmetry_equiv_pos_as_xyz
  1  'x, y, z'
loop_
 _atom_site_type_symbol
 _atom_site_label
 _atom_site_symmetry_multiplicity
 _atom_site_fract_x
 _atom_site_fract_y
 _atom_site_fract_z
 _atom_site_occupancy
  Sr  Sr0  1  0.108602  0.252842  0.751873  1
  Sr  Sr1  1  0.111866  0.262127  0.418776  1
  Sr  Sr2  1  0.855166  0.729976  0.913749  1
  Sr  Sr3  1  0.856514  0.739330  0.569348  1
  Sr  Sr4  1  0.857930  0.718654  0.245354  1
  Al  Al5  1  0.223425  0.824736  0.393081  1
  Al  Al6  1  0.225298  0.181905  0.610108  1
  Al  Al7  1  0.667283  0.197931  0.810750  1
  Al  Al8  1  0.785703  0.182834  0.942276  1
  Al  Al9  1  0.777611  0.817446  0.723111  1
  Al  Al10  1  0.661906  0.428386  0.397642  1
  Al  Al11  1  0.771630  0.171940  0.607467  1
  Al  Al12  1  0.772677  0.822713  0.391868  1
  Al  Al13  1  0.775401  0.170855  0.270386  1
  Al  Al14  1  0.781782  0.820333  0.059802  1
  Si  Si15  1  0.228189  0.826943  0.727570  1
  Si  Si16  1  0.227347  0.187755  0.944179  1
  Si  Si17  1  0.351156  0.815432  0.860064  1
  Si  Si18  1  0.349127  0.582100  0.938262  1
  Si  Si19  1  0.340406  0.802203  0.524017  1
  Si  Si20  1  0.346687  0.571314  0.602317  1
  Si  Si21  1  0.226663  0.178964  0.274830  1
  Si  Si22  1  0.227089  0.834884  0.062444  1
  Si  Si23  1  0.344462  0.801898  0.190398  1
  Si  Si24  1  0.338560  0.569093  0.265746  1
  Si  Si25  1  0.658680  0.434231  0.734292  1
  Si  Si26  1  0.657432  0.199532  0.477185  1
  Si  Si27  1  0.657790  0.422698  0.064072  1
  Si  Si28  1  0.654989  0.190891  0.140613  1
  O  O29  1  0.006293  0.847221  0.704920  1
  O  O30  1  0.239617  0.964948  0.897324  1
  O  O31  1  0.236832  0.696458  0.987019  1
  O  O32  1  0.999424  0.124789  0.626717  1
  O  O33  1  0.997052  0.874005  0.372950  1
  O  O34  1  0.278315  0.606511  0.868547  1
  O  O35  1  0.250620  0.332813  0.907569  1
  O  O36  1  0.249535  0.720324  0.776966  1
  O  O37  1  0.220953  0.937085  0.562158  1
  O  O38  1  0.239849  0.685683  0.654599  1
  O  O39  1  0.596999  0.921841  0.893371  1
  O  O40  1  0.594758  0.682988  0.973711  1
  O  O41  1  0.003442  0.845166  0.039734  1
  O  O42  1  0.278073  0.595860  0.533630  1
  O  O43  1  0.247244  0.327148  0.569694  1
  O  O44  1  0.251358  0.702646  0.442094  1
  O  O45  1  0.232486  0.952910  0.227750  1
  O  O46  1  0.214603  0.677619  0.310219  1
  O  O47  1  0.411242  0.326419  0.693495  1
  O  O48  1  0.397213  0.058681  0.770063  1
  O  O49  1  0.588450  0.917941  0.561061  1
  O  O50  1  0.593730  0.679233  0.639373  1
  O  O51  1  0.279225  0.596922  0.197624  1
  O  O52  1  0.253580  0.321091  0.238853  1
  O  O53  1  0.250672  0.723748  0.108329  1
  O  O54  1  0.757003  0.313813  0.898648  1
  O  O55  1  0.748647  0.680561  0.765370  1
  O  O56  1  0.709523  0.421550  0.804386  1
  O  O57  1  0.392083  0.298627  0.352100  1
  O  O58  1  0.410607  0.073278  0.441513  1
  O  O59  1  0.591040  0.916480  0.223719  1
  O  O60  1  0.586503  0.672892  0.305696  1
  O  O61  1  0.806600  0.070342  0.769412  1
  O  O62  1  0.782920  0.320843  0.690374  1
  O  O63  1  0.748033  0.290494  0.559198  1
  O  O64  1  0.751933  0.693388  0.436487  1
  O  O65  1  0.705182  0.408455  0.472143  1
  O  O66  1  0.005527  0.116373  0.948016  1
  O  O67  1  0.408579  0.315594  0.018574  1
  O  O68  1  0.405580  0.059608  0.102582  1
  O  O69  1  0.801023  0.308079  0.353954  1
  O  O70  1  0.783218  0.072992  0.438238  1
  O  O71  1  0.738961  0.294833  0.222901  1
  O  O72  1  0.742045  0.668696  0.097458  1
  O  O73  1  0.688918  0.397163  0.132466  1
  O  O74  1  0.774132  0.056203  0.105809  1
  O  O75  1  0.777210  0.308823  0.021759  1
  O  O76  1  0.001199  0.111318  0.279978  1
