# generated using pymatgen
data_BaLaBr5
_symmetry_space_group_name_H-M   'P 1'
_cell_length_a   16.23097608
_cell_length_b   7.69273486
_cell_length_c   15.71730692
_cell_angle_alpha   90.00000000
_cell_angle_beta   90.00000000
_cell_angle_gamma   90.00000000
_symmetry_Int_Tables_number   1
_chemical_formula_structural   BaLaBr5
_chemical_formula_sum   'Ba8 La8 Br40'
_cell_volume   1962.47230173
_cell_formula_units_Z   8
loop_
 _symmetry_equiv_pos_site_id
 _symmetry_equiv_pos_as_xyz
  1  'x, y, z'
loop_
 _atom_site_type_symbol
 _atom_site_label
 _atom_site_symmetry_multiplicity
 _atom_site_fract_x
 _atom_site_fract_y
 _atom_site_fract_z
 _atom_site_occupancy
  Ba  Ba0  1  0.105128  0.750000  0.521400  1
  Ba  Ba1  1  0.092845  0.250000  0.810993  1
  Ba  Ba2  1  0.407155  0.750000  0.310993  1
  Ba  Ba3  1  0.394872  0.250000  0.021400  1
  Ba  Ba4  1  0.605128  0.750000  0.978600  1
  Ba  Ba5  1  0.592845  0.250000  0.689007  1
  Ba  Ba6  1  0.907155  0.750000  0.189007  1
  Ba  Ba7  1  0.894872  0.250000  0.478600  1
  La  La8  1  0.102485  0.250000  0.210504  1
  La  La9  1  0.221203  0.750000  0.037148  1
  La  La10  1  0.278797  0.250000  0.537148  1
  La  La11  1  0.397516  0.750000  0.710504  1
  La  La12  1  0.602484  0.250000  0.289496  1
  La  La13  1  0.721203  0.750000  0.462852  1
  La  La14  1  0.778797  0.250000  0.962852  1
  La  La15  1  0.897516  0.750000  0.789496  1
  Br  Br16  1  0.027779  0.990356  0.326407  1
  Br  Br17  1  0.027779  0.509644  0.326407  1
  Br  Br18  1  0.075666  0.750000  0.838711  1
  Br  Br19  1  0.076361  0.979015  0.077976  1
  Br  Br20  1  0.076361  0.520985  0.077976  1
  Br  Br21  1  0.093493  0.250000  0.518915  1
  Br  Br22  1  0.222643  0.987158  0.672699  1
  Br  Br23  1  0.222643  0.512842  0.672699  1
  Br  Br24  1  0.248248  0.975893  0.409511  1
  Br  Br25  1  0.248248  0.524107  0.409511  1
  Br  Br26  1  0.251752  0.475893  0.909511  1
  Br  Br27  1  0.251752  0.024107  0.909511  1
  Br  Br28  1  0.277357  0.487158  0.172699  1
  Br  Br29  1  0.277357  0.012842  0.172699  1
  Br  Br30  1  0.406506  0.750000  0.018915  1
  Br  Br31  1  0.423639  0.479015  0.577976  1
  Br  Br32  1  0.423639  0.020985  0.577976  1
  Br  Br33  1  0.424334  0.250000  0.338711  1
  Br  Br34  1  0.472221  0.490356  0.826407  1
  Br  Br35  1  0.472221  0.009644  0.826407  1
  Br  Br36  1  0.527779  0.990356  0.173593  1
  Br  Br37  1  0.527779  0.509644  0.173593  1
  Br  Br38  1  0.575666  0.750000  0.661289  1
  Br  Br39  1  0.576361  0.979015  0.422024  1
  Br  Br40  1  0.576361  0.520985  0.422024  1
  Br  Br41  1  0.593494  0.250000  0.981085  1
  Br  Br42  1  0.722643  0.987158  0.827301  1
  Br  Br43  1  0.722643  0.512842  0.827301  1
  Br  Br44  1  0.748249  0.975893  0.090489  1
  Br  Br45  1  0.748249  0.524107  0.090489  1
  Br  Br46  1  0.751751  0.475893  0.590489  1
  Br  Br47  1  0.751751  0.024107  0.590489  1
  Br  Br48  1  0.777357  0.487158  0.327301  1
  Br  Br49  1  0.777357  0.012842  0.327301  1
  Br  Br50  1  0.906506  0.750000  0.481085  1
  Br  Br51  1  0.923639  0.479015  0.922024  1
  Br  Br52  1  0.923639  0.020985  0.922024  1
  Br  Br53  1  0.924334  0.250000  0.161289  1
  Br  Br54  1  0.972221  0.490356  0.673593  1
  Br  Br55  1  0.972221  0.009644  0.673593  1
