# generated using pymatgen
data_Mn8O13F3
_symmetry_space_group_name_H-M   'P 1'
_cell_length_a   7.14792283
_cell_length_b   7.08952673
_cell_length_c   4.99747795
_cell_angle_alpha   89.93074078
_cell_angle_beta   89.85453017
_cell_angle_gamma   101.68209227
_symmetry_Int_Tables_number   1
_chemical_formula_structural   Mn8O13F3
_chemical_formula_sum   'Mn8 O13 F3'
_cell_volume   248.00219453
_cell_formula_units_Z   1
loop_
 _symmetry_equiv_pos_site_id
 _symmetry_equiv_pos_as_xyz
  1  'x, y, z'
loop_
 _atom_site_type_symbol
 _atom_site_label
 _atom_site_symmetry_multiplicity
 _atom_site_fract_x
 _atom_site_fract_y
 _atom_site_fract_z
 _atom_site_occupancy
  Mn  Mn0  1  0.436215  0.071960  0.289384  1
  Mn  Mn1  1  0.070950  0.427084  0.740848  1
  Mn  Mn2  1  0.938229  0.080654  0.225000  1
  Mn  Mn3  1  0.578430  0.434235  0.736731  1
  Mn  Mn4  1  0.416116  0.583325  0.257252  1
  Mn  Mn5  1  0.077463  0.917484  0.740897  1
  Mn  Mn6  1  0.581763  0.922705  0.773517  1
  Mn  Mn7  1  0.925008  0.571183  0.240615  1
  O  O8  1  0.059870  0.173095  0.905715  1
  O  O9  1  0.175218  0.060862  0.418002  1
  O  O10  1  0.675347  0.062915  0.096058  1
  O  O11  1  0.060784  0.667233  0.562901  1
  O  O12  1  0.166633  0.561589  0.065626  1
  O  O13  1  0.558807  0.174205  0.600999  1
  O  O14  1  0.326893  0.437005  0.576100  1
  O  O15  1  0.556003  0.666370  0.929853  1
  O  O16  1  0.671595  0.560923  0.418005  1
  O  O17  1  0.438086  0.833685  0.451325  1
  O  O18  1  0.938373  0.326522  0.409451  1
  O  O19  1  0.826670  0.439138  0.910999  1
  O  O20  1  0.932862  0.827659  0.064824  1
  F  F21  1  0.440525  0.314464  0.075514  1
  F  F22  1  0.323596  0.940831  0.966473  1
  F  F23  1  0.824565  0.944874  0.543913  1
