# generated using pymatgen
data_Li3B2SbO6
_symmetry_space_group_name_H-M   'P 1'
_cell_length_a   4.90144785
_cell_length_b   7.53956974
_cell_length_c   8.36851964
_cell_angle_alpha   64.92525660
_cell_angle_beta   94.26082158
_cell_angle_gamma   94.23411101
_symmetry_Int_Tables_number   1
_chemical_formula_structural   Li3B2SbO6
_chemical_formula_sum   'Li6 B4 Sb2 O12'
_cell_volume   279.03001351
_cell_formula_units_Z   2
loop_
 _symmetry_equiv_pos_site_id
 _symmetry_equiv_pos_as_xyz
  1  'x, y, z'
loop_
 _atom_site_type_symbol
 _atom_site_label
 _atom_site_symmetry_multiplicity
 _atom_site_fract_x
 _atom_site_fract_y
 _atom_site_fract_z
 _atom_site_occupancy
  Li  Li0  1  0.196274  0.918820  0.934930  1
  Li  Li1  1  0.296011  0.048536  0.264323  1
  Li  Li2  1  0.307663  0.761857  0.632155  1
  Li  Li3  1  0.692337  0.238143  0.367845  1
  Li  Li4  1  0.703989  0.951464  0.735677  1
  Li  Li5  1  0.803726  0.081180  0.065070  1
  B  B6  1  0.176130  0.130712  0.566141  1
  B  B7  1  0.315655  0.313996  0.901075  1
  B  B8  1  0.684345  0.686004  0.098925  1
  B  B9  1  0.823870  0.869288  0.433859  1
  Sb  Sb10  1  0.208520  0.533580  0.331479  1
  Sb  Sb11  1  0.791480  0.466420  0.668521  1
  O  O12  1  0.075349  0.812785  0.414115  1
  O  O13  1  0.178263  0.477052  0.772200  1
  O  O14  1  0.190605  0.149540  0.013926  1
  O  O15  1  0.289280  0.242139  0.393406  1
  O  O16  1  0.314694  0.984159  0.694271  1
  O  O17  1  0.392521  0.666787  0.098839  1
  O  O18  1  0.607479  0.333213  0.901161  1
  O  O19  1  0.685306  0.015841  0.305729  1
  O  O20  1  0.710720  0.757861  0.606594  1
  O  O21  1  0.809395  0.850460  0.986074  1
  O  O22  1  0.821737  0.522948  0.227800  1
  O  O23  1  0.924651  0.187215  0.585885  1
