# generated using pymatgen
data_KPHO3F
_symmetry_space_group_name_H-M   'P 1'
_cell_length_a   7.41671329
_cell_length_b   14.26686247
_cell_length_c   7.76217216
_cell_angle_alpha   90.00000000
_cell_angle_beta   89.70825019
_cell_angle_gamma   90.00000000
_symmetry_Int_Tables_number   1
_chemical_formula_structural   KPHO3F
_chemical_formula_sum   'K8 P8 H8 O24 F8'
_cell_volume   821.32984839
_cell_formula_units_Z   8
loop_
 _symmetry_equiv_pos_site_id
 _symmetry_equiv_pos_as_xyz
  1  'x, y, z'
loop_
 _atom_site_type_symbol
 _atom_site_label
 _atom_site_symmetry_multiplicity
 _atom_site_fract_x
 _atom_site_fract_y
 _atom_site_fract_z
 _atom_site_occupancy
  K  K0  1  0.122942  0.174381  0.073629  1
  K  K1  1  0.196193  0.641972  0.407309  1
  K  K2  1  0.194608  0.402070  0.719129  1
  K  K3  1  0.491422  0.906459  0.810090  1
  K  K4  1  0.508578  0.406459  0.189910  1
  K  K5  1  0.805392  0.902070  0.280871  1
  K  K6  1  0.803807  0.141972  0.592692  1
  K  K7  1  0.877058  0.674381  0.926371  1
  P  P8  1  0.054208  0.416198  0.216692  1
  P  P9  1  0.301977  0.159654  0.596725  1
  P  P10  1  0.297046  0.896062  0.286785  1
  P  P11  1  0.352962  0.644263  0.879647  1
  P  P12  1  0.647038  0.144263  0.120353  1
  P  P13  1  0.702954  0.396062  0.713215  1
  P  P14  1  0.698023  0.659654  0.403275  1
  P  P15  1  0.945792  0.916198  0.783308  1
  H  H16  1  0.128494  0.850964  0.589791  1
  H  H17  1  0.312235  0.756584  0.077627  1
  H  H18  1  0.423930  0.997760  0.483116  1
  H  H19  1  0.456991  0.220150  0.376480  1
  H  H20  1  0.543009  0.720150  0.623520  1
  H  H21  1  0.576070  0.497760  0.516884  1
  H  H22  1  0.687765  0.256584  0.922373  1
  H  H23  1  0.871506  0.350964  0.410209  1
  O  O24  1  0.108631  0.851288  0.720494  1
  O  O25  1  0.148702  0.371666  0.065986  1
  O  O26  1  0.164431  0.453213  0.363801  1
  O  O27  1  0.163507  0.839645  0.391743  1
  O  O28  1  0.199665  0.202468  0.742981  1
  O  O29  1  0.217232  0.602271  0.760758  1
  O  O30  1  0.258254  0.691576  0.040660  1
  O  O31  1  0.380814  0.848271  0.132459  1
  O  O32  1  0.406702  0.069385  0.621735  1
  O  O33  1  0.420293  0.236517  0.502785  1
  O  O34  1  0.449691  0.943798  0.394921  1
  O  O35  1  0.497137  0.206024  0.191239  1
  O  O36  1  0.502863  0.706024  0.808761  1
  O  O37  1  0.550309  0.443798  0.605079  1
  O  O38  1  0.579707  0.736517  0.497215  1
  O  O39  1  0.593298  0.569385  0.378265  1
  O  O40  1  0.619186  0.348271  0.867541  1
  O  O41  1  0.741746  0.191576  0.959340  1
  O  O42  1  0.782768  0.102271  0.239242  1
  O  O43  1  0.800335  0.702468  0.257019  1
  O  O44  1  0.836493  0.339645  0.608257  1
  O  O45  1  0.835569  0.953213  0.636199  1
  O  O46  1  0.851298  0.871666  0.934014  1
  O  O47  1  0.891369  0.351288  0.279506  1
  F  F48  1  0.055815  0.004831  0.859603  1
  F  F49  1  0.154265  0.134717  0.449098  1
  F  F50  1  0.185755  0.983746  0.212325  1
  F  F51  1  0.456789  0.558003  0.970414  1
  F  F52  1  0.543211  0.058003  0.029586  1
  F  F53  1  0.814245  0.483746  0.787675  1
  F  F54  1  0.845735  0.634717  0.550902  1
  F  F55  1  0.944185  0.504831  0.140397  1
