# generated using pymatgen
data_BaLaI5
_symmetry_space_group_name_H-M   'P 1'
_cell_length_a   14.85235597
_cell_length_b   11.65923223
_cell_length_c   15.62300194
_cell_angle_alpha   90.00000000
_cell_angle_beta   90.36103365
_cell_angle_gamma   90.00000000
_symmetry_Int_Tables_number   1
_chemical_formula_structural   BaLaI5
_chemical_formula_sum   'Ba8 La8 I40'
_cell_volume   2705.33572182
_cell_formula_units_Z   8
loop_
 _symmetry_equiv_pos_site_id
 _symmetry_equiv_pos_as_xyz
  1  'x, y, z'
loop_
 _atom_site_type_symbol
 _atom_site_label
 _atom_site_symmetry_multiplicity
 _atom_site_fract_x
 _atom_site_fract_y
 _atom_site_fract_z
 _atom_site_occupancy
  Ba  Ba0  1  0.206811  0.710645  0.857632  1
  Ba  Ba1  1  0.275607  0.731497  0.467381  1
  Ba  Ba2  1  0.293189  0.210645  0.642368  1
  Ba  Ba3  1  0.224393  0.231497  0.032619  1
  Ba  Ba4  1  0.775607  0.768503  0.967381  1
  Ba  Ba5  1  0.706811  0.789355  0.357632  1
  Ba  Ba6  1  0.724393  0.268503  0.532619  1
  Ba  Ba7  1  0.793189  0.289355  0.142368  1
  La  La8  1  0.008508  0.199589  0.806426  1
  La  La9  1  0.118898  0.234705  0.343097  1
  La  La10  1  0.381102  0.734705  0.156903  1
  La  La11  1  0.491492  0.699589  0.693574  1
  La  La12  1  0.508508  0.300411  0.306426  1
  La  La13  1  0.618898  0.265295  0.843097  1
  La  La14  1  0.881102  0.765295  0.656903  1
  La  La15  1  0.991492  0.800411  0.193574  1
  I  I16  1  0.057960  0.242310  0.618964  1
  I  I17  1  0.032433  0.807834  0.997294  1
  I  I18  1  0.093745  0.768732  0.639887  1
  I  I19  1  0.138991  0.404922  0.859323  1
  I  I20  1  0.089317  0.383278  0.180804  1
  I  I21  1  0.092897  0.036558  0.202962  1
  I  I22  1  0.189429  0.053127  0.827672  1
  I  I23  1  0.194168  0.434881  0.454812  1
  I  I24  1  0.200598  0.039620  0.464027  1
  I  I25  1  0.182298  0.702295  0.252531  1
  I  I26  1  0.310571  0.553127  0.672328  1
  I  I27  1  0.317702  0.202295  0.247469  1
  I  I28  1  0.299402  0.539620  0.035973  1
  I  I29  1  0.305832  0.934881  0.045188  1
  I  I30  1  0.361009  0.904922  0.640677  1
  I  I31  1  0.406255  0.268732  0.860113  1
  I  I32  1  0.407103  0.536558  0.297038  1
  I  I33  1  0.410683  0.883278  0.319196  1
  I  I34  1  0.442040  0.742310  0.881036  1
  I  I35  1  0.467567  0.307834  0.502706  1
  I  I36  1  0.532433  0.692166  0.497294  1
  I  I37  1  0.557960  0.257690  0.118964  1
  I  I38  1  0.589317  0.116722  0.680804  1
  I  I39  1  0.592897  0.463442  0.702962  1
  I  I40  1  0.593745  0.731268  0.139887  1
  I  I41  1  0.638991  0.095078  0.359323  1
  I  I42  1  0.694168  0.065119  0.954812  1
  I  I43  1  0.700598  0.460380  0.964027  1
  I  I44  1  0.682298  0.797705  0.752531  1
  I  I45  1  0.689429  0.446873  0.327672  1
  I  I46  1  0.817702  0.297705  0.747469  1
  I  I47  1  0.799402  0.960380  0.535973  1
  I  I48  1  0.805832  0.565119  0.545188  1
  I  I49  1  0.810571  0.946873  0.172328  1
  I  I50  1  0.907103  0.963442  0.797038  1
  I  I51  1  0.910683  0.616722  0.819196  1
  I  I52  1  0.861009  0.595078  0.140677  1
  I  I53  1  0.906255  0.231268  0.360113  1
  I  I54  1  0.967567  0.192166  0.002706  1
  I  I55  1  0.942040  0.757690  0.381036  1
