# generated using pymatgen
data_Li2CrFeO4
_symmetry_space_group_name_H-M   'P 1'
_cell_length_a   5.16426736
_cell_length_b   5.95235356
_cell_length_c   7.87088466
_cell_angle_alpha   79.12413074
_cell_angle_beta   77.32721045
_cell_angle_gamma   73.34249082
_symmetry_Int_Tables_number   1
_chemical_formula_structural   Li2CrFeO4
_chemical_formula_sum   'Li6 Cr3 Fe3 O12'
_cell_volume   224.08993467
_cell_formula_units_Z   3
loop_
 _symmetry_equiv_pos_site_id
 _symmetry_equiv_pos_as_xyz
  1  'x, y, z'
loop_
 _atom_site_type_symbol
 _atom_site_label
 _atom_site_symmetry_multiplicity
 _atom_site_fract_x
 _atom_site_fract_y
 _atom_site_fract_z
 _atom_site_occupancy
  Li  Li0  1  0.999922  0.000051  0.000060  1
  Li  Li1  1  0.001831  0.164631  0.333451  1
  Li  Li2  1  0.000069  0.499866  0.000049  1
  Li  Li3  1  0.001927  0.330762  0.667673  1
  Li  Li4  1  0.998167  0.669115  0.332313  1
  Li  Li5  1  0.998071  0.835452  0.666442  1
  Cr  Cr6  1  0.500088  0.000016  0.499974  1
  Cr  Cr7  1  0.499237  0.165370  0.833174  1
  Cr  Cr8  1  0.500743  0.834630  0.166859  1
  Fe  Fe9  1  0.499544  0.334715  0.166443  1
  Fe  Fe10  1  0.499992  0.500030  0.500006  1
  Fe  Fe11  1  0.500405  0.665384  0.833586  1
  O  O12  1  0.725580  0.006139  0.253434  1
  O  O13  1  0.273357  0.160371  0.080197  1
  O  O14  1  0.270862  0.327199  0.415011  1
  O  O15  1  0.725015  0.171773  0.586114  1
  O  O16  1  0.272507  0.663498  0.082259  1
  O  O17  1  0.729511  0.506585  0.250595  1
  O  O18  1  0.270515  0.493356  0.749422  1
  O  O19  1  0.727396  0.336537  0.917786  1
  O  O20  1  0.274983  0.828256  0.413899  1
  O  O21  1  0.729148  0.672831  0.584925  1
  O  O22  1  0.726648  0.839595  0.919794  1
  O  O23  1  0.274483  0.993838  0.746532  1
