# generated using pymatgen
data_ZnCoH18N6Cl5
_symmetry_space_group_name_H-M   'P 1'
_cell_length_a   21.69926904
_cell_length_b   7.82769104
_cell_length_c   8.27724165
_cell_angle_alpha   90.00000527
_cell_angle_beta   89.99985543
_cell_angle_gamma   89.99999533
_symmetry_Int_Tables_number   1
_chemical_formula_structural   ZnCoH18N6Cl5
_chemical_formula_sum   'Zn4 Co4 H72 N24 Cl20'
_cell_volume   1405.93231937
_cell_formula_units_Z   4
loop_
 _symmetry_equiv_pos_site_id
 _symmetry_equiv_pos_as_xyz
  1  'x, y, z'
loop_
 _atom_site_type_symbol
 _atom_site_label
 _atom_site_symmetry_multiplicity
 _atom_site_fract_x
 _atom_site_fract_y
 _atom_site_fract_z
 _atom_site_occupancy
  Zn  Zn0  1  0.591526  0.250000  0.366069  1
  Zn  Zn1  1  0.091526  0.250000  0.133930  1
  Zn  Zn2  1  0.408474  0.750000  0.633930  1
  Zn  Zn3  1  0.908474  0.750000  0.866069  1
  Co  Co4  1  0.859274  0.250000  0.384644  1
  Co  Co5  1  0.359273  0.250000  0.115356  1
  Co  Co6  1  0.140725  0.750000  0.615357  1
  Co  Co7  1  0.640726  0.750000  0.884643  1
  H  H8  1  0.755884  0.250000  0.239258  1
  H  H9  1  0.255883  0.250000  0.260738  1
  H  H10  1  0.244110  0.750000  0.760756  1
  H  H11  1  0.744110  0.750000  0.739251  1
  H  H12  1  0.806995  0.144876  0.127788  1
  H  H13  1  0.306996  0.355131  0.372216  1
  H  H14  1  0.193008  0.644894  0.872209  1
  H  H15  1  0.693006  0.855110  0.627795  1
  H  H16  1  0.193008  0.855107  0.872209  1
  H  H17  1  0.693006  0.644890  0.627795  1
  H  H18  1  0.806995  0.355123  0.127788  1
  H  H19  1  0.306996  0.144869  0.372216  1
  H  H20  1  0.886190  0.955066  0.272533  1
  H  H21  1  0.386188  0.544940  0.227466  1
  H  H22  1  0.113804  0.455078  0.727471  1
  H  H23  1  0.613806  0.044922  0.772532  1
  H  H24  1  0.113804  0.044922  0.727471  1
  H  H25  1  0.613806  0.455078  0.772532  1
  H  H26  1  0.886190  0.544934  0.272533  1
  H  H27  1  0.386188  0.955060  0.227466  1
  H  H28  1  0.950502  0.050509  0.332669  1
  H  H29  1  0.450504  0.449490  0.167327  1
  H  H30  1  0.049503  0.550505  0.667345  1
  H  H31  1  0.549503  0.949491  0.832659  1
  H  H32  1  0.049503  0.949495  0.667345  1
  H  H33  1  0.549503  0.550509  0.832659  1
  H  H34  1  0.950502  0.449491  0.332669  1
  H  H35  1  0.450504  0.050510  0.167327  1
  H  H36  1  0.919518  0.101131  0.158938  1
  H  H37  1  0.419518  0.398865  0.341070  1
  H  H38  1  0.080482  0.601118  0.841047  1
  H  H39  1  0.580483  0.898876  0.658952  1
  H  H40  1  0.080482  0.898882  0.841047  1
  H  H41  1  0.580483  0.601124  0.658952  1
  H  H42  1  0.919518  0.398869  0.158939  1
  H  H43  1  0.419518  0.101135  0.341070  1
  H  H44  1  0.767620  0.118792  0.529533  1
  H  H45  1  0.267619  0.381203  0.970465  1
  H  H46  1  0.232374  0.618776  0.470470  1
  H  H47  1  0.732374  0.881219  0.029529  1
  H  H48  1  0.232374  0.881224  0.470470  1
  H  H49  1  0.732374  0.618782  0.029529  1
  H  H50  1  0.767620  0.381208  0.529534  1
  H  H51  1  0.267618  0.118797  0.970465  1
  H  H52  1  0.830908  0.022624  0.588779  1
  H  H53  1  0.330910  0.477378  0.911213  1
  H  H54  1  0.169098  0.522626  0.411234  1
  H  H55  1  0.669096  0.977371  0.088766  1
  H  H56  1  0.169098  0.977374  0.411234  1
  H  H57  1  0.669096  0.522629  0.088766  1
  H  H58  1  0.830908  0.477376  0.588779  1
  H  H59  1  0.330910  0.022623  0.911213  1
  H  H60  1  0.800304  0.971221  0.410724  1
  H  H61  1  0.300304  0.528783  0.089283  1
  H  H62  1  0.199696  0.471233  0.589256  1
  H  H63  1  0.699696  0.028767  0.910738  1
  H  H64  1  0.199697  0.028768  0.589256  1
  H  H65  1  0.699696  0.471233  0.910738  1
  H  H66  1  0.800304  0.528779  0.410724  1
  H  H67  1  0.300304  0.971217  0.089283  1
  H  H68  1  0.908884  0.354215  0.645388  1
  H  H69  1  0.408883  0.145777  0.854608  1
  H  H70  1  0.091112  0.854198  0.354616  1
  H  H71  1  0.591114  0.645799  0.145381  1
  H  H72  1  0.091112  0.645802  0.354616  1
  H  H73  1  0.591114  0.854201  0.145381  1
  H  H74  1  0.908884  0.145785  0.645388  1
  H  H75  1  0.408883  0.354223  0.854608  1
  H  H76  1  0.961325  0.250000  0.537250  1
  H  H77  1  0.461327  0.250000  0.962753  1
  H  H78  1  0.038681  0.750000  0.462734  1
  H  H79  1  0.538681  0.750000  0.037259  1
  N  N80  1  0.800995  0.250000  0.200480  1
  N  N81  1  0.300996  0.250000  0.299515  1
  N  N82  1  0.199008  0.750000  0.799531  1
  N  N83  1  0.699008  0.750000  0.700470  1
  N  N84  1  0.908919  0.070861  0.276563  1
  N  N85  1  0.408918  0.429136  0.223433  1
  N  N86  1  0.091079  0.570854  0.723442  1
  N  N87  1  0.591079  0.929146  0.776558  1
  N  N88  1  0.091079  0.929146  0.723442  1
  N  N89  1  0.591079  0.570854  0.776558  1
  N  N90  1  0.908919  0.429140  0.276563  1
  N  N91  1  0.408918  0.070864  0.223433  1
  N  N92  1  0.809144  0.072253  0.488079  1
  N  N93  1  0.309145  0.427742  0.011925  1
  N  N94  1  0.190858  0.572245  0.511914  1
  N  N95  1  0.690859  0.927757  0.988086  1
  N  N96  1  0.190858  0.927755  0.511914  1
  N  N97  1  0.690859  0.572244  0.988086  1
  N  N98  1  0.809145  0.427747  0.488079  1
  N  N99  1  0.309145  0.072258  0.011924  1
  N  N100  1  0.915571  0.250000  0.571667  1
  N  N101  1  0.415570  0.250000  0.928337  1
  N  N102  1  0.084426  0.750000  0.428323  1
  N  N103  1  0.584425  0.750000  0.071677  1
  Cl  Cl104  1  0.557464  0.250000  0.090453  1
  Cl  Cl105  1  0.057464  0.249999  0.409547  1
  Cl  Cl106  1  0.442536  0.750000  0.909547  1
  Cl  Cl107  1  0.942536  0.750000  0.590453  1
  Cl  Cl108  1  0.652333  0.007267  0.373269  1
  Cl  Cl109  1  0.152333  0.492733  0.126731  1
  Cl  Cl110  1  0.347667  0.507267  0.626732  1
  Cl  Cl111  1  0.847667  0.992733  0.873269  1
  Cl  Cl112  1  0.347667  0.992733  0.626732  1
  Cl  Cl113  1  0.847667  0.507266  0.873268  1
  Cl  Cl114  1  0.652333  0.492733  0.373268  1
  Cl  Cl115  1  0.152333  0.007267  0.126731  1
  Cl  Cl116  1  0.510157  0.249999  0.535843  1
  Cl  Cl117  1  0.010158  0.250000  0.964159  1
  Cl  Cl118  1  0.489842  0.750001  0.464155  1
  Cl  Cl119  1  0.989841  0.749999  0.035843  1
  Cl  Cl120  1  0.698734  0.250000  0.738381  1
  Cl  Cl121  1  0.198734  0.250000  0.761622  1
  Cl  Cl122  1  0.301266  0.750000  0.261616  1
  Cl  Cl123  1  0.801266  0.750000  0.238381  1
