# generated using pymatgen
data_Mo2P3O13
_symmetry_space_group_name_H-M   'P 1'
_cell_length_a   8.95840632
_cell_length_b   9.08685042
_cell_length_c   9.07790261
_cell_angle_alpha   105.77348871
_cell_angle_beta   69.21448156
_cell_angle_gamma   68.90940849
_symmetry_Int_Tables_number   1
_chemical_formula_structural   Mo2P3O13
_chemical_formula_sum   'Mo4 P6 O26'
_cell_volume   573.00796886
_cell_formula_units_Z   2
loop_
 _symmetry_equiv_pos_site_id
 _symmetry_equiv_pos_as_xyz
  1  'x, y, z'
loop_
 _atom_site_type_symbol
 _atom_site_label
 _atom_site_symmetry_multiplicity
 _atom_site_fract_x
 _atom_site_fract_y
 _atom_site_fract_z
 _atom_site_occupancy
  Mo  Mo0  1  0.825106  0.832967  0.156735  1
  Mo  Mo1  1  0.674699  0.342882  0.667041  1
  Mo  Mo2  1  0.174894  0.167033  0.843265  1
  Mo  Mo3  1  0.325301  0.657118  0.332959  1
  P  P4  1  0.438232  0.737471  0.650213  1
  P  P5  1  0.561768  0.262529  0.349787  1
  P  P6  1  0.749476  0.510665  0.991865  1
  P  P7  1  0.250524  0.489335  0.008135  1
  P  P8  1  0.061792  0.851116  0.763458  1
  P  P9  1  0.938208  0.148884  0.236542  1
  O  O10  1  0.906784  0.850401  0.899508  1
  O  O11  1  0.281295  0.299363  0.941736  1
  O  O12  1  0.777111  0.444157  0.803002  1
  O  O13  1  0.399381  0.928593  0.743908  1
  O  O14  1  0.458675  0.700560  0.465388  1
  O  O15  1  0.600619  0.071407  0.256092  1
  O  O16  1  0.729413  0.155205  0.691949  1
  O  O17  1  0.897576  0.242826  0.428435  1
  O  O18  1  0.102424  0.757174  0.571565  1
  O  O19  1  0.420705  0.490221  0.885613  1
  O  O20  1  0.093216  0.149599  0.100492  1
  O  O21  1  0.270587  0.844795  0.308051  1
  O  O22  1  0.230531  0.189371  0.654628  1
  O  O23  1  0.750303  0.259641  0.236359  1
  O  O24  1  0.249697  0.740359  0.763641  1
  O  O25  1  0.541325  0.299440  0.534612  1
  O  O26  1  0.077696  0.610902  0.009328  1
  O  O27  1  0.718705  0.700637  0.058264  1
  O  O28  1  0.961106  0.963026  0.198062  1
  O  O29  1  0.769469  0.810629  0.345372  1
  O  O30  1  0.922304  0.389098  0.990672  1
  O  O31  1  0.579295  0.509779  0.114387  1
  O  O32  1  0.038894  0.036974  0.801938  1
  O  O33  1  0.594068  0.598593  0.648193  1
  O  O34  1  0.222889  0.555843  0.196998  1
  O  O35  1  0.405932  0.401407  0.351807  1
