# generated using pymatgen
data_H8C2S3(NO3)2
_symmetry_space_group_name_H-M   'P 1'
_cell_length_a   9.80891110
_cell_length_b   9.89486505
_cell_length_c   10.66506914
_cell_angle_alpha   90.00000000
_cell_angle_beta   108.26745008
_cell_angle_gamma   90.00000000
_symmetry_Int_Tables_number   1
_chemical_formula_structural   H8C2S3(NO3)2
_chemical_formula_sum   'H32 C8 S12 N8 O24'
_cell_volume   982.96204617
_cell_formula_units_Z   4
loop_
 _symmetry_equiv_pos_site_id
 _symmetry_equiv_pos_as_xyz
  1  'x, y, z'
loop_
 _atom_site_type_symbol
 _atom_site_label
 _atom_site_symmetry_multiplicity
 _atom_site_fract_x
 _atom_site_fract_y
 _atom_site_fract_z
 _atom_site_occupancy
  H  H0  1  0.447463  0.370253  0.395231  1
  H  H1  1  0.552537  0.629747  0.604769  1
  H  H2  1  0.052537  0.370253  0.104769  1
  H  H3  1  0.947463  0.629747  0.895231  1
  H  H4  1  0.170947  0.291454  0.623993  1
  H  H5  1  0.829053  0.708546  0.376007  1
  H  H6  1  0.329053  0.291454  0.876007  1
  H  H7  1  0.670947  0.708546  0.123993  1
  H  H8  1  0.320664  0.404425  0.640187  1
  H  H9  1  0.679336  0.595575  0.359813  1
  H  H10  1  0.179336  0.404425  0.859813  1
  H  H11  1  0.820664  0.595575  0.140187  1
  H  H12  1  0.148161  0.440710  0.521299  1
  H  H13  1  0.851839  0.559290  0.478701  1
  H  H14  1  0.351839  0.440710  0.978701  1
  H  H15  1  0.648161  0.559290  0.021299  1
  H  H16  1  0.437279  0.846278  0.727436  1
  H  H17  1  0.562721  0.153722  0.272564  1
  H  H18  1  0.062721  0.846278  0.772564  1
  H  H19  1  0.937279  0.153722  0.227436  1
  H  H20  1  0.138378  0.946826  0.414449  1
  H  H21  1  0.861622  0.053174  0.585551  1
  H  H22  1  0.361622  0.946826  0.085551  1
  H  H23  1  0.638378  0.053174  0.914449  1
  H  H24  1  0.312639  0.908736  0.398801  1
  H  H25  1  0.687361  0.091264  0.601199  1
  H  H26  1  0.187361  0.908736  0.101199  1
  H  H27  1  0.812639  0.091264  0.898801  1
  H  H28  1  0.159536  0.800641  0.320677  1
  H  H29  1  0.840464  0.199359  0.679323  1
  H  H30  1  0.340464  0.800641  0.179323  1
  H  H31  1  0.659536  0.199359  0.820677  1
  C  C32  1  0.222267  0.361110  0.572605  1
  C  C33  1  0.777733  0.638890  0.427395  1
  C  C34  1  0.277733  0.361110  0.927395  1
  C  C35  1  0.722267  0.638890  0.072605  1
  C  C36  1  0.211619  0.866734  0.404805  1
  C  C37  1  0.788381  0.133266  0.595195  1
  C  C38  1  0.288381  0.866734  0.095195  1
  C  C39  1  0.711619  0.133266  0.904805  1
  S  S40  1  0.269503  0.261712  0.455330  1
  S  S41  1  0.730497  0.738288  0.544670  1
  S  S42  1  0.230497  0.261712  0.044670  1
  S  S43  1  0.769503  0.738288  0.955330  1
  S  S44  1  0.250000  0.475632  0.250000  1
  S  S45  1  0.750000  0.524368  0.750000  1
  S  S46  1  0.253884  0.764890  0.547812  1
  S  S47  1  0.746116  0.235110  0.452188  1
  S  S48  1  0.246116  0.764890  0.952188  1
  S  S49  1  0.753884  0.235110  0.047812  1
  S  S50  1  0.250000  0.970378  0.750000  1
  S  S51  1  0.750000  0.029622  0.250000  1
  N  N52  1  0.336955  0.375515  0.373456  1
  N  N53  1  0.663045  0.624485  0.626544  1
  N  N54  1  0.163045  0.375515  0.126544  1
  N  N55  1  0.836955  0.624485  0.873456  1
  N  N56  1  0.335828  0.875169  0.669834  1
  N  N57  1  0.664172  0.124831  0.330166  1
  N  N58  1  0.164172  0.875169  0.830166  1
  N  N59  1  0.835828  0.124831  0.169834  1
  O  O60  1  0.390509  0.176917  0.522180  1
  O  O61  1  0.609491  0.823083  0.477820  1
  O  O62  1  0.109491  0.176917  0.977820  1
  O  O63  1  0.890509  0.823083  0.022180  1
  O  O64  1  0.141983  0.202693  0.363855  1
  O  O65  1  0.858017  0.797307  0.636145  1
  O  O66  1  0.358017  0.202693  0.136145  1
  O  O67  1  0.641983  0.797307  0.863855  1
  O  O68  1  0.137115  0.547322  0.280622  1
  O  O69  1  0.862885  0.452678  0.719378  1
  O  O70  1  0.362885  0.547322  0.219378  1
  O  O71  1  0.637115  0.452678  0.780622  1
  O  O72  1  0.364677  0.669017  0.546533  1
  O  O73  1  0.635323  0.330983  0.453467  1
  O  O74  1  0.135323  0.669017  0.953467  1
  O  O75  1  0.864677  0.330983  0.046533  1
  O  O76  1  0.123613  0.718694  0.569078  1
  O  O77  1  0.876387  0.281306  0.430922  1
  O  O78  1  0.376387  0.718694  0.930922  1
  O  O79  1  0.623613  0.281306  0.069078  1
  O  O80  1  0.136001  0.039252  0.653280  1
  O  O81  1  0.863999  0.960748  0.346720  1
  O  O82  1  0.363999  0.039252  0.846720  1
  O  O83  1  0.636001  0.960748  0.153280  1
