# generated using pymatgen
data_Li2TiCo2O5
_symmetry_space_group_name_H-M   'P 1'
_cell_length_a   6.02782459
_cell_length_b   7.94737831
_cell_length_c   4.12690511
_cell_angle_alpha   75.03589436
_cell_angle_beta   90.12651390
_cell_angle_gamma   77.01203963
_symmetry_Int_Tables_number   1
_chemical_formula_structural   Li2TiCo2O5
_chemical_formula_sum   'Li4 Ti2 Co4 O10'
_cell_volume   185.72890890
_cell_formula_units_Z   2
loop_
 _symmetry_equiv_pos_site_id
 _symmetry_equiv_pos_as_xyz
  1  'x, y, z'
loop_
 _atom_site_type_symbol
 _atom_site_label
 _atom_site_symmetry_multiplicity
 _atom_site_fract_x
 _atom_site_fract_y
 _atom_site_fract_z
 _atom_site_occupancy
  Li  Li0  1  0.887501  0.388942  0.811389  1
  Li  Li1  1  0.500243  0.000226  0.999877  1
  Li  Li2  1  0.112511  0.610596  0.188883  1
  Li  Li3  1  0.000169  0.999795  0.000091  1
  Ti  Ti4  1  0.819224  0.796623  0.569600  1
  Ti  Ti5  1  0.180539  0.203534  0.430088  1
  Co  Co6  1  0.610603  0.601453  0.201892  1
  Co  Co7  1  0.693276  0.198277  0.402024  1
  Co  Co8  1  0.388835  0.398637  0.798230  1
  Co  Co9  1  0.306830  0.801839  0.598402  1
  O  O10  1  0.809387  0.806089  0.111389  1
  O  O11  1  0.911416  0.381960  0.310182  1
  O  O12  1  0.681434  0.214483  0.891927  1
  O  O13  1  0.635063  0.616161  0.697139  1
  O  O14  1  0.318408  0.785628  0.107861  1
  O  O15  1  0.500006  0.999663  0.500124  1
  O  O16  1  0.365150  0.383364  0.302968  1
  O  O17  1  0.190738  0.194051  0.888616  1
  O  O18  1  0.088915  0.618471  0.689508  1
  O  O19  1  0.999753  0.000210  0.499810  1
