# generated using pymatgen
data_Li2ZnCr3(SO4)6
_symmetry_space_group_name_H-M   'P 1'
_cell_length_a   9.12063905
_cell_length_b   8.95551432
_cell_length_c   9.02794771
_cell_angle_alpha   55.89920380
_cell_angle_beta   55.25932131
_cell_angle_gamma   55.24056514
_symmetry_Int_Tables_number   1
_chemical_formula_structural   Li2ZnCr3(SO4)6
_chemical_formula_sum   'Li2 Zn1 Cr3 S6 O24'
_cell_volume   466.48184414
_cell_formula_units_Z   1
loop_
 _symmetry_equiv_pos_site_id
 _symmetry_equiv_pos_as_xyz
  1  'x, y, z'
loop_
 _atom_site_type_symbol
 _atom_site_label
 _atom_site_symmetry_multiplicity
 _atom_site_fract_x
 _atom_site_fract_y
 _atom_site_fract_z
 _atom_site_occupancy
  Li  Li0  1  0.179754  0.424761  0.766727  1
  Li  Li1  1  0.764894  0.183351  0.425996  1
  Zn  Zn2  1  0.173795  0.138872  0.160697  1
  Cr  Cr3  1  0.359187  0.357725  0.344073  1
  Cr  Cr4  1  0.642248  0.643865  0.647788  1
  Cr  Cr5  1  0.846013  0.849352  0.852653  1
  S  S6  1  0.034747  0.746246  0.466881  1
  S  S7  1  0.546482  0.949668  0.257970  1
  S  S8  1  0.250368  0.551368  0.945510  1
  S  S9  1  0.757235  0.464525  0.033432  1
  S  S10  1  0.462753  0.036420  0.754694  1
  S  S11  1  0.949542  0.249736  0.549160  1
  O  O12  1  0.000521  0.953688  0.347762  1
  O  O13  1  0.024565  0.705811  0.660166  1
  O  O14  1  0.360051  0.960749  0.296542  1
  O  O15  1  0.047511  0.686983  0.970287  1
  O  O16  1  0.491936  0.899078  0.690656  1
  O  O17  1  0.229601  0.621499  0.378593  1
  O  O18  1  0.675388  0.975670  0.052113  1
  O  O19  1  0.380825  0.637616  0.752194  1
  O  O20  1  0.290682  0.517924  0.098154  1
  O  O21  1  0.099694  0.292461  0.516024  1
  O  O22  1  0.639646  0.755353  0.382647  1
  O  O23  1  0.278590  0.365982  0.950109  1
  O  O24  1  0.717927  0.656543  0.022578  1
  O  O25  1  0.375928  0.237378  0.632953  1
  O  O26  1  0.890022  0.693799  0.498748  1
  O  O27  1  0.691076  0.492974  0.899674  1
  O  O28  1  0.645301  0.368078  0.233429  1
  O  O29  1  0.342351  0.000400  0.958951  1
  O  O30  1  0.753580  0.380678  0.636655  1
  O  O31  1  0.523395  0.102317  0.297480  1
  O  O32  1  0.964522  0.340466  0.990803  1
  O  O33  1  0.657321  0.023637  0.710498  1
  O  O34  1  0.956849  0.275034  0.365310  1
  O  O35  1  0.971297  0.046094  0.683191  1
