# generated using pymatgen
data_LiCr(SiO3)2
_symmetry_space_group_name_H-M   'P 1'
_cell_length_a   7.33771376
_cell_length_b   7.40705979
_cell_length_c   7.01913447
_cell_angle_alpha   118.16199737
_cell_angle_beta   77.29038571
_cell_angle_gamma   99.07410318
_symmetry_Int_Tables_number   1
_chemical_formula_structural   LiCr(SiO3)2
_chemical_formula_sum   'Li3 Cr3 Si6 O18'
_cell_volume   327.44803677
_cell_formula_units_Z   3
loop_
 _symmetry_equiv_pos_site_id
 _symmetry_equiv_pos_as_xyz
  1  'x, y, z'
loop_
 _atom_site_type_symbol
 _atom_site_label
 _atom_site_symmetry_multiplicity
 _atom_site_fract_x
 _atom_site_fract_y
 _atom_site_fract_z
 _atom_site_occupancy
  Li  Li0  1  0.203088  0.744213  0.410555  1
  Li  Li1  1  0.500000  0.500000  0.500000  1
  Li  Li2  1  0.796912  0.255787  0.589445  1
  Cr  Cr3  1  0.228375  0.750001  0.947153  1
  Cr  Cr4  1  0.500000  0.500000  0.000000  1
  Cr  Cr5  1  0.771625  0.249999  0.052847  1
  Si  Si6  1  0.161229  0.283470  0.243843  1
  Si  Si7  1  0.164827  0.253545  0.686274  1
  Si  Si8  1  0.605768  0.975005  0.204074  1
  Si  Si9  1  0.394232  0.024995  0.795926  1
  Si  Si10  1  0.835172  0.746455  0.313726  1
  Si  Si11  1  0.838771  0.716530  0.756157  1
  O  O12  1  0.049072  0.758135  0.203150  1
  O  O13  1  0.052276  0.686590  0.750020  1
  O  O14  1  0.163575  0.242087  0.451119  1
  O  O15  1  0.236651  0.063471  0.025130  1
  O  O16  1  0.310979  0.470041  0.242800  1
  O  O17  1  0.434362  0.797963  0.139040  1
  O  O18  1  0.295575  0.457347  0.826146  1
  O  O19  1  0.428776  0.788263  0.710472  1
  O  O20  1  0.281796  0.052715  0.631861  1
  O  O21  1  0.718204  0.947285  0.368139  1
  O  O22  1  0.571224  0.211737  0.289528  1
  O  O23  1  0.704425  0.542653  0.173854  1
  O  O24  1  0.565638  0.202037  0.860960  1
  O  O25  1  0.689021  0.529959  0.757200  1
  O  O26  1  0.763349  0.936529  0.974870  1
  O  O27  1  0.836425  0.757913  0.548881  1
  O  O28  1  0.947724  0.313410  0.249980  1
  O  O29  1  0.950928  0.241865  0.796850  1
