# generated using pymatgen
data_K6Zr3H8(OF)12
_symmetry_space_group_name_H-M   'P 1'
_cell_length_a   14.72626774
_cell_length_b   13.96767822
_cell_length_c   11.04814320
_cell_angle_alpha   90.00000000
_cell_angle_beta   90.00000000
_cell_angle_gamma   90.00000000
_symmetry_Int_Tables_number   1
_chemical_formula_structural   K6Zr3H8(OF)12
_chemical_formula_sum   'K24 Zr12 H32 O48 F48'
_cell_volume   2272.51212089
_cell_formula_units_Z   4
loop_
 _symmetry_equiv_pos_site_id
 _symmetry_equiv_pos_as_xyz
  1  'x, y, z'
loop_
 _atom_site_type_symbol
 _atom_site_label
 _atom_site_symmetry_multiplicity
 _atom_site_fract_x
 _atom_site_fract_y
 _atom_site_fract_z
 _atom_site_occupancy
  K  K0  1  0.891511  0.458094  0.132701  1
  K  K1  1  0.391511  0.041906  0.367299  1
  K  K2  1  0.108489  0.958094  0.867299  1
  K  K3  1  0.608489  0.541906  0.632701  1
  K  K4  1  0.108489  0.541906  0.867299  1
  K  K5  1  0.608489  0.958094  0.632701  1
  K  K6  1  0.891511  0.041906  0.132701  1
  K  K7  1  0.391511  0.458094  0.367299  1
  K  K8  1  0.822636  0.895573  0.431432  1
  K  K9  1  0.322636  0.604427  0.068568  1
  K  K10  1  0.177364  0.395573  0.568568  1
  K  K11  1  0.677364  0.104427  0.931432  1
  K  K12  1  0.177364  0.104427  0.568568  1
  K  K13  1  0.677364  0.395573  0.931432  1
  K  K14  1  0.822636  0.604427  0.431432  1
  K  K15  1  0.322636  0.895573  0.068568  1
  K  K16  1  0.611628  0.880322  0.189541  1
  K  K17  1  0.111628  0.619678  0.310459  1
  K  K18  1  0.388372  0.380322  0.810459  1
  K  K19  1  0.888372  0.119678  0.689541  1
  K  K20  1  0.388372  0.119678  0.810459  1
  K  K21  1  0.888372  0.380322  0.689541  1
  K  K22  1  0.611628  0.619678  0.189541  1
  K  K23  1  0.111628  0.880322  0.310459  1
  Zr  Zr24  1  0.596250  0.250000  0.630974  1
  Zr  Zr25  1  0.096250  0.250000  0.869026  1
  Zr  Zr26  1  0.403750  0.750000  0.369026  1
  Zr  Zr27  1  0.903750  0.750000  0.130974  1
  Zr  Zr28  1  0.663795  0.109768  0.333593  1
  Zr  Zr29  1  0.163795  0.390232  0.166407  1
  Zr  Zr30  1  0.336205  0.609768  0.666407  1
  Zr  Zr31  1  0.836205  0.890232  0.833593  1
  Zr  Zr32  1  0.336205  0.890232  0.666407  1
  Zr  Zr33  1  0.836205  0.609768  0.833593  1
  Zr  Zr34  1  0.663795  0.390232  0.333593  1
  Zr  Zr35  1  0.163795  0.109768  0.166407  1
  H  H36  1  0.801693  0.250000  0.173144  1
  H  H37  1  0.301693  0.250000  0.326856  1
  H  H38  1  0.198307  0.750000  0.826856  1
  H  H39  1  0.698307  0.750000  0.673144  1
  H  H40  1  0.865473  0.250000  0.947561  1
  H  H41  1  0.365473  0.250000  0.552439  1
  H  H42  1  0.134527  0.750000  0.052439  1
  H  H43  1  0.634527  0.750000  0.447561  1
  H  H44  1  0.999386  0.065161  0.410389  1
  H  H45  1  0.499386  0.434839  0.089611  1
  H  H46  1  0.000614  0.565161  0.589611  1
  H  H47  1  0.500614  0.934839  0.910389  1
  H  H48  1  0.000614  0.934839  0.589611  1
  H  H49  1  0.500614  0.565161  0.910389  1
  H  H50  1  0.999386  0.434839  0.410389  1
  H  H51  1  0.499386  0.065161  0.089611  1
  H  H52  1  0.853465  0.193832  0.437368  1
  H  H53  1  0.353465  0.306168  0.062632  1
  H  H54  1  0.146535  0.693832  0.562632  1
  H  H55  1  0.646535  0.806168  0.937368  1
  H  H56  1  0.146535  0.806168  0.562632  1
  H  H57  1  0.646535  0.693832  0.937368  1
  H  H58  1  0.853465  0.306168  0.437368  1
  H  H59  1  0.353465  0.193832  0.062632  1
  H  H60  1  0.000681  0.250000  0.479311  1
  H  H61  1  0.500681  0.250000  0.020689  1
  H  H62  1  0.999319  0.750000  0.520689  1
  H  H63  1  0.499319  0.750000  0.979311  1
  H  H64  1  0.584295  0.250000  0.108512  1
  H  H65  1  0.084295  0.250000  0.391488  1
  H  H66  1  0.415705  0.750000  0.891488  1
  H  H67  1  0.915705  0.750000  0.608512  1
  O  O68  1  0.572161  0.139160  0.488626  1
  O  O69  1  0.072161  0.360840  0.011374  1
  O  O70  1  0.427839  0.639160  0.511374  1
  O  O71  1  0.927839  0.860840  0.988626  1
  O  O72  1  0.427839  0.860840  0.511374  1
  O  O73  1  0.927839  0.639160  0.988626  1
  O  O74  1  0.572161  0.360840  0.488626  1
  O  O75  1  0.072161  0.139160  0.011374  1
  O  O76  1  0.670848  0.141120  0.526320  1
  O  O77  1  0.170848  0.358880  0.973680  1
  O  O78  1  0.329152  0.641120  0.473680  1
  O  O79  1  0.829152  0.858880  0.026320  1
  O  O80  1  0.329152  0.858880  0.473680  1
  O  O81  1  0.829152  0.641120  0.026320  1
  O  O82  1  0.670848  0.358880  0.526320  1
  O  O83  1  0.170848  0.141120  0.973680  1
  O  O84  1  0.721910  0.250000  0.283537  1
  O  O85  1  0.221910  0.250000  0.216463  1
  O  O86  1  0.278090  0.750000  0.716463  1
  O  O87  1  0.778090  0.750000  0.783537  1
  O  O88  1  0.621704  0.250000  0.258433  1
  O  O89  1  0.121704  0.250000  0.241567  1
  O  O90  1  0.378296  0.750000  0.741567  1
  O  O91  1  0.878296  0.750000  0.758433  1
  O  O92  1  0.810850  0.250000  0.001993  1
  O  O93  1  0.310850  0.250000  0.498007  1
  O  O94  1  0.189150  0.750000  0.998007  1
  O  O95  1  0.689150  0.750000  0.501993  1
  O  O96  1  0.857144  0.250000  0.121035  1
  O  O97  1  0.357144  0.250000  0.378965  1
  O  O98  1  0.142856  0.750000  0.878965  1
  O  O99  1  0.642856  0.750000  0.621035  1
  O  O100  1  0.969318  0.040173  0.485387  1
  O  O101  1  0.469318  0.459827  0.014613  1
  O  O102  1  0.030682  0.540173  0.514613  1
  O  O103  1  0.530682  0.959827  0.985387  1
  O  O104  1  0.030682  0.959827  0.514613  1
  O  O105  1  0.530682  0.540173  0.985387  1
  O  O106  1  0.969318  0.459827  0.485387  1
  O  O107  1  0.469318  0.040173  0.014613  1
  O  O108  1  0.879978  0.250000  0.479764  1
  O  O109  1  0.379978  0.250000  0.020236  1
  O  O110  1  0.120022  0.750000  0.520236  1
  O  O111  1  0.620022  0.750000  0.979764  1
  O  O112  1  0.568053  0.250000  0.021534  1
  O  O113  1  0.068053  0.250000  0.478466  1
  O  O114  1  0.431947  0.750000  0.978466  1
  O  O115  1  0.931947  0.750000  0.521534  1
  F  F116  1  0.804646  0.092328  0.366971  1
  F  F117  1  0.304646  0.407672  0.133029  1
  F  F118  1  0.195354  0.592328  0.633029  1
  F  F119  1  0.695354  0.907672  0.866971  1
  F  F120  1  0.195354  0.907672  0.633029  1
  F  F121  1  0.695354  0.592328  0.866971  1
  F  F122  1  0.804646  0.407672  0.366971  1
  F  F123  1  0.304646  0.092328  0.133029  1
  F  F124  1  0.708719  0.058000  0.166533  1
  F  F125  1  0.208719  0.442000  0.333467  1
  F  F126  1  0.291281  0.558000  0.833467  1
  F  F127  1  0.791281  0.942000  0.666533  1
  F  F128  1  0.291281  0.942000  0.833467  1
  F  F129  1  0.791281  0.558000  0.666533  1
  F  F130  1  0.708719  0.442000  0.166533  1
  F  F131  1  0.208719  0.058000  0.333467  1
  F  F132  1  0.841872  0.031850  0.890525  1
  F  F133  1  0.341872  0.468150  0.609475  1
  F  F134  1  0.158128  0.531850  0.109475  1
  F  F135  1  0.658128  0.968150  0.390525  1
  F  F136  1  0.158128  0.968150  0.109475  1
  F  F137  1  0.658128  0.531850  0.390525  1
  F  F138  1  0.841872  0.468150  0.890525  1
  F  F139  1  0.341872  0.031850  0.609475  1
  F  F140  1  0.541082  0.071015  0.244995  1
  F  F141  1  0.041082  0.428985  0.255005  1
  F  F142  1  0.458918  0.571015  0.755005  1
  F  F143  1  0.958918  0.928985  0.744995  1
  F  F144  1  0.458918  0.928985  0.755005  1
  F  F145  1  0.958918  0.571015  0.744995  1
  F  F146  1  0.541082  0.428985  0.244995  1
  F  F147  1  0.041082  0.071015  0.255005  1
  F  F148  1  0.569680  0.137433  0.748716  1
  F  F149  1  0.069680  0.362567  0.751284  1
  F  F150  1  0.430320  0.637433  0.251284  1
  F  F151  1  0.930320  0.862567  0.248716  1
  F  F152  1  0.430320  0.862567  0.251284  1
  F  F153  1  0.930320  0.637433  0.248716  1
  F  F154  1  0.569680  0.362567  0.748716  1
  F  F155  1  0.069680  0.137433  0.751284  1
  F  F156  1  0.950282  0.250000  0.860456  1
  F  F157  1  0.450282  0.250000  0.639544  1
  F  F158  1  0.049718  0.750000  0.139544  1
  F  F159  1  0.549718  0.750000  0.360456  1
  F  F160  1  0.719447  0.250000  0.728203  1
  F  F161  1  0.219447  0.250000  0.771797  1
  F  F162  1  0.280553  0.750000  0.271797  1
  F  F163  1  0.780553  0.750000  0.228203  1
