# generated using pymatgen
data_Mn3OF5
_symmetry_space_group_name_H-M   'P 1'
_cell_length_a   4.92285384
_cell_length_b   14.70601378
_cell_length_c   3.23654212
_cell_angle_alpha   90.00000000
_cell_angle_beta   90.00000000
_cell_angle_gamma   90.00000000
_symmetry_Int_Tables_number   1
_chemical_formula_structural   Mn3OF5
_chemical_formula_sum   'Mn6 O2 F10'
_cell_volume   234.31126762
_cell_formula_units_Z   2
loop_
 _symmetry_equiv_pos_site_id
 _symmetry_equiv_pos_as_xyz
  1  'x, y, z'
loop_
 _atom_site_type_symbol
 _atom_site_label
 _atom_site_symmetry_multiplicity
 _atom_site_fract_x
 _atom_site_fract_y
 _atom_site_fract_z
 _atom_site_occupancy
  Mn  Mn0  1  0.023375  0.005883  0.000000  1
  Mn  Mn1  1  0.975838  0.333194  0.000000  1
  Mn  Mn2  1  0.031561  0.658276  0.000000  1
  Mn  Mn3  1  0.468439  0.158276  0.500000  1
  Mn  Mn4  1  0.476625  0.505883  0.500000  1
  Mn  Mn5  1  0.524162  0.833194  0.500000  1
  O  O6  1  0.199486  0.599909  0.500000  1
  O  O7  1  0.300514  0.099909  0.000000  1
  F  F8  1  0.182300  0.271682  0.500000  1
  F  F9  1  0.207743  0.934488  0.500000  1
  F  F10  1  0.317700  0.771682  0.000000  1
  F  F11  1  0.292257  0.434488  0.000000  1
  F  F12  1  0.671001  0.227547  0.000000  1
  F  F13  1  0.686335  0.565884  0.000000  1
  F  F14  1  0.725526  0.903136  0.000000  1
  F  F15  1  0.813665  0.065884  0.500000  1
  F  F16  1  0.774474  0.403136  0.500000  1
  F  F17  1  0.828999  0.727547  0.500000  1
