# generated using pymatgen
data_Li2Cu2F7
_symmetry_space_group_name_H-M   'P 1'
_cell_length_a   13.03595161
_cell_length_b   5.90006211
_cell_length_c   7.02866279
_cell_angle_alpha   89.96350834
_cell_angle_beta   89.99430284
_cell_angle_gamma   90.01377913
_symmetry_Int_Tables_number   1
_chemical_formula_structural   Li2Cu2F7
_chemical_formula_sum   'Li8 Cu8 F28'
_cell_volume   540.59487998
_cell_formula_units_Z   4
loop_
 _symmetry_equiv_pos_site_id
 _symmetry_equiv_pos_as_xyz
  1  'x, y, z'
loop_
 _atom_site_type_symbol
 _atom_site_label
 _atom_site_symmetry_multiplicity
 _atom_site_fract_x
 _atom_site_fract_y
 _atom_site_fract_z
 _atom_site_occupancy
  Li  Li0  1  0.048356  0.908259  0.256846  1
  Li  Li1  1  0.188191  0.836283  0.753952  1
  Li  Li2  1  0.311772  0.336017  0.254066  1
  Li  Li3  1  0.451599  0.408437  0.756696  1
  Li  Li4  1  0.548285  0.591874  0.257008  1
  Li  Li5  1  0.688264  0.663693  0.753976  1
  Li  Li6  1  0.811874  0.163800  0.254186  1
  Li  Li7  1  0.951764  0.091718  0.756882  1
  Cu  Cu8  1  0.103313  0.351660  0.522636  1
  Cu  Cu9  1  0.104618  0.369788  0.995845  1
  Cu  Cu10  1  0.395254  0.869781  0.495994  1
  Cu  Cu11  1  0.396726  0.851920  0.022902  1
  Cu  Cu12  1  0.603283  0.148274  0.522737  1
  Cu  Cu13  1  0.604675  0.129977  0.995840  1
  Cu  Cu14  1  0.895355  0.630150  0.496203  1
  Cu  Cu15  1  0.896688  0.648403  0.022623  1
  F  F16  1  0.036214  0.682993  0.449545  1
  F  F17  1  0.040641  0.704120  0.053494  1
  F  F18  1  0.101926  0.095134  0.723515  1
  F  F19  1  0.093886  0.220004  0.249590  1
  F  F20  1  0.120246  0.531927  0.758225  1
  F  F21  1  0.238416  0.414185  0.474572  1
  F  F22  1  0.240623  0.406211  0.029873  1
  F  F23  1  0.259303  0.906178  0.529949  1
  F  F24  1  0.261584  0.914206  0.974581  1
  F  F25  1  0.379774  0.032009  0.257967  1
  F  F26  1  0.406117  0.719594  0.750252  1
  F  F27  1  0.397967  0.595208  0.222884  1
  F  F28  1  0.459529  0.204355  0.553206  1
  F  F29  1  0.464056  0.182258  0.949441  1
  F  F30  1  0.536341  0.817084  0.449541  1
  F  F31  1  0.540748  0.796307  0.053300  1
  F  F32  1  0.602002  0.404586  0.723476  1
  F  F33  1  0.593928  0.279627  0.249108  1
  F  F34  1  0.620122  0.968749  0.758648  1
  F  F35  1  0.738325  0.085797  0.474598  1
  F  F36  1  0.740319  0.093799  0.029687  1
  F  F37  1  0.759313  0.593744  0.529936  1
  F  F38  1  0.761567  0.585754  0.974595  1
  F  F39  1  0.879744  0.467952  0.258208  1
  F  F40  1  0.906115  0.780071  0.749949  1
  F  F41  1  0.897967  0.904985  0.222913  1
  F  F42  1  0.959488  0.295676  0.553241  1
  F  F43  1  0.963719  0.317454  0.949332  1
