# generated using pymatgen
data_CeCoSi2
_symmetry_space_group_name_H-M   'P 1'
_cell_length_a   4.02270060
_cell_length_b   4.05591913
_cell_length_c   8.48429672
_cell_angle_alpha   103.82900593
_cell_angle_beta   90.00000000
_cell_angle_gamma   90.00000000
_symmetry_Int_Tables_number   1
_chemical_formula_structural   CeCoSi2
_chemical_formula_sum   'Ce2 Co2 Si4'
_cell_volume   134.41510270
_cell_formula_units_Z   2
loop_
 _symmetry_equiv_pos_site_id
 _symmetry_equiv_pos_as_xyz
  1  'x, y, z'
loop_
 _atom_site_type_symbol
 _atom_site_label
 _atom_site_symmetry_multiplicity
 _atom_site_fract_x
 _atom_site_fract_y
 _atom_site_fract_z
 _atom_site_occupancy
  Si  Si0  1  0.250000  0.249761  0.499521  1
  Si  Si1  1  0.750000  0.750239  0.500479  1
  Si  Si2  1  0.750000  0.459190  0.918380  1
  Si  Si3  1  0.250000  0.540810  0.081620  1
  Co  Co4  1  0.750000  0.321705  0.643411  1
  Co  Co5  1  0.250000  0.678295  0.356589  1
  Ce  Ce6  1  0.250000  0.890964  0.781929  1
  Ce  Ce7  1  0.750000  0.109036  0.218071  1
