# generated using pymatgen
data_NbCo3(PO4)4
_symmetry_space_group_name_H-M   'P 1'
_cell_length_a   4.96534447
_cell_length_b   9.99391762
_cell_length_c   6.00103692
_cell_angle_alpha   90.00000000
_cell_angle_beta   90.00000000
_cell_angle_gamma   90.76367125
_symmetry_Int_Tables_number   1
_chemical_formula_structural   NbCo3(PO4)4
_chemical_formula_sum   'Nb1 Co3 P4 O16'
_cell_volume   297.76446576
_cell_formula_units_Z   1
loop_
 _symmetry_equiv_pos_site_id
 _symmetry_equiv_pos_as_xyz
  1  'x, y, z'
loop_
 _atom_site_type_symbol
 _atom_site_label
 _atom_site_symmetry_multiplicity
 _atom_site_fract_x
 _atom_site_fract_y
 _atom_site_fract_z
 _atom_site_occupancy
  Nb  Nb0  1  0.972623  0.278745  0.250000  1
  Co  Co1  1  0.029991  0.735182  0.750000  1
  Co  Co2  1  0.461853  0.223441  0.750000  1
  Co  Co3  1  0.543945  0.768623  0.250000  1
  P  P4  1  0.080004  0.608198  0.250000  1
  P  P5  1  0.391535  0.091356  0.250000  1
  P  P6  1  0.597210  0.899014  0.750000  1
  P  P7  1  0.935262  0.410024  0.750000  1
  O  O8  1  0.148501  0.446999  0.250000  1
  O  O9  1  0.225658  0.666924  0.044820  1
  O  O10  1  0.225658  0.666924  0.455180  1
  O  O11  1  0.234056  0.383702  0.750000  1
  O  O12  1  0.287690  0.871661  0.750000  1
  O  O13  1  0.244609  0.170507  0.054436  1
  O  O14  1  0.244609  0.170507  0.445564  1
  O  O15  1  0.342248  0.945277  0.250000  1
  O  O16  1  0.640343  0.050503  0.750000  1
  O  O17  1  0.742749  0.829268  0.549492  1
  O  O18  1  0.742749  0.829268  0.950508  1
  O  O19  1  0.692852  0.134031  0.250000  1
  O  O20  1  0.776669  0.606878  0.250000  1
  O  O21  1  0.794864  0.329448  0.545495  1
  O  O22  1  0.794864  0.329448  0.954505  1
  O  O23  1  0.849459  0.554075  0.750000  1
