# generated using pymatgen
data_Li3FeF5
_symmetry_space_group_name_H-M   'P 1'
_cell_length_a   6.62456628
_cell_length_b   7.74515241
_cell_length_c   8.13762034
_cell_angle_alpha   90.05397943
_cell_angle_beta   89.78515830
_cell_angle_gamma   90.00050610
_symmetry_Int_Tables_number   1
_chemical_formula_structural   Li3FeF5
_chemical_formula_sum   'Li12 Fe4 F20'
_cell_volume   417.52414607
_cell_formula_units_Z   4
loop_
 _symmetry_equiv_pos_site_id
 _symmetry_equiv_pos_as_xyz
  1  'x, y, z'
loop_
 _atom_site_type_symbol
 _atom_site_label
 _atom_site_symmetry_multiplicity
 _atom_site_fract_x
 _atom_site_fract_y
 _atom_site_fract_z
 _atom_site_occupancy
  Li  Li0  1  0.985172  0.571931  0.271039  1
  Li  Li1  1  0.985031  0.928107  0.271081  1
  Li  Li2  1  0.209811  0.749999  0.027339  1
  Li  Li3  1  0.289878  0.249934  0.527966  1
  Li  Li4  1  0.514078  0.427333  0.770577  1
  Li  Li5  1  0.513902  0.072679  0.770509  1
  Li  Li6  1  0.484949  0.928582  0.228554  1
  Li  Li7  1  0.484874  0.571485  0.228573  1
  Li  Li8  1  0.710967  0.750031  0.473925  1
  Li  Li9  1  0.789846  0.250025  0.973001  1
  Li  Li10  1  0.016303  0.073285  0.728274  1
  Li  Li11  1  0.016057  0.426524  0.728434  1
  Fe  Fe12  1  0.270842  0.749806  0.599929  1
  Fe  Fe13  1  0.228030  0.249907  0.099110  1
  Fe  Fe14  1  0.771358  0.750043  0.900142  1
  Fe  Fe15  1  0.728386  0.250098  0.400450  1
  F  F16  1  0.989977  0.249999  0.548015  1
  F  F17  1  0.089485  0.749559  0.809366  1
  F  F18  1  0.069109  0.250000  0.881334  1
  F  F19  1  0.224097  0.988756  0.143946  1
  F  F20  1  0.224146  0.511289  0.143928  1
  F  F21  1  0.275536  0.483585  0.646853  1
  F  F22  1  0.275833  0.016543  0.646438  1
  F  F23  1  0.424484  0.750268  0.382557  1
  F  F24  1  0.417132  0.249934  0.312494  1
  F  F25  1  0.508173  0.749976  0.049409  1
  F  F26  1  0.492163  0.250023  0.952368  1
  F  F27  1  0.582688  0.750304  0.686364  1
  F  F28  1  0.572349  0.249990  0.619235  1
  F  F29  1  0.723462  0.988120  0.356235  1
  F  F30  1  0.723498  0.511840  0.356074  1
  F  F31  1  0.776238  0.009606  0.856344  1
  F  F32  1  0.776330  0.490393  0.856476  1
  F  F33  1  0.929411  0.749887  0.118505  1
  F  F34  1  0.916377  0.250139  0.186766  1
  F  F35  1  0.010030  0.750020  0.448389  1
