# generated using pymatgen
data_Ga2P2H9NO11
_symmetry_space_group_name_H-M   'P 1'
_cell_length_a   9.94554284
_cell_length_b   9.87877033
_cell_length_c   10.05749273
_cell_angle_alpha   90.00000000
_cell_angle_beta   99.79193071
_cell_angle_gamma   90.00000000
_symmetry_Int_Tables_number   1
_chemical_formula_structural   Ga2P2H9NO11
_chemical_formula_sum   'Ga8 P8 H36 N4 O44'
_cell_volume   973.75053168
_cell_formula_units_Z   4
loop_
 _symmetry_equiv_pos_site_id
 _symmetry_equiv_pos_as_xyz
  1  'x, y, z'
loop_
 _atom_site_type_symbol
 _atom_site_label
 _atom_site_symmetry_multiplicity
 _atom_site_fract_x
 _atom_site_fract_y
 _atom_site_fract_z
 _atom_site_occupancy
  Ga  Ga0  1  0.118059  0.762774  0.828175  1
  Ga  Ga1  1  0.116304  0.526569  0.131057  1
  Ga  Ga2  1  0.381941  0.262774  0.671825  1
  Ga  Ga3  1  0.383696  0.026569  0.368943  1
  Ga  Ga4  1  0.616304  0.973431  0.631057  1
  Ga  Ga5  1  0.618059  0.737226  0.328175  1
  Ga  Ga6  1  0.883696  0.473431  0.868943  1
  Ga  Ga7  1  0.881941  0.237226  0.171825  1
  P  P8  1  0.190978  0.459676  0.844767  1
  P  P9  1  0.206797  0.305345  0.369300  1
  P  P10  1  0.309022  0.959676  0.655233  1
  P  P11  1  0.293203  0.805345  0.130700  1
  P  P12  1  0.706797  0.194655  0.869300  1
  P  P13  1  0.690979  0.040324  0.344767  1
  P  P14  1  0.793203  0.694655  0.630700  1
  P  P15  1  0.809021  0.540324  0.155233  1
  H  H16  1  0.073069  0.175414  0.833718  1
  H  H17  1  0.063756  0.004057  0.894497  1
  H  H18  1  0.985829  0.759453  0.563291  1
  H  H19  1  0.070915  0.133805  0.622278  1
  H  H20  1  0.035094  0.741370  0.344593  1
  H  H21  1  0.102152  0.889025  0.413454  1
  H  H22  1  0.219698  0.127270  0.878517  1
  H  H23  1  0.078721  0.055714  0.191534  1
  H  H24  1  0.057592  0.290011  0.026112  1
  H  H25  1  0.280302  0.627270  0.621483  1
  H  H26  1  0.429085  0.633805  0.877722  1
  H  H27  1  0.485829  0.740547  0.063291  1
  H  H28  1  0.436244  0.504057  0.605503  1
  H  H29  1  0.442408  0.790011  0.473888  1
  H  H30  1  0.426931  0.675414  0.666282  1
  H  H31  1  0.421279  0.555714  0.308466  1
  H  H32  1  0.535094  0.758630  0.844593  1
  H  H33  1  0.602151  0.610975  0.913454  1
  H  H34  1  0.397849  0.389025  0.086546  1
  H  H35  1  0.464906  0.241370  0.155407  1
  H  H36  1  0.578721  0.444286  0.691534  1
  H  H37  1  0.573069  0.324586  0.333718  1
  H  H38  1  0.557592  0.209989  0.526112  1
  H  H39  1  0.563756  0.495943  0.394497  1
  H  H40  1  0.514171  0.259453  0.936709  1
  H  H41  1  0.570915  0.366195  0.122278  1
  H  H42  1  0.719698  0.372730  0.378517  1
  H  H43  1  0.942408  0.709989  0.973888  1
  H  H44  1  0.921279  0.944286  0.808466  1
  H  H45  1  0.780302  0.872730  0.121483  1
  H  H46  1  0.897849  0.110975  0.586546  1
  H  H47  1  0.964906  0.258630  0.655407  1
  H  H48  1  0.929085  0.866195  0.377722  1
  H  H49  1  0.014171  0.240547  0.436709  1
  H  H50  1  0.936244  0.995943  0.105503  1
  H  H51  1  0.926931  0.824586  0.166282  1
  N  N52  1  0.021375  0.842716  0.354175  1
  N  N53  1  0.521375  0.657284  0.854175  1
  N  N54  1  0.478625  0.342716  0.145825  1
  N  N55  1  0.978625  0.157284  0.645825  1
  O  O56  1  0.002292  0.646505  0.935515  1
  O  O57  1  0.041707  0.407549  0.802948  1
  O  O58  1  0.134108  0.139155  0.914767  1
  O  O59  1  0.993365  0.082789  0.133683  1
  O  O60  1  0.042503  0.270504  0.351688  1
  O  O61  1  0.251286  0.825282  0.979301  1
  O  O62  1  0.206137  0.862330  0.698792  1
  O  O63  1  0.203875  0.601276  0.778336  1
  O  O64  1  0.296125  0.101277  0.721664  1
  O  O65  1  0.293863  0.362330  0.801208  1
  O  O66  1  0.248714  0.325282  0.520699  1
  O  O67  1  0.271789  0.974861  0.498687  1
  O  O68  1  0.214679  0.435200  0.288545  1
  O  O69  1  0.224166  0.687378  0.190328  1
  O  O70  1  0.365892  0.639155  0.585233  1
  O  O71  1  0.275834  0.187378  0.309672  1
  O  O72  1  0.285321  0.935200  0.211455  1
  O  O73  1  0.228211  0.474861  0.001313  1
  O  O74  1  0.458293  0.907549  0.697052  1
  O  O75  1  0.493365  0.417211  0.633683  1
  O  O76  1  0.542503  0.229496  0.851688  1
  O  O77  1  0.497708  0.146505  0.564485  1
  O  O78  1  0.502292  0.853495  0.435515  1
  O  O79  1  0.457497  0.770504  0.148312  1
  O  O80  1  0.506635  0.582789  0.366317  1
  O  O81  1  0.541707  0.092451  0.302948  1
  O  O82  1  0.771789  0.525139  0.998687  1
  O  O83  1  0.714679  0.064800  0.788545  1
  O  O84  1  0.724166  0.812622  0.690328  1
  O  O85  1  0.634108  0.360845  0.414767  1
  O  O86  1  0.775834  0.312622  0.809672  1
  O  O87  1  0.785321  0.564800  0.711455  1
  O  O88  1  0.728211  0.025139  0.501313  1
  O  O89  1  0.751286  0.674718  0.479301  1
  O  O90  1  0.706137  0.637670  0.198792  1
  O  O91  1  0.703875  0.898724  0.278336  1
  O  O92  1  0.796125  0.398724  0.221664  1
  O  O93  1  0.793863  0.137670  0.301208  1
  O  O94  1  0.748714  0.174718  0.020699  1
  O  O95  1  0.957497  0.729496  0.648312  1
  O  O96  1  0.006635  0.917211  0.866317  1
  O  O97  1  0.865892  0.860845  0.085233  1
  O  O98  1  0.958293  0.592451  0.197052  1
  O  O99  1  0.997708  0.353495  0.064485  1
