# generated using pymatgen
data_Ca4Nb2O9
_symmetry_space_group_name_H-M   'P 1'
_cell_length_a   16.84729091
_cell_length_b   5.84876667
_cell_length_c   8.02633902
_cell_angle_alpha   90.00000000
_cell_angle_beta   90.44131351
_cell_angle_gamma   90.00000000
_symmetry_Int_Tables_number   1
_chemical_formula_structural   Ca4Nb2O9
_chemical_formula_sum   'Ca16 Nb8 O36'
_cell_volume   790.85886683
_cell_formula_units_Z   4
loop_
 _symmetry_equiv_pos_site_id
 _symmetry_equiv_pos_as_xyz
  1  'x, y, z'
loop_
 _atom_site_type_symbol
 _atom_site_label
 _atom_site_symmetry_multiplicity
 _atom_site_fract_x
 _atom_site_fract_y
 _atom_site_fract_z
 _atom_site_occupancy
  Ca  Ca0  1  0.001254  0.500296  0.497517  1
  Ca  Ca1  1  0.004339  0.944562  0.744496  1
  Ca  Ca2  1  0.159557  0.448854  0.749921  1
  Ca  Ca3  1  0.173776  0.551146  0.250079  1
  Ca  Ca4  1  0.328994  0.055438  0.255504  1
  Ca  Ca5  1  0.332079  0.499704  0.502483  1
  Ca  Ca6  1  0.334558  0.935149  0.745669  1
  Ca  Ca7  1  0.498775  0.435149  0.754331  1
  Ca  Ca8  1  0.501254  0.999704  0.997517  1
  Ca  Ca9  1  0.504339  0.555438  0.244496  1
  Ca  Ca10  1  0.659557  0.051146  0.249921  1
  Ca  Ca11  1  0.673776  0.948854  0.750079  1
  Ca  Ca12  1  0.828994  0.444562  0.755504  1
  Ca  Ca13  1  0.832079  0.000296  0.002483  1
  Ca  Ca14  1  0.834558  0.564851  0.245669  1
  Ca  Ca15  1  0.998775  0.064851  0.254331  1
  Nb  Nb16  1  0.996618  0.512987  0.009425  1
  Nb  Nb17  1  0.166667  0.000000  0.000000  1
  Nb  Nb18  1  0.166667  0.000000  0.500000  1
  Nb  Nb19  1  0.336715  0.487013  0.990575  1
  Nb  Nb20  1  0.496618  0.987013  0.509425  1
  Nb  Nb21  1  0.666667  0.500000  0.000000  1
  Nb  Nb22  1  0.666667  0.500000  0.500000  1
  Nb  Nb23  1  0.836715  0.012987  0.490575  1
  O  O24  1  0.044517  0.445690  0.228988  1
  O  O25  1  0.070974  0.195146  0.942700  1
  O  O26  1  0.067886  0.170150  0.552020  1
  O  O27  1  0.103626  0.712949  0.946363  1
  O  O28  1  0.110649  0.712809  0.557192  1
  O  O29  1  0.132856  0.961220  0.245732  1
  O  O30  1  0.200477  0.038780  0.754268  1
  O  O31  1  0.222684  0.287191  0.442808  1
  O  O32  1  0.229707  0.287051  0.053637  1
  O  O33  1  0.265447  0.829850  0.447980  1
  O  O34  1  0.262360  0.804854  0.057300  1
  O  O35  1  0.288817  0.554310  0.771012  1
  O  O36  1  0.366073  0.453518  0.229011  1
  O  O37  1  0.387696  0.208270  0.926417  1
  O  O38  1  0.406891  0.177903  0.556631  1
  O  O39  1  0.426442  0.677903  0.943369  1
  O  O40  1  0.445638  0.708270  0.573583  1
  O  O41  1  0.467261  0.953518  0.270989  1
  O  O42  1  0.544517  0.054310  0.728988  1
  O  O43  1  0.570974  0.304854  0.442700  1
  O  O44  1  0.567886  0.329850  0.052020  1
  O  O45  1  0.603626  0.787051  0.446363  1
  O  O46  1  0.610649  0.787191  0.057192  1
  O  O47  1  0.632856  0.538780  0.745732  1
  O  O48  1  0.700477  0.461220  0.254268  1
  O  O49  1  0.722684  0.212809  0.942808  1
  O  O50  1  0.729707  0.212949  0.553637  1
  O  O51  1  0.765447  0.670150  0.947980  1
  O  O52  1  0.762360  0.695146  0.557300  1
  O  O53  1  0.788817  0.945690  0.271012  1
  O  O54  1  0.866073  0.046482  0.729011  1
  O  O55  1  0.887696  0.291730  0.426417  1
  O  O56  1  0.906891  0.322097  0.056632  1
  O  O57  1  0.926442  0.822097  0.443368  1
  O  O58  1  0.945638  0.791730  0.073583  1
  O  O59  1  0.967261  0.546482  0.770989  1
