# generated using pymatgen
data_BaSr2I6
_symmetry_space_group_name_H-M   'P 1'
_cell_length_a   14.47743617
_cell_length_b   14.47932776
_cell_length_c   7.53092501
_cell_angle_alpha   89.99412232
_cell_angle_beta   90.00000000
_cell_angle_gamma   119.99567856
_symmetry_Int_Tables_number   1
_chemical_formula_structural   BaSr2I6
_chemical_formula_sum   'Ba3 Sr6 I18'
_cell_volume   1367.21847968
_cell_formula_units_Z   3
loop_
 _symmetry_equiv_pos_site_id
 _symmetry_equiv_pos_as_xyz
  1  'x, y, z'
loop_
 _atom_site_type_symbol
 _atom_site_label
 _atom_site_symmetry_multiplicity
 _atom_site_fract_x
 _atom_site_fract_y
 _atom_site_fract_z
 _atom_site_occupancy
  Ba  Ba0  1  0.333388  0.666663  0.494218  1
  Ba  Ba1  1  0.999957  0.000000  0.000000  1
  Ba  Ba2  1  0.666725  0.333337  0.505782  1
  Sr  Sr3  1  0.000068  0.644608  0.000041  1
  Sr  Sr4  1  0.000035  0.310902  0.499919  1
  Sr  Sr5  1  0.355460  0.355392  0.999959  1
  Sr  Sr6  1  0.310807  0.000000  0.500000  1
  Sr  Sr7  1  0.689133  0.689098  0.500081  1
  Sr  Sr8  1  0.644504  0.000000  0.000000  1
  I  I9  1  0.094589  0.864133  0.748531  1
  I  I10  1  0.221034  0.785416  0.242655  1
  I  I11  1  0.105605  0.530217  0.751599  1
  I  I12  1  0.424358  0.894318  0.751758  1
  I  I13  1  0.214765  0.435725  0.242647  1
  I  I14  1  0.135929  0.230484  0.748412  1
  I  I15  1  0.564354  0.778893  0.242584  1
  I  I16  1  0.230456  0.135867  0.251469  1
  I  I17  1  0.469838  0.575509  0.751924  1
  I  I18  1  0.769453  0.905332  0.748621  1
  I  I19  1  0.435618  0.214584  0.757345  1
  I  I20  1  0.575388  0.469783  0.248401  1
  I  I21  1  0.530040  0.105682  0.248242  1
  I  I22  1  0.779040  0.564275  0.757353  1
  I  I23  1  0.905444  0.769516  0.251588  1
  I  I24  1  0.785461  0.221107  0.757416  1
  I  I25  1  0.894329  0.424491  0.248076  1
  I  I26  1  0.864122  0.094668  0.251379  1
