# generated using pymatgen
data_RbMgV5(H8O11)2
_symmetry_space_group_name_H-M   'P 1'
_cell_length_a   10.52399484
_cell_length_b   11.51659530
_cell_length_c   10.88263479
_cell_angle_alpha   114.97238402
_cell_angle_beta   85.03431398
_cell_angle_gamma   105.83093826
_symmetry_Int_Tables_number   1
_chemical_formula_structural   RbMgV5(H8O11)2
_chemical_formula_sum   'Rb2 Mg2 V10 H32 O44'
_cell_volume   1149.70191093
_cell_formula_units_Z   2
loop_
 _symmetry_equiv_pos_site_id
 _symmetry_equiv_pos_as_xyz
  1  'x, y, z'
loop_
 _atom_site_type_symbol
 _atom_site_label
 _atom_site_symmetry_multiplicity
 _atom_site_fract_x
 _atom_site_fract_y
 _atom_site_fract_z
 _atom_site_occupancy
  Rb  Rb0  1  0.283799  0.387470  0.671116  1
  Rb  Rb1  1  0.716201  0.612530  0.328884  1
  Mg  Mg2  1  0.619835  0.337344  0.745922  1
  Mg  Mg3  1  0.380165  0.662656  0.254078  1
  V  V4  1  0.282157  0.015513  0.008146  1
  V  V5  1  0.717843  0.984487  0.991854  1
  V  V6  1  0.955683  0.610680  0.917712  1
  V  V7  1  0.044317  0.389320  0.082288  1
  V  V8  1  0.756287  0.890546  0.210021  1
  V  V9  1  0.243713  0.109454  0.789979  1
  V  V10  1  0.863615  0.751961  0.724867  1
  V  V11  1  0.136385  0.248039  0.275133  1
  V  V12  1  0.140601  0.694922  0.744515  1
  V  V13  1  0.859399  0.305078  0.255485  1
  H  H14  1  0.613396  0.563980  0.940572  1
  H  H15  1  0.386604  0.436020  0.059428  1
  H  H16  1  0.290952  0.869709  0.313754  1
  H  H17  1  0.709048  0.130291  0.686246  1
  H  H18  1  0.971314  0.359936  0.687229  1
  H  H19  1  0.028686  0.640064  0.312771  1
  H  H20  1  0.971915  0.300939  0.471281  1
  H  H21  1  0.028085  0.699061  0.528719  1
  H  H22  1  0.934226  0.204159  0.598875  1
  H  H23  1  0.065774  0.795841  0.401125  1
  H  H24  1  0.761177  0.031920  0.479082  1
  H  H25  1  0.238823  0.968080  0.520918  1
  H  H26  1  0.761224  0.527458  0.567346  1
  H  H27  1  0.238776  0.472542  0.432654  1
  H  H28  1  0.628418  0.128726  0.813261  1
  H  H29  1  0.371582  0.871274  0.186739  1
  H  H30  1  0.052351  0.970787  0.890626  1
  H  H31  1  0.947649  0.029213  0.109374  1
  H  H32  1  0.484696  0.806208  0.479459  1
  H  H33  1  0.515304  0.193792  0.520541  1
  H  H34  1  0.839244  0.990841  0.568156  1
  H  H35  1  0.160756  0.009159  0.431844  1
  H  H36  1  0.030548  0.009833  0.676912  1
  H  H37  1  0.969452  0.990167  0.323088  1
  H  H38  1  0.450286  0.916966  0.042387  1
  H  H39  1  0.549714  0.083034  0.957613  1
  H  H40  1  0.569366  0.568940  0.810730  1
  H  H41  1  0.430634  0.431060  0.189270  1
  H  H42  1  0.906608  0.857034  0.647940  1
  H  H43  1  0.093392  0.142966  0.352060  1
  H  H44  1  0.421908  0.666483  0.538773  1
  H  H45  1  0.578092  0.333517  0.461227  1
  O  O46  1  0.031726  0.669633  0.063792  1
  O  O47  1  0.968274  0.330367  0.936208  1
  O  O48  1  0.239925  0.846574  0.865077  1
  O  O49  1  0.760075  0.153426  0.134923  1
  O  O50  1  0.613326  0.887764  0.056522  1
  O  O51  1  0.386674  0.112236  0.943478  1
  O  O52  1  0.221398  0.119641  0.161290  1
  O  O53  1  0.778602  0.880359  0.838710  1
  O  O54  1  0.958699  0.743083  0.866877  1
  O  O55  1  0.041301  0.256917  0.133123  1
  O  O56  1  0.787779  0.525609  0.946231  1
  O  O57  1  0.212221  0.474391  0.053769  1
  O  O58  1  0.617264  0.038311  0.906043  1
  O  O59  1  0.382736  0.961689  0.093957  1
  O  O60  1  0.087077  0.556272  0.790864  1
  O  O61  1  0.912923  0.443728  0.209136  1
  O  O62  1  0.908612  0.900561  0.290578  1
  O  O63  1  0.091388  0.099439  0.709422  1
  O  O64  1  0.673125  0.731076  0.161078  1
  O  O65  1  0.326875  0.268924  0.838922  1
  O  O66  1  0.312940  0.010575  0.657084  1
  O  O67  1  0.687060  0.989425  0.342916  1
  O  O68  1  0.016751  0.699560  0.624834  1
  O  O69  1  0.983249  0.300440  0.375166  1
  O  O70  1  0.734006  0.607025  0.634474  1
  O  O71  1  0.265994  0.392975  0.365526  1
  O  O72  1  0.244163  0.633567  0.595787  1
  O  O73  1  0.755837  0.366433  0.404213  1
  O  O74  1  0.009264  0.709557  0.397822  1
  O  O75  1  0.990736  0.290443  0.602178  1
  O  O76  1  0.380369  0.636944  0.616843  1
  O  O77  1  0.619631  0.363056  0.383157  1
  O  O78  1  0.810051  0.064954  0.569753  1
  O  O79  1  0.189949  0.935046  0.430247  1
  O  O80  1  0.185121  0.553710  0.198214  1
  O  O81  1  0.814879  0.446290  0.801786  1
  O  O82  1  0.644751  0.173806  0.750728  1
  O  O83  1  0.355249  0.826194  0.249272  1
  O  O84  1  0.864354  0.960379  0.085376  1
  O  O85  1  0.135646  0.039621  0.914624  1
  O  O86  1  0.444993  0.488846  0.141106  1
  O  O87  1  0.555007  0.511154  0.858894  1
  O  O88  1  0.536117  0.289756  0.573298  1
  O  O89  1  0.463883  0.710244  0.426702  1
