# generated using pymatgen
data_LiNiBO3
_symmetry_space_group_name_H-M   'P 1'
_cell_length_a   8.84365337
_cell_length_b   9.41899637
_cell_length_c   3.08743785
_cell_angle_alpha   90.00000000
_cell_angle_beta   91.25200940
_cell_angle_gamma   90.00000000
_symmetry_Int_Tables_number   1
_chemical_formula_structural   LiNiBO3
_chemical_formula_sum   'Li4 Ni4 B4 O12'
_cell_volume   257.11704609
_cell_formula_units_Z   4
loop_
 _symmetry_equiv_pos_site_id
 _symmetry_equiv_pos_as_xyz
  1  'x, y, z'
loop_
 _atom_site_type_symbol
 _atom_site_label
 _atom_site_symmetry_multiplicity
 _atom_site_fract_x
 _atom_site_fract_y
 _atom_site_fract_z
 _atom_site_occupancy
  Li  Li0  1  0.127673  0.714294  0.244202  1
  Li  Li1  1  0.372327  0.214294  0.255798  1
  Li  Li2  1  0.627673  0.785706  0.744202  1
  Li  Li3  1  0.872327  0.285706  0.755798  1
  Ni  Ni4  1  0.274532  0.441131  0.746678  1
  Ni  Ni5  1  0.225468  0.941131  0.753322  1
  Ni  Ni6  1  0.774532  0.058869  0.246678  1
  Ni  Ni7  1  0.725468  0.558869  0.253322  1
  B  B8  1  0.104252  0.199730  0.250482  1
  B  B9  1  0.395748  0.699730  0.249518  1
  B  B10  1  0.604252  0.300270  0.750482  1
  B  B11  1  0.895748  0.800270  0.749518  1
  O  O12  1  0.048948  0.807206  0.738765  1
  O  O13  1  0.173497  0.332335  0.239591  1
  O  O14  1  0.199748  0.081746  0.251901  1
  O  O15  1  0.300252  0.581746  0.248099  1
  O  O16  1  0.451052  0.307206  0.761235  1
  O  O17  1  0.326503  0.832335  0.260409  1
  O  O18  1  0.673497  0.167665  0.739591  1
  O  O19  1  0.548948  0.692794  0.238765  1
  O  O20  1  0.699748  0.418254  0.751901  1
  O  O21  1  0.800252  0.918254  0.748099  1
  O  O22  1  0.826503  0.667665  0.760409  1
  O  O23  1  0.951052  0.192794  0.261235  1
