# generated using pymatgen
data_Li4MnSb(WO6)2
_symmetry_space_group_name_H-M   'P 1'
_cell_length_a   5.41556153
_cell_length_b   10.88491390
_cell_length_c   9.65152420
_cell_angle_alpha   28.18735730
_cell_angle_beta   51.90879455
_cell_angle_gamma   56.95075730
_symmetry_Int_Tables_number   1
_chemical_formula_structural   Li4MnSb(WO6)2
_chemical_formula_sum   'Li4 Mn1 Sb1 W2 O12'
_cell_volume   211.50526381
_cell_formula_units_Z   1
loop_
 _symmetry_equiv_pos_site_id
 _symmetry_equiv_pos_as_xyz
  1  'x, y, z'
loop_
 _atom_site_type_symbol
 _atom_site_label
 _atom_site_symmetry_multiplicity
 _atom_site_fract_x
 _atom_site_fract_y
 _atom_site_fract_z
 _atom_site_occupancy
  Li  Li0  1  0.267004  0.996806  0.305086  1
  Li  Li1  1  0.322525  0.503650  0.265944  1
  Li  Li2  1  0.776263  0.997899  0.751976  1
  Li  Li3  1  0.769850  0.500139  0.793117  1
  Mn  Mn4  1  0.004350  0.500823  0.999005  1
  Sb  Sb5  1  0.000602  0.997849  0.005334  1
  W  W6  1  0.498240  0.003075  0.499877  1
  W  W7  1  0.505808  0.495001  0.505507  1
  O  O8  1  0.364076  0.299063  0.141660  1
  O  O9  1  0.235005  0.122773  0.627222  1
  O  O10  1  0.112967  0.320750  0.745312  1
  O  O11  1  0.856202  0.196277  0.244278  1
  O  O12  1  0.383899  0.802563  0.117901  1
  O  O13  1  0.706723  0.374068  0.392931  1
  O  O14  1  0.254582  0.634067  0.594719  1
  O  O15  1  0.616439  0.184077  0.880822  1
  O  O16  1  0.143045  0.815096  0.731345  1
  O  O17  1  0.881287  0.685211  0.241799  1
  O  O18  1  0.734971  0.874349  0.376529  1
  O  O19  1  0.637359  0.696462  0.850840  1
