# generated using pymatgen
data_Li2Mn4OF8
_symmetry_space_group_name_H-M   'P 1'
_cell_length_a   10.09071044
_cell_length_b   8.27541880
_cell_length_c   10.46824564
_cell_angle_alpha   89.49596187
_cell_angle_beta   113.23722129
_cell_angle_gamma   90.64549129
_symmetry_Int_Tables_number   1
_chemical_formula_structural   Li2Mn4OF8
_chemical_formula_sum   'Li8 Mn16 O4 F32'
_cell_volume   803.17767993
_cell_formula_units_Z   4
loop_
 _symmetry_equiv_pos_site_id
 _symmetry_equiv_pos_as_xyz
  1  'x, y, z'
loop_
 _atom_site_type_symbol
 _atom_site_label
 _atom_site_symmetry_multiplicity
 _atom_site_fract_x
 _atom_site_fract_y
 _atom_site_fract_z
 _atom_site_occupancy
  Li  Li0  1  0.226559  0.534583  0.716251  1
  Li  Li1  1  0.278236  0.027690  0.766652  1
  Li  Li2  1  0.102277  0.936489  0.261557  1
  Li  Li3  1  0.584867  0.537922  0.773839  1
  Li  Li4  1  0.406514  0.467833  0.239678  1
  Li  Li5  1  0.933440  0.023093  0.722517  1
  Li  Li6  1  0.744281  0.968245  0.210483  1
  Li  Li7  1  0.776455  0.473020  0.286211  1
  Mn  Mn8  1  0.158805  0.760608  0.927360  1
  Mn  Mn9  1  0.044970  0.775934  0.485996  1
  Mn  Mn10  1  0.075228  0.516680  0.191399  1
  Mn  Mn11  1  0.494544  0.702120  0.032999  1
  Mn  Mn12  1  0.301844  0.277180  0.493266  1
  Mn  Mn13  1  0.313932  0.638678  0.446930  1
  Mn  Mn14  1  0.178537  0.182855  0.027103  1
  Mn  Mn15  1  0.569769  0.971348  0.673478  1
  Mn  Mn16  1  0.449375  0.043126  0.304329  1
  Mn  Mn17  1  0.816014  0.843320  0.967821  1
  Mn  Mn18  1  0.693351  0.357688  0.543175  1
  Mn  Mn19  1  0.690422  0.755825  0.462125  1
  Mn  Mn20  1  0.499007  0.309848  0.992142  1
  Mn  Mn21  1  0.968425  0.460450  0.824954  1
  Mn  Mn22  1  0.986928  0.179891  0.490883  1
  Mn  Mn23  1  0.837700  0.238181  0.032550  1
  O  O24  1  0.080261  0.616055  0.765739  1
  O  O25  1  0.106747  0.719308  0.325390  1
  O  O26  1  0.020723  0.339545  0.011550  1
  O  O27  1  0.271301  0.426226  0.326918  1
  F  F28  1  0.049499  0.984012  0.908459  1
  F  F29  1  0.078885  0.992707  0.646229  1
  F  F30  1  0.288271  0.209542  0.890486  1
  F  F31  1  0.147234  0.358322  0.573817  1
  F  F32  1  0.349115  0.879116  0.920959  1
  F  F33  1  0.260435  0.719703  0.615097  1
  F  F34  1  0.139850  0.093732  0.408802  1
  F  F35  1  0.413606  0.527038  0.872896  1
  F  F36  1  0.395851  0.100040  0.670797  1
  F  F37  1  0.239198  0.995339  0.183925  1
  F  F38  1  0.448911  0.463515  0.607048  1
  F  F39  1  0.616470  0.766804  0.805612  1
  F  F40  1  0.660554  0.380572  0.913099  1
  F  F41  1  0.469500  0.845342  0.468887  1
  F  F42  1  0.537473  0.168021  0.495883  1
  F  F43  1  0.324395  0.646451  0.103984  1
  F  F44  1  0.409850  0.242635  0.167730  1
  F  F45  1  0.571910  0.541576  0.406395  1
  F  F46  1  0.743128  0.062485  0.853356  1
  F  F47  1  0.748659  0.526390  0.699164  1
  F  F48  1  0.585578  0.884856  0.269296  1
  F  F49  1  0.979723  0.681951  0.999157  1
  F  F50  1  0.584332  0.491035  0.151071  1
  F  F51  1  0.756038  0.913061  0.625305  1
  F  F52  1  0.895517  0.246852  0.676426  1
  F  F53  1  0.781151  0.289215  0.401679  1
  F  F54  1  0.656939  0.139708  0.088621  1
  F  F55  1  0.852547  0.630679  0.435591  1
  F  F56  1  0.707376  0.779446  0.094608  1
  F  F57  1  0.874852  0.958555  0.397993  1
  F  F58  1  0.901595  0.389504  0.214068  1
  F  F59  1  0.921040  0.008056  0.130262  1
