# generated using pymatgen
data_NaCu3O2
_symmetry_space_group_name_H-M   'P 1'
_cell_length_a   14.34357708
_cell_length_b   7.48683575
_cell_length_c   7.45815179
_cell_angle_alpha   90.00000000
_cell_angle_beta   90.00000000
_cell_angle_gamma   90.00000000
_symmetry_Int_Tables_number   1
_chemical_formula_structural   NaCu3O2
_chemical_formula_sum   'Na8 Cu24 O16'
_cell_volume   800.91604668
_cell_formula_units_Z   8
loop_
 _symmetry_equiv_pos_site_id
 _symmetry_equiv_pos_as_xyz
  1  'x, y, z'
loop_
 _atom_site_type_symbol
 _atom_site_label
 _atom_site_symmetry_multiplicity
 _atom_site_fract_x
 _atom_site_fract_y
 _atom_site_fract_z
 _atom_site_occupancy
  Na  Na0  1  0.073317  0.114724  0.181304  1
  Na  Na1  1  0.073317  0.385276  0.681304  1
  Na  Na2  1  0.426683  0.614724  0.181304  1
  Na  Na3  1  0.426683  0.885276  0.681304  1
  Na  Na4  1  0.573317  0.114724  0.318696  1
  Na  Na5  1  0.573317  0.385276  0.818696  1
  Na  Na6  1  0.926683  0.614724  0.318696  1
  Na  Na7  1  0.926683  0.885276  0.818696  1
  Cu  Cu8  1  0.120597  0.502427  0.134499  1
  Cu  Cu9  1  0.120597  0.997573  0.634500  1
  Cu  Cu10  1  0.122351  0.799597  0.903372  1
  Cu  Cu11  1  0.122351  0.700403  0.403372  1
  Cu  Cu12  1  0.236977  0.061726  0.891406  1
  Cu  Cu13  1  0.236977  0.438274  0.391406  1
  Cu  Cu14  1  0.263023  0.938274  0.391406  1
  Cu  Cu15  1  0.263023  0.561726  0.891406  1
  Cu  Cu16  1  0.377649  0.299597  0.903372  1
  Cu  Cu17  1  0.377649  0.200403  0.403372  1
  Cu  Cu18  1  0.379403  0.002427  0.134499  1
  Cu  Cu19  1  0.379403  0.497573  0.634500  1
  Cu  Cu20  1  0.620597  0.502427  0.365501  1
  Cu  Cu21  1  0.620597  0.997573  0.865500  1
  Cu  Cu22  1  0.622351  0.700403  0.096628  1
  Cu  Cu23  1  0.622351  0.799597  0.596628  1
  Cu  Cu24  1  0.736977  0.061726  0.608594  1
  Cu  Cu25  1  0.736977  0.438274  0.108594  1
  Cu  Cu26  1  0.763023  0.561726  0.608594  1
  Cu  Cu27  1  0.763023  0.938274  0.108594  1
  Cu  Cu28  1  0.877649  0.200403  0.096628  1
  Cu  Cu29  1  0.877649  0.299597  0.596628  1
  Cu  Cu30  1  0.879403  0.002427  0.365501  1
  Cu  Cu31  1  0.879403  0.497573  0.865500  1
  O  O32  1  0.133829  0.555360  0.896764  1
  O  O33  1  0.133829  0.944640  0.396764  1
  O  O34  1  0.106510  0.048020  0.878324  1
  O  O35  1  0.106510  0.451980  0.378324  1
  O  O36  1  0.393490  0.951980  0.378324  1
  O  O37  1  0.393490  0.548020  0.878324  1
  O  O38  1  0.366171  0.055360  0.896764  1
  O  O39  1  0.366171  0.444640  0.396764  1
  O  O40  1  0.633829  0.555360  0.603236  1
  O  O41  1  0.633829  0.944640  0.103236  1
  O  O42  1  0.606510  0.048020  0.621676  1
  O  O43  1  0.606510  0.451980  0.121676  1
  O  O44  1  0.893490  0.548020  0.621676  1
  O  O45  1  0.893490  0.951980  0.121676  1
  O  O46  1  0.866171  0.055360  0.603236  1
  O  O47  1  0.866171  0.444640  0.103236  1
