# generated using pymatgen
data_LiNi4(P2O7)3
_symmetry_space_group_name_H-M   'P 1'
_cell_length_a   7.60502800
_cell_length_b   9.57490612
_cell_length_c   22.00778307
_cell_angle_alpha   90.00000000
_cell_angle_beta   90.00000000
_cell_angle_gamma   89.75070720
_symmetry_Int_Tables_number   1
_chemical_formula_structural   LiNi4(P2O7)3
_chemical_formula_sum   'Li4 Ni16 P24 O84'
_cell_volume   1602.53501595
_cell_formula_units_Z   4
loop_
 _symmetry_equiv_pos_site_id
 _symmetry_equiv_pos_as_xyz
  1  'x, y, z'
loop_
 _atom_site_type_symbol
 _atom_site_label
 _atom_site_symmetry_multiplicity
 _atom_site_fract_x
 _atom_site_fract_y
 _atom_site_fract_z
 _atom_site_occupancy
  Li  Li0  1  0.971210  0.779001  0.613749  1
  Li  Li1  1  0.528788  0.720996  0.113749  1
  Li  Li2  1  0.471210  0.279001  0.886251  1
  Li  Li3  1  0.028788  0.220996  0.386251  1
  Ni  Ni4  1  0.930277  0.777480  0.255438  1
  Ni  Ni5  1  0.569723  0.722520  0.755438  1
  Ni  Ni6  1  0.430277  0.277480  0.244562  1
  Ni  Ni7  1  0.069723  0.222520  0.744562  1
  Ni  Ni8  1  0.959115  0.708761  0.760564  1
  Ni  Ni9  1  0.955240  0.266549  0.507152  1
  Ni  Ni10  1  0.544760  0.233451  0.007152  1
  Ni  Ni11  1  0.540885  0.791239  0.260564  1
  Ni  Ni12  1  0.459115  0.208761  0.739436  1
  Ni  Ni13  1  0.455240  0.766549  0.992848  1
  Ni  Ni14  1  0.044760  0.733451  0.492848  1
  Ni  Ni15  1  0.040885  0.291239  0.239436  1
  Ni  Ni16  1  0.935338  0.241678  0.993430  1
  Ni  Ni17  1  0.564662  0.258322  0.493430  1
  Ni  Ni18  1  0.435338  0.741678  0.506570  1
  Ni  Ni19  1  0.064662  0.758322  0.006570  1
  P  P20  1  0.765545  0.994895  0.686429  1
  P  P21  1  0.763555  0.833672  0.887964  1
  P  P22  1  0.766508  0.158773  0.855988  1
  P  P23  1  0.761816  0.444345  0.699546  1
  P  P24  1  0.746026  0.970688  0.546593  1
  P  P25  1  0.746237  0.531250  0.561441  1
  P  P26  1  0.753763  0.968750  0.061441  1
  P  P27  1  0.753974  0.529312  0.046593  1
  P  P28  1  0.738184  0.055655  0.199546  1
  P  P29  1  0.733492  0.341227  0.355988  1
  P  P30  1  0.736445  0.666328  0.387964  1
  P  P31  1  0.734455  0.505105  0.186429  1
  P  P32  1  0.265545  0.494895  0.813571  1
  P  P33  1  0.263555  0.333672  0.612036  1
  P  P34  1  0.266508  0.658773  0.644012  1
  P  P35  1  0.261816  0.944345  0.800454  1
  P  P36  1  0.246026  0.470688  0.953407  1
  P  P37  1  0.246237  0.031250  0.938559  1
  P  P38  1  0.253763  0.468750  0.438559  1
  P  P39  1  0.253974  0.029312  0.453407  1
  P  P40  1  0.238184  0.555655  0.300454  1
  P  P41  1  0.233492  0.841227  0.144012  1
  P  P42  1  0.236445  0.166328  0.112036  1
  P  P43  1  0.234455  0.005105  0.313571  1
  O  O44  1  0.934414  0.592957  0.040454  1
  O  O45  1  0.937938  0.374597  0.707574  1
  O  O46  1  0.920126  0.791657  0.927152  1
  O  O47  1  0.907277  0.626272  0.557136  1
  O  O48  1  0.931917  0.205585  0.823111  1
  O  O49  1  0.927441  0.076552  0.704094  1
  O  O50  1  0.927699  0.894010  0.052995  1
  O  O51  1  0.906313  0.321112  0.320671  1
  O  O52  1  0.913839  0.679182  0.419042  1
  O  O53  1  0.908276  0.428584  0.187298  1
  O  O54  1  0.901794  0.132301  0.217456  1
  O  O55  1  0.893265  0.896020  0.512565  1
  O  O56  1  0.809465  0.945330  0.616701  1
  O  O57  1  0.789493  0.994675  0.869060  1
  O  O58  1  0.765824  0.746433  0.829116  1
  O  O59  1  0.758485  0.027202  0.128620  1
  O  O60  1  0.756025  0.260189  0.416498  1
  O  O61  1  0.761950  0.852758  0.718998  1
  O  O62  1  0.762289  0.586702  0.732205  1
  O  O63  1  0.750215  0.371131  0.034722  1
  O  O64  1  0.740701  0.097008  0.019755  1
  O  O65  1  0.759299  0.402992  0.519755  1
  O  O66  1  0.749785  0.128869  0.534722  1
  O  O67  1  0.737711  0.913298  0.232205  1
  O  O68  1  0.738050  0.647242  0.218998  1
  O  O69  1  0.743975  0.239811  0.916498  1
  O  O70  1  0.741515  0.472798  0.628620  1
  O  O71  1  0.734176  0.753567  0.329116  1
  O  O72  1  0.710507  0.505325  0.369060  1
  O  O73  1  0.690535  0.554670  0.116701  1
  O  O74  1  0.606735  0.603980  0.012565  1
  O  O75  1  0.598206  0.367699  0.717456  1
  O  O76  1  0.591724  0.071416  0.687298  1
  O  O77  1  0.586161  0.820818  0.919042  1
  O  O78  1  0.593687  0.178888  0.820671  1
  O  O79  1  0.572301  0.605990  0.552995  1
  O  O80  1  0.572559  0.423448  0.204094  1
  O  O81  1  0.568083  0.294415  0.323111  1
  O  O82  1  0.592723  0.873728  0.057136  1
  O  O83  1  0.579874  0.708343  0.427152  1
  O  O84  1  0.562062  0.125403  0.207574  1
  O  O85  1  0.565586  0.907043  0.540454  1
  O  O86  1  0.434414  0.092957  0.459546  1
  O  O87  1  0.437938  0.874597  0.792426  1
  O  O88  1  0.420126  0.291657  0.572848  1
  O  O89  1  0.407277  0.126272  0.942864  1
  O  O90  1  0.431917  0.705585  0.676889  1
  O  O91  1  0.427441  0.576552  0.795906  1
  O  O92  1  0.427699  0.394010  0.447005  1
  O  O93  1  0.406313  0.821112  0.179329  1
  O  O94  1  0.413839  0.179182  0.080958  1
  O  O95  1  0.408276  0.928584  0.312702  1
  O  O96  1  0.401794  0.632301  0.282544  1
  O  O97  1  0.393265  0.396020  0.987435  1
  O  O98  1  0.309465  0.445330  0.883299  1
  O  O99  1  0.289494  0.494675  0.630940  1
  O  O100  1  0.265824  0.246433  0.670884  1
  O  O101  1  0.258485  0.527202  0.371380  1
  O  O102  1  0.256025  0.760189  0.083502  1
  O  O103  1  0.261950  0.352758  0.781002  1
  O  O104  1  0.262289  0.086702  0.767795  1
  O  O105  1  0.250215  0.871131  0.465278  1
  O  O106  1  0.240701  0.597008  0.480245  1
  O  O107  1  0.259299  0.902992  0.980245  1
  O  O108  1  0.249785  0.628869  0.965278  1
  O  O109  1  0.237711  0.413298  0.267795  1
  O  O110  1  0.238050  0.147242  0.281002  1
  O  O111  1  0.243975  0.739811  0.583502  1
  O  O112  1  0.241515  0.972798  0.871380  1
  O  O113  1  0.234176  0.253567  0.170884  1
  O  O114  1  0.210507  0.005325  0.130940  1
  O  O115  1  0.190535  0.054670  0.383299  1
  O  O116  1  0.106735  0.103980  0.487435  1
  O  O117  1  0.098206  0.867699  0.782544  1
  O  O118  1  0.091724  0.571416  0.812702  1
  O  O119  1  0.086161  0.320818  0.580958  1
  O  O120  1  0.093687  0.678888  0.679329  1
  O  O121  1  0.072301  0.105990  0.947005  1
  O  O122  1  0.072559  0.923448  0.295906  1
  O  O123  1  0.068083  0.794415  0.176889  1
  O  O124  1  0.092723  0.373728  0.442864  1
  O  O125  1  0.079874  0.208343  0.072848  1
  O  O126  1  0.062062  0.625403  0.292426  1
  O  O127  1  0.065586  0.407043  0.959546  1
