# generated using pymatgen
data_Mn6O7F5
_symmetry_space_group_name_H-M   'P 1'
_cell_length_a   4.59940557
_cell_length_b   5.63985048
_cell_length_c   15.30761558
_cell_angle_alpha   90.01825204
_cell_angle_beta   89.97300907
_cell_angle_gamma   88.88203058
_symmetry_Int_Tables_number   1
_chemical_formula_structural   Mn6O7F5
_chemical_formula_sum   'Mn12 O14 F10'
_cell_volume   397.00327900
_cell_formula_units_Z   2
loop_
 _symmetry_equiv_pos_site_id
 _symmetry_equiv_pos_as_xyz
  1  'x, y, z'
loop_
 _atom_site_type_symbol
 _atom_site_label
 _atom_site_symmetry_multiplicity
 _atom_site_fract_x
 _atom_site_fract_y
 _atom_site_fract_z
 _atom_site_occupancy
  Mn  Mn0  1  0.021271  0.164308  0.415426  1
  Mn  Mn1  1  0.014934  0.818662  0.242960  1
  Mn  Mn2  1  0.998765  0.153238  0.078609  1
  Mn  Mn3  1  0.019951  0.167053  0.744394  1
  Mn  Mn4  1  0.992576  0.845960  0.576296  1
  Mn  Mn5  1  0.050446  0.854091  0.912363  1
  Mn  Mn6  1  0.491094  0.349899  0.586409  1
  Mn  Mn7  1  0.488065  0.351118  0.923203  1
  Mn  Mn8  1  0.520938  0.379072  0.257319  1
  Mn  Mn9  1  0.494905  0.652296  0.082361  1
  Mn  Mn10  1  0.493129  0.637203  0.423783  1
  Mn  Mn11  1  0.495745  0.634570  0.754918  1
  O  O12  1  0.209144  0.111004  0.634559  1
  O  O13  1  0.229765  0.111950  0.970466  1
  O  O14  1  0.213935  0.884493  0.133073  1
  O  O15  1  0.223237  0.885482  0.469992  1
  O  O16  1  0.238690  0.886977  0.804579  1
  O  O17  1  0.286293  0.604590  0.314018  1
  O  O18  1  0.274990  0.393985  0.477774  1
  O  O19  1  0.288463  0.392697  0.814398  1
  O  O20  1  0.277593  0.616536  0.974122  1
  O  O21  1  0.712951  0.376849  0.029750  1
  O  O22  1  0.717893  0.619460  0.191997  1
  O  O23  1  0.737580  0.393082  0.363729  1
  O  O24  1  0.714145  0.617506  0.529476  1
  O  O25  1  0.716721  0.379562  0.693610  1
  F  F26  1  0.248198  0.109123  0.298965  1
  F  F27  1  0.254386  0.380852  0.153667  1
  F  F28  1  0.235045  0.610944  0.644261  1
  F  F29  1  0.767207  0.619423  0.865685  1
  F  F30  1  0.758700  0.131490  0.195000  1
  F  F31  1  0.746560  0.112333  0.522561  1
  F  F32  1  0.765666  0.883147  0.359122  1
  F  F33  1  0.776278  0.879090  0.012852  1
  F  F34  1  0.775345  0.122979  0.857394  1
  F  F35  1  0.749397  0.868973  0.690905  1
