# generated using pymatgen
data_Li4Mn3Ni3(SnO8)2
_symmetry_space_group_name_H-M   'P 1'
_cell_length_a   5.92136931
_cell_length_b   5.81017741
_cell_length_c   9.65890285
_cell_angle_alpha   89.99625709
_cell_angle_beta   91.67972780
_cell_angle_gamma   119.38804284
_symmetry_Int_Tables_number   1
_chemical_formula_structural   Li4Mn3Ni3(SnO8)2
_chemical_formula_sum   'Li4 Mn3 Ni3 Sn2 O16'
_cell_volume   289.38084870
_cell_formula_units_Z   1
loop_
 _symmetry_equiv_pos_site_id
 _symmetry_equiv_pos_as_xyz
  1  'x, y, z'
loop_
 _atom_site_type_symbol
 _atom_site_label
 _atom_site_symmetry_multiplicity
 _atom_site_fract_x
 _atom_site_fract_y
 _atom_site_fract_z
 _atom_site_occupancy
  Li  Li0  1  0.323548  0.661757  0.890642  1
  Li  Li1  1  0.994725  0.997365  0.993116  1
  Li  Li2  1  0.004891  0.002595  0.495656  1
  Li  Li3  1  0.663351  0.331819  0.391203  1
  Mn  Mn4  1  0.170398  0.831758  0.215158  1
  Mn  Mn5  1  0.170340  0.338628  0.215156  1
  Mn  Mn6  1  0.339924  0.169957  0.716676  1
  Ni  Ni7  1  0.661065  0.830531  0.215173  1
  Ni  Ni8  1  0.831119  0.662429  0.714263  1
  Ni  Ni9  1  0.831090  0.168651  0.714282  1
  Sn  Sn10  1  0.343915  0.672012  0.493196  1
  Sn  Sn11  1  0.670089  0.335021  0.990286  1
  O  O12  1  0.176164  0.850563  0.600552  1
  O  O13  1  0.032876  0.516363  0.330828  1
  O  O14  1  0.310078  0.655009  0.109518  1
  O  O15  1  0.019323  0.009715  0.309009  1
  O  O16  1  0.005031  0.002387  0.804886  1
  O  O17  1  0.176220  0.325796  0.600676  1
  O  O18  1  0.469517  0.965886  0.338407  1
  O  O19  1  0.469437  0.503676  0.338392  1
  O  O20  1  0.318287  0.159092  0.105393  1
  O  O21  1  0.696608  0.848260  0.600101  1
  O  O22  1  0.499585  0.471986  0.839396  1
  O  O23  1  0.499620  0.027565  0.839283  1
  O  O24  1  0.662570  0.331395  0.615783  1
  O  O25  1  0.850691  0.683593  0.099229  1
  O  O26  1  0.958959  0.479512  0.832428  1
  O  O27  1  0.850583  0.166978  0.099149  1
