# generated using pymatgen
data_Mn6O5F7
_symmetry_space_group_name_H-M   'P 1'
_cell_length_a   5.57796352
_cell_length_b   5.06168752
_cell_length_c   15.14886138
_cell_angle_alpha   96.50024611
_cell_angle_beta   85.04058505
_cell_angle_gamma   94.54955196
_symmetry_Int_Tables_number   1
_chemical_formula_structural   Mn6O5F7
_chemical_formula_sum   'Mn12 O10 F14'
_cell_volume   422.32509088
_cell_formula_units_Z   2
loop_
 _symmetry_equiv_pos_site_id
 _symmetry_equiv_pos_as_xyz
  1  'x, y, z'
loop_
 _atom_site_type_symbol
 _atom_site_label
 _atom_site_symmetry_multiplicity
 _atom_site_fract_x
 _atom_site_fract_y
 _atom_site_fract_z
 _atom_site_occupancy
  Mn  Mn0  1  0.095993  0.003269  0.013359  1
  Mn  Mn1  1  0.930490  0.506714  0.165846  1
  Mn  Mn2  1  0.089483  0.948636  0.337469  1
  Mn  Mn3  1  0.923618  0.498521  0.501076  1
  Mn  Mn4  1  0.134310  0.982061  0.672144  1
  Mn  Mn5  1  0.918870  0.494332  0.831722  1
  Mn  Mn6  1  0.432798  0.014840  0.160482  1
  Mn  Mn7  1  0.452593  0.512086  0.000607  1
  Mn  Mn8  1  0.447964  0.516808  0.662410  1
  Mn  Mn9  1  0.465001  0.002879  0.495526  1
  Mn  Mn10  1  0.437406  0.524114  0.322317  1
  Mn  Mn11  1  0.452310  0.025778  0.824896  1
  O  O12  1  0.205675  0.741563  0.084021  1
  O  O13  1  0.209111  0.724891  0.420845  1
  O  O14  1  0.200847  0.738641  0.756102  1
  O  O15  1  0.321297  0.236825  0.075226  1
  O  O16  1  0.312998  0.780391  0.253383  1
  O  O17  1  0.368946  0.804861  0.596322  1
  O  O18  1  0.360578  0.219263  0.730983  1
  O  O19  1  0.621812  0.313660  0.895339  1
  O  O20  1  0.619591  0.315813  0.564402  1
  O  O21  1  0.602305  0.306570  0.227787  1
  F  F22  1  0.109555  0.255314  0.258715  1
  F  F23  1  0.134793  0.250504  0.582104  1
  F  F24  1  0.142087  0.262127  0.912341  1
  F  F25  1  0.405564  0.812021  0.926290  1
  F  F26  1  0.387468  0.219320  0.398698  1
  F  F27  1  0.675908  0.727667  0.096893  1
  F  F28  1  0.675918  0.679158  0.431721  1
  F  F29  1  0.670532  0.693261  0.765738  1
  F  F30  1  0.877854  0.152301  0.419789  1
  F  F31  1  0.830721  0.228936  0.064753  1
  F  F32  1  0.882170  0.170933  0.740639  1
  F  F33  1  0.889532  0.778202  0.607144  1
  F  F34  1  0.899918  0.774611  0.935632  1
  F  F35  1  0.813984  0.783130  0.267278  1
