# generated using pymatgen
data_Li6V3P8O29
_symmetry_space_group_name_H-M   'P 1'
_cell_length_a   9.81379821
_cell_length_b   9.81225273
_cell_length_c   13.90177265
_cell_angle_alpha   90.27059863
_cell_angle_beta   90.17104637
_cell_angle_gamma   60.16646009
_symmetry_Int_Tables_number   1
_chemical_formula_structural   Li6V3P8O29
_chemical_formula_sum   'Li12 V6 P16 O58'
_cell_volume   1161.25535856
_cell_formula_units_Z   2
loop_
 _symmetry_equiv_pos_site_id
 _symmetry_equiv_pos_as_xyz
  1  'x, y, z'
loop_
 _atom_site_type_symbol
 _atom_site_label
 _atom_site_symmetry_multiplicity
 _atom_site_fract_x
 _atom_site_fract_y
 _atom_site_fract_z
 _atom_site_occupancy
  Li  Li0  1  0.915179  0.774327  0.061344  1
  Li  Li1  1  0.905497  0.330572  0.557822  1
  Li  Li2  1  0.663930  0.669877  0.885364  1
  Li  Li3  1  0.772625  0.317933  0.063458  1
  Li  Li4  1  0.318174  0.908049  0.062299  1
  Li  Li5  1  0.669303  0.232023  0.436031  1
  Li  Li6  1  0.333849  0.765977  0.558794  1
  Li  Li7  1  0.681691  0.090221  0.940809  1
  Li  Li8  1  0.334781  0.327673  0.613918  1
  Li  Li9  1  0.094280  0.671638  0.437201  1
  Li  Li10  1  0.093662  0.224021  0.943129  1
  Li  Li11  1  0.999656  0.000116  0.495072  1
  V  V12  1  0.564276  0.433857  0.247914  1
  V  V13  1  0.430835  0.567334  0.754932  1
  V  V14  1  0.568042  0.996135  0.744673  1
  V  V15  1  0.430616  0.002936  0.255590  1
  V  V16  1  0.999447  0.568145  0.249864  1
  V  V17  1  0.000173  0.436677  0.749861  1
  P  P18  1  0.910532  0.772119  0.843111  1
  P  P19  1  0.775128  0.915134  0.342435  1
  P  P20  1  0.909675  0.316432  0.342882  1
  P  P21  1  0.665995  0.667608  0.127377  1
  P  P22  1  0.665652  0.663772  0.627268  1
  P  P23  1  0.770416  0.320419  0.843288  1
  P  P24  1  0.682641  0.228494  0.657114  1
  P  P25  1  0.319805  0.911844  0.844435  1
  P  P26  1  0.679656  0.085178  0.157270  1
  P  P27  1  0.316445  0.771113  0.342452  1
  P  P28  1  0.229888  0.684456  0.157473  1
  P  P29  1  0.332824  0.335210  0.373615  1
  P  P30  1  0.334936  0.329687  0.872130  1
  P  P31  1  0.090066  0.685553  0.656251  1
  P  P32  1  0.223169  0.087158  0.656932  1
  P  P33  1  0.087667  0.230818  0.160259  1
  O  O34  1  0.009035  0.766650  0.565204  1
  O  O35  1  0.919589  0.745269  0.339189  1
  O  O36  1  0.754639  0.997844  0.065549  1
  O  O37  1  0.746148  0.921187  0.840093  1
  O  O38  1  0.887299  0.626841  0.825037  1
  O  O39  1  0.815527  0.672520  0.165009  1
  O  O40  1  0.905468  0.472404  0.328290  1
  O  O41  1  0.996731  0.246525  0.069253  1
  O  O42  1  0.920889  0.332769  0.845049  1
  O  O43  1  0.662871  0.812997  0.672516  1
  O  O44  1  0.623427  0.909790  0.331774  1
  O  O45  1  0.818078  0.515303  0.669148  1
  O  O46  1  0.668361  0.664827  0.018580  1
  O  O47  1  0.666443  0.660091  0.520475  1
  O  O48  1  0.673619  0.512126  0.164466  1
  O  O49  1  0.485430  0.892096  0.828083  1
  O  O50  1  0.514920  0.814109  0.165864  1
  O  O51  1  0.740860  0.339029  0.335373  1
  O  O52  1  0.788208  0.214087  0.750649  1
  O  O53  1  0.770983  0.231440  0.568722  1
  O  O54  1  0.751622  0.244587  0.932302  1
  O  O55  1  0.628170  0.487620  0.826921  1
  O  O56  1  0.517300  0.663536  0.669789  1
  O  O57  1  0.661557  0.251024  0.157246  1
  O  O58  1  0.472254  0.619236  0.329821  1
  O  O59  1  0.341378  0.914166  0.335628  1
  O  O60  1  0.796090  0.994181  0.244791  1
  O  O61  1  0.789719  0.005314  0.425699  1
  O  O62  1  0.220642  0.990017  0.574421  1
  O  O63  1  0.660221  0.085811  0.659184  1
  O  O64  1  0.520493  0.378858  0.668639  1
  O  O65  1  0.337912  0.747802  0.841182  1
  O  O66  1  0.487847  0.325675  0.334867  1
  O  O67  1  0.380675  0.523710  0.176672  1
  O  O68  1  0.242362  0.767105  0.071911  1
  O  O69  1  0.227958  0.777336  0.433284  1
  O  O70  1  0.203590  0.789183  0.253800  1
  O  O71  1  0.256314  0.666049  0.660172  1
  O  O72  1  0.479773  0.180068  0.827440  1
  O  O73  1  0.522001  0.093524  0.177810  1
  O  O74  1  0.340405  0.473893  0.826396  1
  O  O75  1  0.335312  0.326209  0.978769  1
  O  O76  1  0.336712  0.337162  0.482197  1
  O  O77  1  0.186808  0.491092  0.337286  1
  O  O78  1  0.372383  0.104038  0.666776  1
  O  O79  1  0.323773  0.193933  0.330349  1
  O  O80  1  0.084443  0.662588  0.157880  1
  O  O81  1  0.000006  0.787545  0.749842  1
  O  O82  1  0.996886  0.757155  0.934028  1
  O  O83  1  0.106689  0.519461  0.669678  1
  O  O84  1  0.180763  0.336702  0.829251  1
  O  O85  1  0.096782  0.381789  0.179123  1
  O  O86  1  0.252003  0.084724  0.159154  1
  O  O87  1  0.244525  0.003403  0.934626  1
  O  O88  1  0.208462  0.008684  0.755617  1
  O  O89  1  0.078432  0.254395  0.656336  1
  O  O90  1  0.984330  0.229119  0.433865  1
  O  O91  1  0.999476  0.206708  0.250448  1
