# generated using pymatgen
data_LiNbSn3(PO4)6
_symmetry_space_group_name_H-M   'P 1'
_cell_length_a   8.99997527
_cell_length_b   8.99997514
_cell_length_c   8.99997575
_cell_angle_alpha   58.33432932
_cell_angle_beta   58.33432367
_cell_angle_gamma   58.33432627
_symmetry_Int_Tables_number   1
_chemical_formula_structural   LiNbSn3(PO4)6
_chemical_formula_sum   'Li1 Nb1 Sn3 P6 O24'
_cell_volume   495.81689075
_cell_formula_units_Z   1
loop_
 _symmetry_equiv_pos_site_id
 _symmetry_equiv_pos_as_xyz
  1  'x, y, z'
loop_
 _atom_site_type_symbol
 _atom_site_label
 _atom_site_symmetry_multiplicity
 _atom_site_fract_x
 _atom_site_fract_y
 _atom_site_fract_z
 _atom_site_occupancy
  Li  Li0  1  0.006712  0.006712  0.006712  1
  Nb  Nb1  1  0.855689  0.855689  0.855689  1
  Sn  Sn2  1  0.146194  0.146194  0.146194  1
  Sn  Sn3  1  0.358533  0.358533  0.358533  1
  Sn  Sn4  1  0.643145  0.643145  0.643145  1
  P  P5  1  0.037914  0.752239  0.454614  1
  P  P6  1  0.454614  0.037914  0.752239  1
  P  P7  1  0.752239  0.454614  0.037914  1
  P  P8  1  0.251628  0.540050  0.962106  1
  P  P9  1  0.540050  0.962106  0.251628  1
  P  P10  1  0.962106  0.251628  0.540050  1
  O  O11  1  0.132191  0.272104  0.518054  1
  O  O12  1  0.272104  0.518054  0.132191  1
  O  O13  1  0.061316  0.920747  0.271103  1
  O  O14  1  0.518054  0.132191  0.272104  1
  O  O15  1  0.215686  0.581925  0.445173  1
  O  O16  1  0.995163  0.798891  0.621226  1
  O  O17  1  0.271103  0.061316  0.920747  1
  O  O18  1  0.445173  0.215686  0.581925  1
  O  O19  1  0.581925  0.445173  0.215686  1
  O  O20  1  0.213897  0.378605  0.988211  1
  O  O21  1  0.078764  0.722893  0.933519  1
  O  O22  1  0.378605  0.988211  0.213897  1
  O  O23  1  0.621226  0.995163  0.798891  1
  O  O24  1  0.920747  0.271103  0.061316  1
  O  O25  1  0.798891  0.621226  0.995163  1
  O  O26  1  0.417046  0.565172  0.783685  1
  O  O27  1  0.565172  0.783685  0.417046  1
  O  O28  1  0.722893  0.933519  0.078764  1
  O  O29  1  0.988211  0.213897  0.378605  1
  O  O30  1  0.783685  0.417046  0.565172  1
  O  O31  1  0.481943  0.872184  0.721680  1
  O  O32  1  0.933519  0.078764  0.722893  1
  O  O33  1  0.721680  0.481943  0.872184  1
  O  O34  1  0.872184  0.721680  0.481943  1
