# generated using pymatgen
data_LiMnF3
_symmetry_space_group_name_H-M   'P 1'
_cell_length_a   3.06171122
_cell_length_b   5.17689795
_cell_length_c   7.71820248
_cell_angle_alpha   90.00000000
_cell_angle_beta   90.00000000
_cell_angle_gamma   107.20006617
_symmetry_Int_Tables_number   1
_chemical_formula_structural   LiMnF3
_chemical_formula_sum   'Li2 Mn2 F6'
_cell_volume   116.86374060
_cell_formula_units_Z   2
loop_
 _symmetry_equiv_pos_site_id
 _symmetry_equiv_pos_as_xyz
  1  'x, y, z'
loop_
 _atom_site_type_symbol
 _atom_site_label
 _atom_site_symmetry_multiplicity
 _atom_site_fract_x
 _atom_site_fract_y
 _atom_site_fract_z
 _atom_site_occupancy
  Li  Li0  1  0.261472  0.522944  0.250000  1
  Li  Li1  1  0.738528  0.477056  0.750000  1
  Mn  Mn2  1  0.000000  0.000000  0.000000  1
  Mn  Mn3  1  0.000000  0.000000  0.500000  1
  F  F4  1  0.105930  0.211859  0.750000  1
  F  F5  1  0.364472  0.728944  0.576185  1
  F  F6  1  0.364472  0.728944  0.923815  1
  F  F7  1  0.635528  0.271056  0.423815  1
  F  F8  1  0.635528  0.271056  0.076185  1
  F  F9  1  0.894070  0.788141  0.250000  1
