# generated using pymatgen
data_Li3V3P8O29
_symmetry_space_group_name_H-M   'P 1'
_cell_length_a   9.78453460
_cell_length_b   9.73619722
_cell_length_c   14.27289969
_cell_angle_alpha   89.83022615
_cell_angle_beta   90.15148069
_cell_angle_gamma   60.03657057
_symmetry_Int_Tables_number   1
_chemical_formula_structural   Li3V3P8O29
_chemical_formula_sum   'Li6 V6 P16 O58'
_cell_volume   1177.94626137
_cell_formula_units_Z   2
loop_
 _symmetry_equiv_pos_site_id
 _symmetry_equiv_pos_as_xyz
  1  'x, y, z'
loop_
 _atom_site_type_symbol
 _atom_site_label
 _atom_site_symmetry_multiplicity
 _atom_site_fract_x
 _atom_site_fract_y
 _atom_site_fract_z
 _atom_site_occupancy
  Li  Li0  1  0.917240  0.776915  0.055259  1
  Li  Li1  1  0.773524  0.310905  0.058489  1
  Li  Li2  1  0.317562  0.907775  0.056593  1
  Li  Li3  1  0.324673  0.768109  0.559316  1
  Li  Li4  1  0.089931  0.226401  0.937042  1
  Li  Li5  1  0.945709  0.037243  0.504457  1
  V  V6  1  0.564286  0.433238  0.253054  1
  V  V7  1  0.434662  0.563286  0.752862  1
  V  V8  1  0.570109  0.997278  0.746395  1
  V  V9  1  0.437891  0.002416  0.255174  1
  V  V10  1  0.001274  0.563531  0.256870  1
  V  V11  1  0.994492  0.439843  0.738006  1
  P  P12  1  0.912281  0.769301  0.840378  1
  P  P13  1  0.778428  0.918305  0.343743  1
  P  P14  1  0.917260  0.301460  0.340341  1
  P  P15  1  0.668201  0.665611  0.133949  1
  P  P16  1  0.658984  0.670446  0.629051  1
  P  P17  1  0.774366  0.317935  0.841927  1
  P  P18  1  0.693237  0.223808  0.661322  1
  P  P19  1  0.320652  0.911133  0.842136  1
  P  P20  1  0.686092  0.086053  0.159321  1
  P  P21  1  0.314995  0.772665  0.342856  1
  P  P22  1  0.225761  0.686076  0.162736  1
  P  P23  1  0.334215  0.333856  0.369238  1
  P  P24  1  0.330132  0.328308  0.865109  1
  P  P25  1  0.085301  0.698291  0.659405  1
  P  P26  1  0.224507  0.082577  0.660722  1
  P  P27  1  0.090245  0.229576  0.158237  1
  O  O28  1  0.004810  0.798392  0.577225  1
  O  O29  1  0.912102  0.742582  0.330555  1
  O  O30  1  0.770140  0.993205  0.075609  1
  O  O31  1  0.743978  0.914432  0.828847  1
  O  O32  1  0.904516  0.617700  0.815158  1
  O  O33  1  0.819236  0.660326  0.177221  1
  O  O34  1  0.920389  0.460825  0.329708  1
  O  O35  1  0.004818  0.241486  0.068195  1
  O  O36  1  0.920761  0.339736  0.833210  1
  O  O37  1  0.667769  0.812164  0.675233  1
  O  O38  1  0.617927  0.919668  0.330156  1
  O  O39  1  0.809624  0.516936  0.671269  1
  O  O40  1  0.668020  0.666921  0.029691  1
  O  O41  1  0.655164  0.673217  0.525274  1
  O  O42  1  0.665617  0.515303  0.173393  1
  O  O43  1  0.479300  0.902794  0.823322  1
  O  O44  1  0.521587  0.816766  0.176323  1
  O  O45  1  0.741935  0.343494  0.328576  1
  O  O46  1  0.791156  0.202503  0.757571  1
  O  O47  1  0.790593  0.206995  0.578993  1
  O  O48  1  0.767609  0.251509  0.934197  1
  O  O49  1  0.621103  0.479204  0.820684  1
  O  O50  1  0.508717  0.674236  0.671247  1
  O  O51  1  0.659405  0.257471  0.159980  1
  O  O52  1  0.474555  0.616660  0.324352  1
  O  O53  1  0.344149  0.914250  0.327779  1
  O  O54  1  0.792155  0.006336  0.251957  1
  O  O55  1  0.795948  0.992794  0.429086  1
  O  O56  1  0.207815  0.992966  0.581854  1
  O  O57  1  0.652000  0.088788  0.668006  1
  O  O58  1  0.537271  0.384535  0.672763  1
  O  O59  1  0.343150  0.742218  0.833773  1
  O  O60  1  0.483000  0.330641  0.323546  1
  O  O61  1  0.380197  0.525324  0.178971  1
  O  O62  1  0.232333  0.776143  0.080697  1
  O  O63  1  0.245407  0.775631  0.435106  1
  O  O64  1  0.200376  0.786669  0.258762  1
  O  O65  1  0.261995  0.655741  0.664587  1
  O  O66  1  0.473612  0.181066  0.818847  1
  O  O67  1  0.525687  0.093876  0.178860  1
  O  O68  1  0.340980  0.473884  0.820737  1
  O  O69  1  0.331752  0.326924  0.968953  1
  O  O70  1  0.334718  0.334229  0.472537  1
  O  O71  1  0.187140  0.484095  0.324425  1
  O  O72  1  0.384044  0.078099  0.668907  1
  O  O73  1  0.330544  0.187512  0.323528  1
  O  O74  1  0.081298  0.660581  0.162388  1
  O  O75  1  0.013262  0.788162  0.757513  1
  O  O76  1  0.986051  0.758952  0.932504  1
  O  O77  1  0.082136  0.538160  0.668464  1
  O  O78  1  0.177672  0.337107  0.823541  1
  O  O79  1  0.096615  0.381780  0.179792  1
  O  O80  1  0.258471  0.082728  0.160673  1
  O  O81  1  0.245939  0.993320  0.932353  1
  O  O82  1  0.201134  0.011947  0.759097  1
  O  O83  1  0.088507  0.258717  0.664131  1
  O  O84  1  0.993851  0.203294  0.423712  1
  O  O85  1  0.996679  0.206675  0.243857  1
