# generated using pymatgen
data_Ce(IO3)2
_symmetry_space_group_name_H-M   'P 1'
_cell_length_a   7.27331777
_cell_length_b   11.50103369
_cell_length_c   7.13053193
_cell_angle_alpha   90.00000000
_cell_angle_beta   103.15917719
_cell_angle_gamma   90.00000000
_symmetry_Int_Tables_number   1
_chemical_formula_structural   Ce(IO3)2
_chemical_formula_sum   'Ce4 I8 O24'
_cell_volume   580.81119818
_cell_formula_units_Z   4
loop_
 _symmetry_equiv_pos_site_id
 _symmetry_equiv_pos_as_xyz
  1  'x, y, z'
loop_
 _atom_site_type_symbol
 _atom_site_label
 _atom_site_symmetry_multiplicity
 _atom_site_fract_x
 _atom_site_fract_y
 _atom_site_fract_z
 _atom_site_occupancy
  Ce  Ce0  1  0.282623  0.564457  0.500099  1
  Ce  Ce1  1  0.217377  0.064457  0.999901  1
  Ce  Ce2  1  0.782623  0.935543  0.000099  1
  Ce  Ce3  1  0.717377  0.435543  0.499901  1
  I  I4  1  0.181093  0.396320  0.962600  1
  I  I5  1  0.318907  0.896320  0.537400  1
  I  I6  1  0.175902  0.246547  0.453292  1
  I  I7  1  0.324098  0.746547  0.046708  1
  I  I8  1  0.675902  0.253453  0.953292  1
  I  I9  1  0.824098  0.753453  0.546708  1
  I  I10  1  0.681093  0.103680  0.462600  1
  I  I11  1  0.818907  0.603680  0.037400  1
  O  O12  1  0.057241  0.393849  0.456718  1
  O  O13  1  0.220838  0.002499  0.679898  1
  O  O14  1  0.075455  0.582680  0.146345  1
  O  O15  1  0.286471  0.761215  0.670942  1
  O  O16  1  0.213529  0.261215  0.829058  1
  O  O17  1  0.083187  0.950733  0.153607  1
  O  O18  1  0.279162  0.502499  0.820102  1
  O  O19  1  0.131524  0.231720  0.177327  1
  O  O20  1  0.368476  0.731720  0.322673  1
  O  O21  1  0.557241  0.106151  0.956718  1
  O  O22  1  0.416813  0.450733  0.346393  1
  O  O23  1  0.575455  0.917320  0.646345  1
  O  O24  1  0.424545  0.082680  0.353655  1
  O  O25  1  0.583187  0.549267  0.653607  1
  O  O26  1  0.442759  0.893849  0.043282  1
  O  O27  1  0.631524  0.268280  0.677327  1
  O  O28  1  0.868476  0.768280  0.822673  1
  O  O29  1  0.720838  0.497501  0.179898  1
  O  O30  1  0.916813  0.049267  0.846393  1
  O  O31  1  0.786471  0.738785  0.170942  1
  O  O32  1  0.713529  0.238785  0.329058  1
  O  O33  1  0.924545  0.417320  0.853655  1
  O  O34  1  0.779162  0.997501  0.320102  1
  O  O35  1  0.942759  0.606151  0.543282  1
