# generated using pymatgen
data_CoOF
_symmetry_space_group_name_H-M   'P 1'
_cell_length_a   4.50485737
_cell_length_b   4.47807977
_cell_length_c   9.14107003
_cell_angle_alpha   90.00000000
_cell_angle_beta   89.80083250
_cell_angle_gamma   90.00000000
_symmetry_Int_Tables_number   1
_chemical_formula_structural   CoOF
_chemical_formula_sum   'Co6 O6 F6'
_cell_volume   184.40270304
_cell_formula_units_Z   6
loop_
 _symmetry_equiv_pos_site_id
 _symmetry_equiv_pos_as_xyz
  1  'x, y, z'
loop_
 _atom_site_type_symbol
 _atom_site_label
 _atom_site_symmetry_multiplicity
 _atom_site_fract_x
 _atom_site_fract_y
 _atom_site_fract_z
 _atom_site_occupancy
  Co  Co0  1  0.971456  0.962538  -0.000032  1
  Co  Co1  1  0.030491  0.016795  0.333554  1
  Co  Co2  1  0.030434  0.018315  0.666775  1
  Co  Co3  1  0.528544  0.462538  0.166698  1
  Co  Co4  1  0.469509  0.516795  0.833113  1
  Co  Co5  1  0.469566  0.518315  0.499891  1
  O  O6  1  0.176657  0.807675  0.832948  1
  O  O7  1  0.201829  0.826722  0.500922  1
  O  O8  1  0.323343  0.307675  0.333718  1
  O  O9  1  0.298171  0.326722  0.665744  1
  O  O10  1  0.681977  0.668865  -0.000131  1
  O  O11  1  0.818023  0.168865  0.166798  1
  F  F12  1  0.220970  0.768714  0.167955  1
  F  F13  1  0.279030  0.268714  0.998712  1
  F  F14  1  0.696650  0.723058  0.661442  1
  F  F15  1  0.718746  0.707317  0.340044  1
  F  F16  1  0.781254  0.207317  0.826622  1
  F  F17  1  0.803350  0.223058  0.505225  1
