# generated using pymatgen
data_LiCu(PO3)2
_symmetry_space_group_name_H-M   'P 1'
_cell_length_a   7.44104798
_cell_length_b   12.39468349
_cell_length_c   5.55621599
_cell_angle_alpha   90.00000000
_cell_angle_beta   95.37880175
_cell_angle_gamma   90.00000000
_symmetry_Int_Tables_number   1
_chemical_formula_structural   LiCu(PO3)2
_chemical_formula_sum   'Li4 Cu4 P8 O24'
_cell_volume   510.19021029
_cell_formula_units_Z   4
loop_
 _symmetry_equiv_pos_site_id
 _symmetry_equiv_pos_as_xyz
  1  'x, y, z'
loop_
 _atom_site_type_symbol
 _atom_site_label
 _atom_site_symmetry_multiplicity
 _atom_site_fract_x
 _atom_site_fract_y
 _atom_site_fract_z
 _atom_site_occupancy
  Li  Li0  1  0.167802  0.623497  0.388568  1
  Li  Li1  1  0.332198  0.123497  0.611432  1
  Li  Li2  1  0.667802  0.876503  0.388568  1
  Li  Li3  1  0.832198  0.376503  0.611432  1
  Cu  Cu4  1  0.219675  0.469131  0.826247  1
  Cu  Cu5  1  0.280325  0.969131  0.173753  1
  Cu  Cu6  1  0.719675  0.030869  0.826247  1
  Cu  Cu7  1  0.780325  0.530869  0.173753  1
  P  P8  1  0.022418  0.165212  0.162586  1
  P  P9  1  0.161199  0.377463  0.319808  1
  P  P10  1  0.338801  0.877463  0.680192  1
  P  P11  1  0.477582  0.665212  0.837414  1
  P  P12  1  0.522418  0.334788  0.162586  1
  P  P13  1  0.661199  0.122537  0.319808  1
  P  P14  1  0.838801  0.622537  0.680192  1
  P  P15  1  0.977582  0.834788  0.837414  1
  O  O16  1  0.056912  0.294324  0.130642  1
  O  O17  1  0.088981  0.364461  0.562850  1
  O  O18  1  0.044752  0.875504  0.081365  1
  O  O19  1  0.134085  0.833511  0.650783  1
  O  O20  1  0.153425  0.487567  0.201520  1
  O  O21  1  0.187284  0.116141  0.301492  1
  O  O22  1  0.312716  0.616141  0.698508  1
  O  O23  1  0.346575  0.987567  0.798480  1
  O  O24  1  0.365915  0.333511  0.349217  1
  O  O25  1  0.455248  0.375504  0.918635  1
  O  O26  1  0.411019  0.864461  0.437150  1
  O  O27  1  0.443088  0.794324  0.869358  1
  O  O28  1  0.556912  0.205676  0.130642  1
  O  O29  1  0.588982  0.135539  0.562850  1
  O  O30  1  0.544752  0.624496  0.081365  1
  O  O31  1  0.634085  0.666489  0.650783  1
  O  O32  1  0.653425  0.012433  0.201520  1
  O  O33  1  0.687284  0.383859  0.301492  1
  O  O34  1  0.812716  0.883859  0.698508  1
  O  O35  1  0.846575  0.512433  0.798480  1
  O  O36  1  0.865915  0.166489  0.349217  1
  O  O37  1  0.955248  0.124496  0.918635  1
  O  O38  1  0.911018  0.635539  0.437150  1
  O  O39  1  0.943088  0.705676  0.869358  1
