# generated using pymatgen
data_Li5V3P8O29
_symmetry_space_group_name_H-M   'P 1'
_cell_length_a   9.79707921
_cell_length_b   9.79918323
_cell_length_c   13.96784553
_cell_angle_alpha   90.05681317
_cell_angle_beta   89.95333716
_cell_angle_gamma   59.94625980
_symmetry_Int_Tables_number   1
_chemical_formula_structural   Li5V3P8O29
_chemical_formula_sum   'Li10 V6 P16 O58'
_cell_volume   1160.67440152
_cell_formula_units_Z   2
loop_
 _symmetry_equiv_pos_site_id
 _symmetry_equiv_pos_as_xyz
  1  'x, y, z'
loop_
 _atom_site_type_symbol
 _atom_site_label
 _atom_site_symmetry_multiplicity
 _atom_site_fract_x
 _atom_site_fract_y
 _atom_site_fract_z
 _atom_site_occupancy
  Li  Li0  1  0.094427  0.227480  0.939211  1
  Li  Li1  1  0.229962  0.087234  0.440535  1
  Li  Li2  1  0.097773  0.678102  0.442183  1
  Li  Li3  1  0.223383  0.679326  0.942562  1
  Li  Li4  1  0.683537  0.087294  0.940421  1
  Li  Li5  1  0.320088  0.904880  0.060102  1
  Li  Li6  1  0.677845  0.227107  0.439379  1
  Li  Li7  1  0.769682  0.322408  0.061041  1
  Li  Li8  1  0.908501  0.321356  0.561045  1
  Li  Li9  1  0.775227  0.904884  0.560027  1
  V  V10  1  0.997900  0.571959  0.245490  1
  V  V11  1  0.432597  0.998821  0.249016  1
  V  V12  1  0.429952  0.572127  0.745472  1
  V  V13  1  0.566553  0.431691  0.253588  1
  V  V14  1  0.568500  0.998682  0.749187  1
  V  V15  1  0.001829  0.431815  0.753354  1
  P  P16  1  0.086538  0.232581  0.157922  1
  P  P17  1  0.231771  0.088290  0.657590  1
  P  P18  1  0.087306  0.678913  0.657857  1
  P  P19  1  0.328598  0.334351  0.372304  1
  P  P20  1  0.336952  0.334789  0.872367  1
  P  P21  1  0.233774  0.679050  0.158022  1
  P  P22  1  0.317010  0.769071  0.342064  1
  P  P23  1  0.679952  0.088488  0.157613  1
  P  P24  1  0.320087  0.910892  0.840854  1
  P  P25  1  0.680971  0.232204  0.658048  1
  P  P26  1  0.765493  0.320948  0.842500  1
  P  P27  1  0.667278  0.662886  0.127257  1
  P  P28  1  0.669695  0.662956  0.627080  1
  P  P29  1  0.913640  0.321046  0.342616  1
  P  P30  1  0.768845  0.910956  0.340926  1
  P  P31  1  0.913724  0.769047  0.841780  1
  O  O32  1  0.003857  0.243643  0.432323  1
  O  O33  1  0.082742  0.255548  0.663269  1
  O  O34  1  0.210500  -0.000003  0.749462  1
  O  O35  1  0.238708  0.997742  0.931089  1
  O  O36  1  0.098068  0.382442  0.176258  1
  O  O37  1  0.251376  0.083478  0.156652  1
  O  O38  1  0.188908  0.326072  0.833904  1
  O  O39  1  0.101428  0.518509  0.675417  1
  O  O40  1  0.006974  0.760523  0.926671  1
  O  O41  1  0.084253  0.662078  0.165389  1
  O  O42  1  0.321950  0.188055  0.332421  1
  O  O43  1  0.181615  0.487624  0.328414  1
  O  O44  1  0.382583  0.098018  0.679063  1
  O  O45  1  0.324298  0.342397  0.479008  1
  O  O46  1  0.333113  0.344187  0.979013  1
  O  O47  1  0.519107  0.098477  0.178824  1
  O  O48  1  0.330091  0.487912  0.827865  1
  O  O49  1  0.490203  0.187503  0.833187  1
  O  O50  1  0.253725  0.662019  0.665638  1
  O  O51  1  0.214353  0.793460  0.245806  1
  O  O52  1  0.238855  0.758418  0.067478  1
  O  O53  1  0.232537  0.760304  0.426866  1
  O  O54  1  0.380464  0.518775  0.175345  1
  O  O55  1  0.485058  0.326174  0.333705  1
  O  O56  1  0.665041  0.083430  0.656925  1
  O  O57  1  0.334079  0.745376  0.838857  1
  O  O58  1  0.519650  0.382598  0.676267  1
  O  O59  1  0.240449  0.008102  0.566252  1
  O  O60  1  0.762470  0.998150  0.431163  1
  O  O61  1  0.479296  0.618054  0.323695  1
  O  O62  1  0.662017  0.255538  0.163679  1
  O  O63  1  0.789578  0.999859  0.249487  1
  O  O64  1  0.338028  0.916430  0.339747  1
  O  O65  1  0.518396  0.666526  0.675399  1
  O  O66  1  0.615610  0.479622  0.822883  1
  O  O67  1  0.753532  0.243639  0.932415  1
  O  O68  1  0.757017  0.246829  0.568119  1
  O  O69  1  0.789726  0.209713  0.750204  1
  O  O70  1  0.749193  0.335218  0.343450  1
  O  O71  1  0.513944  0.812345  0.166223  1
  O  O72  1  0.481031  0.896299  0.824384  1
  O  O73  1  0.675531  0.509930  0.167282  1
  O  O74  1  0.661271  0.662612  0.520926  1
  O  O75  1  0.675473  0.663242  0.021090  1
  O  O76  1  0.622286  0.896828  0.324318  1
  O  O77  1  0.814833  0.509875  0.667001  1
  O  O78  1  0.673917  0.812253  0.665788  1
  O  O79  1  0.915418  0.335724  0.842959  1
  O  O80  1  0.000479  0.210093  0.250149  1
  O  O81  1  0.995679  0.247685  0.068047  1
  O  O82  1  0.904110  0.479851  0.322805  1
  O  O83  1  0.815319  0.665751  0.175409  1
  O  O84  1  0.745370  0.916465  0.839635  1
  O  O85  1  0.902686  0.618167  0.823510  1
  O  O86  1  0.751723  0.008825  0.066247  1
  O  O87  1  0.920467  0.745353  0.339185  1
  O  O88  1  0.003540  0.758239  0.567309  1
  O  O89  1  0.991872  0.793466  0.745544  1
