# generated using pymatgen
data_H6PtN2ClO5
_symmetry_space_group_name_H-M   'P 1'
_cell_length_a   7.43565983
_cell_length_b   13.10220891
_cell_length_c   14.18420039
_cell_angle_alpha   90.00000000
_cell_angle_beta   90.00000000
_cell_angle_gamma   90.00000000
_symmetry_Int_Tables_number   1
_chemical_formula_structural   H6PtN2ClO5
_chemical_formula_sum   'H48 Pt8 N16 Cl8 O40'
_cell_volume   1381.87541798
_cell_formula_units_Z   8
loop_
 _symmetry_equiv_pos_site_id
 _symmetry_equiv_pos_as_xyz
  1  'x, y, z'
loop_
 _atom_site_type_symbol
 _atom_site_label
 _atom_site_symmetry_multiplicity
 _atom_site_fract_x
 _atom_site_fract_y
 _atom_site_fract_z
 _atom_site_occupancy
  H  H0  1  0.935914  0.837828  0.642469  1
  H  H1  1  0.564086  0.162172  0.142469  1
  H  H2  1  0.435914  0.662172  0.357531  1
  H  H3  1  0.064086  0.337828  0.857531  1
  H  H4  1  0.134153  0.896406  0.636926  1
  H  H5  1  0.365847  0.103594  0.136926  1
  H  H6  1  0.634153  0.603594  0.363074  1
  H  H7  1  0.865847  0.396406  0.863074  1
  H  H8  1  0.115885  0.786808  0.694880  1
  H  H9  1  0.384115  0.213192  0.194880  1
  H  H10  1  0.615885  0.713192  0.305120  1
  H  H11  1  0.884115  0.286808  0.805120  1
  H  H12  1  0.952002  0.888277  0.425327  1
  H  H13  1  0.547998  0.111723  0.925327  1
  H  H14  1  0.452002  0.611723  0.574673  1
  H  H15  1  0.047998  0.388277  0.074673  1
  H  H16  1  0.151443  0.872394  0.373715  1
  H  H17  1  0.348557  0.127606  0.873715  1
  H  H18  1  0.651443  0.627606  0.626285  1
  H  H19  1  0.848557  0.372394  0.126285  1
  H  H20  1  0.134382  0.940307  0.472508  1
  H  H21  1  0.365618  0.059693  0.972508  1
  H  H22  1  0.634382  0.559693  0.527492  1
  H  H23  1  0.865618  0.440307  0.027492  1
  H  H24  1  0.199238  0.355702  0.558500  1
  H  H25  1  0.300762  0.644298  0.058500  1
  H  H26  1  0.699238  0.144298  0.441500  1
  H  H27  1  0.800762  0.855702  0.941500  1
  H  H28  1  0.993245  0.345683  0.515576  1
  H  H29  1  0.506755  0.654317  0.015576  1
  H  H30  1  0.493245  0.154317  0.484424  1
  H  H31  1  0.006755  0.845683  0.984424  1
  H  H32  1  0.029212  0.412746  0.612924  1
  H  H33  1  0.470788  0.587254  0.112924  1
  H  H34  1  0.529212  0.087254  0.387076  1
  H  H35  1  0.970788  0.912746  0.887076  1
  H  H36  1  0.180848  0.386117  0.340860  1
  H  H37  1  0.319152  0.613883  0.840860  1
  H  H38  1  0.680848  0.113883  0.659140  1
  H  H39  1  0.819152  0.886117  0.159140  1
  H  H40  1  0.086304  0.488161  0.290102  1
  H  H41  1  0.413696  0.511839  0.790102  1
  H  H42  1  0.586304  0.011839  0.709898  1
  H  H43  1  0.913696  0.988161  0.209898  1
  H  H44  1  0.960306  0.405031  0.350891  1
  H  H45  1  0.539694  0.594969  0.850891  1
  H  H46  1  0.460306  0.094969  0.649109  1
  H  H47  1  0.039694  0.905031  0.149109  1
  Pt  Pt48  1  0.128348  0.744360  0.514504  1
  Pt  Pt49  1  0.371652  0.255640  0.014504  1
  Pt  Pt50  1  0.628348  0.755640  0.485496  1
  Pt  Pt51  1  0.871652  0.244360  0.985496  1
  Pt  Pt52  1  0.129497  0.524863  0.469682  1
  Pt  Pt53  1  0.370503  0.475137  0.969682  1
  Pt  Pt54  1  0.629497  0.975137  0.530318  1
  Pt  Pt55  1  0.870503  0.024863  0.030318  1
  N  N56  1  0.073068  0.825960  0.636371  1
  N  N57  1  0.426932  0.174040  0.136371  1
  N  N58  1  0.573068  0.674040  0.363629  1
  N  N59  1  0.926932  0.325960  0.863629  1
  N  N60  1  0.087591  0.876812  0.437959  1
  N  N61  1  0.412409  0.123188  0.937959  1
  N  N62  1  0.587591  0.623188  0.562041  1
  N  N63  1  0.912409  0.376812  0.062041  1
  N  N64  1  0.081138  0.394803  0.548014  1
  N  N65  1  0.418862  0.605197  0.048014  1
  N  N66  1  0.581138  0.105197  0.451986  1
  N  N67  1  0.918862  0.894803  0.951986  1
  N  N68  1  0.083350  0.441210  0.348555  1
  N  N69  1  0.416650  0.558790  0.848555  1
  N  N70  1  0.583350  0.058790  0.651445  1
  N  N71  1  0.916650  0.941210  0.151445  1
  Cl  Cl72  1  0.929776  0.612870  0.811503  1
  Cl  Cl73  1  0.570224  0.387130  0.311503  1
  Cl  Cl74  1  0.429776  0.887130  0.188497  1
  Cl  Cl75  1  0.070224  0.112870  0.688497  1
  Cl  Cl76  1  0.945933  0.648923  0.166488  1
  Cl  Cl77  1  0.554067  0.351077  0.666488  1
  Cl  Cl78  1  0.445933  0.851077  0.833512  1
  Cl  Cl79  1  0.054067  0.148923  0.333512  1
  O  O80  1  0.178341  0.614497  0.578038  1
  O  O81  1  0.321659  0.385503  0.078038  1
  O  O82  1  0.678341  0.885503  0.421962  1
  O  O83  1  0.821659  0.114497  0.921962  1
  O  O84  1  0.174657  0.654878  0.405248  1
  O  O85  1  0.325343  0.345122  0.905248  1
  O  O86  1  0.674657  0.845122  0.594752  1
  O  O87  1  0.825343  0.154878  0.094752  1
  O  O88  1  0.835451  0.558842  0.888614  1
  O  O89  1  0.664549  0.441158  0.388614  1
  O  O90  1  0.335451  0.941158  0.111386  1
  O  O91  1  0.164549  0.058842  0.611386  1
  O  O92  1  0.033984  0.539633  0.757015  1
  O  O93  1  0.466016  0.460367  0.257015  1
  O  O94  1  0.533984  0.960367  0.242985  1
  O  O95  1  0.966016  0.039633  0.742985  1
  O  O96  1  0.795657  0.663605  0.751866  1
  O  O97  1  0.704343  0.336395  0.251866  1
  O  O98  1  0.295657  0.836395  0.248134  1
  O  O99  1  0.204343  0.163605  0.748134  1
  O  O100  1  0.050181  0.689985  0.851246  1
  O  O101  1  0.449819  0.310015  0.351246  1
  O  O102  1  0.550181  0.810015  0.148754  1
  O  O103  1  0.949819  0.189985  0.648754  1
  O  O104  1  0.984326  0.714886  0.085688  1
  O  O105  1  0.515674  0.285114  0.585688  1
  O  O106  1  0.484326  0.785114  0.914312  1
  O  O107  1  0.015674  0.214886  0.414312  1
  O  O108  1  0.919664  0.710347  0.251041  1
  O  O109  1  0.580336  0.289653  0.751041  1
  O  O110  1  0.419664  0.789653  0.748959  1
  O  O111  1  0.080336  0.210347  0.248959  1
  O  O112  1  0.098961  0.578984  0.179251  1
  O  O113  1  0.401039  0.421016  0.679251  1
  O  O114  1  0.598961  0.921016  0.820749  1
  O  O115  1  0.901039  0.078984  0.320749  1
  O  O116  1  0.784156  0.588134  0.148406  1
  O  O117  1  0.715844  0.411866  0.648406  1
  O  O118  1  0.284156  0.911866  0.851594  1
  O  O119  1  0.215844  0.088134  0.351594  1
