# generated using pymatgen
data_MnSb3(PO4)6
_symmetry_space_group_name_H-M   'P 1'
_cell_length_a   8.89878393
_cell_length_b   8.89878394
_cell_length_c   8.89878396
_cell_angle_alpha   58.02455037
_cell_angle_beta   58.02454890
_cell_angle_gamma   58.02455028
_symmetry_Int_Tables_number   1
_chemical_formula_structural   MnSb3(PO4)6
_chemical_formula_sum   'Mn1 Sb3 P6 O24'
_cell_volume   475.70751767
_cell_formula_units_Z   1
loop_
 _symmetry_equiv_pos_site_id
 _symmetry_equiv_pos_as_xyz
  1  'x, y, z'
loop_
 _atom_site_type_symbol
 _atom_site_label
 _atom_site_symmetry_multiplicity
 _atom_site_fract_x
 _atom_site_fract_y
 _atom_site_fract_z
 _atom_site_occupancy
  Mn  Mn0  1  0.856759  0.856759  0.856759  1
  Sb  Sb1  1  0.143275  0.143275  0.143275  1
  Sb  Sb2  1  0.356495  0.356495  0.356495  1
  Sb  Sb3  1  0.643518  0.643518  0.643518  1
  P  P4  1  0.037158  0.751189  0.466090  1
  P  P5  1  0.466090  0.037158  0.751189  1
  P  P6  1  0.751189  0.466090  0.037158  1
  P  P7  1  0.246131  0.542309  0.961084  1
  P  P8  1  0.542309  0.961084  0.246131  1
  P  P9  1  0.961084  0.246131  0.542309  1
  O  O10  1  0.132947  0.277277  0.512356  1
  O  O11  1  0.277277  0.512356  0.132947  1
  O  O12  1  0.059571  0.924027  0.279576  1
  O  O13  1  0.512356  0.132947  0.277277  1
  O  O14  1  0.218677  0.576041  0.439080  1
  O  O15  1  0.012549  0.775674  0.632958  1
  O  O16  1  0.279576  0.059571  0.924027  1
  O  O17  1  0.439080  0.218677  0.576041  1
  O  O18  1  0.576041  0.439080  0.218677  1
  O  O19  1  0.228388  0.364030  0.986161  1
  O  O20  1  0.077096  0.716929  0.941061  1
  O  O21  1  0.364030  0.986161  0.228388  1
  O  O22  1  0.632958  0.012549  0.775674  1
  O  O23  1  0.924027  0.279576  0.059571  1
  O  O24  1  0.775674  0.632958  0.012549  1
  O  O25  1  0.427204  0.556013  0.782203  1
  O  O26  1  0.556013  0.782203  0.427204  1
  O  O27  1  0.716929  0.941061  0.077096  1
  O  O28  1  0.986161  0.228388  0.364030  1
  O  O29  1  0.782203  0.427204  0.556013  1
  O  O30  1  0.483928  0.867431  0.724814  1
  O  O31  1  0.941061  0.077096  0.716929  1
  O  O32  1  0.724814  0.483928  0.867431  1
  O  O33  1  0.867431  0.724814  0.483928  1
