# generated using pymatgen
data_HgH16C6(N2Cl)2
_symmetry_space_group_name_H-M   'P 1'
_cell_length_a   16.46996214
_cell_length_b   6.44856937
_cell_length_c   6.44856937
_cell_angle_alpha   93.59445862
_cell_angle_beta   93.24486029
_cell_angle_gamma   93.24486029
_symmetry_Int_Tables_number   1
_chemical_formula_structural   HgH16C6(N2Cl)2
_chemical_formula_sum   'Hg2 H32 C12 N8 Cl4'
_cell_volume   681.19986179
_cell_formula_units_Z   2
loop_
 _symmetry_equiv_pos_site_id
 _symmetry_equiv_pos_as_xyz
  1  'x, y, z'
loop_
 _atom_site_type_symbol
 _atom_site_label
 _atom_site_symmetry_multiplicity
 _atom_site_fract_x
 _atom_site_fract_y
 _atom_site_fract_z
 _atom_site_occupancy
  Hg  Hg0  1  0.250000  0.190867  0.809133  1
  Hg  Hg1  1  0.750000  0.809133  0.190867  1
  H  H2  1  0.162883  0.927950  0.254430  1
  H  H3  1  0.662883  0.254430  0.927950  1
  H  H4  1  0.837117  0.072050  0.745570  1
  H  H5  1  0.337117  0.745570  0.072050  1
  H  H6  1  0.132251  0.751183  0.062227  1
  H  H7  1  0.632251  0.062227  0.751183  1
  H  H8  1  0.867749  0.248817  0.937773  1
  H  H9  1  0.367749  0.937773  0.248817  1
  H  H10  1  0.060480  0.872330  0.198190  1
  H  H11  1  0.560480  0.198190  0.872330  1
  H  H12  1  0.939520  0.127670  0.801810  1
  H  H13  1  0.439520  0.801810  0.127670  1
  H  H14  1  0.064474  0.332156  0.388358  1
  H  H15  1  0.564474  0.388358  0.332156  1
  H  H16  1  0.935526  0.667844  0.611641  1
  H  H17  1  0.435526  0.611641  0.667844  1
  H  H18  1  0.179983  0.597596  0.385365  1
  H  H19  1  0.679983  0.385365  0.597596  1
  H  H20  1  0.820017  0.402404  0.614635  1
  H  H21  1  0.320017  0.614635  0.402404  1
  H  H22  1  0.097477  0.707619  0.505410  1
  H  H23  1  0.597477  0.505410  0.707619  1
  H  H24  1  0.902523  0.292381  0.494590  1
  H  H25  1  0.402523  0.494590  0.292381  1
  H  H26  1  0.999221  0.491511  0.247250  1
  H  H27  1  0.499221  0.247250  0.491511  1
  H  H28  1  0.000779  0.508489  0.752750  1
  H  H29  1  0.500779  0.752750  0.508489  1
  H  H30  1  0.083825  0.382718  0.128648  1
  H  H31  1  0.583825  0.128648  0.382718  1
  H  H32  1  0.916175  0.617282  0.871352  1
  H  H33  1  0.416175  0.871352  0.617282  1
  C  C34  1  0.126111  0.122684  0.786572  1
  C  C35  1  0.626111  0.786572  0.122684  1
  C  C36  1  0.873889  0.877316  0.213428  1
  C  C37  1  0.373889  0.213428  0.877316  1
  C  C38  1  0.116962  0.640028  0.357075  1
  C  C39  1  0.616962  0.357075  0.640028  1
  C  C40  1  0.883038  0.359972  0.642925  1
  C  C41  1  0.383038  0.642925  0.359972  1
  C  C42  1  0.062676  0.451866  0.274143  1
  C  C43  1  0.562676  0.274143  0.451866  1
  C  C44  1  0.937324  0.548134  0.725857  1
  C  C45  1  0.437324  0.725857  0.548134  1
  N  N46  1  0.055598  0.086283  0.775479  1
  N  N47  1  0.555598  0.775479  0.086283  1
  N  N48  1  0.944402  0.913717  0.224521  1
  N  N49  1  0.444402  0.224521  0.913717  1
  N  N50  1  0.117148  0.809283  0.207718  1
  N  N51  1  0.617148  0.207718  0.809283  1
  N  N52  1  0.882852  0.190717  0.792282  1
  N  N53  1  0.382852  0.792282  0.190717  1
  Cl  Cl54  1  0.262447  0.143928  0.353622  1
  Cl  Cl55  1  0.762447  0.353622  0.143928  1
  Cl  Cl56  1  0.737553  0.856072  0.646378  1
  Cl  Cl57  1  0.237553  0.646378  0.856072  1
