# generated using pymatgen
data_CaH16C4N8(ClO2)2
_symmetry_space_group_name_H-M   'P 1'
_cell_length_a   9.18070955
_cell_length_b   13.62180910
_cell_length_c   9.14259637
_cell_angle_alpha   90.00000000
_cell_angle_beta   113.54986809
_cell_angle_gamma   90.00000000
_symmetry_Int_Tables_number   1
_chemical_formula_structural   CaH16C4N8(ClO2)2
_chemical_formula_sum   'Ca2 H32 C8 N16 Cl4 O8'
_cell_volume   1048.12678320
_cell_formula_units_Z   2
loop_
 _symmetry_equiv_pos_site_id
 _symmetry_equiv_pos_as_xyz
  1  'x, y, z'
loop_
 _atom_site_type_symbol
 _atom_site_label
 _atom_site_symmetry_multiplicity
 _atom_site_fract_x
 _atom_site_fract_y
 _atom_site_fract_z
 _atom_site_occupancy
  Ca  Ca0  1  0.000000  0.500000  0.000000  1
  Ca  Ca1  1  0.500000  0.000000  0.000000  1
  H  H2  1  0.480206  0.498446  0.528597  1
  H  H3  1  0.019794  0.998446  0.471403  1
  H  H4  1  0.519794  0.501554  0.471403  1
  H  H5  1  0.980206  0.001554  0.528597  1
  H  H6  1  0.497396  0.277611  0.072585  1
  H  H7  1  0.002604  0.777611  0.927415  1
  H  H8  1  0.502604  0.722389  0.927415  1
  H  H9  1  0.997396  0.222389  0.072585  1
  H  H10  1  0.624446  0.384233  0.767999  1
  H  H11  1  0.875554  0.884233  0.232001  1
  H  H12  1  0.375554  0.615767  0.232001  1
  H  H13  1  0.124446  0.115767  0.767999  1
  H  H14  1  0.040819  0.431260  0.357770  1
  H  H15  1  0.459181  0.931260  0.642230  1
  H  H16  1  0.959181  0.568740  0.642230  1
  H  H17  1  0.540819  0.068740  0.357770  1
  H  H18  1  0.140880  0.286945  0.520221  1
  H  H19  1  0.359120  0.786945  0.479779  1
  H  H20  1  0.859120  0.713055  0.479779  1
  H  H21  1  0.640880  0.213055  0.520221  1
  H  H22  1  0.752221  0.149280  0.986995  1
  H  H23  1  0.747779  0.649280  0.013005  1
  H  H24  1  0.247779  0.850720  0.013005  1
  H  H25  1  0.252221  0.350720  0.986995  1
  H  H26  1  0.989653  0.216893  0.542670  1
  H  H27  1  0.510347  0.716893  0.457330  1
  H  H28  1  0.010347  0.783107  0.457330  1
  H  H29  1  0.489653  0.283107  0.542670  1
  H  H30  1  0.065566  0.344443  0.869223  1
  H  H31  1  0.434434  0.844443  0.130777  1
  H  H32  1  0.934434  0.655557  0.130777  1
  H  H33  1  0.565566  0.155557  0.869223  1
  C  C34  1  0.497881  0.343979  0.890131  1
  C  C35  1  0.002119  0.843979  0.109869  1
  C  C36  1  0.502119  0.656021  0.109869  1
  C  C37  1  0.997881  0.156021  0.890131  1
  C  C38  1  0.952076  0.378542  0.278068  1
  C  C39  1  0.547924  0.878542  0.721932  1
  C  C40  1  0.047924  0.621458  0.721932  1
  C  C41  1  0.452076  0.121458  0.278068  1
  N  N42  1  0.548730  0.663546  0.001122  1
  N  N43  1  0.951270  0.163546  0.998878  1
  N  N44  1  0.451270  0.336454  0.998878  1
  N  N45  1  0.048730  0.836454  0.001122  1
  N  N46  1  0.521730  0.352251  0.768207  1
  N  N47  1  0.978270  0.852251  0.231793  1
  N  N48  1  0.478270  0.647749  0.231793  1
  N  N49  1  0.021730  0.147749  0.768207  1
  N  N50  1  0.022544  0.268805  0.480723  1
  N  N51  1  0.477456  0.768805  0.519277  1
  N  N52  1  0.977456  0.731195  0.519277  1
  N  N53  1  0.522544  0.231195  0.480723  1
  N  N54  1  0.914500  0.297204  0.342276  1
  N  N55  1  0.585500  0.797204  0.657724  1
  N  N56  1  0.085500  0.702796  0.657724  1
  N  N57  1  0.414500  0.202796  0.342276  1
  Cl  Cl58  1  0.828941  0.411605  0.710519  1
  Cl  Cl59  1  0.671059  0.911605  0.289481  1
  Cl  Cl60  1  0.171059  0.588395  0.289481  1
  Cl  Cl61  1  0.328941  0.088395  0.710519  1
  O  O62  1  0.141366  0.358127  0.979688  1
  O  O63  1  0.358634  0.858127  0.020312  1
  O  O64  1  0.858634  0.641873  0.020312  1
  O  O65  1  0.641366  0.141873  0.979688  1
  O  O66  1  0.884473  0.398778  0.132490  1
  O  O67  1  0.615527  0.898778  0.867510  1
  O  O68  1  0.115527  0.601222  0.867510  1
  O  O69  1  0.384473  0.101222  0.132490  1
