# generated using pymatgen
data_Li3Ti2(NiO4)2
_symmetry_space_group_name_H-M   'P 1'
_cell_length_a   5.90393403
_cell_length_b   5.87193745
_cell_length_c   5.87193686
_cell_angle_alpha   120.10695658
_cell_angle_beta   60.03496916
_cell_angle_gamma   119.96502796
_symmetry_Int_Tables_number   1
_chemical_formula_structural   Li3Ti2(NiO4)2
_chemical_formula_sum   'Li3 Ti2 Ni2 O8'
_cell_volume   143.90172577
_cell_formula_units_Z   1
loop_
 _symmetry_equiv_pos_site_id
 _symmetry_equiv_pos_as_xyz
  1  'x, y, z'
loop_
 _atom_site_type_symbol
 _atom_site_label
 _atom_site_symmetry_multiplicity
 _atom_site_fract_x
 _atom_site_fract_y
 _atom_site_fract_z
 _atom_site_occupancy
  Li  Li0  1  0.499992  1.000000  0.000000  1
  Li  Li1  1  0.999997  1.000000  0.500001  1
  Li  Li2  1  0.999997  0.499999  0.000000  1
  Ti  Ti3  1  0.500001  -0.000006  0.499997  1
  Ti  Ti4  1  0.500001  0.500003  0.000006  1
  Ni  Ni5  1  0.499990  0.499993  0.500007  1
  Ni  Ni6  1  0.000002  0.500001  0.499999  1
  O  O7  1  0.729230  0.248694  0.751306  1
  O  O8  1  0.718963  0.713529  0.737913  1
  O  O9  1  0.718963  0.262087  0.286471  1
  O  O10  1  0.270562  0.244122  0.755878  1
  O  O11  1  0.729431  0.755877  0.244123  1
  O  O12  1  0.281046  0.737909  0.713520  1
  O  O13  1  0.281046  0.286480  0.262091  1
  O  O14  1  0.270769  0.751309  0.248691  1
