# generated using pymatgen
data_Ag(H7O4)2
_symmetry_space_group_name_H-M   'P 1'
_cell_length_a   6.98712913
_cell_length_b   16.72050672
_cell_length_c   6.88933632
_cell_angle_alpha   90.00000000
_cell_angle_beta   92.70538302
_cell_angle_gamma   90.00000000
_symmetry_Int_Tables_number   1
_chemical_formula_structural   Ag(H7O4)2
_chemical_formula_sum   'Ag4 H56 O32'
_cell_volume   803.97265227
_cell_formula_units_Z   4
loop_
 _symmetry_equiv_pos_site_id
 _symmetry_equiv_pos_as_xyz
  1  'x, y, z'
loop_
 _atom_site_type_symbol
 _atom_site_label
 _atom_site_symmetry_multiplicity
 _atom_site_fract_x
 _atom_site_fract_y
 _atom_site_fract_z
 _atom_site_occupancy
  Ag  Ag0  1  0.466001  0.745575  0.973936  1
  Ag  Ag1  1  0.466001  0.754425  0.473936  1
  Ag  Ag2  1  0.533999  0.245575  0.526064  1
  Ag  Ag3  1  0.533999  0.254425  0.026064  1
  H  H4  1  0.023916  0.913847  0.822706  1
  H  H5  1  0.023916  0.586153  0.322706  1
  H  H6  1  0.075675  0.113529  0.685006  1
  H  H7  1  0.101551  0.126065  0.919034  1
  H  H8  1  0.075675  0.386471  0.185006  1
  H  H9  1  0.101551  0.373935  0.419034  1
  H  H10  1  0.132575  0.722492  0.718617  1
  H  H11  1  0.132575  0.777508  0.218617  1
  H  H12  1  0.166166  0.952812  0.664635  1
  H  H13  1  0.166166  0.547188  0.164635  1
  H  H14  1  0.200184  0.450577  0.848930  1
  H  H15  1  0.195391  0.819959  0.727661  1
  H  H16  1  0.200184  0.049423  0.348930  1
  H  H17  1  0.216269  0.353423  0.683128  1
  H  H18  1  0.195391  0.680041  0.227661  1
  H  H19  1  0.216269  0.146577  0.183128  1
  H  H20  1  0.249658  0.218040  0.773034  1
  H  H21  1  0.249658  0.281960  0.273034  1
  H  H22  1  0.351990  0.556217  0.921863  1
  H  H23  1  0.365117  0.917549  0.924841  1
  H  H24  1  0.346877  0.058403  0.532892  1
  H  H25  1  0.351990  0.943783  0.421862  1
  H  H26  1  0.365117  0.582451  0.424841  1
  H  H27  1  0.346877  0.441597  0.032892  1
  H  H28  1  0.399122  0.413922  0.541447  1
  H  H29  1  0.399122  0.086078  0.041447  1
  H  H30  1  0.454262  0.594884  0.740694  1
  H  H31  1  0.454262  0.905116  0.240694  1
  H  H32  1  0.545738  0.094884  0.759306  1
  H  H33  1  0.545738  0.405116  0.259306  1
  H  H34  1  0.600878  0.913922  0.958553  1
  H  H35  1  0.600878  0.586078  0.458553  1
  H  H36  1  0.653123  0.558403  0.967108  1
  H  H37  1  0.634883  0.417549  0.575159  1
  H  H38  1  0.648010  0.056217  0.578137  1
  H  H39  1  0.653123  0.941597  0.467108  1
  H  H40  1  0.634883  0.082451  0.075159  1
  H  H41  1  0.648010  0.443783  0.078137  1
  H  H42  1  0.750342  0.718040  0.726966  1
  H  H43  1  0.750342  0.781960  0.226966  1
  H  H44  1  0.783731  0.853423  0.816872  1
  H  H45  1  0.804609  0.319959  0.772339  1
  H  H46  1  0.783731  0.646577  0.316872  1
  H  H47  1  0.799816  0.950577  0.651070  1
  H  H48  1  0.804609  0.180041  0.272339  1
  H  H49  1  0.799816  0.549423  0.151070  1
  H  H50  1  0.833834  0.452812  0.835365  1
  H  H51  1  0.833834  0.047188  0.335365  1
  H  H52  1  0.867425  0.222492  0.781383  1
  H  H53  1  0.867425  0.277508  0.281383  1
  H  H54  1  0.898449  0.626065  0.580966  1
  H  H55  1  0.924325  0.613529  0.814994  1
  H  H56  1  0.898449  0.873935  0.080966  1
  H  H57  1  0.924325  0.886471  0.314994  1
  H  H58  1  0.976084  0.413847  0.677294  1
  H  H59  1  0.976084  0.086153  0.177294  1
  O  O60  1  0.060267  0.153701  0.787225  1
  O  O61  1  0.060267  0.346299  0.287225  1
  O  O62  1  0.163427  0.912647  0.769382  1
  O  O63  1  0.175476  0.404386  0.621570  1
  O  O64  1  0.163427  0.587353  0.269381  1
  O  O65  1  0.175476  0.095614  0.121570  1
  O  O66  1  0.222975  0.468727  0.987645  1
  O  O67  1  0.222975  0.031273  0.487645  1
  O  O68  1  0.242620  0.761528  0.719812  1
  O  O69  1  0.242620  0.738472  0.219812  1
  O  O70  1  0.351577  0.260570  0.769951  1
  O  O71  1  0.351577  0.239430  0.269951  1
  O  O72  1  0.449826  0.596345  0.887912  1
  O  O73  1  0.449826  0.903655  0.387912  1
  O  O74  1  0.473406  0.598355  0.515316  1
  O  O75  1  0.473406  0.901645  0.015316  1
  O  O76  1  0.526594  0.098355  0.984684  1
  O  O77  1  0.526594  0.401645  0.484684  1
  O  O78  1  0.550174  0.096345  0.612088  1
  O  O79  1  0.550174  0.403655  0.112088  1
  O  O80  1  0.648423  0.760570  0.730049  1
  O  O81  1  0.648423  0.739430  0.230049  1
  O  O82  1  0.757380  0.261528  0.780188  1
  O  O83  1  0.757380  0.238472  0.280188  1
  O  O84  1  0.777025  0.968727  0.512355  1
  O  O85  1  0.777025  0.531273  0.012355  1
  O  O86  1  0.824524  0.904386  0.878430  1
  O  O87  1  0.836573  0.412647  0.730618  1
  O  O88  1  0.824524  0.595614  0.378430  1
  O  O89  1  0.836573  0.087353  0.230618  1
  O  O90  1  0.939733  0.653701  0.712775  1
  O  O91  1  0.939733  0.846299  0.212775  1
