# generated using pymatgen
data_Li3Mn2C3O9F
_symmetry_space_group_name_H-M   'P 1'
_cell_length_a   7.60001352
_cell_length_b   8.59881534
_cell_length_c   6.48029345
_cell_angle_alpha   85.25981641
_cell_angle_beta   100.77750041
_cell_angle_gamma   116.22658106
_symmetry_Int_Tables_number   1
_chemical_formula_structural   Li3Mn2C3O9F
_chemical_formula_sum   'Li6 Mn4 C6 O18 F2'
_cell_volume   373.19600397
_cell_formula_units_Z   2
loop_
 _symmetry_equiv_pos_site_id
 _symmetry_equiv_pos_as_xyz
  1  'x, y, z'
loop_
 _atom_site_type_symbol
 _atom_site_label
 _atom_site_symmetry_multiplicity
 _atom_site_fract_x
 _atom_site_fract_y
 _atom_site_fract_z
 _atom_site_occupancy
  Li  Li0  1  0.242603  0.671856  0.523854  1
  Li  Li1  1  0.177894  0.233997  0.679876  1
  Li  Li2  1  0.163850  0.221128  0.179942  1
  Li  Li3  1  0.570746  0.328144  0.023854  1
  Li  Li4  1  0.942722  0.778872  0.679942  1
  Li  Li5  1  0.943895  0.766003  0.179876  1
  Mn  Mn6  1  0.248606  0.626686  0.029449  1
  Mn  Mn7  1  0.680661  0.979367  0.844274  1
  Mn  Mn8  1  0.701294  0.020633  0.344274  1
  Mn  Mn9  1  0.621920  0.373314  0.529449  1
  C  C10  1  0.316529  0.996395  0.993889  1
  C  C11  1  0.557075  0.608989  0.808924  1
  C  C12  1  0.558139  0.616827  0.305328  1
  C  C13  1  0.320134  0.003605  0.493889  1
  C  C14  1  0.941312  0.383173  0.805328  1
  C  C15  1  0.948086  0.391011  0.308924  1
  O  O16  1  0.167047  0.844009  0.968973  1
  O  O17  1  0.156840  0.863761  0.472506  1
  O  O18  1  0.023183  0.547662  0.235422  1
  O  O19  1  0.085205  0.353712  0.911202  1
  O  O20  1  0.055855  0.315616  0.392563  1
  O  O21  1  0.490019  0.992543  0.542245  1
  O  O22  1  0.447245  0.695329  0.794838  1
  O  O23  1  0.293079  0.136239  0.972506  1
  O  O24  1  0.486655  0.730391  0.301954  1
  O  O25  1  0.475521  0.452338  0.735422  1
  O  O26  1  0.451089  0.473282  0.201611  1
  O  O27  1  0.323038  0.155991  0.468973  1
  O  O28  1  0.740239  0.684384  0.892563  1
  O  O29  1  0.731493  0.646288  0.411202  1
  O  O30  1  0.497476  0.007457  0.042245  1
  O  O31  1  0.756264  0.269609  0.801954  1
  O  O32  1  0.751916  0.304671  0.294838  1
  O  O33  1  0.977807  0.526718  0.701611  1
  F  F34  1  0.876924  0.998848  0.138762  1
  F  F35  1  0.878076  0.001152  0.638762  1
