# generated using pymatgen
data_CaAl2Si2(H2O5)2
_symmetry_space_group_name_H-M   'P 1'
_cell_length_a   5.35167313
_cell_length_b   5.35167313
_cell_length_c   13.21534721
_cell_angle_alpha   90.00000000
_cell_angle_beta   90.00000000
_cell_angle_gamma   66.86678405
_symmetry_Int_Tables_number   1
_chemical_formula_structural   CaAl2Si2(H2O5)2
_chemical_formula_sum   'Ca2 Al4 Si4 H8 O20'
_cell_volume   348.05975963
_cell_formula_units_Z   2
loop_
 _symmetry_equiv_pos_site_id
 _symmetry_equiv_pos_as_xyz
  1  'x, y, z'
loop_
 _atom_site_type_symbol
 _atom_site_label
 _atom_site_symmetry_multiplicity
 _atom_site_fract_x
 _atom_site_fract_y
 _atom_site_fract_z
 _atom_site_occupancy
  Ca  Ca0  1  0.335449  0.335449  0.250000  1
  Ca  Ca1  1  0.664551  0.664551  0.750000  1
  Al  Al2  1  0.000000  0.500000  0.500000  1
  Al  Al3  1  0.500000  0.000000  0.500000  1
  Al  Al4  1  0.000000  0.500000  0.000000  1
  Al  Al5  1  0.500000  0.000000  0.000000  1
  Si  Si6  1  0.981149  0.981149  0.367663  1
  Si  Si7  1  0.018851  0.018851  0.632337  1
  Si  Si8  1  0.981149  0.981149  0.132337  1
  Si  Si9  1  0.018851  0.018851  0.867663  1
  H  H10  1  0.662793  0.662793  0.312732  1
  H  H11  1  0.337207  0.337207  0.687268  1
  H  H12  1  0.662793  0.662793  0.187268  1
  H  H13  1  0.337207  0.337207  0.812732  1
  H  H14  1  0.534426  0.534426  0.438214  1
  H  H15  1  0.465574  0.465574  0.561786  1
  H  H16  1  0.534426  0.534426  0.061786  1
  H  H17  1  0.465574  0.465574  0.938214  1
  O  O18  1  0.048335  0.048335  0.250000  1
  O  O19  1  0.951665  0.951665  0.750000  1
  O  O20  1  0.109435  0.651490  0.384606  1
  O  O21  1  0.348510  0.890565  0.615394  1
  O  O22  1  0.109435  0.651490  0.115394  1
  O  O23  1  0.348510  0.890565  0.884606  1
  O  O24  1  0.890565  0.348510  0.615394  1
  O  O25  1  0.651490  0.109435  0.384606  1
  O  O26  1  0.890565  0.348510  0.884606  1
  O  O27  1  0.651490  0.109435  0.115394  1
  O  O28  1  0.138609  0.138609  0.434996  1
  O  O29  1  0.861391  0.861391  0.565004  1
  O  O30  1  0.138609  0.138609  0.065004  1
  O  O31  1  0.861391  0.861391  0.934996  1
  O  O32  1  0.643046  0.643046  0.448640  1
  O  O33  1  0.356954  0.356954  0.551360  1
  O  O34  1  0.643046  0.643046  0.051360  1
  O  O35  1  0.356954  0.356954  0.948640  1
  O  O36  1  0.603200  0.603200  0.250000  1
  O  O37  1  0.396800  0.396800  0.750000  1
