# generated using pymatgen
data_LiTi2(PO4)3
_symmetry_space_group_name_H-M   'P 1'
_cell_length_a   9.05492461
_cell_length_b   8.99955834
_cell_length_c   9.00343448
_cell_angle_alpha   55.12988793
_cell_angle_beta   55.30880702
_cell_angle_gamma   55.61177665
_symmetry_Int_Tables_number   1
_chemical_formula_structural   LiTi2(PO4)3
_chemical_formula_sum   'Li2 Ti4 P6 O24'
_cell_volume   462.73378808
_cell_formula_units_Z   2
loop_
 _symmetry_equiv_pos_site_id
 _symmetry_equiv_pos_as_xyz
  1  'x, y, z'
loop_
 _atom_site_type_symbol
 _atom_site_label
 _atom_site_symmetry_multiplicity
 _atom_site_fract_x
 _atom_site_fract_y
 _atom_site_fract_z
 _atom_site_occupancy
  Li  Li0  1  0.720985  0.223372  0.475409  1
  Li  Li1  1  0.767354  0.049644  0.264413  1
  Ti  Ti2  1  0.339476  0.363961  0.350965  1
  Ti  Ti3  1  0.153284  0.142198  0.134186  1
  Ti  Ti4  1  0.645901  0.640736  0.653410  1
  Ti  Ti5  1  0.860217  0.851120  0.861886  1
  P  P6  1  0.028837  0.753311  0.467310  1
  P  P7  1  0.530493  0.965433  0.253287  1
  P  P8  1  0.247563  0.536177  0.966758  1
  P  P9  1  0.745777  0.464172  0.035570  1
  P  P10  1  0.471664  0.028484  0.746482  1
  P  P11  1  0.972611  0.245529  0.538053  1
  O  O12  1  0.001837  0.789620  0.628717  1
  O  O13  1  0.107516  0.902427  0.268356  1
  O  O14  1  0.101108  0.730806  0.891188  1
  O  O15  1  0.364740  0.000708  0.215870  1
  O  O16  1  0.488116  0.835088  0.775781  1
  O  O17  1  0.171415  0.544648  0.477870  1
  O  O18  1  0.224213  0.514925  0.161473  1
  O  O19  1  0.526619  0.814037  0.458873  1
  O  O20  1  0.206580  0.373591  0.998075  1
  O  O21  1  0.723292  0.888639  0.104302  1
  O  O22  1  0.169393  0.217850  0.511338  1
  O  O23  1  0.454764  0.522758  0.820872  1
  O  O24  1  0.536312  0.478169  0.181535  1
  O  O25  1  0.834586  0.790915  0.475388  1
  O  O26  1  0.274946  0.113210  0.890383  1
  O  O27  1  0.791808  0.619707  0.008389  1
  O  O28  1  0.495250  0.176593  0.531149  1
  O  O29  1  0.777025  0.479507  0.841168  1
  O  O30  1  0.826466  0.453133  0.530806  1
  O  O31  1  0.524352  0.154929  0.226779  1
  O  O32  1  0.634720  0.011191  0.774434  1
  O  O33  1  0.874454  0.257883  0.137194  1
  O  O34  1  0.892402  0.098322  0.734079  1
  O  O35  1  0.983022  0.215807  0.377749  1
