# generated using pymatgen
data_CdSiO3
_symmetry_space_group_name_H-M   'P 1'
_cell_length_a   9.85231616
_cell_length_b   9.74505728
_cell_length_c   5.51997141
_cell_angle_alpha   90.00000000
_cell_angle_beta   90.00000000
_cell_angle_gamma   90.00000000
_symmetry_Int_Tables_number   1
_chemical_formula_structural   CdSiO3
_chemical_formula_sum   'Cd8 Si8 O24'
_cell_volume   529.98010200
_cell_formula_units_Z   8
loop_
 _symmetry_equiv_pos_site_id
 _symmetry_equiv_pos_as_xyz
  1  'x, y, z'
loop_
 _atom_site_type_symbol
 _atom_site_label
 _atom_site_symmetry_multiplicity
 _atom_site_fract_x
 _atom_site_fract_y
 _atom_site_fract_z
 _atom_site_occupancy
  Cd  Cd0  1  0.000000  0.897398  0.250000  1
  Cd  Cd1  1  0.000000  0.277742  0.250000  1
  Cd  Cd2  1  0.000000  0.722258  0.750000  1
  Cd  Cd3  1  0.000000  0.102602  0.750000  1
  Cd  Cd4  1  0.500000  0.397398  0.250000  1
  Cd  Cd5  1  0.500000  0.777742  0.250000  1
  Cd  Cd6  1  0.500000  0.222258  0.750000  1
  Cd  Cd7  1  0.500000  0.602602  0.750000  1
  Si  Si8  1  0.209795  0.583261  0.083362  1
  Si  Si9  1  0.209795  0.416739  0.583362  1
  Si  Si10  1  0.290205  0.083261  0.083362  1
  Si  Si11  1  0.290205  0.916739  0.583362  1
  Si  Si12  1  0.709795  0.083261  0.416638  1
  Si  Si13  1  0.709795  0.916739  0.916638  1
  Si  Si14  1  0.790205  0.416739  0.916638  1
  Si  Si15  1  0.790205  0.583261  0.416638  1
  O  O16  1  0.124630  0.090375  0.091056  1
  O  O17  1  0.124630  0.909625  0.591056  1
  O  O18  1  0.131635  0.270252  0.568192  1
  O  O19  1  0.131635  0.729748  0.068192  1
  O  O20  1  0.158183  0.504390  0.826837  1
  O  O21  1  0.158183  0.495610  0.326837  1
  O  O22  1  0.341817  0.995610  0.326837  1
  O  O23  1  0.341817  0.004390  0.826837  1
  O  O24  1  0.368365  0.229748  0.068192  1
  O  O25  1  0.368365  0.770252  0.568192  1
  O  O26  1  0.375370  0.590375  0.091056  1
  O  O27  1  0.375370  0.409625  0.591056  1
  O  O28  1  0.624630  0.409625  0.908944  1
  O  O29  1  0.624630  0.590375  0.408944  1
  O  O30  1  0.631635  0.229748  0.431808  1
  O  O31  1  0.631635  0.770252  0.931808  1
  O  O32  1  0.658183  0.995610  0.173163  1
  O  O33  1  0.658183  0.004390  0.673163  1
  O  O34  1  0.841817  0.495610  0.173163  1
  O  O35  1  0.841817  0.504390  0.673163  1
  O  O36  1  0.868365  0.270252  0.931808  1
  O  O37  1  0.868365  0.729748  0.431808  1
  O  O38  1  0.875370  0.090375  0.408944  1
  O  O39  1  0.875370  0.909625  0.908944  1
