# generated using pymatgen
data_Li3Cr2(PO4)3
_symmetry_space_group_name_H-M   'P 1'
_cell_length_a   8.55285689
_cell_length_b   8.58849775
_cell_length_c   8.58849756
_cell_angle_alpha   61.32234358
_cell_angle_beta   61.28035471
_cell_angle_gamma   61.28035537
_symmetry_Int_Tables_number   1
_chemical_formula_structural   Li3Cr2(PO4)3
_chemical_formula_sum   'Li6 Cr4 P6 O24'
_cell_volume   459.07807276
_cell_formula_units_Z   2
loop_
 _symmetry_equiv_pos_site_id
 _symmetry_equiv_pos_as_xyz
  1  'x, y, z'
loop_
 _atom_site_type_symbol
 _atom_site_label
 _atom_site_symmetry_multiplicity
 _atom_site_fract_x
 _atom_site_fract_y
 _atom_site_fract_z
 _atom_site_occupancy
  Li  Li0  1  0.027619  0.004878  0.997021  1
  Li  Li1  1  0.750000  0.150596  0.349404  1
  Li  Li2  1  0.472381  0.502979  0.495122  1
  Li  Li3  1  0.250000  0.846433  0.653567  1
  Li  Li4  1  0.653825  0.250560  0.843429  1
  Li  Li5  1  0.846175  0.656571  0.249440  1
  Cr  Cr6  1  0.142100  0.144852  0.138505  1
  Cr  Cr7  1  0.357900  0.361495  0.355148  1
  Cr  Cr8  1  0.644572  0.645697  0.645339  1
  Cr  Cr9  1  0.855428  0.854661  0.854303  1
  P  P10  1  0.047664  0.750892  0.451734  1
  P  P11  1  0.452336  0.048266  0.749108  1
  P  P12  1  0.750000  0.455730  0.044270  1
  P  P13  1  0.250000  0.540060  0.959940  1
  P  P14  1  0.541513  0.963074  0.250375  1
  P  P15  1  0.958487  0.249625  0.536926  1
  O  O16  1  0.130380  0.287012  0.500962  1
  O  O17  1  0.294192  0.514340  0.123263  1
  O  O18  1  0.045601  0.923941  0.269221  1
  O  O19  1  0.530128  0.123268  0.292860  1
  O  O20  1  0.238241  0.591969  0.430135  1
  O  O21  1  0.018389  0.803977  0.614359  1
  O  O22  1  0.261759  0.069865  0.908031  1
  O  O23  1  0.454399  0.230779  0.576059  1
  O  O24  1  0.591887  0.432339  0.238674  1
  O  O25  1  0.205808  0.376737  0.985660  1
  O  O26  1  0.087296  0.734484  0.933805  1
  O  O27  1  0.369620  0.999038  0.212988  1
  O  O28  1  0.614407  0.016006  0.805678  1
  O  O29  1  0.908113  0.261326  0.067661  1
  O  O30  1  0.805655  0.615087  0.015599  1
  O  O31  1  0.412704  0.566195  0.765516  1
  O  O32  1  0.565337  0.769453  0.412635  1
  O  O33  1  0.732759  0.933814  0.085868  1
  O  O34  1  0.969872  0.207140  0.376732  1
  O  O35  1  0.767241  0.414132  0.566186  1
  O  O36  1  0.481611  0.885641  0.696023  1
  O  O37  1  0.934663  0.087365  0.730547  1
  O  O38  1  0.694345  0.484401  0.884913  1
  O  O39  1  0.885593  0.694322  0.483994  1
