# generated using pymatgen
data_Li12V3CoP4(CO7)4
_symmetry_space_group_name_H-M   'P 1'
_cell_length_a   8.48173958
_cell_length_b   10.00792834
_cell_length_c   6.59471600
_cell_angle_alpha   90.00000000
_cell_angle_beta   90.00000000
_cell_angle_gamma   84.63377140
_symmetry_Int_Tables_number   1
_chemical_formula_structural   Li12V3CoP4(CO7)4
_chemical_formula_sum   'Li12 V3 Co1 P4 C4 O28'
_cell_volume   557.33669231
_cell_formula_units_Z   1
loop_
 _symmetry_equiv_pos_site_id
 _symmetry_equiv_pos_as_xyz
  1  'x, y, z'
loop_
 _atom_site_type_symbol
 _atom_site_label
 _atom_site_symmetry_multiplicity
 _atom_site_fract_x
 _atom_site_fract_y
 _atom_site_fract_z
 _atom_site_occupancy
  Li  Li0  1  0.099294  0.384146  0.250000  1
  Li  Li1  1  0.096974  0.884416  0.250000  1
  Li  Li2  1  0.279759  0.125234  0.026117  1
  Li  Li3  1  0.279759  0.125234  0.473883  1
  Li  Li4  1  0.279415  0.625577  0.027867  1
  Li  Li5  1  0.279415  0.625577  0.472133  1
  Li  Li6  1  0.721785  0.377163  0.522039  1
  Li  Li7  1  0.721785  0.377163  0.977961  1
  Li  Li8  1  0.720980  0.872454  0.523304  1
  Li  Li9  1  0.720980  0.872454  0.976696  1
  Li  Li10  1  0.901690  0.115150  0.750000  1
  Li  Li11  1  0.902583  0.615031  0.750000  1
  V  V12  1  0.328816  0.395519  0.750000  1
  V  V13  1  0.329018  0.896557  0.750000  1
  V  V14  1  0.671243  0.103970  0.250000  1
  Co  Co15  1  0.668878  0.605287  0.250000  1
  P  P16  1  0.411953  0.361207  0.250000  1
  P  P17  1  0.410769  0.860888  0.250000  1
  P  P18  1  0.589679  0.139446  0.750000  1
  P  P19  1  0.588795  0.639198  0.750000  1
  C  C20  1  0.034853  0.347597  0.750000  1
  C  C21  1  0.034835  0.847522  0.750000  1
  C  C22  1  0.965714  0.152269  0.250000  1
  C  C23  1  0.962960  0.650642  0.250000  1
  O  O24  1  0.073036  0.470249  0.750000  1
  O  O25  1  0.111585  0.180207  0.250000  1
  O  O26  1  0.072937  0.970391  0.750000  1
  O  O27  1  0.149984  0.251577  0.750000  1
  O  O28  1  0.108510  0.681371  0.250000  1
  O  O29  1  0.149913  0.751663  0.750000  1
  O  O30  1  0.308205  0.413425  0.067045  1
  O  O31  1  0.308205  0.413425  0.432955  1
  O  O32  1  0.306722  0.913904  0.067484  1
  O  O33  1  0.306722  0.913904  0.432516  1
  O  O34  1  0.423086  0.088619  0.750000  1
  O  O35  1  0.431801  0.204254  0.250000  1
  O  O36  1  0.422623  0.588026  0.750000  1
  O  O37  1  0.433306  0.703930  0.250000  1
  O  O38  1  0.568479  0.296228  0.750000  1
  O  O39  1  0.578084  0.413110  0.250000  1
  O  O40  1  0.569136  0.795860  0.750000  1
  O  O41  1  0.577373  0.911409  0.250000  1
  O  O42  1  0.692949  0.086562  0.933104  1
  O  O43  1  0.692949  0.086562  0.566896  1
  O  O44  1  0.691254  0.587942  0.564205  1
  O  O45  1  0.691254  0.587942  0.935795  1
  O  O46  1  0.850691  0.248080  0.250000  1
  O  O47  1  0.888897  0.319811  0.750000  1
  O  O48  1  0.845968  0.745209  0.250000  1
  O  O49  1  0.927523  0.029371  0.250000  1
  O  O50  1  0.888965  0.819573  0.750000  1
  O  O51  1  0.927914  0.527696  0.250000  1
