# generated using pymatgen
data_Ba4Br6O
_symmetry_space_group_name_H-M   'P 1'
_cell_length_a   22.23240458
_cell_length_b   12.68487821
_cell_length_c   6.30046779
_cell_angle_alpha   90.00000000
_cell_angle_beta   90.00000000
_cell_angle_gamma   90.00000000
_symmetry_Int_Tables_number   1
_chemical_formula_structural   Ba4Br6O
_chemical_formula_sum   'Ba16 Br24 O4'
_cell_volume   1776.82859376
_cell_formula_units_Z   4
loop_
 _symmetry_equiv_pos_site_id
 _symmetry_equiv_pos_as_xyz
  1  'x, y, z'
loop_
 _atom_site_type_symbol
 _atom_site_label
 _atom_site_symmetry_multiplicity
 _atom_site_fract_x
 _atom_site_fract_y
 _atom_site_fract_z
 _atom_site_occupancy
  Ba  Ba0  1  0.059699  0.227428  0.679201  1
  Ba  Ba1  1  0.047479  0.971608  0.279304  1
  Ba  Ba2  1  0.175687  0.584944  0.298334  1
  Ba  Ba3  1  0.204608  0.161138  0.300159  1
  Ba  Ba4  1  0.295392  0.838862  0.800159  1
  Ba  Ba5  1  0.324313  0.415056  0.798334  1
  Ba  Ba6  1  0.452521  0.028392  0.779304  1
  Ba  Ba7  1  0.440301  0.772572  0.179201  1
  Ba  Ba8  1  0.559699  0.272572  0.320799  1
  Ba  Ba9  1  0.547479  0.528392  0.720696  1
  Ba  Ba10  1  0.675687  0.915056  0.701666  1
  Ba  Ba11  1  0.704608  0.338862  0.699841  1
  Ba  Ba12  1  0.795392  0.661138  0.199841  1
  Ba  Ba13  1  0.824313  0.084944  0.201666  1
  Ba  Ba14  1  0.952521  0.471608  0.220696  1
  Ba  Ba15  1  0.940301  0.727428  0.820799  1
  Br  Br16  1  0.046956  0.701071  0.269546  1
  Br  Br17  1  0.997767  0.984588  0.777096  1
  Br  Br18  1  0.100079  0.373806  0.246371  1
  Br  Br19  1  0.205902  0.261429  0.799948  1
  Br  Br20  1  0.176463  0.945700  0.026341  1
  Br  Br21  1  0.213108  0.597313  0.799042  1
  Br  Br22  1  0.286892  0.402687  0.299042  1
  Br  Br23  1  0.323537  0.054300  0.526341  1
  Br  Br24  1  0.294098  0.738571  0.299948  1
  Br  Br25  1  0.399921  0.626194  0.746371  1
  Br  Br26  1  0.502233  0.015412  0.277096  1
  Br  Br27  1  0.453044  0.298929  0.769546  1
  Br  Br28  1  0.546956  0.798929  0.730454  1
  Br  Br29  1  0.497767  0.515412  0.222904  1
  Br  Br30  1  0.600079  0.126194  0.753629  1
  Br  Br31  1  0.705902  0.238571  0.200052  1
  Br  Br32  1  0.676463  0.554300  0.973659  1
  Br  Br33  1  0.713108  0.902687  0.200958  1
  Br  Br34  1  0.786892  0.097313  0.700958  1
  Br  Br35  1  0.823537  0.445700  0.473659  1
  Br  Br36  1  0.794098  0.761429  0.700052  1
  Br  Br37  1  0.899921  0.873806  0.253629  1
  Br  Br38  1  0.002233  0.484588  0.722904  1
  Br  Br39  1  0.953044  0.201071  0.230454  1
  O  O40  1  0.105803  0.114659  0.426166  1
  O  O41  1  0.394197  0.885341  0.926166  1
  O  O42  1  0.605803  0.385341  0.573834  1
  O  O43  1  0.894197  0.614659  0.073834  1
