# generated using pymatgen
data_Li10FeCo9O20
_symmetry_space_group_name_H-M   'P 1'
_cell_length_a   5.00636672
_cell_length_b   7.61160663
_cell_length_c   9.81125381
_cell_angle_alpha   99.78617383
_cell_angle_beta   95.11855944
_cell_angle_gamma   71.29662198
_symmetry_Int_Tables_number   1
_chemical_formula_structural   Li10FeCo9O20
_chemical_formula_sum   'Li10 Fe1 Co9 O20'
_cell_volume   348.73444439
_cell_formula_units_Z   1
loop_
 _symmetry_equiv_pos_site_id
 _symmetry_equiv_pos_as_xyz
  1  'x, y, z'
loop_
 _atom_site_type_symbol
 _atom_site_label
 _atom_site_symmetry_multiplicity
 _atom_site_fract_x
 _atom_site_fract_y
 _atom_site_fract_z
 _atom_site_occupancy
  Li  Li0  1  0.399870  0.201996  0.997310  1
  Li  Li1  1  0.697643  0.099156  0.504433  1
  Li  Li2  1  0.103415  0.301777  0.500456  1
  Li  Li3  1  0.996771  0.997068  -0.002116  1
  Li  Li4  1  0.800419  0.400118  -0.001195  1
  Li  Li5  1  0.493110  0.498655  0.503515  1
  Li  Li6  1  0.201539  0.596077  -0.002320  1
  Li  Li7  1  0.903483  0.701871  0.501126  1
  Li  Li8  1  0.309178  0.900013  0.503407  1
  Li  Li9  1  0.595523  0.803083  0.995544  1
  Fe  Fe10  1  0.051187  0.148464  0.749934  1
  Co  Co11  1  0.349409  0.052051  0.250267  1
  Co  Co12  1  0.748322  0.251560  0.248346  1
  Co  Co13  1  0.146182  0.450601  0.249011  1
  Co  Co14  1  0.546204  0.653015  0.250619  1
  Co  Co15  1  0.951933  0.845928  0.252320  1
  Co  Co16  1  0.451565  0.349705  0.749916  1
  Co  Co17  1  0.849528  0.550409  0.749561  1
  Co  Co18  1  0.248847  0.749705  0.750217  1
  Co  Co19  1  0.648920  0.951347  0.750309  1
  O  O20  1  0.030425  0.067814  0.366802  1
  O  O21  1  0.380233  0.127765  0.642602  1
  O  O22  1  0.676249  0.028280  0.133447  1
  O  O23  1  0.721082  0.173539  0.857578  1
  O  O24  1  0.074528  0.233415  0.133303  1
  O  O25  1  0.134869  0.367011  0.859903  1
  O  O26  1  0.407981  0.281829  0.361803  1
  O  O27  1  0.774443  0.322809  0.637975  1
  O  O28  1  0.185242  0.525562  0.639441  1
  O  O29  1  0.456987  0.428108  0.137510  1
  O  O30  1  0.515569  0.573394  0.860713  1
  O  O31  1  0.828245  0.472600  0.362469  1
  O  O32  1  0.227878  0.661975  0.365755  1
  O  O33  1  0.564869  0.735420  0.641042  1
  O  O34  1  0.922576  0.778384  0.859757  1
  O  O35  1  0.886925  0.626111  0.135378  1
  O  O36  1  0.327091  0.969722  0.857102  1
  O  O37  1  0.289767  0.822759  0.131760  1
  O  O38  1  0.627100  0.875931  0.371094  1
  O  O39  1  0.974874  0.924970  0.643911  1
