# generated using pymatgen
data_MgH12(SO6)2
_symmetry_space_group_name_H-M   'P 1'
_cell_length_a   7.81166340
_cell_length_b   7.63495173
_cell_length_c   7.77280654
_cell_angle_alpha   98.23898760
_cell_angle_beta   100.96446891
_cell_angle_gamma   98.98096985
_symmetry_Int_Tables_number   1
_chemical_formula_structural   MgH12(SO6)2
_chemical_formula_sum   'Mg1 H12 S2 O12'
_cell_volume   442.32963254
_cell_formula_units_Z   1
loop_
 _symmetry_equiv_pos_site_id
 _symmetry_equiv_pos_as_xyz
  1  'x, y, z'
loop_
 _atom_site_type_symbol
 _atom_site_label
 _atom_site_symmetry_multiplicity
 _atom_site_fract_x
 _atom_site_fract_y
 _atom_site_fract_z
 _atom_site_occupancy
  Mg  Mg0  1  0.000000  0.000000  0.000000  1
  H  H1  1  0.739539  0.483017  0.934408  1
  H  H2  1  0.260461  0.516983  0.065592  1
  H  H3  1  0.843641  0.708234  0.287128  1
  H  H4  1  0.156359  0.291766  0.712872  1
  H  H5  1  0.475394  0.850284  0.931062  1
  H  H6  1  0.524606  0.149716  0.068938  1
  H  H7  1  0.716008  0.821038  0.356640  1
  H  H8  1  0.283992  0.178962  0.643360  1
  H  H9  1  0.560549  0.546173  0.914227  1
  H  H10  1  0.439451  0.453827  0.085773  1
  H  H11  1  0.540462  0.842671  0.871982  1
  H  H12  1  0.459538  0.157329  0.128018  1
  S  S13  1  0.627249  0.480712  0.541399  1
  S  S14  1  0.372751  0.519288  0.458601  1
  O  O15  1  0.194882  0.891643  0.130615  1
  O  O16  1  0.805118  0.108357  0.869385  1
  O  O17  1  0.085912  0.259440  0.976131  1
  O  O18  1  0.914088  0.740560  0.023869  1
  O  O19  1  0.084608  0.730315  0.113372  1
  O  O20  1  0.915392  0.269685  0.886628  1
  O  O21  1  0.817578  0.766562  0.396852  1
  O  O22  1  0.182422  0.233438  0.603148  1
  O  O23  1  0.640943  0.294418  0.464085  1
  O  O24  1  0.359057  0.705582  0.535915  1
  O  O25  1  0.611647  0.437762  0.896942  1
  O  O26  1  0.388353  0.562238  0.103058  1
