# generated using pymatgen
data_Li2Mn3(BO3)3
_symmetry_space_group_name_H-M   'P 1'
_cell_length_a   7.78523943
_cell_length_b   9.18562678
_cell_length_c   6.21507528
_cell_angle_alpha   103.69911724
_cell_angle_beta   80.37787160
_cell_angle_gamma   66.31316928
_symmetry_Int_Tables_number   1
_chemical_formula_structural   Li2Mn3(BO3)3
_chemical_formula_sum   'Li4 Mn6 B6 O18'
_cell_volume   377.85874299
_cell_formula_units_Z   2
loop_
 _symmetry_equiv_pos_site_id
 _symmetry_equiv_pos_as_xyz
  1  'x, y, z'
loop_
 _atom_site_type_symbol
 _atom_site_label
 _atom_site_symmetry_multiplicity
 _atom_site_fract_x
 _atom_site_fract_y
 _atom_site_fract_z
 _atom_site_occupancy
  Li  Li0  1  0.953841  0.718584  0.738628  1
  Li  Li1  1  0.392936  0.613397  0.946259  1
  Li  Li2  1  0.712825  0.948082  0.594705  1
  Li  Li3  1  0.273730  0.053269  0.387074  1
  Mn  Mn4  1  0.977966  0.395641  0.765015  1
  Mn  Mn5  1  0.688701  0.271025  0.568318  1
  Mn  Mn6  1  0.650953  0.070734  0.098443  1
  Mn  Mn7  1  0.340177  0.958824  0.897379  1
  Mn  Mn8  1  0.326489  0.707843  0.435955  1
  Mn  Mn9  1  0.015714  0.595932  0.234890  1
  B  B10  1  0.984356  0.043656  0.736103  1
  B  B11  1  0.352093  0.284002  0.877121  1
  B  B12  1  0.682311  0.623010  0.597230  1
  B  B13  1  0.314574  0.382665  0.456213  1
  B  B14  1  0.641168  0.728430  0.095136  1
  B  B15  1  0.025499  0.938237  0.238198  1
  O  O16  1  0.874682  0.212618  0.753498  1
  O  O17  1  0.846438  0.642667  0.977946  1
  O  O18  1  0.893664  0.953543  0.802115  1
  O  O19  1  0.820229  0.024000  0.355388  1
  O  O20  1  0.467414  0.116291  0.849850  1
  O  O21  1  0.791985  0.454048  0.579835  1
  O  O22  1  0.434791  0.383846  0.829296  1
  O  O23  1  0.773003  0.713123  0.531218  1
  O  O24  1  0.480901  0.695247  0.694239  1
  O  O25  1  0.520474  0.310385  0.359791  1
  O  O26  1  0.231875  0.282821  0.504038  1
  O  O27  1  0.552779  0.637748  0.154121  1
  O  O28  1  0.199252  0.550376  0.483484  1
  O  O29  1  0.540099  0.901062  0.133971  1
  O  O30  1  0.185766  0.971419  0.639094  1
  O  O31  1  0.113887  0.028919  0.179213  1
  O  O32  1  0.146193  0.356282  0.973542  1
  O  O33  1  0.126567  0.765604  0.199363  1
