# generated using pymatgen
data_Li3VS4
_symmetry_space_group_name_H-M   'P 1'
_cell_length_a   7.93888237
_cell_length_b   6.81425346
_cell_length_c   6.23515710
_cell_angle_alpha   90.00000000
_cell_angle_beta   90.00000000
_cell_angle_gamma   90.00000000
_symmetry_Int_Tables_number   1
_chemical_formula_structural   Li3VS4
_chemical_formula_sum   'Li6 V2 S8'
_cell_volume   337.30676449
_cell_formula_units_Z   2
loop_
 _symmetry_equiv_pos_site_id
 _symmetry_equiv_pos_as_xyz
  1  'x, y, z'
loop_
 _atom_site_type_symbol
 _atom_site_label
 _atom_site_symmetry_multiplicity
 _atom_site_fract_x
 _atom_site_fract_y
 _atom_site_fract_z
 _atom_site_occupancy
  Li  Li0  1  0.000000  0.161936  0.487028  1
  Li  Li1  1  0.246514  0.329196  0.989581  1
  Li  Li2  1  0.253486  0.670804  0.489581  1
  Li  Li3  1  0.500000  0.838064  0.987028  1
  Li  Li4  1  0.746514  0.670804  0.489581  1
  Li  Li5  1  0.753486  0.329196  0.989581  1
  V  V6  1  0.000000  0.828602  0.000994  1
  V  V7  1  0.500000  0.171398  0.500995  1
  S  S8  1  0.000000  0.129649  0.890433  1
  S  S9  1  0.000000  0.825492  0.347996  1
  S  S10  1  0.225407  0.679429  0.889560  1
  S  S11  1  0.274593  0.320571  0.389560  1
  S  S12  1  0.500000  0.174508  0.847996  1
  S  S13  1  0.500000  0.870351  0.390433  1
  S  S14  1  0.725407  0.320571  0.389560  1
  S  S15  1  0.774593  0.679429  0.889560  1
