# generated using pymatgen
data_Co6O7F5
_symmetry_space_group_name_H-M   'P 1'
_cell_length_a   4.55986357
_cell_length_b   7.56235327
_cell_length_c   5.45946969
_cell_angle_alpha   93.34939910
_cell_angle_beta   93.68966528
_cell_angle_gamma   87.13554387
_symmetry_Int_Tables_number   1
_chemical_formula_structural   Co6O7F5
_chemical_formula_sum   'Co6 O7 F5'
_cell_volume   187.34748640
_cell_formula_units_Z   1
loop_
 _symmetry_equiv_pos_site_id
 _symmetry_equiv_pos_as_xyz
  1  'x, y, z'
loop_
 _atom_site_type_symbol
 _atom_site_label
 _atom_site_symmetry_multiplicity
 _atom_site_fract_x
 _atom_site_fract_y
 _atom_site_fract_z
 _atom_site_occupancy
  Co  Co0  1  0.531224  0.013333  0.492825  1
  Co  Co1  1  0.489093  0.335902  0.833410  1
  Co  Co2  1  0.542036  0.663323  0.151267  1
  Co  Co3  1  0.998164  0.668463  0.675965  1
  Co  Co4  1  0.991017  0.323929  0.335437  1
  Co  Co5  1  0.958456  0.997230  -0.001565  1
  O  O6  1  0.811841  0.766910  0.959121  1
  O  O7  1  0.802641  0.101942  0.298512  1
  O  O8  1  0.700064  0.772474  0.467810  1
  O  O9  1  0.685950  0.109411  0.799527  1
  O  O10  1  0.694974  0.425739  0.128316  1
  O  O11  1  0.304808  0.565221  0.874379  1
  O  O12  1  0.305477  0.232249  0.535570  1
  F  F13  1  0.801250  0.433619  0.633832  1
  F  F14  1  0.300315  0.898042  0.202728  1
  F  F15  1  0.193589  0.219716  0.033157  1
  F  F16  1  0.202160  0.908804  0.702357  1
  F  F17  1  0.186940  0.563691  0.377354  1
