# generated using pymatgen
data_TiV3(PO4)6
_symmetry_space_group_name_H-M   'P 1'
_cell_length_a   8.75433706
_cell_length_b   8.75433644
_cell_length_c   8.75433703
_cell_angle_alpha   58.50736838
_cell_angle_beta   58.50736905
_cell_angle_gamma   58.50736412
_symmetry_Int_Tables_number   1
_chemical_formula_structural   TiV3(PO4)6
_chemical_formula_sum   'Ti1 V3 P6 O24'
_cell_volume   458.21279580
_cell_formula_units_Z   1
loop_
 _symmetry_equiv_pos_site_id
 _symmetry_equiv_pos_as_xyz
  1  'x, y, z'
loop_
 _atom_site_type_symbol
 _atom_site_label
 _atom_site_symmetry_multiplicity
 _atom_site_fract_x
 _atom_site_fract_y
 _atom_site_fract_z
 _atom_site_occupancy
  Ti  Ti0  1  0.860208  0.860208  0.860208  1
  V  V1  1  0.139778  0.139778  0.139778  1
  V  V2  1  0.358515  0.358515  0.358515  1
  V  V3  1  0.640362  0.640362  0.640362  1
  P  P4  1  0.033585  0.749111  0.466920  1
  P  P5  1  0.466920  0.033585  0.749111  1
  P  P6  1  0.749111  0.466920  0.033585  1
  P  P7  1  0.252483  0.530281  0.967985  1
  P  P8  1  0.530281  0.967985  0.252483  1
  P  P9  1  0.967985  0.252483  0.530281  1
  O  O10  1  0.136647  0.285200  0.502218  1
  O  O11  1  0.285200  0.502218  0.136647  1
  O  O12  1  0.059823  0.928716  0.283860  1
  O  O13  1  0.502218  0.136647  0.285200  1
  O  O14  1  0.215081  0.578838  0.432974  1
  O  O15  1  0.005995  0.779130  0.637180  1
  O  O16  1  0.283860  0.059823  0.928716  1
  O  O17  1  0.432974  0.215081  0.578838  1
  O  O18  1  0.578838  0.432974  0.215081  1
  O  O19  1  0.224963  0.355662  0.995220  1
  O  O20  1  0.080625  0.711581  0.937892  1
  O  O21  1  0.355662  0.995220  0.224963  1
  O  O22  1  0.637180  0.005995  0.779130  1
  O  O23  1  0.928716  0.283860  0.059823  1
  O  O24  1  0.779130  0.637180  0.005995  1
  O  O25  1  0.430714  0.558054  0.784650  1
  O  O26  1  0.558054  0.784650  0.430714  1
  O  O27  1  0.711581  0.937892  0.080625  1
  O  O28  1  0.995220  0.224963  0.355662  1
  O  O29  1  0.784650  0.430714  0.558054  1
  O  O30  1  0.495380  0.856998  0.723367  1
  O  O31  1  0.937892  0.080625  0.711581  1
  O  O32  1  0.723367  0.495380  0.856998  1
  O  O33  1  0.856998  0.723367  0.495380  1
