# generated using pymatgen
data_Ca7Al3Si10N21
_symmetry_space_group_name_H-M   'P 1'
_cell_length_a   5.05277813
_cell_length_b   5.65911159
_cell_length_c   39.62839344
_cell_angle_alpha   120.12252413
_cell_angle_beta   90.16161067
_cell_angle_gamma   89.92051698
_symmetry_Int_Tables_number   1
_chemical_formula_structural   Ca7Al3Si10N21
_chemical_formula_sum   'Ca14 Al6 Si20 N42'
_cell_volume   980.11342118
_cell_formula_units_Z   2
loop_
 _symmetry_equiv_pos_site_id
 _symmetry_equiv_pos_as_xyz
  1  'x, y, z'
loop_
 _atom_site_type_symbol
 _atom_site_label
 _atom_site_symmetry_multiplicity
 _atom_site_fract_x
 _atom_site_fract_y
 _atom_site_fract_z
 _atom_site_occupancy
  Ca  Ca0  1  0.503034  0.719339  0.005753  1
  Ca  Ca1  1  0.506582  0.653588  0.279920  1
  Ca  Ca2  1  0.455159  0.667093  0.133284  1
  Ca  Ca3  1  0.506686  0.689588  0.434714  1
  Ca  Ca4  1  0.505924  0.681053  0.709848  1
  Ca  Ca5  1  0.457742  0.743961  0.582702  1
  Ca  Ca6  1  0.515339  0.671127  0.856399  1
  Ca  Ca7  1  0.983293  0.249097  0.133441  1
  Ca  Ca8  1  0.008169  0.425083  0.016839  1
  Ca  Ca9  1  0.983857  0.345016  0.586603  1
  Ca  Ca10  1  0.003100  0.323978  0.287741  1
  Ca  Ca11  1  0.009235  0.316495  0.857307  1
  Ca  Ca12  1  0.016110  0.286802  0.689907  1
  Ca  Ca13  1  0.003082  0.319074  0.429030  1
  Al  Al14  1  0.524621  0.979713  0.235046  1
  Al  Al15  1  0.500813  0.998675  0.666021  1
  Al  Al16  1  0.516057  0.991390  0.524556  1
  Al  Al17  1  0.534810  0.958719  0.377133  1
  Al  Al18  1  0.536566  0.984602  0.808073  1
  Al  Al19  1  0.538000  0.988419  0.951195  1
  Si  Si20  1  0.988181  0.043915  0.048925  1
  Si  Si21  1  0.016596  0.999506  0.193100  1
  Si  Si22  1  0.039953  0.992746  0.332859  1
  Si  Si23  1  0.025916  0.661309  0.233911  1
  Si  Si24  1  0.017557  0.015275  0.478061  1
  Si  Si25  1  0.040641  0.651609  0.378480  1
  Si  Si26  1  0.013741  0.644152  0.518923  1
  Si  Si27  1  0.036974  0.031432  0.765332  1
  Si  Si28  1  0.983801  0.704234  0.667481  1
  Si  Si29  1  0.042014  0.020793  0.907488  1
  Si  Si30  1  0.036140  0.671618  0.807556  1
  Si  Si31  1  0.044201  0.677053  0.950891  1
  Si  Si32  1  0.505215  0.351444  0.049235  1
  Si  Si33  1  0.514059  0.313364  0.189519  1
  Si  Si34  1  0.505467  0.969783  0.088360  1
  Si  Si35  1  0.509442  0.323821  0.476466  1
  Si  Si36  1  0.528391  0.311088  0.334774  1
  Si  Si37  1  0.493081  0.351150  0.627651  1
  Si  Si38  1  0.535902  0.330331  0.907848  1
  Si  Si39  1  0.525119  0.339597  0.765010  1
  N  N40  1  0.325502  0.133552  0.065398  1
  N  N41  1  0.381790  0.055513  0.341855  1
  N  N42  1  0.358219  0.104341  0.204873  1
  N  N43  1  0.354912  0.093425  0.487946  1
  N  N44  1  0.337323  0.142169  0.639673  1
  N  N45  1  0.385198  0.080591  0.915529  1
  N  N46  1  0.373739  0.111046  0.778084  1
  N  N47  1  0.364970  0.637974  0.221450  1
  N  N48  1  0.357291  0.666046  0.074471  1
  N  N49  1  0.348122  0.635097  0.501655  1
  N  N50  1  0.312493  0.663677  0.651029  1
  N  N51  1  0.382039  0.623017  0.367846  1
  N  N52  1  0.385613  0.643654  0.939406  1
  N  N53  1  0.377899  0.657678  0.799238  1
  N  N54  1  0.467985  0.256999  0.000383  1
  N  N55  1  0.492453  0.253525  0.288265  1
  N  N56  1  0.486110  0.205871  0.140587  1
  N  N57  1  0.487819  0.234887  0.426923  1
  N  N58  1  0.482129  0.273128  0.719338  1
  N  N59  1  0.495674  0.231780  0.576424  1
  N  N60  1  0.510535  0.260560  0.860552  1
  N  N61  1  0.865278  0.870461  0.502639  1
  N  N62  1  0.856890  0.341696  0.205806  1
  N  N63  1  0.823379  0.327580  0.059105  1
  N  N64  1  0.822082  0.901482  0.071529  1
  N  N65  1  0.855572  0.307810  0.483220  1
  N  N66  1  0.880126  0.318538  0.347618  1
  N  N67  1  0.904188  0.872374  0.362770  1
  N  N68  1  0.895527  0.933732  0.230434  1
  N  N69  1  0.885840  0.343535  0.920339  1
  N  N70  1  0.866057  0.355650  0.782562  1
  N  N71  1  0.902985  0.898872  0.936399  1
  N  N72  1  0.802295  0.410353  0.648682  1
  N  N73  1  0.904039  0.915399  0.797018  1
  N  N74  1  0.831854  0.887176  0.651485  1
  N  N75  1  0.959842  0.730450  0.149681  1
  N  N76  1  0.004058  0.777976  0.998882  1
  N  N77  1  0.973051  0.682962  0.562486  1
  N  N78  1  0.991726  0.752066  0.426543  1
  N  N79  1  0.995213  0.747816  0.283970  1
  N  N80  1  0.993882  0.776620  0.858151  1
  N  N81  1  0.000527  0.798492  0.718087  1
