# generated using pymatgen
data_Ge2N2O
_symmetry_space_group_name_H-M   'P 1'
_cell_length_a   5.86308794
_cell_length_b   5.86309418
_cell_length_c   14.37925266
_cell_angle_alpha   89.99927812
_cell_angle_beta   90.00074665
_cell_angle_gamma   119.99975795
_symmetry_Int_Tables_number   1
_chemical_formula_structural   Ge2N2O
_chemical_formula_sum   'Ge16 N16 O8'
_cell_volume   428.07639873
_cell_formula_units_Z   8
loop_
 _symmetry_equiv_pos_site_id
 _symmetry_equiv_pos_as_xyz
  1  'x, y, z'
loop_
 _atom_site_type_symbol
 _atom_site_label
 _atom_site_symmetry_multiplicity
 _atom_site_fract_x
 _atom_site_fract_y
 _atom_site_fract_z
 _atom_site_occupancy
  Ge  Ge0  1  0.166665  0.833336  0.954936  1
  Ge  Ge1  1  0.166691  0.833309  0.330574  1
  Ge  Ge2  1  0.000000  0.500000  0.500000  1
  Ge  Ge3  1  0.331569  0.668431  0.164923  1
  Ge  Ge4  1  0.163106  0.331568  0.835074  1
  Ge  Ge5  1  0.668432  0.836893  0.835074  1
  Ge  Ge6  1  0.499987  0.500013  0.629240  1
  Ge  Ge7  1  0.000000  0.000000  0.500000  1
  Ge  Ge8  1  0.500013  0.499987  0.370760  1
  Ge  Ge9  1  0.500000  0.500000  0.000000  1
  Ge  Ge10  1  0.836894  0.668432  0.164926  1
  Ge  Ge11  1  0.331568  0.163107  0.164926  1
  Ge  Ge12  1  0.668431  0.331569  0.835077  1
  Ge  Ge13  1  0.500000  0.000000  0.500000  1
  Ge  Ge14  1  0.833309  0.166691  0.669426  1
  Ge  Ge15  1  0.833335  0.166664  0.045064  1
  N  N16  1  0.166669  0.833330  0.087198  1
  N  N17  1  0.322701  0.677300  0.416523  1
  N  N18  1  0.343959  0.656041  0.912604  1
  N  N19  1  0.677311  0.854634  0.583481  1
  N  N20  1  0.145367  0.322691  0.583481  1
  N  N21  1  0.187927  0.343956  0.087396  1
  N  N22  1  0.656045  0.812073  0.087396  1
  N  N23  1  0.499989  0.500010  0.760538  1
  N  N24  1  0.500011  0.499990  0.239462  1
  N  N25  1  0.343955  0.187927  0.912604  1
  N  N26  1  0.812073  0.656044  0.912604  1
  N  N27  1  0.322689  0.145366  0.416519  1
  N  N28  1  0.854633  0.677309  0.416519  1
  N  N29  1  0.656041  0.343959  0.087396  1
  N  N30  1  0.677299  0.322700  0.583477  1
  N  N31  1  0.833331  0.166670  0.912802  1
  O  O32  1  0.020840  0.979160  0.242443  1
  O  O33  1  0.166670  0.833331  0.564419  1
  O  O34  1  0.458381  0.979162  0.242441  1
  O  O35  1  0.020837  0.541619  0.242441  1
  O  O36  1  0.541619  0.020838  0.757559  1
  O  O37  1  0.979163  0.458381  0.757559  1
  O  O38  1  0.833330  0.166669  0.435581  1
  O  O39  1  0.979160  0.020840  0.757557  1
