# generated using pymatgen
data_Li7Mn3Co3O16
_symmetry_space_group_name_H-M   'P 1'
_cell_length_a   5.67585183
_cell_length_b   5.67554314
_cell_length_c   9.92152442
_cell_angle_alpha   92.44690166
_cell_angle_beta   87.56300207
_cell_angle_gamma   120.12309154
_symmetry_Int_Tables_number   1
_chemical_formula_structural   Li7Mn3Co3O16
_chemical_formula_sum   'Li7 Mn3 Co3 O16'
_cell_volume   276.10985374
_cell_formula_units_Z   1
loop_
 _symmetry_equiv_pos_site_id
 _symmetry_equiv_pos_as_xyz
  1  'x, y, z'
loop_
 _atom_site_type_symbol
 _atom_site_label
 _atom_site_symmetry_multiplicity
 _atom_site_fract_x
 _atom_site_fract_y
 _atom_site_fract_z
 _atom_site_occupancy
  Li  Li0  1  0.975654  0.024695  0.509138  1
  Li  Li1  1  0.662544  0.337347  0.022135  1
  Li  Li2  1  0.665925  0.333963  0.578920  1
  Li  Li3  1  0.664837  0.335066  0.796616  1
  Li  Li4  1  0.658924  0.827932  0.044077  1
  Li  Li5  1  0.314965  0.685239  0.500860  1
  Li  Li6  1  0.172105  0.341213  0.044087  1
  Mn  Mn7  1  0.826506  0.670677  0.282047  1
  Mn  Mn8  1  0.329454  0.173675  0.282060  1
  Mn  Mn9  1  0.163152  0.836767  0.794445  1
  Co  Co10  1  0.830842  0.169277  0.290320  1
  Co  Co11  1  0.662028  0.834421  0.787624  1
  Co  Co12  1  0.165478  0.337880  0.787623  1
  O  O13  1  0.996820  0.003318  0.179142  1
  O  O14  1  0.002501  0.997317  0.690295  1
  O  O15  1  0.836853  0.163172  0.894751  1
  O  O16  1  0.958632  0.463187  0.175125  1
  O  O17  1  0.536947  0.041482  0.175104  1
  O  O18  1  0.655666  0.344474  0.388049  1
  O  O19  1  0.821830  0.688732  0.895522  1
  O  O20  1  0.511278  0.488780  0.167928  1
  O  O21  1  0.672611  0.854841  0.386816  1
  O  O22  1  0.490677  0.509152  0.686499  1
  O  O23  1  0.311238  0.178149  0.895532  1
  O  O24  1  0.496938  0.982085  0.684892  1
  O  O25  1  0.328609  0.671378  0.895446  1
  O  O26  1  0.145317  0.327666  0.386846  1
  O  O27  1  0.017774  0.502898  0.684874  1
  O  O28  1  0.142327  0.857910  0.389792  1
