# generated using pymatgen
data_Na9Zr8Si4(PO6)8
_symmetry_space_group_name_H-M   'P 1'
_cell_length_a   9.35824103
_cell_length_b   9.39889887
_cell_length_c   18.72311129
_cell_angle_alpha   57.96576604
_cell_angle_beta   58.66300231
_cell_angle_gamma   58.00918842
_symmetry_Int_Tables_number   1
_chemical_formula_structural   Na9Zr8Si4(PO6)8
_chemical_formula_sum   'Na9 Zr8 Si4 P8 O48'
_cell_volume   1116.68724281
_cell_formula_units_Z   1
loop_
 _symmetry_equiv_pos_site_id
 _symmetry_equiv_pos_as_xyz
  1  'x, y, z'
loop_
 _atom_site_type_symbol
 _atom_site_label
 _atom_site_symmetry_multiplicity
 _atom_site_fract_x
 _atom_site_fract_y
 _atom_site_fract_z
 _atom_site_occupancy
  Na  Na0  1  0.127114  0.389819  0.377636  1
  Na  Na1  1  0.445499  0.592875  0.227181  1
  Na  Na2  1  0.646366  0.240843  0.435515  1
  Na  Na3  1  0.108252  0.396446  0.876996  1
  Na  Na4  1  0.904627  0.642562  0.123736  1
  Na  Na5  1  0.078625  0.942196  0.481803  1
  Na  Na6  1  0.379902  0.607118  0.756119  1
  Na  Na7  1  0.683564  0.220941  0.936704  1
  Na  Na8  1  0.889919  0.591485  0.626408  1
  Zr  Zr9  1  0.142568  0.132804  0.082206  1
  Zr  Zr10  1  0.385088  0.343561  0.171803  1
  Zr  Zr11  1  0.142044  0.138267  0.583271  1
  Zr  Zr12  1  0.379889  0.334081  0.673089  1
  Zr  Zr13  1  0.648912  0.646698  0.325342  1
  Zr  Zr14  1  0.873123  0.849743  0.412388  1
  Zr  Zr15  1  0.642041  0.646638  0.831064  1
  Zr  Zr16  1  0.908169  0.839120  0.897445  1
  Si  Si17  1  0.045580  0.737022  0.233428  1
  Si  Si18  1  0.434904  0.034741  0.384003  1
  Si  Si19  1  0.041601  0.744966  0.688148  1
  Si  Si20  1  0.442118  0.039351  0.882538  1
  P  P21  1  0.746825  0.472828  0.021871  1
  P  P22  1  0.263411  0.518878  0.473309  1
  P  P23  1  0.547893  0.946637  0.126574  1
  P  P24  1  0.001642  0.247208  0.272208  1
  P  P25  1  0.746092  0.462190  0.522307  1
  P  P26  1  0.263725  0.516964  0.979417  1
  P  P27  1  0.558138  0.942606  0.622866  1
  P  P28  1  0.015041  0.249782  0.767176  1
  O  O29  1  0.310081  0.466997  0.060834  1
  O  O30  1  0.057676  0.926132  0.157250  1
  O  O31  1  0.506789  0.102188  0.151428  1
  O  O32  1  0.218970  0.562455  0.210597  1
  O  O33  1  0.597900  0.037408  0.401096  1
  O  O34  1  0.256915  0.064639  0.469092  1
  O  O35  1  0.400569  0.212488  0.296824  1
  O  O36  1  0.591011  0.439878  0.113651  1
  O  O37  1  0.229831  0.367532  0.479818  1
  O  O38  1  0.092084  0.690543  0.472283  1
  O  O39  1  0.379588  0.971150  0.118691  1
  O  O40  1  0.750762  0.008814  0.316914  1
  O  O41  1  0.920921  0.314528  0.033104  1
  O  O42  1  0.762262  0.650724  0.994219  1
  O  O43  1  0.425515  0.550876  0.386365  1
  O  O44  1  0.313158  0.460137  0.553947  1
  O  O45  1  0.584886  0.764257  0.207160  1
  O  O46  1  0.056834  0.934299  0.657376  1
  O  O47  1  0.714532  0.932723  0.044069  1
  O  O48  1  0.533723  0.100366  0.638995  1
  O  O49  1  0.219267  0.564982  0.699268  1
  O  O50  1  0.607663  0.047593  0.893560  1
  O  O51  1  0.020564  0.232571  0.187208  1
  O  O52  1  0.808999  0.407028  0.290258  1
  O  O53  1  0.491704  0.851404  0.372680  1
  O  O54  1  0.270198  0.071557  0.968972  1
  O  O55  1  0.957848  0.072813  0.360746  1
  O  O56  1  0.394935  0.214824  0.795285  1
  O  O57  1  0.713295  0.472947  0.445818  1
  O  O58  1  0.591641  0.426131  0.610823  1
  O  O59  1  0.239241  0.356074  0.991130  1
  O  O60  1  0.091903  0.682675  0.979270  1
  O  O61  1  0.868626  0.709684  0.252960  1
  O  O62  1  0.390946  0.985873  0.606792  1
  O  O63  1  0.758878  0.010676  0.810652  1
  O  O64  1  0.922786  0.305886  0.530759  1
  O  O65  1  0.762114  0.639324  0.498947  1
  O  O66  1  0.426585  0.546426  0.892547  1
  O  O67  1  0.051821  0.713687  0.325888  1
  O  O68  1  0.585887  0.764103  0.703949  1
  O  O69  1  0.728130  0.918971  0.539093  1
  O  O70  1  0.025491  0.258625  0.675515  1
  O  O71  1  0.824652  0.405707  0.790618  1
  O  O72  1  0.495372  0.857357  0.870066  1
  O  O73  1  0.984526  0.070752  0.844480  1
  O  O74  1  0.707338  0.471092  0.951186  1
  O  O75  1  0.859071  0.711698  0.762852  1
  O  O76  1  0.084244  0.700236  0.825915  1
