# generated using pymatgen
data_LiCu2F5
_symmetry_space_group_name_H-M   'P 1'
_cell_length_a   6.38680644
_cell_length_b   6.40808012
_cell_length_c   6.19663334
_cell_angle_alpha   71.64729465
_cell_angle_beta   107.92356586
_cell_angle_gamma   72.93475664
_symmetry_Int_Tables_number   1
_chemical_formula_structural   LiCu2F5
_chemical_formula_sum   'Li2 Cu4 F10'
_cell_volume   206.52683536
_cell_formula_units_Z   2
loop_
 _symmetry_equiv_pos_site_id
 _symmetry_equiv_pos_as_xyz
  1  'x, y, z'
loop_
 _atom_site_type_symbol
 _atom_site_label
 _atom_site_symmetry_multiplicity
 _atom_site_fract_x
 _atom_site_fract_y
 _atom_site_fract_z
 _atom_site_occupancy
  Li  Li0  1  0.365367  0.864565  0.751305  1
  Li  Li1  1  0.634557  0.135303  0.248766  1
  Cu  Cu2  1  0.000002  0.499999  0.500019  1
  Cu  Cu3  1  0.000015  0.000006  0.000001  1
  Cu  Cu4  1  0.000024  0.500016  0.999960  1
  Cu  Cu5  1  0.500018  0.499982  0.500040  1
  F  F6  1  0.054383  0.777994  0.854618  1
  F  F7  1  0.172158  0.165066  0.730212  1
  F  F8  1  0.277224  0.554204  0.646055  1
  F  F9  1  0.334806  0.328003  0.230754  1
  F  F10  1  0.667455  0.167955  0.750879  1
  F  F11  1  0.332508  0.831927  0.249174  1
  F  F12  1  0.665149  0.672073  0.769179  1
  F  F13  1  0.722781  0.445821  0.354077  1
  F  F14  1  0.827839  0.834986  0.269762  1
  F  F15  1  0.945713  0.222099  0.145203  1
