# generated using pymatgen
data_ZnFe2As2(HO5)2
_symmetry_space_group_name_H-M   'P 1'
_cell_length_a   6.75200069
_cell_length_b   7.81126935
_cell_length_c   7.47832207
_cell_angle_alpha   90.00000000
_cell_angle_beta   91.37544225
_cell_angle_gamma   90.00000000
_symmetry_Int_Tables_number   1
_chemical_formula_structural   ZnFe2As2(HO5)2
_chemical_formula_sum   'Zn2 Fe4 As4 H4 O20'
_cell_volume   394.30574504
_cell_formula_units_Z   2
loop_
 _symmetry_equiv_pos_site_id
 _symmetry_equiv_pos_as_xyz
  1  'x, y, z'
loop_
 _atom_site_type_symbol
 _atom_site_label
 _atom_site_symmetry_multiplicity
 _atom_site_fract_x
 _atom_site_fract_y
 _atom_site_fract_z
 _atom_site_occupancy
  Zn  Zn0  1  0.000000  0.000000  0.500000  1
  Zn  Zn1  1  0.500000  0.500000  0.000000  1
  Fe  Fe2  1  0.229830  0.362781  0.263620  1
  Fe  Fe3  1  0.270170  0.862781  0.236380  1
  Fe  Fe4  1  0.729830  0.137219  0.763620  1
  Fe  Fe5  1  0.770170  0.637219  0.736380  1
  As  As6  1  0.241818  0.625710  0.632688  1
  As  As7  1  0.258182  0.125710  0.867312  1
  As  As8  1  0.741818  0.874290  0.132688  1
  As  As9  1  0.758182  0.374291  0.367312  1
  H  H10  1  0.154554  0.618744  0.047537  1
  H  H11  1  0.345446  0.118744  0.452463  1
  H  H12  1  0.654554  0.881256  0.547537  1
  H  H13  1  0.845446  0.381256  0.952463  1
  O  O14  1  0.038680  0.118593  0.745026  1
  O  O15  1  0.058019  0.634132  0.787362  1
  O  O16  1  0.223229  0.445326  0.505744  1
  O  O17  1  0.232359  0.809629  0.504685  1
  O  O18  1  0.267641  0.309629  0.995315  1
  O  O19  1  0.242850  0.115161  0.356822  1
  O  O20  1  0.276771  0.945326  0.994256  1
  O  O21  1  0.257150  0.615161  0.143178  1
  O  O22  1  0.441981  0.134132  0.712638  1
  O  O23  1  0.461320  0.618593  0.754974  1
  O  O24  1  0.538680  0.381407  0.245026  1
  O  O25  1  0.558019  0.865868  0.287362  1
  O  O26  1  0.742850  0.384839  0.856822  1
  O  O27  1  0.723229  0.054674  0.005744  1
  O  O28  1  0.757150  0.884839  0.643178  1
  O  O29  1  0.732359  0.690371  0.004685  1
  O  O30  1  0.767641  0.190371  0.495315  1
  O  O31  1  0.776771  0.554674  0.494256  1
  O  O32  1  0.941981  0.365868  0.212638  1
  O  O33  1  0.961320  0.881407  0.254974  1
