# generated using pymatgen
data_FeOF
_symmetry_space_group_name_H-M   'P 1'
_cell_length_a   9.49101106
_cell_length_b   14.17751847
_cell_length_c   3.07830580
_cell_angle_alpha   90.00000000
_cell_angle_beta   90.00000000
_cell_angle_gamma   90.08701104
_symmetry_Int_Tables_number   1
_chemical_formula_structural   FeOF
_chemical_formula_sum   'Fe12 O12 F12'
_cell_volume   414.21322530
_cell_formula_units_Z   12
loop_
 _symmetry_equiv_pos_site_id
 _symmetry_equiv_pos_as_xyz
  1  'x, y, z'
loop_
 _atom_site_type_symbol
 _atom_site_label
 _atom_site_symmetry_multiplicity
 _atom_site_fract_x
 _atom_site_fract_y
 _atom_site_fract_z
 _atom_site_occupancy
  Fe  Fe0  1  0.010218  0.006483  0.000000  1
  Fe  Fe1  1  0.990111  0.340138  0.000000  1
  Fe  Fe2  1  0.022856  0.661142  0.000000  1
  Fe  Fe3  1  0.215618  0.175840  0.500000  1
  Fe  Fe4  1  0.229177  0.491358  0.500000  1
  Fe  Fe5  1  0.263460  0.806538  0.500000  1
  Fe  Fe6  1  0.520439  0.335208  0.000000  1
  Fe  Fe7  1  0.495674  0.006922  0.000000  1
  Fe  Fe8  1  0.516821  0.660513  0.000000  1
  Fe  Fe9  1  0.751168  0.188395  0.500000  1
  Fe  Fe10  1  0.744276  0.492647  0.500000  1
  Fe  Fe11  1  0.740306  0.825111  0.500000  1
  O  O12  1  0.086767  0.274188  0.500000  1
  O  O13  1  0.101646  0.601261  0.500000  1
  O  O14  1  0.139213  0.102685  0.000000  1
  O  O15  1  0.154630  0.769380  0.000000  1
  O  O16  1  0.147596  0.432856  0.000000  1
  O  O17  1  0.416985  0.721139  0.500000  1
  O  O18  1  0.589159  0.266344  0.500000  1
  O  O19  1  0.604994  0.598110  0.500000  1
  O  O20  1  0.650970  0.436346  0.000000  1
  O  O21  1  0.660454  0.768542  0.000000  1
  O  O22  1  0.848336  0.233670  0.000000  1
  O  O23  1  0.895617  0.405044  0.500000  1
  F  F24  1  0.099591  0.937218  0.500000  1
  F  F25  1  0.334986  0.233703  0.000000  1
  F  F26  1  0.350856  0.556546  0.000000  1
  F  F27  1  0.350776  0.895835  0.000000  1
  F  F28  1  0.391932  0.073197  0.500000  1
  F  F29  1  0.400337  0.397237  0.500000  1
  F  F30  1  0.605677  0.938028  0.500000  1
  F  F31  1  0.658339  0.101238  0.000000  1
  F  F32  1  0.855645  0.900434  0.000000  1
  F  F33  1  0.850303  0.571994  0.000000  1
  F  F34  1  0.897238  0.059903  0.500000  1
  F  F35  1  0.907832  0.734805  0.500000  1
