# generated using pymatgen
data_Li5V3P8O29
_symmetry_space_group_name_H-M   'P 1'
_cell_length_a   9.79655143
_cell_length_b   9.81182704
_cell_length_c   13.90568322
_cell_angle_alpha   90.04789596
_cell_angle_beta   90.15289229
_cell_angle_gamma   60.00642024
_symmetry_Int_Tables_number   1
_chemical_formula_structural   Li5V3P8O29
_chemical_formula_sum   'Li10 V6 P16 O58'
_cell_volume   1157.63738838
_cell_formula_units_Z   2
loop_
 _symmetry_equiv_pos_site_id
 _symmetry_equiv_pos_as_xyz
  1  'x, y, z'
loop_
 _atom_site_type_symbol
 _atom_site_label
 _atom_site_symmetry_multiplicity
 _atom_site_fract_x
 _atom_site_fract_y
 _atom_site_fract_z
 _atom_site_occupancy
  Li  Li0  1  0.771075  0.903758  0.562359  1
  Li  Li1  1  0.911530  0.319609  0.562939  1
  Li  Li2  1  0.669902  0.667258  0.882033  1
  Li  Li3  1  0.774959  0.315821  0.057702  1
  Li  Li4  1  0.312085  0.913882  0.060038  1
  Li  Li5  1  0.680323  0.227753  0.441186  1
  Li  Li6  1  0.322170  0.772989  0.560797  1
  Li  Li7  1  0.681166  0.091750  0.938260  1
  Li  Li8  1  0.224154  0.681108  0.940118  1
  Li  Li9  1  0.094087  0.677901  0.440860  1
  V  V10  1  0.568004  0.431687  0.250261  1
  V  V11  1  0.431864  0.566544  0.750027  1
  V  V12  1  0.566249  0.999549  0.748007  1
  V  V13  1  0.429017  0.007031  0.254860  1
  V  V14  1  0.995447  0.567154  0.243250  1
  V  V15  1  0.005700  0.428906  0.753745  1
  P  P16  1  0.912332  0.770911  0.841955  1
  P  P17  1  0.770805  0.911342  0.340491  1
  P  P18  1  0.914519  0.318365  0.345150  1
  P  P19  1  0.661898  0.668507  0.126691  1
  P  P20  1  0.668847  0.663279  0.626376  1
  P  P21  1  0.771115  0.319647  0.841756  1
  P  P22  1  0.680349  0.231891  0.657822  1
  P  P23  1  0.318678  0.911327  0.845521  1
  P  P24  1  0.681037  0.087321  0.156064  1
  P  P25  1  0.320311  0.768451  0.340908  1
  P  P26  1  0.230913  0.679492  0.158517  1
  P  P27  1  0.331821  0.337577  0.372644  1
  P  P28  1  0.336365  0.332537  0.874671  1
  P  P29  1  0.085018  0.681630  0.655945  1
  P  P30  1  0.229985  0.083618  0.658608  1
  P  P31  1  0.085213  0.228481  0.158799  1
  O  O32  1  0.996719  0.758554  0.564941  1
  O  O33  1  0.916743  0.744366  0.339460  1
  O  O34  1  0.752295  0.006038  0.064706  1
  O  O35  1  0.744170  0.919548  0.840477  1
  O  O36  1  0.888977  0.626766  0.826252  1
  O  O37  1  0.813202  0.668046  0.171160  1
  O  O38  1  0.905173  0.478216  0.320503  1
  O  O39  1  0.992598  0.238873  0.072212  1
  O  O40  1  0.918070  0.338139  0.840166  1
  O  O41  1  0.673077  0.812723  0.666097  1
  O  O42  1  0.617957  0.903126  0.323055  1
  O  O43  1  0.815776  0.512493  0.668110  1
  O  O44  1  0.666248  0.667941  0.019005  1
  O  O45  1  0.664412  0.664959  0.519054  1
  O  O46  1  0.670731  0.514670  0.164969  1
  O  O47  1  0.486250  0.886453  0.824968  1
  O  O48  1  0.512883  0.817834  0.166505  1
  O  O49  1  0.747238  0.337664  0.339272  1
  O  O50  1  0.789574  0.210560  0.750350  1
  O  O51  1  0.759851  0.242341  0.567966  1
  O  O52  1  0.754891  0.243385  0.930897  1
  O  O53  1  0.625159  0.486260  0.826097  1
  O  O54  1  0.514754  0.668394  0.668627  1
  O  O55  1  0.661165  0.254444  0.161314  1
  O  O56  1  0.479395  0.617954  0.323689  1
  O  O57  1  0.343002  0.913606  0.334391  1
  O  O58  1  0.791973  0.998768  0.248909  1
  O  O59  1  0.758442  0.999503  0.431422  1
  O  O60  1  0.241684  0.989919  0.572533  1
  O  O61  1  0.666576  0.081617  0.658207  1
  O  O62  1  0.520254  0.380044  0.674101  1
  O  O63  1  0.333641  0.745998  0.841692  1
  O  O64  1  0.487124  0.326961  0.333067  1
  O  O65  1  0.379851  0.520466  0.176323  1
  O  O66  1  0.238544  0.758992  0.068685  1
  O  O67  1  0.241797  0.759875  0.431045  1
  O  O68  1  0.208212  0.791707  0.249725  1
  O  O69  1  0.249246  0.665722  0.657308  1
  O  O70  1  0.487453  0.184863  0.834431  1
  O  O71  1  0.521585  0.095507  0.179173  1
  O  O72  1  0.334237  0.485574  0.831315  1
  O  O73  1  0.334938  0.340444  0.981414  1
  O  O74  1  0.332187  0.333301  0.479389  1
  O  O75  1  0.182917  0.486637  0.330265  1
  O  O76  1  0.383033  0.092230  0.677387  1
  O  O77  1  0.331887  0.186494  0.326424  1
  O  O78  1  0.083917  0.658988  0.165090  1
  O  O79  1  0.991847  0.793554  0.745396  1
  O  O80  1  0.007122  0.761405  0.927049  1
  O  O81  1  0.093678  0.522531  0.674391  1
  O  O82  1  0.189596  0.334426  0.828734  1
  O  O83  1  0.095457  0.381636  0.175499  1
  O  O84  1  0.254775  0.084131  0.160799  1
  O  O85  1  0.246959  0.995325  0.936479  1
  O  O86  1  0.208634  0.004066  0.755033  1
  O  O87  1  0.085260  0.251305  0.659629  1
  O  O88  1  0.995159  0.249226  0.437272  1
  O  O89  1  0.006487  0.205916  0.254947  1
