# generated using pymatgen
data_FeBi25O39
_symmetry_space_group_name_H-M   'P 1'
_cell_length_a   8.97143982
_cell_length_b   8.97004696
_cell_length_c   14.61159575
_cell_angle_alpha   89.91896005
_cell_angle_beta   89.81725826
_cell_angle_gamma   109.56517921
_symmetry_Int_Tables_number   1
_chemical_formula_structural   FeBi25O39
_chemical_formula_sum   'Fe1 Bi25 O39'
_cell_volume   1107.95489370
_cell_formula_units_Z   1
loop_
 _symmetry_equiv_pos_site_id
 _symmetry_equiv_pos_as_xyz
  1  'x, y, z'
loop_
 _atom_site_type_symbol
 _atom_site_label
 _atom_site_symmetry_multiplicity
 _atom_site_fract_x
 _atom_site_fract_y
 _atom_site_fract_z
 _atom_site_occupancy
  Fe  Fe0  1  0.501592  0.500337  0.499983  1
  Bi  Bi1  1  0.767762  0.565583  0.082525  1
  Bi  Bi2  1  0.388566  0.234186  0.092099  1
  Bi  Bi3  1  0.491670  0.172320  0.352802  1
  Bi  Bi4  1  0.829841  0.529531  0.340486  1
  Bi  Bi5  1  0.024747  0.332537  0.169697  1
  Bi  Bi6  1  0.640235  0.991952  0.158486  1
  Bi  Bi7  1  0.735995  0.241946  0.569550  1
  Bi  Bi8  1  0.942646  0.082712  0.750865  1
  Bi  Bi9  1  0.445071  0.579151  0.255555  1
  Bi  Bi10  1  0.234604  0.733799  0.070839  1
  Bi  Bi11  1  0.276252  0.089690  0.583677  1
  Bi  Bi12  1  0.730096  0.900831  0.405571  1
  Bi  Bi13  1  0.088076  0.278938  0.420006  1
  Bi  Bi14  1  0.901207  0.733379  0.593702  1
  Bi  Bi15  1  0.090155  0.937054  0.260407  1
  Bi  Bi16  1  0.579458  0.444054  0.743190  1
  Bi  Bi17  1  0.252576  0.732886  0.434478  1
  Bi  Bi18  1  0.735314  0.230923  0.923895  1
  Bi  Bi19  1  0.326872  0.022939  0.832772  1
  Bi  Bi20  1  0.986683  0.653076  0.844228  1
  Bi  Bi21  1  0.525144  0.830547  0.662579  1
  Bi  Bi22  1  0.161149  0.485881  0.652594  1
  Bi  Bi23  1  0.979609  0.982267  0.015048  1
  Bi  Bi24  1  0.232861  0.393421  0.903471  1
  Bi  Bi25  1  0.580763  0.772909  0.914220  1
  O  O26  1  0.629602  0.997977  0.000597  1
  O  O27  1  0.928863  0.043892  0.308506  1
  O  O28  1  0.702587  0.316395  0.056990  1
  O  O29  1  0.222746  0.005831  0.998771  1
  O  O30  1  0.434676  0.060408  0.176617  1
  O  O31  1  0.926280  0.569316  0.189404  1
  O  O32  1  0.002931  0.223015  0.994922  1
  O  O33  1  0.547930  0.426817  0.188767  1
  O  O34  1  0.821381  0.204116  0.439165  1
  O  O35  1  0.184315  0.183706  0.186943  1
  O  O36  1  0.238310  0.497122  0.119627  1
  O  O37  1  0.513971  0.751611  0.133569  1
  O  O38  1  0.253419  0.019724  0.370644  1
  O  O39  1  0.005596  0.744015  0.379383  1
  O  O40  1  0.998815  0.629222  0.000498  1
  O  O41  1  0.692508  0.692185  0.308963  1
  O  O42  1  0.500419  0.117701  0.499502  1
  O  O43  1  0.716569  0.502054  0.496765  1
  O  O44  1  0.396611  0.389557  0.392132  1
  O  O45  1  0.076814  0.429736  0.310414  1
  O  O46  1  0.941721  0.560194  0.678684  1
  O  O47  1  0.559792  0.945392  0.319280  1
  O  O48  1  0.429826  0.074260  0.689499  1
  O  O49  1  0.496141  0.714102  0.496694  1
  O  O50  1  0.393963  0.395225  0.607692  1
  O  O51  1  0.691385  0.692369  0.689307  1
  O  O52  1  0.118861  0.501807  0.499529  1
  O  O53  1  0.737673  0.001204  0.616776  1
  O  O54  1  0.013042  0.251156  0.627422  1
  O  O55  1  0.496162  0.234185  0.881344  1
  O  O56  1  0.750682  0.506379  0.868457  1
  O  O57  1  0.191448  0.191348  0.805766  1
  O  O58  1  0.205167  0.822475  0.560246  1
  O  O59  1  0.429222  0.549394  0.808519  1
  O  O60  1  0.894776  0.893719  0.884116  1
  O  O61  1  0.567028  0.928239  0.808497  1
  O  O62  1  0.060315  0.437680  0.819987  1
  O  O63  1  0.048596  0.931568  0.687454  1
  O  O64  1  0.319827  0.700967  0.940514  1
