# generated using pymatgen
data_Cr(SO4)2
_symmetry_space_group_name_H-M   'P 1'
_cell_length_a   8.83688294
_cell_length_b   8.83688338
_cell_length_c   8.83688338
_cell_angle_alpha   55.96842204
_cell_angle_beta   55.96843076
_cell_angle_gamma   55.96842771
_symmetry_Int_Tables_number   1
_chemical_formula_structural   Cr(SO4)2
_chemical_formula_sum   'Cr3 S6 O24'
_cell_volume   442.37627935
_cell_formula_units_Z   3
loop_
 _symmetry_equiv_pos_site_id
 _symmetry_equiv_pos_as_xyz
  1  'x, y, z'
loop_
 _atom_site_type_symbol
 _atom_site_label
 _atom_site_symmetry_multiplicity
 _atom_site_fract_x
 _atom_site_fract_y
 _atom_site_fract_z
 _atom_site_occupancy
  Cr  Cr0  1  0.149508  0.149508  0.149508  1
  Cr  Cr1  1  0.643783  0.643783  0.643783  1
  Cr  Cr2  1  0.850369  0.850369  0.850369  1
  S  S3  1  0.045141  0.748874  0.459296  1
  S  S4  1  0.459296  0.045141  0.748874  1
  S  S5  1  0.748874  0.459296  0.045141  1
  S  S6  1  0.253373  0.538023  0.959440  1
  S  S7  1  0.538023  0.959440  0.253373  1
  S  S8  1  0.959440  0.253373  0.538023  1
  O  O9  1  0.111505  0.296382  0.510299  1
  O  O10  1  0.296382  0.510299  0.111505  1
  O  O11  1  0.007491  0.960300  0.329489  1
  O  O12  1  0.510299  0.111505  0.296382  1
  O  O13  1  0.020655  0.719185  0.656247  1
  O  O14  1  0.240436  0.622238  0.377674  1
  O  O15  1  0.377674  0.240436  0.622238  1
  O  O16  1  0.329489  0.007491  0.960300  1
  O  O17  1  0.622238  0.377674  0.240436  1
  O  O18  1  0.045293  0.672859  0.981962  1
  O  O19  1  0.282334  0.346328  0.973638  1
  O  O20  1  0.346328  0.973638  0.282334  1
  O  O21  1  0.656247  0.020655  0.719185  1
  O  O22  1  0.719185  0.656247  0.020655  1
  O  O23  1  0.960300  0.329489  0.007491  1
  O  O24  1  0.382446  0.621645  0.757380  1
  O  O25  1  0.672859  0.981962  0.045293  1
  O  O26  1  0.621645  0.757380  0.382446  1
  O  O27  1  0.757380  0.382446  0.621645  1
  O  O28  1  0.973638  0.282334  0.346328  1
  O  O29  1  0.486963  0.890942  0.703460  1
  O  O30  1  0.981962  0.045293  0.672859  1
  O  O31  1  0.703460  0.486963  0.890942  1
  O  O32  1  0.890942  0.703460  0.486963  1
