# generated using pymatgen
data_Sr3La4O9
_symmetry_space_group_name_H-M   'P 1'
_cell_length_a   6.98060456
_cell_length_b   6.97172897
_cell_length_c   12.76485262
_cell_angle_alpha   81.74462076
_cell_angle_beta   80.81140327
_cell_angle_gamma   116.45991824
_symmetry_Int_Tables_number   1
_chemical_formula_structural   Sr3La4O9
_chemical_formula_sum   'Sr6 La8 O18'
_cell_volume   532.56006703
_cell_formula_units_Z   2
loop_
 _symmetry_equiv_pos_site_id
 _symmetry_equiv_pos_as_xyz
  1  'x, y, z'
loop_
 _atom_site_type_symbol
 _atom_site_label
 _atom_site_symmetry_multiplicity
 _atom_site_fract_x
 _atom_site_fract_y
 _atom_site_fract_z
 _atom_site_occupancy
  Sr  Sr0  1  0.095094  0.584779  0.446860  1
  Sr  Sr1  1  0.373012  0.783493  0.171624  1
  Sr  Sr2  1  0.468910  0.459300  0.946919  1
  Sr  Sr3  1  0.205910  0.119024  0.502339  1
  Sr  Sr4  1  0.543516  0.455603  0.672858  1
  Sr  Sr5  1  0.878252  0.288163  0.002184  1
  La  La6  1  0.410508  0.946531  0.882310  1
  La  La7  1  0.082435  0.567355  0.721784  1
  La  La8  1  0.669210  0.704650  0.382569  1
  La  La9  1  0.950101  0.984710  0.790496  1
  La  La10  1  0.209502  0.195114  0.221548  1
  La  La11  1  0.885045  0.768013  0.086524  1
  La  La12  1  0.722048  0.257562  0.291196  1
  La  La13  1  0.641873  0.027324  0.586357  1
  O  O14  1  0.008422  0.703667  0.903978  1
  O  O15  1  0.347001  0.998178  0.339049  1
  O  O16  1  0.184871  0.459824  0.095526  1
  O  O17  1  0.417776  0.679540  0.551961  1
  O  O18  1  0.678044  0.885935  0.976631  1
  O  O19  1  0.782342  0.984773  0.197330  1
  O  O20  1  0.576269  0.782047  0.767028  1
  O  O21  1  0.164571  0.312486  0.837475  1
  O  O22  1  0.355691  0.486718  0.325813  1
  O  O23  1  0.945507  0.716710  0.596935  1
  O  O24  1  0.266989  0.028014  0.050477  1
  O  O25  1  0.624663  0.384164  0.128512  1
  O  O26  1  0.636935  0.346312  0.476098  1
  O  O27  1  0.316053  0.015813  0.698172  1
  O  O28  1  0.950188  0.657470  0.266922  1
  O  O29  1  0.685387  0.313859  0.825522  1
  O  O30  1  0.982988  0.241262  0.626573  1
  O  O31  1  0.885499  0.081976  0.404275  1
