# generated using pymatgen
data_Ho(Bi3O5)4
_symmetry_space_group_name_H-M   'P 1'
_cell_length_a   8.96264163
_cell_length_b   8.96264163
_cell_length_c   8.96264163
_cell_angle_alpha   109.51772491
_cell_angle_beta   109.45150608
_cell_angle_gamma   109.44444101
_symmetry_Int_Tables_number   1
_chemical_formula_structural   Ho(Bi3O5)4
_chemical_formula_sum   'Ho1 Bi12 O20'
_cell_volume   554.22484183
_cell_formula_units_Z   1
loop_
 _symmetry_equiv_pos_site_id
 _symmetry_equiv_pos_as_xyz
  1  'x, y, z'
loop_
 _atom_site_type_symbol
 _atom_site_label
 _atom_site_symmetry_multiplicity
 _atom_site_fract_x
 _atom_site_fract_y
 _atom_site_fract_z
 _atom_site_occupancy
  Ho  Ho0  1  0.000000  0.000000  0.000000  1
  Bi  Bi1  1  0.830763  0.325110  0.141006  1
  Bi  Bi2  1  0.494608  0.168814  0.310327  1
  Bi  Bi3  1  0.858487  0.184282  0.689673  1
  Bi  Bi4  1  0.310173  0.494693  0.168803  1
  Bi  Bi5  1  0.689827  0.858630  0.184519  1
  Bi  Bi6  1  0.815896  0.674890  0.505654  1
  Bi  Bi7  1  0.169237  0.310243  0.494346  1
  Bi  Bi8  1  0.674110  0.505307  0.815481  1
  Bi  Bi9  1  0.325890  0.141370  0.831197  1
  Bi  Bi10  1  0.505392  0.815718  0.674205  1
  Bi  Bi11  1  0.141513  0.831186  0.325795  1
  Bi  Bi12  1  0.184104  0.689757  0.858994  1
  O  O13  1  0.354930  0.000172  -0.000078  1
  O  O14  1  0.735813  0.114241  0.359733  1
  O  O15  1  0.885571  0.621684  0.246088  1
  O  O16  1  0.624405  0.378316  0.263887  1
  O  O17  1  0.241462  0.242074  0.241673  1
  O  O18  1  0.758538  0.000212  0.000613  1
  O  O19  1  0.754508  0.376080  0.640267  1
  O  O20  1  0.000250  0.355008  0.000078  1
  O  O21  1  0.378217  0.263437  0.623295  1
  O  O22  1  0.621783  0.245079  0.885219  1
  O  O23  1  0.640141  0.754921  0.376705  1
  O  O24  1  0.359859  0.736563  0.114781  1
  O  O25  1  0.645070  0.644992  0.645242  1
  O  O26  1  0.264187  0.623920  0.378428  1
  O  O27  1  0.000400  0.999788  0.758327  1
  O  O28  1  0.999600  0.757926  0.999387  1
  O  O29  1  0.114429  0.360518  0.736113  1
  O  O30  1  0.375595  0.639482  0.753912  1
  O  O31  1  0.245492  0.885759  0.621572  1
  O  O32  1  0.999750  0.999828  0.354758  1
