# generated using pymatgen
data_Li2Bi3P9O28
_symmetry_space_group_name_H-M   'P 1'
_cell_length_a   7.12975571
_cell_length_b   9.84268548
_cell_length_c   9.89436441
_cell_angle_alpha   66.09266514
_cell_angle_beta   97.30670173
_cell_angle_gamma   72.60091440
_symmetry_Int_Tables_number   1
_chemical_formula_structural   Li2Bi3P9O28
_chemical_formula_sum   'Li2 Bi3 P9 O28'
_cell_volume   580.66208503
_cell_formula_units_Z   1
loop_
 _symmetry_equiv_pos_site_id
 _symmetry_equiv_pos_as_xyz
  1  'x, y, z'
loop_
 _atom_site_type_symbol
 _atom_site_label
 _atom_site_symmetry_multiplicity
 _atom_site_fract_x
 _atom_site_fract_y
 _atom_site_fract_z
 _atom_site_occupancy
  Li  Li0  1  0.077306  0.473157  0.050137  1
  Li  Li1  1  0.422694  0.026843  0.949863  1
  Bi  Bi2  1  0.750000  0.750000  0.500000  1
  Bi  Bi3  1  0.501657  0.514960  0.962367  1
  Bi  Bi4  1  0.998343  0.985040  0.037633  1
  P  P5  1  0.560932  0.284981  0.736687  1
  P  P6  1  0.024648  0.821280  0.770515  1
  P  P7  1  0.963103  0.314962  0.706554  1
  P  P8  1  0.374219  0.886760  0.667446  1
  P  P9  1  0.250000  0.250000  0.500000  1
  P  P10  1  0.536897  0.185038  0.293446  1
  P  P11  1  0.125781  0.613240  0.332553  1
  P  P12  1  0.939068  0.215019  0.263313  1
  P  P13  1  0.475352  0.678720  0.229485  1
  O  O14  1  0.621362  0.124801  0.883939  1
  O  O15  1  0.149391  0.641585  0.892924  1
  O  O16  1  0.506038  0.769644  0.833776  1
  O  O17  1  0.110295  0.177912  0.863404  1
  O  O18  1  0.996929  0.934634  0.840349  1
  O  O19  1  0.487045  0.432366  0.759603  1
  O  O20  1  0.896166  0.477787  0.703369  1
  O  O21  1  0.339254  0.060049  0.652576  1
  O  O22  1  0.828086  0.844147  0.670835  1
  O  O23  1  0.399698  0.301739  0.602555  1
  O  O24  1  0.759479  0.278337  0.671277  1
  O  O25  1  0.155544  0.871763  0.650314  1
  O  O26  1  0.440447  0.860040  0.539306  1
  O  O27  1  0.048960  0.312060  0.570063  1
  O  O28  1  0.059553  0.639960  0.460694  1
  O  O29  1  0.451040  0.187940  0.429937  1
  O  O30  1  0.740521  0.221663  0.328723  1
  O  O31  1  0.344456  0.628237  0.349686  1
  O  O32  1  0.671914  0.655853  0.329165  1
  O  O33  1  0.100302  0.198261  0.397445  1
  O  O34  1  0.603834  0.022213  0.296631  1
  O  O35  1  0.160746  0.439951  0.347424  1
  O  O36  1  0.503071  0.565366  0.159651  1
  O  O37  1  0.012955  0.067634  0.240397  1
  O  O38  1  0.993962  0.730356  0.166224  1
  O  O39  1  0.389705  0.322088  0.136596  1
  O  O40  1  0.878638  0.375199  0.116061  1
  O  O41  1  0.350609  0.858415  0.107076  1
