# generated using pymatgen
data_Li5Cu5(SnO6)2
_symmetry_space_group_name_H-M   'P 1'
_cell_length_a   5.18039917
_cell_length_b   5.18039872
_cell_length_c   9.99936557
_cell_angle_alpha   88.85384032
_cell_angle_beta   91.14615709
_cell_angle_gamma   65.69891016
_symmetry_Int_Tables_number   1
_chemical_formula_structural   Li5Cu5(SnO6)2
_chemical_formula_sum   'Li5 Cu5 Sn2 O12'
_cell_volume   244.40507742
_cell_formula_units_Z   1
loop_
 _symmetry_equiv_pos_site_id
 _symmetry_equiv_pos_as_xyz
  1  'x, y, z'
loop_
 _atom_site_type_symbol
 _atom_site_label
 _atom_site_symmetry_multiplicity
 _atom_site_fract_x
 _atom_site_fract_y
 _atom_site_fract_z
 _atom_site_occupancy
  Li  Li0  1  0.165941  0.677869  0.504567  1
  Li  Li1  1  0.309311  0.852955  0.990336  1
  Li  Li2  1  0.677869  0.165941  0.995433  1
  Li  Li3  1  0.852955  0.309311  0.509664  1
  Li  Li4  1  0.906121  0.906121  0.750000  1
  Cu  Cu5  1  0.082243  0.082243  0.250000  1
  Cu  Cu6  1  0.988978  0.520946  0.995487  1
  Cu  Cu7  1  0.520946  0.988978  0.504513  1
  Cu  Cu8  1  0.414261  0.414261  0.250000  1
  Cu  Cu9  1  0.587019  0.587019  0.750000  1
  Sn  Sn10  1  0.246669  0.246669  0.750000  1
  Sn  Sn11  1  0.748436  0.748436  0.250000  1
  O  O12  1  0.973362  0.222311  0.889885  1
  O  O13  1  0.222311  0.973362  0.610115  1
  O  O14  1  0.095667  0.404907  0.349494  1
  O  O15  1  0.404907  0.095667  0.150506  1
  O  O16  1  0.299015  0.549692  0.867567  1
  O  O17  1  0.549692  0.299015  0.632433  1
  O  O18  1  0.463616  0.686684  0.373344  1
  O  O19  1  0.686684  0.463616  0.126656  1
  O  O20  1  0.580282  0.901149  0.854931  1
  O  O21  1  0.901149  0.580282  0.645069  1
  O  O22  1  0.811887  0.010677  0.386575  1
  O  O23  1  0.010677  0.811887  0.113425  1
