# generated using pymatgen
data_Mn4TeO8
_symmetry_space_group_name_H-M   'P 1'
_cell_length_a   11.07091386
_cell_length_b   11.07091416
_cell_length_c   15.68249417
_cell_angle_alpha   18.90051545
_cell_angle_beta   18.90051594
_cell_angle_gamma   32.39212267
_symmetry_Int_Tables_number   1
_chemical_formula_structural   Mn4TeO8
_chemical_formula_sum   'Mn4 Te1 O8'
_cell_volume   176.60987759
_cell_formula_units_Z   1
loop_
 _symmetry_equiv_pos_site_id
 _symmetry_equiv_pos_as_xyz
  1  'x, y, z'
loop_
 _atom_site_type_symbol
 _atom_site_label
 _atom_site_symmetry_multiplicity
 _atom_site_fract_x
 _atom_site_fract_y
 _atom_site_fract_z
 _atom_site_occupancy
  Mn  Mn0  1  0.000000  0.000000  0.000000  1
  Mn  Mn1  1  0.000000  0.500000  0.000000  1
  Mn  Mn2  1  0.500000  0.000000  0.000000  1
  Mn  Mn3  1  0.000000  0.000000  0.500000  1
  Te  Te4  1  0.500000  0.500000  0.000000  1
  O  O5  1  0.975359  0.975359  0.303416  1
  O  O6  1  0.058051  0.502881  0.220267  1
  O  O7  1  0.502881  0.058051  0.220267  1
  O  O8  1  0.024641  0.024641  0.696584  1
  O  O9  1  0.563417  0.563417  0.187036  1
  O  O10  1  0.941949  0.497119  0.779733  1
  O  O11  1  0.497119  0.941949  0.779733  1
  O  O12  1  0.436583  0.436583  0.812964  1
