# generated using pymatgen
data_Li5Fe8(BO3)8
_symmetry_space_group_name_H-M   'P 1'
_cell_length_a   5.26514912
_cell_length_b   9.09788950
_cell_length_c   10.18913731
_cell_angle_alpha   90.58213121
_cell_angle_beta   91.21366740
_cell_angle_gamma   89.73371092
_symmetry_Int_Tables_number   1
_chemical_formula_structural   Li5Fe8(BO3)8
_chemical_formula_sum   'Li5 Fe8 B8 O24'
_cell_volume   487.93797932
_cell_formula_units_Z   1
loop_
 _symmetry_equiv_pos_site_id
 _symmetry_equiv_pos_as_xyz
  1  'x, y, z'
loop_
 _atom_site_type_symbol
 _atom_site_label
 _atom_site_symmetry_multiplicity
 _atom_site_fract_x
 _atom_site_fract_y
 _atom_site_fract_z
 _atom_site_occupancy
  Li  Li0  1  0.333865  0.012190  0.845988  1
  Li  Li1  1  0.654319  0.003418  0.093252  1
  Li  Li2  1  0.852481  0.484590  0.333993  1
  Li  Li3  1  0.840872  0.507904  0.834719  1
  Li  Li4  1  0.644841  0.994785  0.581946  1
  Fe  Fe5  1  0.163121  0.173132  0.123980  1
  Fe  Fe6  1  0.844955  0.153058  0.371244  1
  Fe  Fe7  1  0.330606  0.342907  0.865995  1
  Fe  Fe8  1  0.655273  0.338643  0.616950  1
  Fe  Fe9  1  0.341121  0.673663  0.364255  1
  Fe  Fe10  1  0.155952  0.825215  0.622481  1
  Fe  Fe11  1  0.659244  0.656099  0.116292  1
  Fe  Fe12  1  0.841723  0.841239  0.874294  1
  B  B13  1  0.155299  0.157006  0.624503  1
  B  B14  1  0.346211  0.343816  0.364128  1
  B  B15  1  0.829972  0.171136  0.876304  1
  B  B16  1  0.664682  0.321826  0.123911  1
  B  B17  1  0.337508  0.667386  0.867875  1
  B  B18  1  0.665206  0.675892  0.623189  1
  B  B19  1  0.158065  0.844753  0.126116  1
  B  B20  1  0.825509  0.822101  0.378301  1
  O  O21  1  0.284568  0.021187  0.639345  1
  O  O22  1  0.088534  0.165880  0.914626  1
  O  O23  1  0.688787  0.042492  0.884662  1
  O  O24  1  0.208548  0.220580  0.319602  1
  O  O25  1  0.288554  0.281161  0.656106  1
  O  O26  1  0.795580  0.188919  0.153082  1
  O  O27  1  0.901543  0.156512  0.584100  1
  O  O28  1  0.418153  0.309223  0.074674  1
  O  O29  1  0.220394  0.477864  0.366601  1
  O  O30  1  0.600656  0.333465  0.402199  1
  O  O31  1  0.721240  0.301941  0.835800  1
  O  O32  1  0.192139  0.545240  0.871747  1
  O  O33  1  0.778704  0.452894  0.144318  1
  O  O34  1  0.289702  0.722885  0.173927  1
  O  O35  1  0.422440  0.692963  0.566718  1
  O  O36  1  0.773089  0.544358  0.644626  1
  O  O37  1  0.594007  0.668251  0.906067  1
  O  O38  1  0.079193  0.812504  0.423134  1
  O  O39  1  0.225054  0.801177  0.822633  1
  O  O40  1  0.710188  0.690114  0.337626  1
  O  O41  1  0.792434  0.808746  0.657221  1
  O  O42  1  0.291321  0.975106  0.113586  1
  O  O43  1  0.902759  0.837079  0.088641  1
  O  O44  1  0.699156  0.951854  0.383285  1
