# generated using pymatgen
data_Li2AgF5
_symmetry_space_group_name_H-M   'P 1'
_cell_length_a   5.29125634
_cell_length_b   5.78040556
_cell_length_c   8.02446562
_cell_angle_alpha   110.44752487
_cell_angle_beta   89.96606305
_cell_angle_gamma   62.77994700
_symmetry_Int_Tables_number   1
_chemical_formula_structural   Li2AgF5
_chemical_formula_sum   'Li4 Ag2 F10'
_cell_volume   200.67702206
_cell_formula_units_Z   2
loop_
 _symmetry_equiv_pos_site_id
 _symmetry_equiv_pos_as_xyz
  1  'x, y, z'
loop_
 _atom_site_type_symbol
 _atom_site_label
 _atom_site_symmetry_multiplicity
 _atom_site_fract_x
 _atom_site_fract_y
 _atom_site_fract_z
 _atom_site_occupancy
  Li  Li0  1  0.643731  0.734224  0.262704  1
  Li  Li1  1  0.621451  0.734631  0.761528  1
  Li  Li2  1  0.378527  0.265372  0.238473  1
  Li  Li3  1  0.356250  0.265777  0.737317  1
  Ag  Ag4  1  0.000390  0.000195  -0.000091  1
  Ag  Ag5  1  0.000030  0.000001  0.500020  1
  F  F6  1  0.778936  0.819682  0.042140  1
  F  F7  1  0.976634  0.369731  0.657101  1
  F  F8  1  0.654065  0.369501  0.157886  1
  F  F9  1  0.401152  0.819577  0.541927  1
  F  F10  1  0.273606  0.999501  0.250040  1
  F  F11  1  0.726406  0.000478  0.749948  1
  F  F12  1  0.598799  0.180430  0.458070  1
  F  F13  1  0.345846  0.630544  0.842147  1
  F  F14  1  0.023354  0.630266  0.342894  1
  F  F15  1  0.220821  0.180089  0.957897  1
