# generated using pymatgen
data_NaMn2V3(PbO6)2
_symmetry_space_group_name_H-M   'P 1'
_cell_length_a   11.32152001
_cell_length_b   11.32152006
_cell_length_c   11.32151989
_cell_angle_alpha   109.14120908
_cell_angle_beta   109.14120917
_cell_angle_gamma   110.13327875
_symmetry_Int_Tables_number   1
_chemical_formula_structural   NaMn2V3(PbO6)2
_chemical_formula_sum   'Na4 Mn8 V12 Pb8 O48'
_cell_volume   1116.98868350
_cell_formula_units_Z   4
loop_
 _symmetry_equiv_pos_site_id
 _symmetry_equiv_pos_as_xyz
  1  'x, y, z'
loop_
 _atom_site_type_symbol
 _atom_site_label
 _atom_site_symmetry_multiplicity
 _atom_site_fract_x
 _atom_site_fract_y
 _atom_site_fract_z
 _atom_site_occupancy
  Na  Na0  1  0.125000  0.375000  0.750000  1
  Na  Na1  1  0.625000  0.875000  0.750000  1
  Na  Na2  1  0.375000  0.125000  0.250000  1
  Na  Na3  1  0.875000  0.625000  0.250000  1
  Mn  Mn4  1  0.000000  0.500000  0.500000  1
  Mn  Mn5  1  0.000000  0.500000  0.000000  1
  Mn  Mn6  1  0.500000  0.000000  0.500000  1
  Mn  Mn7  1  0.000000  0.000000  0.000000  1
  Mn  Mn8  1  0.500000  0.500000  0.500000  1
  Mn  Mn9  1  0.500000  0.500000  0.000000  1
  Mn  Mn10  1  0.000000  0.000000  0.500000  1
  Mn  Mn11  1  0.500000  0.000000  0.000000  1
  V  V12  1  0.124758  0.750000  0.874758  1
  V  V13  1  0.125000  0.875000  0.250000  1
  V  V14  1  0.250000  0.624758  0.374758  1
  V  V15  1  0.250000  0.124758  0.874758  1
  V  V16  1  0.375000  0.625000  0.750000  1
  V  V17  1  0.375242  0.250000  0.625242  1
  V  V18  1  0.624758  0.750000  0.374758  1
  V  V19  1  0.750000  0.375242  0.625242  1
  V  V20  1  0.625000  0.375000  0.250000  1
  V  V21  1  0.750000  0.875242  0.125242  1
  V  V22  1  0.875000  0.125000  0.750000  1
  V  V23  1  0.875242  0.250000  0.125242  1
  Pb  Pb24  1  0.250000  0.872280  0.622280  1
  Pb  Pb25  1  0.127720  0.250000  0.377720  1
  Pb  Pb26  1  0.250000  0.372280  0.122280  1
  Pb  Pb27  1  0.372280  0.750000  0.122280  1
  Pb  Pb28  1  0.750000  0.627720  0.877720  1
  Pb  Pb29  1  0.627720  0.250000  0.877720  1
  Pb  Pb30  1  0.872280  0.750000  0.622280  1
  Pb  Pb31  1  0.750000  0.127720  0.377720  1
  O  O32  1  0.108520  0.993522  0.696956  1
  O  O33  1  0.005264  0.302886  0.892277  1
  O  O34  1  0.113193  0.608832  0.910834  1
  O  O35  1  0.088435  0.703434  0.696956  1
  O  O36  1  0.089390  0.887013  0.392277  1
  O  O37  1  0.108832  0.613193  0.410834  1
  O  O38  1  0.197114  0.494736  0.607723  1
  O  O39  1  0.410610  0.802886  0.797623  1
  O  O40  1  0.297641  0.302002  0.910834  1
  O  O41  1  0.387013  0.589390  0.892277  1
  O  O42  1  0.302886  0.910610  0.297623  1
  O  O43  1  0.006478  0.203434  0.114999  1
  O  O44  1  0.197998  0.202359  0.589166  1
  O  O45  1  0.203434  0.588435  0.196956  1
  O  O46  1  0.391168  0.802002  0.504361  1
  O  O47  1  0.296566  0.493522  0.385001  1
  O  O48  1  0.302002  0.891168  0.004361  1
  O  O49  1  0.112987  0.005264  0.202377  1
  O  O50  1  0.505264  0.612987  0.702377  1
  O  O51  1  0.391480  0.088435  0.885001  1
  O  O52  1  0.506478  0.391480  0.803044  1
  O  O53  1  0.386807  0.297641  0.495639  1
  O  O54  1  0.797641  0.886807  0.995639  1
  O  O55  1  0.411565  0.108520  0.614999  1
  O  O56  1  0.588435  0.891480  0.385001  1
  O  O57  1  0.202359  0.113193  0.004361  1
  O  O58  1  0.613193  0.702359  0.504361  1
  O  O59  1  0.493522  0.608520  0.196956  1
  O  O60  1  0.608520  0.911565  0.114999  1
  O  O61  1  0.494736  0.387013  0.297623  1
  O  O62  1  0.887013  0.994736  0.797623  1
  O  O63  1  0.697998  0.108832  0.995639  1
  O  O64  1  0.703434  0.506478  0.614999  1
  O  O65  1  0.608832  0.197998  0.495639  1
  O  O66  1  0.796566  0.411565  0.803044  1
  O  O67  1  0.802002  0.797641  0.410834  1
  O  O68  1  0.993522  0.796566  0.885001  1
  O  O69  1  0.697114  0.089390  0.702377  1
  O  O70  1  0.612987  0.410610  0.107723  1
  O  O71  1  0.702359  0.697998  0.089166  1
  O  O72  1  0.589390  0.197114  0.202377  1
  O  O73  1  0.802886  0.505264  0.392277  1
  O  O74  1  0.891168  0.386807  0.589166  1
  O  O75  1  0.910610  0.112987  0.607723  1
  O  O76  1  0.911565  0.296566  0.303044  1
  O  O77  1  0.886807  0.391168  0.089166  1
  O  O78  1  0.994736  0.697114  0.107723  1
  O  O79  1  0.891480  0.006478  0.303044  1
