# generated using pymatgen
data_Li3VPCO7
_symmetry_space_group_name_H-M   'P 1'
_cell_length_a   8.64309811
_cell_length_b   9.71771457
_cell_length_c   6.50870476
_cell_angle_alpha   90.00000000
_cell_angle_beta   90.00000000
_cell_angle_gamma   88.01892450
_symmetry_Int_Tables_number   1
_chemical_formula_structural   Li3VPCO7
_chemical_formula_sum   'Li12 V4 P4 C4 O28'
_cell_volume   546.34691921
_cell_formula_units_Z   4
loop_
 _symmetry_equiv_pos_site_id
 _symmetry_equiv_pos_as_xyz
  1  'x, y, z'
loop_
 _atom_site_type_symbol
 _atom_site_label
 _atom_site_symmetry_multiplicity
 _atom_site_fract_x
 _atom_site_fract_y
 _atom_site_fract_z
 _atom_site_occupancy
  Li  Li0  1  0.111904  0.383856  0.250290  1
  Li  Li1  1  0.111904  0.883856  0.249710  1
  Li  Li2  1  0.292812  0.119910  0.020399  1
  Li  Li3  1  0.292812  0.619910  0.479601  1
  Li  Li4  1  0.371869  0.385541  0.745033  1
  Li  Li5  1  0.371869  0.885541  0.754967  1
  Li  Li6  1  0.628131  0.114459  0.245033  1
  Li  Li7  1  0.628131  0.614459  0.254967  1
  Li  Li8  1  0.707188  0.380090  0.520399  1
  Li  Li9  1  0.707188  0.880090  0.979601  1
  Li  Li10  1  0.888096  0.116144  0.750290  1
  Li  Li11  1  0.888096  0.616144  0.749710  1
  V  V12  1  0.248246  0.114069  0.518820  1
  V  V13  1  0.248246  0.614069  0.981180  1
  V  V14  1  0.751754  0.385931  0.018820  1
  V  V15  1  0.751754  0.885931  0.481180  1
  P  P16  1  0.409080  0.358713  0.257230  1
  P  P17  1  0.409080  0.858713  0.242770  1
  P  P18  1  0.590920  0.141287  0.757230  1
  P  P19  1  0.590920  0.641287  0.742770  1
  C  C20  1  0.053337  0.366130  0.761782  1
  C  C21  1  0.053337  0.866130  0.738218  1
  C  C22  1  0.946663  0.133870  0.261782  1
  C  C23  1  0.946663  0.633870  0.238218  1
  O  O24  1  0.075585  0.497144  0.787983  1
  O  O25  1  0.089914  0.176645  0.268372  1
  O  O26  1  0.075585  0.997144  0.712017  1
  O  O27  1  0.165662  0.279236  0.731454  1
  O  O28  1  0.089914  0.676645  0.231628  1
  O  O29  1  0.165662  0.779236  0.768546  1
  O  O30  1  0.319208  0.405522  0.059648  1
  O  O31  1  0.314650  0.420586  0.437504  1
  O  O32  1  0.314650  0.920586  0.062496  1
  O  O33  1  0.319208  0.905522  0.440352  1
  O  O34  1  0.420409  0.095982  0.756801  1
  O  O35  1  0.408416  0.197721  0.270320  1
  O  O36  1  0.420409  0.595982  0.743199  1
  O  O37  1  0.408416  0.697721  0.229680  1
  O  O38  1  0.591584  0.302279  0.770320  1
  O  O39  1  0.579591  0.404018  0.256801  1
  O  O40  1  0.591584  0.802279  0.729680  1
  O  O41  1  0.579591  0.904018  0.243199  1
  O  O42  1  0.685350  0.079414  0.937504  1
  O  O43  1  0.680792  0.094478  0.559648  1
  O  O44  1  0.685350  0.579414  0.562496  1
  O  O45  1  0.680792  0.594478  0.940352  1
  O  O46  1  0.834338  0.220764  0.231454  1
  O  O47  1  0.910086  0.323355  0.768372  1
  O  O48  1  0.834338  0.720764  0.268546  1
  O  O49  1  0.924415  0.002856  0.287983  1
  O  O50  1  0.910086  0.823355  0.731628  1
  O  O51  1  0.924415  0.502856  0.212017  1
