# generated using pymatgen
data_Li2Mn5(FeO6)2
_symmetry_space_group_name_H-M   'P 1'
_cell_length_a   5.98121139
_cell_length_b   5.97744036
_cell_length_c   13.71329242
_cell_angle_alpha   102.76874138
_cell_angle_beta   102.44088220
_cell_angle_gamma   90.05219263
_symmetry_Int_Tables_number   1
_chemical_formula_structural   Li2Mn5(FeO6)2
_chemical_formula_sum   'Li4 Mn10 Fe4 O24'
_cell_volume   466.32337619
_cell_formula_units_Z   2
loop_
 _symmetry_equiv_pos_site_id
 _symmetry_equiv_pos_as_xyz
  1  'x, y, z'
loop_
 _atom_site_type_symbol
 _atom_site_label
 _atom_site_symmetry_multiplicity
 _atom_site_fract_x
 _atom_site_fract_y
 _atom_site_fract_z
 _atom_site_occupancy
  Li  Li0  1  0.794825  0.048398  0.085231  1
  Li  Li1  1  0.863821  0.617310  0.245922  1
  Li  Li2  1  0.538292  0.290765  0.586132  1
  Li  Li3  1  0.128257  0.381697  0.745059  1
  Mn  Mn4  1  0.001112  0.503507  0.996330  1
  Mn  Mn5  1  0.335839  0.832775  0.167642  1
  Mn  Mn6  1  0.335902  0.333080  0.166347  1
  Mn  Mn7  1  0.670391  0.171038  0.338444  1
  Mn  Mn8  1  0.163455  0.165315  0.336011  1
  Mn  Mn9  1  0.993205  -0.003181  0.496868  1
  Mn  Mn10  1  0.334803  0.831146  0.666178  1
  Mn  Mn11  1  0.836025  0.831700  0.667790  1
  Mn  Mn12  1  0.672246  0.172035  0.835650  1
  Mn  Mn13  1  0.667345  0.668372  0.837770  1
  Fe  Fe14  1  0.508798  0.499693  0.998713  1
  Fe  Fe15  1  0.467933  0.709949  0.416426  1
  Fe  Fe16  1  0.998976  0.491494  0.498280  1
  Fe  Fe17  1  0.207651  0.948543  0.916862  1
  O  O18  1  0.271651  0.249104  0.996398  1
  O  O19  1  0.244858  0.727260  -0.001266  1
  O  O20  1  0.548478  0.578012  0.153514  1
  O  O21  1  0.109220  0.574186  0.152306  1
  O  O22  1  0.565320  0.090607  0.185814  1
  O  O23  1  0.124349  0.091385  0.183347  1
  O  O24  1  0.418684  0.948609  0.338695  1
  O  O25  1  0.442328  0.409475  0.333792  1
  O  O26  1  0.887839  0.938060  0.344707  1
  O  O27  1  0.915258  0.381390  0.338246  1
  O  O28  1  0.747866  0.261498  0.486177  1
  O  O29  1  0.211711  0.229984  0.487788  1
  O  O30  1  0.245928  0.727120  0.495519  1
  O  O31  1  0.771449  0.755806  0.499687  1
  O  O32  1  0.077503  0.606700  0.653228  1
  O  O33  1  0.078330  0.044853  0.651835  1
  O  O34  1  0.592094  0.059138  0.683260  1
  O  O35  1  0.596852  0.620319  0.685468  1
  O  O36  1  0.891868  0.921535  0.838772  1
  O  O37  1  0.426154  0.891793  0.833060  1
  O  O38  1  0.907316  0.457073  0.843611  1
  O  O39  1  0.457749  0.421960  0.838195  1
  O  O40  1  0.760021  0.276608  0.988197  1
  O  O41  1  0.725268  0.739201  0.985722  1
