# generated using pymatgen
data_Li4Mn2(PO4)3
_symmetry_space_group_name_H-M   'P 1'
_cell_length_a   8.58316509
_cell_length_b   8.70315286
_cell_length_c   8.95219754
_cell_angle_alpha   62.78721202
_cell_angle_beta   119.24800665
_cell_angle_gamma   118.85029299
_symmetry_Int_Tables_number   1
_chemical_formula_structural   Li4Mn2(PO4)3
_chemical_formula_sum   'Li8 Mn4 P6 O24'
_cell_volume   489.11504412
_cell_formula_units_Z   2
loop_
 _symmetry_equiv_pos_site_id
 _symmetry_equiv_pos_as_xyz
  1  'x, y, z'
loop_
 _atom_site_type_symbol
 _atom_site_label
 _atom_site_symmetry_multiplicity
 _atom_site_fract_x
 _atom_site_fract_y
 _atom_site_fract_z
 _atom_site_occupancy
  Li  Li0  1  0.712259  0.895000  0.643870  1
  Li  Li1  1  0.612420  0.729062  0.171561  1
  Li  Li2  1  0.008172  0.222211  0.443745  1
  Li  Li3  1  0.779982  0.419950  0.133251  1
  Li  Li4  1  0.220085  0.580094  0.866760  1
  Li  Li5  1  0.991867  0.777789  0.556342  1
  Li  Li6  1  0.387581  0.270950  0.828428  1
  Li  Li7  1  0.287711  0.104875  0.356149  1
  Mn  Mn8  1  0.661029  0.356243  0.456768  1
  Mn  Mn9  1  0.338920  0.643743  0.543239  1
  Mn  Mn10  1  0.155379  0.862508  0.934879  1
  Mn  Mn11  1  0.844582  0.137483  0.064878  1
  P  P12  1  0.963586  0.752529  0.255628  1
  P  P13  1  0.448898  0.932067  0.751125  1
  P  P14  1  0.741047  0.540234  0.743159  1
  P  P15  1  0.258920  0.459746  0.256839  1
  P  P16  1  0.551143  0.067957  0.248889  1
  P  P17  1  0.036407  0.247484  0.744365  1
  O  O18  1  0.892790  0.880114  0.268876  1
  O  O19  1  0.863883  0.741501  0.743240  1
  O  O20  1  0.584283  0.937833  0.942667  1
  O  O21  1  0.793206  0.570794  0.243576  1
  O  O22  1  0.525304  0.880885  0.392420  1
  O  O23  1  0.793905  0.513178  0.613793  1
  O  O24  1  0.486415  0.794028  0.713062  1
  O  O25  1  0.239103  0.844717  0.744831  1
  O  O26  1  0.964420  0.172576  0.895776  1
  O  O27  1  0.782708  0.400121  0.928803  1
  O  O28  1  0.869486  0.265962  0.557824  1
  O  O29  1  0.526839  0.511595  0.679134  1
  O  O30  1  0.473141  0.488446  0.320846  1
  O  O31  1  0.130472  0.734019  0.442200  1
  O  O32  1  0.217251  0.599870  0.071199  1
  O  O33  1  0.035665  0.827449  0.104258  1
  O  O34  1  0.760954  0.155328  0.255227  1
  O  O35  1  0.513528  0.205941  0.286973  1
  O  O36  1  0.206055  0.486798  0.386210  1
  O  O37  1  0.474680  0.119100  0.607567  1
  O  O38  1  0.206751  0.429240  0.756382  1
  O  O39  1  0.415803  0.062202  0.057325  1
  O  O40  1  0.136132  0.258486  0.256753  1
  O  O41  1  0.107254  0.119904  0.731181  1
