# generated using pymatgen
data_Sm2Pb2O7
_symmetry_space_group_name_H-M   'P 1'
_cell_length_a   7.59562840
_cell_length_b   7.17776163
_cell_length_c   13.48936718
_cell_angle_alpha   90.00000000
_cell_angle_beta   112.56789123
_cell_angle_gamma   90.00000000
_symmetry_Int_Tables_number   1
_chemical_formula_structural   Sm2Pb2O7
_chemical_formula_sum   'Sm8 Pb8 O28'
_cell_volume   679.11941914
_cell_formula_units_Z   4
loop_
 _symmetry_equiv_pos_site_id
 _symmetry_equiv_pos_as_xyz
  1  'x, y, z'
loop_
 _atom_site_type_symbol
 _atom_site_label
 _atom_site_symmetry_multiplicity
 _atom_site_fract_x
 _atom_site_fract_y
 _atom_site_fract_z
 _atom_site_occupancy
  Sm  Sm0  1  0.171942  0.899299  0.644279  1
  Sm  Sm1  1  0.328058  0.399299  0.855721  1
  Sm  Sm2  1  0.116645  0.685668  0.387116  1
  Sm  Sm3  1  0.383355  0.185668  0.112884  1
  Sm  Sm4  1  0.616645  0.814332  0.887116  1
  Sm  Sm5  1  0.883355  0.314332  0.612884  1
  Sm  Sm6  1  0.671942  0.600701  0.144279  1
  Sm  Sm7  1  0.828058  0.100701  0.355721  1
  Pb  Pb8  1  0.131002  0.885327  0.898052  1
  Pb  Pb9  1  0.368998  0.385327  0.601948  1
  Pb  Pb10  1  0.330721  0.110996  0.388076  1
  Pb  Pb11  1  0.169279  0.610996  0.111924  1
  Pb  Pb12  1  0.830721  0.389004  0.888076  1
  Pb  Pb13  1  0.669279  0.889004  0.611924  1
  Pb  Pb14  1  0.631002  0.614673  0.398051  1
  Pb  Pb15  1  0.868998  0.114673  0.101948  1
  O  O16  1  0.936603  0.689117  0.935070  1
  O  O17  1  0.206962  0.234805  0.676210  1
  O  O18  1  0.325551  0.115894  0.932461  1
  O  O19  1  0.047834  0.035724  0.262685  1
  O  O20  1  0.008261  0.606458  0.206033  1
  O  O21  1  0.174449  0.615894  0.567539  1
  O  O22  1  0.150988  0.993758  0.468941  1
  O  O23  1  0.293038  0.734805  0.823790  1
  O  O24  1  0.268078  0.392530  0.423880  1
  O  O25  1  0.547834  0.464276  0.762685  1
  O  O26  1  0.563397  0.189117  0.564930  1
  O  O27  1  0.508261  0.893542  0.706033  1
  O  O28  1  0.231922  0.892530  0.076120  1
  O  O29  1  0.650988  0.506242  0.968941  1
  O  O30  1  0.349012  0.493758  0.031059  1
  O  O31  1  0.768078  0.107470  0.923880  1
  O  O32  1  0.491739  0.106458  0.293967  1
  O  O33  1  0.436603  0.810883  0.435070  1
  O  O34  1  0.452166  0.535724  0.237315  1
  O  O35  1  0.731922  0.607470  0.576120  1
  O  O36  1  0.706962  0.265195  0.176210  1
  O  O37  1  0.849012  0.006242  0.531059  1
  O  O38  1  0.825551  0.384106  0.432461  1
  O  O39  1  0.991739  0.393542  0.793967  1
  O  O40  1  0.952166  0.964276  0.737315  1
  O  O41  1  0.674449  0.884106  0.067539  1
  O  O42  1  0.793038  0.765195  0.323790  1
  O  O43  1  0.063397  0.310883  0.064930  1
