# generated using pymatgen
data_Li3V3P8O29
_symmetry_space_group_name_H-M   'P 1'
_cell_length_a   9.79920168
_cell_length_b   9.74566114
_cell_length_c   14.32842929
_cell_angle_alpha   89.79323695
_cell_angle_beta   90.62142987
_cell_angle_gamma   59.83790241
_symmetry_Int_Tables_number   1
_chemical_formula_structural   Li3V3P8O29
_chemical_formula_sum   'Li6 V6 P16 O58'
_cell_volume   1182.96021534
_cell_formula_units_Z   2
loop_
 _symmetry_equiv_pos_site_id
 _symmetry_equiv_pos_as_xyz
  1  'x, y, z'
loop_
 _atom_site_type_symbol
 _atom_site_label
 _atom_site_symmetry_multiplicity
 _atom_site_fract_x
 _atom_site_fract_y
 _atom_site_fract_z
 _atom_site_occupancy
  Li  Li0  1  0.921176  0.300389  0.553879  1
  Li  Li1  1  0.327185  0.903376  0.060745  1
  Li  Li2  1  0.684452  0.224817  0.440222  1
  Li  Li3  1  0.302181  0.778509  0.557596  1
  Li  Li4  1  0.086000  0.231247  0.947071  1
  Li  Li5  1  0.938877  0.982782  0.996886  1
  V  V6  1  0.567772  0.439312  0.240578  1
  V  V7  1  0.433130  0.563511  0.758720  1
  V  V8  1  0.567719  0.001923  0.747707  1
  V  V9  1  0.437292  0.000799  0.254177  1
  V  V10  1  0.998243  0.569875  0.249406  1
  V  V11  1  0.001485  0.440970  0.750217  1
  P  P12  1  0.916997  0.781025  0.839037  1
  P  P13  1  0.776926  0.911687  0.341249  1
  P  P14  1  0.911288  0.316257  0.338799  1
  P  P15  1  0.665762  0.671542  0.129790  1
  P  P16  1  0.661455  0.666216  0.635032  1
  P  P17  1  0.784210  0.303490  0.840843  1
  P  P18  1  0.680907  0.232998  0.659512  1
  P  P19  1  0.317108  0.916339  0.842235  1
  P  P20  1  0.689481  0.082742  0.159402  1
  P  P21  1  0.322932  0.767124  0.342568  1
  P  P22  1  0.217197  0.697796  0.163104  1
  P  P23  1  0.337288  0.336997  0.366606  1
  P  P24  1  0.334254  0.327365  0.867371  1
  P  P25  1  0.087290  0.689864  0.657398  1
  P  P26  1  0.225912  0.089361  0.660786  1
  P  P27  1  0.088962  0.226169  0.160274  1
  O  O28  1  0.005580  0.763247  0.568992  1
  O  O29  1  0.917517  0.740076  0.334988  1
  O  O30  1  0.780470  0.009866  0.074760  1
  O  O31  1  0.742086  0.914769  0.827247  1
  O  O32  1  0.921044  0.618781  0.826783  1
  O  O33  1  0.812201  0.671591  0.174995  1
  O  O34  1  0.903948  0.476647  0.319374  1
  O  O35  1  0.015052  0.218389  0.070494  1
  O  O36  1  0.919442  0.344242  0.836164  1
  O  O37  1  0.657597  0.816521  0.677219  1
  O  O38  1  0.623034  0.902849  0.322866  1
  O  O39  1  0.816348  0.518401  0.678136  1
  O  O40  1  0.661778  0.666090  0.026368  1
  O  O41  1  0.659760  0.659610  0.531750  1
  O  O42  1  0.671700  0.516241  0.173981  1
  O  O43  1  0.474061  0.912871  0.826152  1
  O  O44  1  0.512267  0.814884  0.169934  1
  O  O45  1  0.742820  0.337476  0.332527  1
  O  O46  1  0.800598  0.212592  0.743088  1
  O  O47  1  0.750248  0.245998  0.569557  1
  O  O48  1  0.807520  0.199297  0.921768  1
  O  O49  1  0.620168  0.460638  0.831335  1
  O  O50  1  0.518239  0.661060  0.680073  1
  O  O51  1  0.647153  0.259507  0.170082  1
  O  O52  1  0.480912  0.617191  0.317540  1
  O  O53  1  0.346965  0.912358  0.329064  1
  O  O54  1  0.797287  0.997154  0.250248  1
  O  O55  1  0.767913  0.003508  0.425178  1
  O  O56  1  0.228645  0.994827  0.579513  1
  O  O57  1  0.657941  0.087521  0.665954  1
  O  O58  1  0.521477  0.383199  0.681923  1
  O  O59  1  0.344388  0.745030  0.834250  1
  O  O60  1  0.482483  0.341679  0.327415  1
  O  O61  1  0.379505  0.538944  0.169377  1
  O  O62  1  0.203117  0.803444  0.083738  1
  O  O63  1  0.260752  0.759602  0.434611  1
  O  O64  1  0.200394  0.786883  0.261025  1
  O  O65  1  0.259209  0.660752  0.666669  1
  O  O66  1  0.482130  0.186501  0.821420  1
  O  O67  1  0.536124  0.076412  0.170822  1
  O  O68  1  0.328842  0.481660  0.825863  1
  O  O69  1  0.328006  0.323257  0.970479  1
  O  O70  1  0.337277  0.327076  0.469820  1
  O  O71  1  0.183938  0.478146  0.321069  1
  O  O72  1  0.379597  0.095732  0.676084  1
  O  O73  1  0.345649  0.183484  0.319094  1
  O  O74  1  0.082368  0.659318  0.165862  1
  O  O75  1  0.002478  0.796619  0.747871  1
  O  O76  1  0.991511  0.798231  0.924694  1
  O  O77  1  0.095301  0.526818  0.680777  1
  O  O78  1  0.185628  0.323478  0.824338  1
  O  O79  1  0.086832  0.384671  0.174575  1
  O  O80  1  0.261353  0.083090  0.165761  1
  O  O81  1  0.238436  0.994724  0.931597  1
  O  O82  1  0.201587  0.013217  0.756447  1
  O  O83  1  0.080257  0.260721  0.660438  1
  O  O84  1  0.987885  0.243209  0.429811  1
  O  O85  1  0.003293  0.204766  0.250722  1
