# generated using pymatgen
data_Li4Nb2Fe3Ni3O16
_symmetry_space_group_name_H-M   'P 1'
_cell_length_a   5.94415354
_cell_length_b   5.87321491
_cell_length_c   9.69886599
_cell_angle_alpha   90.01247434
_cell_angle_beta   91.20889359
_cell_angle_gamma   119.57932878
_symmetry_Int_Tables_number   1
_chemical_formula_structural   Li4Nb2Fe3Ni3O16
_chemical_formula_sum   'Li4 Nb2 Fe3 Ni3 O16'
_cell_volume   294.38369256
_cell_formula_units_Z   1
loop_
 _symmetry_equiv_pos_site_id
 _symmetry_equiv_pos_as_xyz
  1  'x, y, z'
loop_
 _atom_site_type_symbol
 _atom_site_label
 _atom_site_symmetry_multiplicity
 _atom_site_fract_x
 _atom_site_fract_y
 _atom_site_fract_z
 _atom_site_occupancy
  Li  Li0  1  0.322274  0.661399  0.898324  1
  Li  Li1  1  0.995236  0.997506  0.989953  1
  Li  Li2  1  0.998139  0.999143  0.491639  1
  Li  Li3  1  0.672670  0.336217  0.405465  1
  Nb  Nb4  1  0.340299  0.669825  0.495998  1
  Nb  Nb5  1  0.654672  0.327388  0.992951  1
  Fe  Fe6  1  0.174555  0.832216  0.218774  1
  Fe  Fe7  1  0.174558  0.342490  0.218684  1
  Fe  Fe8  1  0.340762  0.170267  0.717887  1
  Ni  Ni9  1  0.660226  0.830072  0.212173  1
  Ni  Ni10  1  0.826687  0.660182  0.714253  1
  Ni  Ni11  1  0.826916  0.166572  0.714258  1
  O  O12  1  0.180069  0.840880  0.590245  1
  O  O13  1  0.039183  0.519755  0.344591  1
  O  O14  1  0.324166  0.662098  0.109449  1
  O  O15  1  0.001177  0.000781  0.303336  1
  O  O16  1  0.992984  0.996291  0.801169  1
  O  O17  1  0.179322  0.338998  0.590340  1
  O  O18  1  0.482940  0.966732  0.345678  1
  O  O19  1  0.482706  0.515874  0.345763  1
  O  O20  1  0.332143  0.166036  0.094404  1
  O  O21  1  0.681477  0.840253  0.596384  1
  O  O22  1  0.506775  0.477009  0.845183  1
  O  O23  1  0.507595  0.030024  0.845201  1
  O  O24  1  0.675160  0.337670  0.614386  1
  O  O25  1  0.837456  0.666728  0.087907  1
  O  O26  1  0.952107  0.476664  0.835650  1
  O  O27  1  0.837745  0.171227  0.087796  1
