# generated using pymatgen
data_KSnO2
_symmetry_space_group_name_H-M   'P 1'
_cell_length_a   6.74484011
_cell_length_b   7.58502430
_cell_length_c   6.74056097
_cell_angle_alpha   116.80359856
_cell_angle_beta   77.23262243
_cell_angle_gamma   107.41905739
_symmetry_Int_Tables_number   1
_chemical_formula_structural   KSnO2
_chemical_formula_sum   'K4 Sn4 O8'
_cell_volume   292.17796499
_cell_formula_units_Z   4
loop_
 _symmetry_equiv_pos_site_id
 _symmetry_equiv_pos_as_xyz
  1  'x, y, z'
loop_
 _atom_site_type_symbol
 _atom_site_label
 _atom_site_symmetry_multiplicity
 _atom_site_fract_x
 _atom_site_fract_y
 _atom_site_fract_z
 _atom_site_occupancy
  K  K0  1  0.016621  0.737193  0.998693  1
  K  K1  1  0.456748  0.993718  0.746225  1
  K  K2  1  0.539521  0.006314  0.254598  1
  K  K3  1  0.977543  0.266130  0.000179  1
  Sn  Sn4  1  0.105436  0.262143  0.477436  1
  Sn  Sn5  1  0.488701  0.499432  0.237371  1
  Sn  Sn6  1  0.506013  0.501189  0.763279  1
  Sn  Sn7  1  0.889691  0.737774  0.523019  1
  O  O8  1  0.304926  0.560712  0.581987  1
  O  O9  1  0.305322  0.217282  0.635856  1
  O  O10  1  0.288877  0.210094  0.170455  1
  O  O11  1  0.326823  0.591528  0.077486  1
  O  O12  1  0.690433  0.782502  0.363994  1
  O  O13  1  0.690076  0.439793  0.418890  1
  O  O14  1  0.667202  0.408530  0.923227  1
  O  O15  1  0.706555  0.789968  0.829941  1
