# generated using pymatgen
data_Li3Fe4(BO3)4
_symmetry_space_group_name_H-M   'P 1'
_cell_length_a   5.23972122
_cell_length_b   9.02723787
_cell_length_c   10.25711498
_cell_angle_alpha   89.70996200
_cell_angle_beta   91.50471332
_cell_angle_gamma   89.98723787
_symmetry_Int_Tables_number   1
_chemical_formula_structural   Li3Fe4(BO3)4
_chemical_formula_sum   'Li6 Fe8 B8 O24'
_cell_volume   484.99014676
_cell_formula_units_Z   2
loop_
 _symmetry_equiv_pos_site_id
 _symmetry_equiv_pos_as_xyz
  1  'x, y, z'
loop_
 _atom_site_type_symbol
 _atom_site_label
 _atom_site_symmetry_multiplicity
 _atom_site_fract_x
 _atom_site_fract_y
 _atom_site_fract_z
 _atom_site_occupancy
  Li  Li0  1  0.335663  0.008917  0.832628  1
  Li  Li1  1  0.659039  0.005650  0.088793  1
  Li  Li2  1  0.163129  0.500922  0.101693  1
  Li  Li3  1  0.836734  0.511267  0.843459  1
  Li  Li4  1  0.339845  0.991087  0.337487  1
  Li  Li5  1  0.658839  0.995458  0.584573  1
  Fe  Fe6  1  0.159885  0.163878  0.114609  1
  Fe  Fe7  1  0.848642  0.176432  0.363755  1
  Fe  Fe8  1  0.336647  0.343970  0.868189  1
  Fe  Fe9  1  0.661130  0.335079  0.620572  1
  Fe  Fe10  1  0.331906  0.660210  0.367581  1
  Fe  Fe11  1  0.147858  0.822403  0.621847  1
  Fe  Fe12  1  0.667196  0.657714  0.122932  1
  Fe  Fe13  1  0.840811  0.840164  0.872992  1
  B  B14  1  0.170783  0.165473  0.626853  1
  B  B15  1  0.341295  0.329317  0.371662  1
  B  B16  1  0.834380  0.168278  0.870143  1
  B  B17  1  0.663715  0.331008  0.116261  1
  B  B18  1  0.335518  0.670732  0.876403  1
  B  B19  1  0.652054  0.669216  0.620685  1
  B  B20  1  0.162714  0.832316  0.127357  1
  B  B21  1  0.822860  0.835914  0.370727  1
  O  O22  1  0.298419  0.032090  0.631586  1
  O  O23  1  0.094819  0.162170  0.901177  1
  O  O24  1  0.684421  0.043545  0.885588  1
  O  O25  1  0.221083  0.198571  0.333221  1
  O  O26  1  0.302166  0.294927  0.659336  1
  O  O27  1  0.774447  0.195592  0.154790  1
  O  O28  1  0.910620  0.172217  0.593516  1
  O  O29  1  0.404900  0.334646  0.079621  1
  O  O30  1  0.225657  0.463243  0.348991  1
  O  O31  1  0.582458  0.320746  0.431003  1
  O  O32  1  0.723056  0.300968  0.826605  1
  O  O33  1  0.187711  0.545072  0.889695  1
  O  O34  1  0.809737  0.455871  0.111882  1
  O  O35  1  0.275421  0.696573  0.161696  1
  O  O36  1  0.414311  0.677804  0.559017  1
  O  O37  1  0.763718  0.534849  0.650005  1
  O  O38  1  0.595336  0.666613  0.908119  1
  O  O39  1  0.086521  0.826742  0.396009  1
  O  O40  1  0.221996  0.802876  0.833702  1
  O  O41  1  0.688431  0.711375  0.330358  1
  O  O42  1  0.776220  0.800416  0.656154  1
  O  O43  1  0.308394  0.959806  0.137291  1
  O  O44  1  0.907863  0.838122  0.086488  1
  O  O45  1  0.697486  0.968543  0.389908  1
