# generated using pymatgen
data_Li4V3Ni3(SnO8)2
_symmetry_space_group_name_H-M   'P 1'
_cell_length_a   5.96164111
_cell_length_b   5.94557443
_cell_length_c   9.71715746
_cell_angle_alpha   89.94503226
_cell_angle_beta   90.84971740
_cell_angle_gamma   119.98098278
_symmetry_Int_Tables_number   1
_chemical_formula_structural   Li4V3Ni3(SnO8)2
_chemical_formula_sum   'Li4 V3 Ni3 Sn2 O16'
_cell_volume   298.29975912
_cell_formula_units_Z   1
loop_
 _symmetry_equiv_pos_site_id
 _symmetry_equiv_pos_as_xyz
  1  'x, y, z'
loop_
 _atom_site_type_symbol
 _atom_site_label
 _atom_site_symmetry_multiplicity
 _atom_site_fract_x
 _atom_site_fract_y
 _atom_site_fract_z
 _atom_site_occupancy
  Li  Li0  1  0.315602  0.656506  0.889583  1
  Li  Li1  1  0.003679  0.003772  0.988771  1
  Li  Li2  1  0.006061  0.003332  0.497330  1
  Li  Li3  1  0.659846  0.328858  0.402187  1
  V  V4  1  0.177999  0.838821  0.212993  1
  V  V5  1  0.172953  0.349412  0.218259  1
  V  V6  1  0.342542  0.171148  0.718838  1
  Ni  Ni7  1  0.663118  0.830730  0.211651  1
  Ni  Ni8  1  0.827889  0.658939  0.712272  1
  Ni  Ni9  1  0.827384  0.168225  0.712193  1
  Sn  Sn10  1  0.346281  0.674022  0.502160  1
  Sn  Sn11  1  0.679619  0.340435  0.984831  1
  O  O12  1  0.176586  0.849224  0.601709  1
  O  O13  1  0.034717  0.506867  0.334695  1
  O  O14  1  0.308562  0.639768  0.104288  1
  O  O15  1  0.022673  0.021494  0.305308  1
  O  O16  1  0.025109  0.012605  0.802312  1
  O  O17  1  0.178099  0.328405  0.602179  1
  O  O18  1  0.460779  0.957912  0.333401  1
  O  O19  1  0.461688  0.500892  0.333870  1
  O  O20  1  0.332553  0.171716  0.108335  1
  O  O21  1  0.691151  0.845562  0.590754  1
  O  O22  1  0.493088  0.463917  0.841968  1
  O  O23  1  0.491508  0.027949  0.842421  1
  O  O24  1  0.623106  0.311026  0.604741  1
  O  O25  1  0.861356  0.684532  0.104512  1
  O  O26  1  0.958474  0.478404  0.841410  1
  O  O27  1  0.857577  0.175829  0.104868  1
