# generated using pymatgen
data_Li3Mn2(PO4)3
_symmetry_space_group_name_H-M   'P 1'
_cell_length_a   8.55590288
_cell_length_b   12.46532460
_cell_length_c   8.78739925
_cell_angle_alpha   90.00000000
_cell_angle_beta   90.00000000
_cell_angle_gamma   91.92474383
_symmetry_Int_Tables_number   1
_chemical_formula_structural   Li3Mn2(PO4)3
_chemical_formula_sum   'Li12 Mn8 P12 O48'
_cell_volume   936.66588086
_cell_formula_units_Z   4
loop_
 _symmetry_equiv_pos_site_id
 _symmetry_equiv_pos_as_xyz
  1  'x, y, z'
loop_
 _atom_site_type_symbol
 _atom_site_label
 _atom_site_symmetry_multiplicity
 _atom_site_fract_x
 _atom_site_fract_y
 _atom_site_fract_z
 _atom_site_occupancy
  Li  Li0  1  0.063370  0.705542  0.065725  1
  Li  Li1  1  0.220802  0.176437  0.777155  1
  Li  Li2  1  0.203385  0.813264  0.734494  1
  Li  Li3  1  0.296615  0.686736  0.234494  1
  Li  Li4  1  0.279198  0.323563  0.277155  1
  Li  Li5  1  0.436630  0.794458  0.565725  1
  Li  Li6  1  0.563370  0.205542  0.434275  1
  Li  Li7  1  0.720802  0.676437  0.722845  1
  Li  Li8  1  0.703385  0.313264  0.765506  1
  Li  Li9  1  0.796615  0.186736  0.265506  1
  Li  Li10  1  0.779198  0.823563  0.222845  1
  Li  Li11  1  0.936630  0.294458  0.934275  1
  Mn  Mn12  1  0.248726  0.601297  0.542418  1
  Mn  Mn13  1  0.251274  0.898703  0.042418  1
  Mn  Mn14  1  0.244158  0.111047  0.457121  1
  Mn  Mn15  1  0.255842  0.388953  0.957121  1
  Mn  Mn16  1  0.744158  0.611047  0.042879  1
  Mn  Mn17  1  0.755842  0.888953  0.542879  1
  Mn  Mn18  1  0.748726  0.101297  0.957582  1
  Mn  Mn19  1  0.751274  0.398703  0.457582  1
  P  P20  1  0.039298  0.503909  0.249706  1
  P  P21  1  0.106215  0.858906  0.392661  1
  P  P22  1  0.106068  0.153293  0.096259  1
  P  P23  1  0.393932  0.346707  0.596259  1
  P  P24  1  0.393785  0.641094  0.892661  1
  P  P25  1  0.460702  0.996091  0.749706  1
  P  P26  1  0.539298  0.003909  0.250294  1
  P  P27  1  0.606215  0.358906  0.107339  1
  P  P28  1  0.606068  0.653293  0.403741  1
  P  P29  1  0.893932  0.846707  0.903741  1
  P  P30  1  0.893785  0.141094  0.607339  1
  P  P31  1  0.960702  0.496091  0.750294  1
  O  O32  1  0.050591  0.428691  0.868553  1
  O  O33  1  0.067715  0.576233  0.661591  1
  O  O34  1  0.078603  0.847313  0.907275  1
  O  O35  1  0.072857  0.164607  0.590416  1
  O  O36  1  0.124541  0.591099  0.349426  1
  O  O37  1  0.137680  0.980755  0.400447  1
  O  O38  1  0.148389  0.817521  0.227966  1
  O  O39  1  0.151553  0.241980  0.974030  1
  O  O40  1  0.161045  0.434358  0.173387  1
  O  O41  1  0.156625  0.188992  0.254718  1
  O  O42  1  0.169676  0.048739  0.041021  1
  O  O43  1  0.202197  0.799497  0.513245  1
  O  O44  1  0.297803  0.700503  0.013245  1
  O  O45  1  0.330324  0.451261  0.541021  1
  O  O46  1  0.343375  0.311008  0.754718  1
  O  O47  1  0.338955  0.065642  0.673387  1
  O  O48  1  0.348447  0.258020  0.474030  1
  O  O49  1  0.351611  0.682479  0.727966  1
  O  O50  1  0.362320  0.519245  0.900447  1
  O  O51  1  0.375459  0.908901  0.849426  1
  O  O52  1  0.421397  0.652687  0.407275  1
  O  O53  1  0.427143  0.335393  0.090416  1
  O  O54  1  0.432285  0.923767  0.161591  1
  O  O55  1  0.449409  0.071309  0.368553  1
  O  O56  1  0.550591  0.928691  0.631447  1
  O  O57  1  0.567715  0.076233  0.838409  1
  O  O58  1  0.572857  0.664607  0.909584  1
  O  O59  1  0.578603  0.347313  0.592725  1
  O  O60  1  0.624541  0.091099  0.150574  1
  O  O61  1  0.637680  0.480755  0.099553  1
  O  O62  1  0.648389  0.317521  0.272034  1
  O  O63  1  0.651553  0.741980  0.525970  1
  O  O64  1  0.661045  0.934358  0.326613  1
  O  O65  1  0.656625  0.688992  0.245282  1
  O  O66  1  0.669676  0.548739  0.458979  1
  O  O67  1  0.702197  0.299497  0.986755  1
  O  O68  1  0.797803  0.200503  0.486755  1
  O  O69  1  0.830324  0.951261  0.958979  1
  O  O70  1  0.843375  0.811008  0.745282  1
  O  O71  1  0.838955  0.565642  0.826613  1
  O  O72  1  0.848447  0.758020  0.025970  1
  O  O73  1  0.851611  0.182479  0.772034  1
  O  O74  1  0.862320  0.019245  0.599553  1
  O  O75  1  0.875459  0.408901  0.650574  1
  O  O76  1  0.927143  0.835393  0.409584  1
  O  O77  1  0.921397  0.152687  0.092725  1
  O  O78  1  0.932285  0.423767  0.338409  1
  O  O79  1  0.949409  0.571309  0.131447  1
