# generated using pymatgen
data_Li5FeO3F2
_symmetry_space_group_name_H-M   'P 1'
_cell_length_a   3.88201800
_cell_length_b   5.34118959
_cell_length_c   6.04861763
_cell_angle_alpha   70.65852232
_cell_angle_beta   90.01890590
_cell_angle_gamma   68.69274328
_symmetry_Int_Tables_number   1
_chemical_formula_structural   Li5FeO3F2
_chemical_formula_sum   'Li5 Fe1 O3 F2'
_cell_volume   109.20464553
_cell_formula_units_Z   1
loop_
 _symmetry_equiv_pos_site_id
 _symmetry_equiv_pos_as_xyz
  1  'x, y, z'
loop_
 _atom_site_type_symbol
 _atom_site_label
 _atom_site_symmetry_multiplicity
 _atom_site_fract_x
 _atom_site_fract_y
 _atom_site_fract_z
 _atom_site_occupancy
  Li  Li0  1  0.684089  0.629126  0.864304  1
  Li  Li1  1  0.684629  0.628278  0.349468  1
  Li  Li2  1  0.289068  0.418385  0.688915  1
  Li  Li3  1  0.315916  0.366519  0.131730  1
  Li  Li4  1  0.982065  0.036302  0.528324  1
  Fe  Fe5  1  0.996161  0.004620  0.976572  1
  O  O6  1  0.141892  0.713511  0.834442  1
  O  O7  1  0.494044  0.009144  0.057272  1
  O  O8  1  0.832816  0.330953  0.685474  1
  F  F9  1  0.163077  0.670818  0.346467  1
  F  F10  1  0.837352  0.323657  0.206436  1
