# generated using pymatgen
data_Li4Fe3Cu3(WO8)2
_symmetry_space_group_name_H-M   'P 1'
_cell_length_a   6.01118043
_cell_length_b   5.91648205
_cell_length_c   9.90764227
_cell_angle_alpha   90.03462769
_cell_angle_beta   86.89609352
_cell_angle_gamma   119.51865543
_symmetry_Int_Tables_number   1
_chemical_formula_structural   Li4Fe3Cu3(WO8)2
_chemical_formula_sum   'Li4 Fe3 Cu3 W2 O16'
_cell_volume   306.03927743
_cell_formula_units_Z   1
loop_
 _symmetry_equiv_pos_site_id
 _symmetry_equiv_pos_as_xyz
  1  'x, y, z'
loop_
 _atom_site_type_symbol
 _atom_site_label
 _atom_site_symmetry_multiplicity
 _atom_site_fract_x
 _atom_site_fract_y
 _atom_site_fract_z
 _atom_site_occupancy
  Li  Li0  1  0.327184  0.663554  0.912419  1
  Li  Li1  1  0.001310  0.000587  0.985121  1
  Li  Li2  1  0.004634  0.002410  0.481747  1
  Li  Li3  1  0.689427  0.344744  0.411932  1
  Fe  Fe4  1  0.661774  0.830830  0.215917  1
  Fe  Fe5  1  0.823661  0.657808  0.715619  1
  Fe  Fe6  1  0.823801  0.166066  0.715557  1
  Cu  Cu7  1  0.171662  0.831143  0.211765  1
  Cu  Cu8  1  0.171679  0.340436  0.211787  1
  Cu  Cu9  1  0.336206  0.168105  0.707926  1
  W  W10  1  0.354942  0.677585  0.487884  1
  W  W11  1  0.654073  0.326627  0.985418  1
  O  O12  1  0.156769  0.816391  0.581072  1
  O  O13  1  0.065517  0.532971  0.346132  1
  O  O14  1  0.333707  0.666771  0.119105  1
  O  O15  1  0.005456  0.002724  0.293063  1
  O  O16  1  0.002622  0.001420  0.796587  1
  O  O17  1  0.156119  0.340842  0.580783  1
  O  O18  1  0.519300  0.977668  0.363101  1
  O  O19  1  0.519218  0.541710  0.363149  1
  O  O20  1  0.320046  0.159927  0.087988  1
  O  O21  1  0.649528  0.824853  0.602448  1
  O  O22  1  0.519974  0.485205  0.854394  1
  O  O23  1  0.520740  0.034336  0.854714  1
  O  O24  1  0.666826  0.333417  0.613812  1
  O  O25  1  0.793520  0.642494  0.081865  1
  O  O26  1  0.956550  0.478401  0.844445  1
  O  O27  1  0.793755  0.151272  0.082090  1
