# generated using pymatgen
data_LaAlO3
_symmetry_space_group_name_H-M   'P 1'
_cell_length_a   8.31854353
_cell_length_b   7.92599936
_cell_length_c   7.35280489
_cell_angle_alpha   89.67373940
_cell_angle_beta   96.34129929
_cell_angle_gamma   103.82211814
_symmetry_Int_Tables_number   1
_chemical_formula_structural   LaAlO3
_chemical_formula_sum   'La6 Al6 O18'
_cell_volume   467.76447376
_cell_formula_units_Z   6
loop_
 _symmetry_equiv_pos_site_id
 _symmetry_equiv_pos_as_xyz
  1  'x, y, z'
loop_
 _atom_site_type_symbol
 _atom_site_label
 _atom_site_symmetry_multiplicity
 _atom_site_fract_x
 _atom_site_fract_y
 _atom_site_fract_z
 _atom_site_occupancy
  La  La0  1  0.015343  0.754900  0.027654  1
  La  La1  1  0.984657  0.245100  0.972346  1
  La  La2  1  0.302296  0.576739  0.730552  1
  La  La3  1  0.317801  0.082145  0.737155  1
  La  La4  1  0.682199  0.917855  0.262845  1
  La  La5  1  0.697704  0.423261  0.269448  1
  Al  Al6  1  0.093896  0.269011  0.446723  1
  Al  Al7  1  0.312062  0.604807  0.231898  1
  Al  Al8  1  0.313634  0.048969  0.234403  1
  Al  Al9  1  0.686366  0.951031  0.765597  1
  Al  Al10  1  0.687938  0.395193  0.768102  1
  Al  Al11  1  0.906104  0.730989  0.553277  1
  O  O12  1  0.092412  0.779185  0.706771  1
  O  O13  1  0.103340  0.271041  0.690579  1
  O  O14  1  0.186159  0.528100  0.020879  1
  O  O15  1  0.217753  0.483570  0.411788  1
  O  O16  1  0.294709  0.822518  0.246810  1
  O  O17  1  0.225534  0.123582  0.417404  1
  O  O18  1  0.191669  0.067377  0.021515  1
  O  O19  1  0.472226  0.858245  0.767785  1
  O  O20  1  0.474636  0.381357  0.772088  1
  O  O21  1  0.525364  0.618643  0.227912  1
  O  O22  1  0.527774  0.141755  0.232215  1
  O  O23  1  0.808331  0.932623  0.978485  1
  O  O24  1  0.774466  0.876418  0.582596  1
  O  O25  1  0.705291  0.177482  0.753190  1
  O  O26  1  0.782247  0.516430  0.588212  1
  O  O27  1  0.813841  0.471900  0.979121  1
  O  O28  1  0.896660  0.728959  0.309421  1
  O  O29  1  0.907588  0.220815  0.293229  1
