# generated using pymatgen
data_Mn3VTe2(PO4)6
_symmetry_space_group_name_H-M   'P 1'
_cell_length_a   8.87232558
_cell_length_b   8.87232534
_cell_length_c   8.87232570
_cell_angle_alpha   59.88841397
_cell_angle_beta   59.88840944
_cell_angle_gamma   59.88841380
_symmetry_Int_Tables_number   1
_chemical_formula_structural   Mn3VTe2(PO4)6
_chemical_formula_sum   'Mn3 V1 Te2 P6 O24'
_cell_volume   492.60236481
_cell_formula_units_Z   1
loop_
 _symmetry_equiv_pos_site_id
 _symmetry_equiv_pos_as_xyz
  1  'x, y, z'
loop_
 _atom_site_type_symbol
 _atom_site_label
 _atom_site_symmetry_multiplicity
 _atom_site_fract_x
 _atom_site_fract_y
 _atom_site_fract_z
 _atom_site_occupancy
  Mn  Mn0  1  0.160522  0.160522  0.160522  1
  Mn  Mn1  1  0.348901  0.348901  0.348901  1
  Mn  Mn2  1  0.654539  0.654539  0.654539  1
  V  V3  1  0.854133  0.854133  0.854133  1
  Te  Te4  1  0.017541  0.017541  0.017541  1
  Te  Te5  1  0.509912  0.509912  0.509912  1
  P  P6  1  0.043567  0.748456  0.458669  1
  P  P7  1  0.458669  0.043567  0.748456  1
  P  P8  1  0.748456  0.458669  0.043567  1
  P  P9  1  0.242988  0.553546  0.943022  1
  P  P10  1  0.553546  0.943022  0.242988  1
  P  P11  1  0.943022  0.242988  0.553546  1
  O  O12  1  0.090418  0.300279  0.528930  1
  O  O13  1  0.300279  0.528930  0.090418  1
  O  O14  1  0.062812  0.916801  0.255464  1
  O  O15  1  0.528930  0.090418  0.300279  1
  O  O16  1  0.240570  0.604419  0.440169  1
  O  O17  1  0.986510  0.826810  0.607931  1
  O  O18  1  0.255464  0.062812  0.916801  1
  O  O19  1  0.440169  0.240570  0.604419  1
  O  O20  1  0.604419  0.440169  0.240570  1
  O  O21  1  0.194643  0.399907  0.968845  1
  O  O22  1  0.082040  0.745726  0.914589  1
  O  O23  1  0.399907  0.968845  0.194643  1
  O  O24  1  0.607931  0.986510  0.826810  1
  O  O25  1  0.916801  0.255464  0.062812  1
  O  O26  1  0.826810  0.607931  0.986510  1
  O  O27  1  0.405268  0.579816  0.743122  1
  O  O28  1  0.579816  0.743122  0.405268  1
  O  O29  1  0.745726  0.914589  0.082040  1
  O  O30  1  0.968845  0.194643  0.399907  1
  O  O31  1  0.743122  0.405268  0.579816  1
  O  O32  1  0.479156  0.905390  0.684588  1
  O  O33  1  0.914589  0.082040  0.745726  1
  O  O34  1  0.684588  0.479156  0.905390  1
  O  O35  1  0.905390  0.684588  0.479156  1
