# generated using pymatgen
data_Na3VSiCO7
_symmetry_space_group_name_H-M   'P 1'
_cell_length_a   9.08078455
_cell_length_b   6.62462920
_cell_length_c   5.22799268
_cell_angle_alpha   90.00000000
_cell_angle_beta   89.03548588
_cell_angle_gamma   90.00000000
_symmetry_Int_Tables_number   1
_chemical_formula_structural   Na3VSiCO7
_chemical_formula_sum   'Na6 V2 Si2 C2 O14'
_cell_volume   314.45490872
_cell_formula_units_Z   2
loop_
 _symmetry_equiv_pos_site_id
 _symmetry_equiv_pos_as_xyz
  1  'x, y, z'
loop_
 _atom_site_type_symbol
 _atom_site_label
 _atom_site_symmetry_multiplicity
 _atom_site_fract_x
 _atom_site_fract_y
 _atom_site_fract_z
 _atom_site_occupancy
  Na  Na0  1  0.086318  0.250000  0.764958  1
  Na  Na1  1  0.266740  0.009860  0.253309  1
  Na  Na2  1  0.266740  0.490140  0.253309  1
  Na  Na3  1  0.733260  0.509860  0.746691  1
  Na  Na4  1  0.733260  0.990140  0.746691  1
  Na  Na5  1  0.913682  0.750000  0.235042  1
  V  V6  1  0.348128  0.750000  0.796660  1
  V  V7  1  0.651872  0.250000  0.203340  1
  Si  Si8  1  0.417987  0.250000  0.700095  1
  Si  Si9  1  0.582013  0.750000  0.299905  1
  C  C10  1  0.062127  0.750000  0.729054  1
  C  C11  1  0.937873  0.250000  0.270946  1
  O  O12  1  0.079639  0.250000  0.287306  1
  O  O13  1  0.124298  0.750000  0.952283  1
  O  O14  1  0.147448  0.750000  0.525376  1
  O  O15  1  0.314996  0.051258  0.775921  1
  O  O16  1  0.314996  0.448742  0.775921  1
  O  O17  1  0.451026  0.250000  0.390546  1
  O  O18  1  0.426075  0.750000  0.142862  1
  O  O19  1  0.573925  0.250000  0.857138  1
  O  O20  1  0.548974  0.750000  0.609454  1
  O  O21  1  0.685004  0.551258  0.224079  1
  O  O22  1  0.685004  0.948742  0.224079  1
  O  O23  1  0.852552  0.250000  0.474624  1
  O  O24  1  0.875702  0.250000  0.047717  1
  O  O25  1  0.920361  0.750000  0.712694  1
