# generated using pymatgen
data_Li3V2NiO6
_symmetry_space_group_name_H-M   'P 1'
_cell_length_a   15.33399942
_cell_length_b   9.83232362
_cell_length_c   9.83232358
_cell_angle_alpha   17.45498421
_cell_angle_beta   16.70139850
_cell_angle_gamma   16.70140021
_symmetry_Int_Tables_number   1
_chemical_formula_structural   Li3V2NiO6
_chemical_formula_sum   'Li3 V2 Ni1 O6'
_cell_volume   109.79509957
_cell_formula_units_Z   1
loop_
 _symmetry_equiv_pos_site_id
 _symmetry_equiv_pos_as_xyz
  1  'x, y, z'
loop_
 _atom_site_type_symbol
 _atom_site_label
 _atom_site_symmetry_multiplicity
 _atom_site_fract_x
 _atom_site_fract_y
 _atom_site_fract_z
 _atom_site_occupancy
  Li  Li0  1  0.166667  0.500000  0.500000  1
  Li  Li1  1  0.501888  0.502364  0.502364  1
  Li  Li2  1  0.831445  0.497636  0.497636  1
  V  V3  1  0.005201  0.996541  0.996541  1
  V  V4  1  0.328133  0.003459  0.003459  1
  Ni  Ni5  1  0.666667  0.000000  0.000000  1
  O  O6  1  0.224674  0.273653  0.273653  1
  O  O7  1  0.581682  0.257236  0.257236  1
  O  O8  1  0.108659  0.726347  0.726347  1
  O  O9  1  0.938394  0.238697  0.238697  1
  O  O10  1  0.394939  0.761303  0.761303  1
  O  O11  1  0.751652  0.742764  0.742764  1
