# generated using pymatgen
data_Na3Mn2P2(CO7)2
_symmetry_space_group_name_H-M   'P 1'
_cell_length_a   18.00799986
_cell_length_b   6.58301959
_cell_length_c   5.21451800
_cell_angle_alpha   90.00000000
_cell_angle_beta   88.28987231
_cell_angle_gamma   90.00000000
_symmetry_Int_Tables_number   1
_chemical_formula_structural   Na3Mn2P2(CO7)2
_chemical_formula_sum   'Na6 Mn4 P4 C4 O28'
_cell_volume   617.89021764
_cell_formula_units_Z   2
loop_
 _symmetry_equiv_pos_site_id
 _symmetry_equiv_pos_as_xyz
  1  'x, y, z'
loop_
 _atom_site_type_symbol
 _atom_site_label
 _atom_site_symmetry_multiplicity
 _atom_site_fract_x
 _atom_site_fract_y
 _atom_site_fract_z
 _atom_site_occupancy
  Na  Na0  1  0.121490  0.022860  0.243335  1
  Na  Na1  1  0.379303  0.507721  0.756814  1
  Na  Na2  1  0.381821  0.988200  0.755202  1
  Na  Na3  1  0.621490  0.477140  0.243335  1
  Na  Na4  1  0.881821  0.511800  0.755202  1
  Na  Na5  1  0.879303  0.992279  0.756814  1
  Mn  Mn6  1  0.172227  0.739889  0.787261  1
  Mn  Mn7  1  0.324528  0.245077  0.217784  1
  Mn  Mn8  1  0.672227  0.760111  0.787261  1
  Mn  Mn9  1  0.824528  0.254923  0.217784  1
  P  P10  1  0.212306  0.246010  0.715350  1
  P  P11  1  0.285553  0.747705  0.283655  1
  P  P12  1  0.712306  0.253990  0.715350  1
  P  P13  1  0.785553  0.752295  0.283655  1
  C  C14  1  0.038928  0.752900  0.729891  1
  C  C15  1  0.460440  0.249616  0.268771  1
  C  C16  1  0.538928  0.747100  0.729891  1
  C  C17  1  0.960440  0.250384  0.268771  1
  O  O18  1  0.027836  0.247254  0.292931  1
  O  O19  1  0.070184  0.749923  0.953797  1
  O  O20  1  0.088555  0.751246  0.539658  1
  O  O21  1  0.163832  0.059347  0.786462  1
  O  O22  1  0.165866  0.434713  0.780228  1
  O  O23  1  0.233213  0.235652  0.421741  1
  O  O24  1  0.212713  0.757884  0.137275  1
  O  O25  1  0.287265  0.244347  0.859149  1
  O  O26  1  0.267596  0.747250  0.580646  1
  O  O27  1  0.333087  0.558987  0.212657  1
  O  O28  1  0.336562  0.931630  0.218161  1
  O  O29  1  0.410657  0.248256  0.463258  1
  O  O30  1  0.426144  0.248092  0.046682  1
  O  O31  1  0.470322  0.743655  0.700714  1
  O  O32  1  0.527836  0.252746  0.292931  1
  O  O33  1  0.570184  0.750077  0.953797  1
  O  O34  1  0.588555  0.748754  0.539658  1
  O  O35  1  0.665866  0.065287  0.780228  1
  O  O36  1  0.663832  0.440653  0.786462  1
  O  O37  1  0.733213  0.264349  0.421741  1
  O  O38  1  0.712713  0.742116  0.137275  1
  O  O39  1  0.787265  0.255653  0.859149  1
  O  O40  1  0.767596  0.752750  0.580646  1
  O  O41  1  0.836562  0.568370  0.218161  1
  O  O42  1  0.833087  0.941013  0.212657  1
  O  O43  1  0.910657  0.251744  0.463258  1
  O  O44  1  0.926144  0.251908  0.046682  1
  O  O45  1  0.970322  0.756345  0.700714  1
