# generated using pymatgen
data_Li5Nb2V5O12
_symmetry_space_group_name_H-M   'P 1'
_cell_length_a   5.24921416
_cell_length_b   5.24921440
_cell_length_c   10.20038386
_cell_angle_alpha   84.60339456
_cell_angle_beta   95.39660465
_cell_angle_gamma   59.16424722
_symmetry_Int_Tables_number   1
_chemical_formula_structural   Li5Nb2V5O12
_chemical_formula_sum   'Li5 Nb2 V5 O12'
_cell_volume   236.91283280
_cell_formula_units_Z   1
loop_
 _symmetry_equiv_pos_site_id
 _symmetry_equiv_pos_as_xyz
  1  'x, y, z'
loop_
 _atom_site_type_symbol
 _atom_site_label
 _atom_site_symmetry_multiplicity
 _atom_site_fract_x
 _atom_site_fract_y
 _atom_site_fract_z
 _atom_site_occupancy
  Li  Li0  1  0.164785  0.679454  0.504817  1
  Li  Li1  1  0.318024  0.824707  0.992070  1
  Li  Li2  1  0.679454  0.164785  0.995183  1
  Li  Li3  1  0.824707  0.318024  0.507930  1
  Li  Li4  1  0.923087  0.923087  0.750000  1
  Nb  Nb5  1  0.251786  0.251786  0.750000  1
  Nb  Nb6  1  0.743290  0.743290  0.250000  1
  V  V7  1  0.997811  0.503781  0.993424  1
  V  V8  1  0.503781  0.997811  0.506576  1
  V  V9  1  0.431256  0.431256  0.250000  1
  V  V10  1  0.581671  0.581671  0.750000  1
  V  V11  1  0.078063  0.078063  0.250000  1
  O  O12  1  0.974790  0.203042  0.869767  1
  O  O13  1  0.203042  0.974790  0.630233  1
  O  O14  1  0.122749  0.382001  0.368141  1
  O  O15  1  0.382001  0.122749  0.131859  1
  O  O16  1  0.291847  0.532602  0.869355  1
  O  O17  1  0.532602  0.291847  0.630645  1
  O  O18  1  0.457286  0.710380  0.382449  1
  O  O19  1  0.710380  0.457286  0.117551  1
  O  O20  1  0.614294  0.887551  0.868524  1
  O  O21  1  0.887551  0.614294  0.631476  1
  O  O22  1  0.790089  0.035653  0.375840  1
  O  O23  1  0.035653  0.790089  0.124160  1
