# generated using pymatgen
data_Mg2Co7O12
_symmetry_space_group_name_H-M   'P 1'
_cell_length_a   5.80801794
_cell_length_b   5.82211118
_cell_length_c   14.15972178
_cell_angle_alpha   89.79846188
_cell_angle_beta   89.84280120
_cell_angle_gamma   60.07346706
_symmetry_Int_Tables_number   1
_chemical_formula_structural   Mg2Co7O12
_chemical_formula_sum   'Mg4 Co14 O24'
_cell_volume   414.96537382
_cell_formula_units_Z   2
loop_
 _symmetry_equiv_pos_site_id
 _symmetry_equiv_pos_as_xyz
  1  'x, y, z'
loop_
 _atom_site_type_symbol
 _atom_site_label
 _atom_site_symmetry_multiplicity
 _atom_site_fract_x
 _atom_site_fract_y
 _atom_site_fract_z
 _atom_site_occupancy
  Mg  Mg0  1  0.327752  0.338761  0.041979  1
  Mg  Mg1  1  0.668941  0.165121  0.209734  1
  Mg  Mg2  1  0.831855  0.335308  0.541163  1
  Mg  Mg3  1  0.501740  0.999306  0.874382  1
  Co  Co4  1  0.660887  0.667406  0.085711  1
  Co  Co5  1  0.164467  0.670482  0.209951  1
  Co  Co6  1  0.672583  0.665506  0.333133  1
  Co  Co7  1  0.000446  0.005158  0.997918  1
  Co  Co8  1  0.830661  0.833373  0.542208  1
  Co  Co9  1  0.336355  0.832401  0.542327  1
  Co  Co10  1  0.164125  0.166011  0.209191  1
  Co  Co11  1  0.334431  0.327102  0.416535  1
  Co  Co12  1  0.667212  0.665614  0.706850  1
  Co  Co13  1  0.006066  0.994477  0.374302  1
  Co  Co14  1  0.328268  0.342921  0.666889  1
  Co  Co15  1  0.999634  0.499592  0.873428  1
  Co  Co16  1  0.501112  0.499384  0.874795  1
  Co  Co17  1  0.006204  0.989548  0.749362  1
  O  O18  1  0.298978  0.850283  0.287436  1
  O  O19  1  0.866868  0.838615  0.292200  1
  O  O20  1  0.014442  0.494185  0.136215  1
  O  O21  1  0.477798  0.504932  0.131358  1
  O  O22  1  0.154434  0.692629  0.463466  1
  O  O23  1  0.480420  0.015746  0.129950  1
  O  O24  1  0.316422  0.341132  0.282956  1
  O  O25  1  0.015732  0.993975  0.133531  1
  O  O26  1  0.516051  0.966980  0.620281  1
  O  O27  1  0.864954  0.296120  0.292944  1
  O  O28  1  0.656040  0.685826  0.470465  1
  O  O29  1  0.963786  0.530333  0.622633  1
  O  O30  1  0.505498  0.529829  0.623069  1
  O  O31  1  0.830842  0.805739  0.790525  1
  O  O32  1  0.363675  0.804534  0.790727  1
  O  O33  1  0.693028  0.140961  0.457337  1
  O  O34  1  0.166370  0.138262  0.458890  1
  O  O35  1  0.819342  0.361300  0.794008  1
  O  O36  1  0.672924  0.651581  0.949768  1
  O  O37  1  0.007888  0.982778  0.615710  1
  O  O38  1  0.172989  0.652011  0.947349  1
  O  O39  1  0.326364  0.348637  0.803476  1
  O  O40  1  0.651678  0.186680  0.953705  1
  O  O41  1  0.160738  0.189458  0.952145  1
