# generated using pymatgen
data_Na9(WO3)16
_symmetry_space_group_name_H-M   'P 1'
_cell_length_a   6.75804905
_cell_length_b   6.75804905
_cell_length_c   22.07124317
_cell_angle_alpha   90.07220533
_cell_angle_beta   89.92779467
_cell_angle_gamma   109.47650555
_symmetry_Int_Tables_number   1
_chemical_formula_structural   Na9(WO3)16
_chemical_formula_sum   'Na9 W16 O48'
_cell_volume   950.33895443
_cell_formula_units_Z   1
loop_
 _symmetry_equiv_pos_site_id
 _symmetry_equiv_pos_as_xyz
  1  'x, y, z'
loop_
 _atom_site_type_symbol
 _atom_site_label
 _atom_site_symmetry_multiplicity
 _atom_site_fract_x
 _atom_site_fract_y
 _atom_site_fract_z
 _atom_site_occupancy
  Na  Na0  1  0.500000  0.500000  0.000000  1
  Na  Na1  1  0.750439  0.249561  0.125783  1
  Na  Na2  1  0.749993  0.250007  0.375190  1
  Na  Na3  1  0.249605  0.750395  0.125909  1
  Na  Na4  1  0.250020  0.749980  0.375202  1
  Na  Na5  1  0.749980  0.250020  0.624798  1
  Na  Na6  1  0.750395  0.249605  0.874091  1
  Na  Na7  1  0.250007  0.749993  0.624810  1
  Na  Na8  1  0.249561  0.750439  0.874217  1
  W  W9  1  0.500000  0.000000  0.000000  1
  W  W10  1  0.499789  0.000091  0.250632  1
  W  W11  1  0.248655  0.249079  0.126363  1
  W  W12  1  0.750921  0.751345  0.126363  1
  W  W13  1  0.000000  0.500000  0.000000  1
  W  W14  1  0.749979  0.750019  0.375208  1
  W  W15  1  0.249981  0.250021  0.375208  1
  W  W16  1  0.999909  0.500211  0.250632  1
  W  W17  1  0.500000  0.000000  0.500000  1
  W  W18  1  0.250021  0.249981  0.624792  1
  W  W19  1  0.000000  0.500000  0.500000  1
  W  W20  1  0.750019  0.749979  0.624792  1
  W  W21  1  0.500211  0.999909  0.749368  1
  W  W22  1  0.751345  0.750921  0.873637  1
  W  W23  1  0.249079  0.248655  0.873637  1
  W  W24  1  0.000091  0.499789  0.749368  1
  O  O25  1  0.384734  0.145395  0.059941  1
  O  O26  1  0.854605  0.615266  0.059941  1
  O  O27  1  0.395197  0.128674  0.183426  1
  O  O28  1  0.871326  0.604803  0.183426  1
  O  O29  1  0.252197  0.747803  0.006522  1
  O  O30  1  0.487492  0.512508  0.124060  1
  O  O31  1  0.987913  0.012087  0.375164  1
  O  O32  1  0.749598  0.250402  0.255998  1
  O  O33  1  0.106945  0.371920  0.066252  1
  O  O34  1  0.628080  0.893055  0.066252  1
  O  O35  1  0.882946  0.640265  0.310848  1
  O  O36  1  0.116490  0.359626  0.189417  1
  O  O37  1  0.640374  0.883510  0.189417  1
  O  O38  1  0.359735  0.117054  0.310848  1
  O  O39  1  0.895105  0.628826  0.433466  1
  O  O40  1  0.371174  0.104895  0.433466  1
  O  O41  1  0.012485  0.987515  0.125063  1
  O  O42  1  0.250272  0.749728  0.243946  1
  O  O43  1  0.750328  0.249672  0.493964  1
  O  O44  1  0.512023  0.487977  0.374863  1
  O  O45  1  0.604927  0.871003  0.316626  1
  O  O46  1  0.128997  0.395072  0.316626  1
  O  O47  1  0.616710  0.859986  0.439266  1
  O  O48  1  0.383290  0.140014  0.560734  1
  O  O49  1  0.859986  0.616710  0.560734  1
  O  O50  1  0.140014  0.383290  0.439266  1
  O  O51  1  0.871003  0.604927  0.683374  1
  O  O52  1  0.395072  0.128997  0.683374  1
  O  O53  1  0.487977  0.512023  0.625137  1
  O  O54  1  0.249672  0.750328  0.506036  1
  O  O55  1  0.987515  0.012485  0.874937  1
  O  O56  1  0.749728  0.250272  0.756054  1
  O  O57  1  0.104895  0.371174  0.566534  1
  O  O58  1  0.628826  0.895105  0.566534  1
  O  O59  1  0.117054  0.359735  0.689152  1
  O  O60  1  0.359626  0.116490  0.810583  1
  O  O61  1  0.883510  0.640374  0.810583  1
  O  O62  1  0.640265  0.882946  0.689152  1
  O  O63  1  0.371920  0.106945  0.933748  1
  O  O64  1  0.893055  0.628080  0.933748  1
  O  O65  1  0.512508  0.487492  0.875940  1
  O  O66  1  0.747803  0.252197  0.993478  1
  O  O67  1  0.012087  0.987913  0.624836  1
  O  O68  1  0.250402  0.749598  0.744002  1
  O  O69  1  0.128674  0.395197  0.816574  1
  O  O70  1  0.604803  0.871326  0.816574  1
  O  O71  1  0.145395  0.384734  0.940060  1
  O  O72  1  0.615266  0.854605  0.940060  1
