# generated using pymatgen
data_Na2Fe2O5
_symmetry_space_group_name_H-M   'P 1'
_cell_length_a   5.45352099
_cell_length_b   8.29873923
_cell_length_c   5.53814427
_cell_angle_alpha   70.50808533
_cell_angle_beta   90.00000000
_cell_angle_gamma   70.81767690
_symmetry_Int_Tables_number   1
_chemical_formula_structural   Na2Fe2O5
_chemical_formula_sum   'Na4 Fe4 O10'
_cell_volume   221.46009367
_cell_formula_units_Z   2
loop_
 _symmetry_equiv_pos_site_id
 _symmetry_equiv_pos_as_xyz
  1  'x, y, z'
loop_
 _atom_site_type_symbol
 _atom_site_label
 _atom_site_symmetry_multiplicity
 _atom_site_fract_x
 _atom_site_fract_y
 _atom_site_fract_z
 _atom_site_occupancy
  Na  Na0  1  0.608324  0.786514  0.128676  1
  Na  Na1  1  0.894838  0.213486  0.415189  1
  Na  Na2  1  0.394838  0.213486  0.871324  1
  Na  Na3  1  0.108324  0.786514  0.584811  1
  Fe  Fe4  1  0.009015  0.000000  0.000000  1
  Fe  Fe5  1  0.211064  0.500000  0.179656  1
  Fe  Fe6  1  0.509015  0.000000  0.500000  1
  Fe  Fe7  1  0.711064  0.500000  0.820344  1
  O  O8  1  0.749921  0.018755  0.239132  1
  O  O9  1  0.249921  0.018755  0.242113  1
  O  O10  1  0.874286  0.500000  0.118936  1
  O  O11  1  0.163082  0.721713  0.189736  1
  O  O12  1  0.384795  0.278287  0.411448  1
  O  O13  1  0.884795  0.278287  0.810264  1
  O  O14  1  0.663082  0.721713  0.588552  1
  O  O15  1  0.374286  0.500000  0.881064  1
  O  O16  1  0.268676  0.981245  0.757887  1
  O  O17  1  0.768676  0.981245  0.760868  1
