# generated using pymatgen
data_Ca2Ti6N2O11
_symmetry_space_group_name_H-M   'P 1'
_cell_length_a   3.75552094
_cell_length_b   7.73643691
_cell_length_c   9.59897788
_cell_angle_alpha   79.06281057
_cell_angle_beta   89.85705988
_cell_angle_gamma   75.68156242
_symmetry_Int_Tables_number   1
_chemical_formula_structural   Ca2Ti6N2O11
_chemical_formula_sum   'Ca2 Ti6 N2 O11'
_cell_volume   265.03064197
_cell_formula_units_Z   1
loop_
 _symmetry_equiv_pos_site_id
 _symmetry_equiv_pos_as_xyz
  1  'x, y, z'
loop_
 _atom_site_type_symbol
 _atom_site_label
 _atom_site_symmetry_multiplicity
 _atom_site_fract_x
 _atom_site_fract_y
 _atom_site_fract_z
 _atom_site_occupancy
  Ca  Ca0  1  0.559488  0.896233  0.730779  1
  Ca  Ca1  1  0.455869  0.064633  0.199168  1
  Ti  Ti2  1  0.126016  0.748012  0.065582  1
  Ti  Ti3  1  0.159637  0.679721  0.434672  1
  Ti  Ti4  1  0.237921  0.523501  0.747500  1
  Ti  Ti5  1  0.777574  0.448068  0.242979  1
  Ti  Ti6  1  0.838777  0.326809  0.569980  1
  Ti  Ti7  1  0.890774  0.219513  0.892898  1
  N  N8  1  0.296334  0.409803  0.587548  1
  N  N9  1  0.939705  0.123906  0.727858  1
  O  O10  1  0.050712  0.889190  0.308979  1
  O  O11  1  0.117078  0.760350  0.610105  1
  O  O12  1  0.142293  0.715113  0.886633  1
  O  O13  1  0.640591  0.719801  0.111682  1
  O  O14  1  0.698323  0.603634  0.425228  1
  O  O15  1  0.752499  0.494263  0.772618  1
  O  O16  1  0.238568  0.526014  0.241102  1
  O  O17  1  0.357346  0.286095  0.899188  1
  O  O18  1  0.849406  0.307429  0.116504  1
  O  O19  1  0.884458  0.248579  0.399347  1
  O  O20  1  0.003773  0.000259  0.029533  1
