# generated using pymatgen
data_Ti3VCo2(PO4)6
_symmetry_space_group_name_H-M   'P 1'
_cell_length_a   8.63896486
_cell_length_b   8.67202227
_cell_length_c   8.67202240
_cell_angle_alpha   59.99999619
_cell_angle_beta   59.87333194
_cell_angle_gamma   59.87333393
_symmetry_Int_Tables_number   1
_chemical_formula_structural   Ti3VCo2(PO4)6
_chemical_formula_sum   'Ti3 V1 Co2 P6 O24'
_cell_volume   458.51476522
_cell_formula_units_Z   1
loop_
 _symmetry_equiv_pos_site_id
 _symmetry_equiv_pos_as_xyz
  1  'x, y, z'
loop_
 _atom_site_type_symbol
 _atom_site_label
 _atom_site_symmetry_multiplicity
 _atom_site_fract_x
 _atom_site_fract_y
 _atom_site_fract_z
 _atom_site_occupancy
  Ti  Ti0  1  0.071843  0.642719  0.642719  1
  Ti  Ti1  1  0.428660  0.857113  0.857113  1
  Ti  Ti2  1  0.928636  0.357121  0.357121  1
  V  V3  1  0.575399  0.141533  0.141533  1
  Co  Co4  1  -0.000091  0.000030  0.000030  1
  Co  Co5  1  0.497671  0.500776  0.500776  1
  P  P6  1  0.251658  0.249291  0.541022  1
  P  P7  1  0.251658  0.958028  0.249291  1
  P  P8  1  0.251658  0.541022  0.958028  1
  P  P9  1  0.750291  0.457670  0.042452  1
  P  P10  1  0.750291  0.042452  0.749587  1
  P  P11  1  0.750291  0.749587  0.457670  1
  O  O12  1  0.069671  0.121301  0.310098  1
  O  O13  1  0.069671  0.498930  0.121301  1
  O  O14  1  0.069671  0.310098  0.498930  1
  O  O15  1  0.233632  0.085598  0.736891  1
  O  O16  1  0.430219  0.190422  0.384611  1
  O  O17  1  0.259721  0.413227  0.562665  1
  O  O18  1  0.233632  0.943879  0.085598  1
  O  O19  1  0.259721  0.764388  0.413227  1
  O  O20  1  0.570124  0.620014  0.997429  1
  O  O21  1  0.259721  0.562665  0.764388  1
  O  O22  1  0.770475  0.264854  0.054595  1
  O  O23  1  0.570124  0.997429  0.812434  1
  O  O24  1  0.430219  0.994747  0.190422  1
  O  O25  1  0.233632  0.736891  0.943879  1
  O  O26  1  0.734680  0.445044  0.234966  1
  O  O27  1  0.430219  0.384611  0.994747  1
  O  O28  1  0.734680  0.234966  0.585310  1
  O  O29  1  0.770475  0.054595  0.910076  1
  O  O30  1  0.734680  0.585310  0.445044  1
  O  O31  1  0.570124  0.812434  0.620014  1
  O  O32  1  0.770475  0.910076  0.264854  1
  O  O33  1  0.928823  0.685102  0.504773  1
  O  O34  1  0.928823  0.504773  0.881301  1
  O  O35  1  0.928823  0.881301  0.685102  1
