# generated using pymatgen
data_Na5Ni2P2(CO7)2
_symmetry_space_group_name_H-M   'P 1'
_cell_length_a   8.95851632
_cell_length_b   8.38007748
_cell_length_c   8.39387989
_cell_angle_alpha   76.99316689
_cell_angle_beta   89.11628632
_cell_angle_gamma   91.29530637
_symmetry_Int_Tables_number   1
_chemical_formula_structural   Na5Ni2P2(CO7)2
_chemical_formula_sum   'Na10 Ni4 P4 C4 O28'
_cell_volume   613.69354613
_cell_formula_units_Z   2
loop_
 _symmetry_equiv_pos_site_id
 _symmetry_equiv_pos_as_xyz
  1  'x, y, z'
loop_
 _atom_site_type_symbol
 _atom_site_label
 _atom_site_symmetry_multiplicity
 _atom_site_fract_x
 _atom_site_fract_y
 _atom_site_fract_z
 _atom_site_occupancy
  Na  Na0  1  0.923534  0.256961  0.481689  1
  Na  Na1  1  0.735015  0.113654  0.876204  1
  Na  Na2  1  0.731877  0.625694  0.360125  1
  Na  Na3  1  0.730931  0.392991  0.119661  1
  Na  Na4  1  0.735781  0.872041  0.640987  1
  Na  Na5  1  0.262777  0.618968  0.876042  1
  Na  Na6  1  0.269355  0.377936  0.626056  1
  Na  Na7  1  0.269304  0.887519  0.137477  1
  Na  Na8  1  0.084518  0.749723  0.513030  1
  Na  Na9  1  0.084036  0.232721  0.027217  1
  Ni  Ni10  1  0.650034  0.014536  0.237899  1
  Ni  Ni11  1  0.655813  0.511447  0.734512  1
  Ni  Ni12  1  0.345057  0.988220  0.758933  1
  Ni  Ni13  1  0.345167  0.481196  0.264778  1
  P  P14  1  0.577277  0.231881  0.515149  1
  P  P15  1  0.576549  0.733989  0.017425  1
  P  P16  1  0.418647  0.269803  0.979588  1
  P  P17  1  0.422697  0.766367  0.483725  1
  C  C18  1  0.936503  0.480573  0.768268  1
  C  C19  1  0.928459  0.978469  0.267304  1
  C  C20  1  0.068571  0.020695  0.729412  1
  C  C21  1  0.067333  0.520156  0.234780  1
  O  O22  1  0.926239  0.031549  0.718984  1
  O  O23  1  0.924966  0.523442  0.227276  1
  O  O24  1  0.878355  0.593517  0.654726  1
  O  O25  1  0.864674  0.093685  0.159095  1
  O  O26  1  0.843693  0.381493  0.867396  1
  O  O27  1  0.839375  0.881045  0.372247  1
  O  O28  1  0.673385  0.674653  0.888408  1
  O  O29  1  0.678891  0.170950  0.389446  1
  O  O30  1  0.683250  0.356042  0.575645  1
  O  O31  1  0.674486  0.863032  0.078020  1
  O  O32  1  0.565799  0.198871  0.054554  1
  O  O33  1  0.570486  0.692086  0.554246  1
  O  O34  1  0.540716  0.084948  0.664090  1
  O  O35  1  0.541666  0.585253  0.164919  1
  O  O36  1  0.456136  0.412638  0.827791  1
  O  O37  1  0.460223  0.910129  0.335070  1
  O  O38  1  0.428741  0.807387  0.946049  1
  O  O39  1  0.433879  0.308970  0.442542  1
  O  O40  1  0.318250  0.137937  0.924492  1
  O  O41  1  0.324406  0.821993  0.614848  1
  O  O42  1  0.317406  0.337294  0.099347  1
  O  O43  1  0.319063  0.639315  0.425851  1
  O  O44  1  0.158493  0.122489  0.632055  1
  O  O45  1  0.158441  0.619256  0.136071  1
  O  O46  1  0.129620  0.409089  0.347556  1
  O  O47  1  0.131956  0.906389  0.836478  1
  O  O48  1  0.078742  0.465285  0.780073  1
  O  O49  1  0.069751  0.967677  0.270353  1
