# generated using pymatgen
data_Fe4O5F3
_symmetry_space_group_name_H-M   'P 1'
_cell_length_a   4.74351043
_cell_length_b   9.47395892
_cell_length_c   6.06040209
_cell_angle_alpha   90.20349534
_cell_angle_beta   89.76571606
_cell_angle_gamma   94.17471957
_symmetry_Int_Tables_number   1
_chemical_formula_structural   Fe4O5F3
_chemical_formula_sum   'Fe8 O10 F6'
_cell_volume   271.62704369
_cell_formula_units_Z   2
loop_
 _symmetry_equiv_pos_site_id
 _symmetry_equiv_pos_as_xyz
  1  'x, y, z'
loop_
 _atom_site_type_symbol
 _atom_site_label
 _atom_site_symmetry_multiplicity
 _atom_site_fract_x
 _atom_site_fract_y
 _atom_site_fract_z
 _atom_site_occupancy
  Fe  Fe0  1  0.001930  0.004409  -0.000004  1
  Fe  Fe1  1  0.975886  0.991230  0.501101  1
  Fe  Fe2  1  0.018830  0.495069  0.992188  1
  Fe  Fe3  1  0.007398  0.491123  0.507225  1
  Fe  Fe4  1  0.553657  0.236309  0.240093  1
  Fe  Fe5  1  0.486450  0.270699  0.757606  1
  Fe  Fe6  1  0.502188  0.745734  0.250430  1
  Fe  Fe7  1  0.455911  0.766762  0.752657  1
  O  O8  1  0.199349  0.408295  0.748018  1
  O  O9  1  0.167816  0.910340  0.752425  1
  O  O10  1  0.306543  0.152041  0.000279  1
  O  O11  1  0.307789  0.655142  0.008088  1
  O  O12  1  0.302166  0.653312  0.492758  1
  O  O13  1  0.709108  0.350700  0.001522  1
  O  O14  1  0.697808  0.344257  0.496162  1
  O  O15  1  0.688907  0.849269  0.005410  1
  O  O16  1  0.679119  0.843200  0.496342  1
  O  O17  1  0.822242  0.089049  0.248623  1
  F  F18  1  0.199968  0.401627  0.250349  1
  F  F19  1  0.196165  0.901260  0.254103  1
  F  F20  1  0.300185  0.148739  0.499112  1
  F  F21  1  0.812141  0.597792  0.750827  1
  F  F22  1  0.793161  0.100479  0.744573  1
  F  F23  1  0.815287  0.593161  0.250117  1
