# generated using pymatgen
data_Li6MnCoP2(CO7)2
_symmetry_space_group_name_H-M   'P 1'
_cell_length_a   8.48773087
_cell_length_b   4.99583740
_cell_length_c   6.53169119
_cell_angle_alpha   90.00000000
_cell_angle_beta   90.00000000
_cell_angle_gamma   85.55156288
_symmetry_Int_Tables_number   1
_chemical_formula_structural   Li6MnCoP2(CO7)2
_chemical_formula_sum   'Li6 Mn1 Co1 P2 C2 O14'
_cell_volume   276.13106587
_cell_formula_units_Z   1
loop_
 _symmetry_equiv_pos_site_id
 _symmetry_equiv_pos_as_xyz
  1  'x, y, z'
loop_
 _atom_site_type_symbol
 _atom_site_label
 _atom_site_symmetry_multiplicity
 _atom_site_fract_x
 _atom_site_fract_y
 _atom_site_fract_z
 _atom_site_occupancy
  Li  Li0  1  0.091591  0.758688  0.250000  1
  Li  Li1  1  0.273795  0.246096  0.023742  1
  Li  Li2  1  0.273795  0.246096  0.476258  1
  Li  Li3  1  0.725750  0.753881  0.526743  1
  Li  Li4  1  0.725750  0.753881  0.973257  1
  Li  Li5  1  0.907328  0.239629  0.750000  1
  Mn  Mn6  1  0.659241  0.221267  0.250000  1
  Co  Co7  1  0.334944  0.793563  0.750000  1
  P  P8  1  0.410590  0.718696  0.250000  1
  P  P9  1  0.587250  0.278977  0.750000  1
  C  C10  1  0.036332  0.703963  0.750000  1
  C  C11  1  0.966941  0.295871  0.250000  1
  O  O12  1  0.073515  0.950403  0.750000  1
  O  O13  1  0.113830  0.355611  0.250000  1
  O  O14  1  0.150022  0.512091  0.750000  1
  O  O15  1  0.310884  0.827419  0.062976  1
  O  O16  1  0.310884  0.827419  0.437024  1
  O  O17  1  0.419666  0.175709  0.750000  1
  O  O18  1  0.423457  0.405226  0.250000  1
  O  O19  1  0.568321  0.592969  0.750000  1
  O  O20  1  0.580364  0.810906  0.250000  1
  O  O21  1  0.689988  0.173711  0.934280  1
  O  O22  1  0.689988  0.173711  0.565720  1
  O  O23  1  0.855374  0.490120  0.250000  1
  O  O24  1  0.890015  0.644179  0.750000  1
  O  O25  1  0.930384  0.049918  0.250000  1
