# generated using pymatgen
data_LiNb(PO3)4
_symmetry_space_group_name_H-M   'P 1'
_cell_length_a   5.31618515
_cell_length_b   14.04404705
_cell_length_c   7.25677681
_cell_angle_alpha   90.00000000
_cell_angle_beta   94.30056857
_cell_angle_gamma   90.00000000
_symmetry_Int_Tables_number   1
_chemical_formula_structural   LiNb(PO3)4
_chemical_formula_sum   'Li2 Nb2 P8 O24'
_cell_volume   540.27094235
_cell_formula_units_Z   2
loop_
 _symmetry_equiv_pos_site_id
 _symmetry_equiv_pos_as_xyz
  1  'x, y, z'
loop_
 _atom_site_type_symbol
 _atom_site_label
 _atom_site_symmetry_multiplicity
 _atom_site_fract_x
 _atom_site_fract_y
 _atom_site_fract_z
 _atom_site_occupancy
  Li  Li0  1  0.603055  0.988945  0.097285  1
  Li  Li1  1  0.396945  0.488945  0.902715  1
  Nb  Nb2  1  0.509922  0.764423  0.510475  1
  Nb  Nb3  1  0.490078  0.264423  0.489525  1
  P  P4  1  0.038347  0.905641  0.562197  1
  P  P5  1  0.984086  0.621038  0.449684  1
  P  P6  1  0.137949  0.326725  0.090982  1
  P  P7  1  0.217103  0.680857  0.109739  1
  P  P8  1  0.782897  0.180857  0.890261  1
  P  P9  1  0.862051  0.826725  0.909018  1
  P  P10  1  0.015914  0.121038  0.550316  1
  P  P11  1  0.961653  0.405641  0.437803  1
  O  O12  1  0.050295  0.739419  0.955851  1
  O  O13  1  0.035579  0.893130  0.783223  1
  O  O14  1  0.004792  0.138974  0.768468  1
  O  O15  1  0.194691  0.384060  0.927146  1
  O  O16  1  0.067819  0.511470  0.473003  1
  O  O17  1  0.148546  0.341659  0.538937  1
  O  O18  1  0.180291  0.676502  0.562662  1
  O  O19  1  0.309784  0.900220  0.511641  1
  O  O20  1  0.287666  0.131029  0.503243  1
  O  O21  1  0.381664  0.749161  0.227004  1
  O  O22  1  0.359870  0.286001  0.208593  1
  O  O23  1  0.344714  0.601595  0.019588  1
  O  O24  1  0.655286  0.101595  0.980412  1
  O  O25  1  0.640131  0.786001  0.791407  1
  O  O26  1  0.618336  0.249161  0.772996  1
  O  O27  1  0.712334  0.631029  0.496757  1
  O  O28  1  0.690216  0.400220  0.488359  1
  O  O29  1  0.819709  0.176502  0.437338  1
  O  O30  1  0.851454  0.841659  0.461063  1
  O  O31  1  0.932181  0.011470  0.526997  1
  O  O32  1  0.805309  0.884060  0.072854  1
  O  O33  1  0.995208  0.638974  0.231532  1
  O  O34  1  0.964421  0.393130  0.216777  1
  O  O35  1  0.949705  0.239419  0.044149  1
