# generated using pymatgen
data_Li6Mn2O5F2
_symmetry_space_group_name_H-M   'P 1'
_cell_length_a   5.84022621
_cell_length_b   5.83026145
_cell_length_c   9.85552409
_cell_angle_alpha   82.41136593
_cell_angle_beta   92.72432663
_cell_angle_gamma   62.03485249
_symmetry_Int_Tables_number   1
_chemical_formula_structural   Li6Mn2O5F2
_chemical_formula_sum   'Li12 Mn4 O10 F4'
_cell_volume   291.49511643
_cell_formula_units_Z   2
loop_
 _symmetry_equiv_pos_site_id
 _symmetry_equiv_pos_as_xyz
  1  'x, y, z'
loop_
 _atom_site_type_symbol
 _atom_site_label
 _atom_site_symmetry_multiplicity
 _atom_site_fract_x
 _atom_site_fract_y
 _atom_site_fract_z
 _atom_site_occupancy
  Li  Li0  1  0.471453  0.869671  0.609950  1
  Li  Li1  1  0.901218  0.878693  0.599321  1
  Li  Li2  1  0.679275  0.854541  0.106629  1
  Li  Li3  1  0.226672  0.851232  0.102636  1
  Li  Li4  1  0.336205  0.591649  0.880465  1
  Li  Li5  1  0.067081  0.590898  0.392631  1
  Li  Li6  1  0.912323  0.422741  0.611923  1
  Li  Li7  1  0.670473  0.413263  0.106891  1
  Li  Li8  1  0.824437  0.110596  0.899607  1
  Li  Li9  1  0.319353  0.130075  0.891906  1
  Li  Li10  1  0.059223  0.156600  0.404249  1
  Li  Li11  1  0.516232  0.146755  0.391131  1
  Mn  Mn12  1  0.824338  0.599334  0.874234  1
  Mn  Mn13  1  0.537620  0.647833  0.368211  1
  Mn  Mn14  1  0.424841  0.384484  0.634949  1
  Mn  Mn15  1  0.200432  0.354242  0.132100  1
  O  O16  1  0.518908  0.747246  0.971017  1
  O  O17  1  0.729253  0.763692  0.474823  1
  O  O18  1  0.139924  0.489015  0.755411  1
  O  O19  1  0.628988  0.503700  0.745485  1
  O  O20  1  0.017617  0.698726  0.006688  1
  O  O21  1  0.026078  0.230345  0.011021  1
  O  O22  1  0.361550  0.507546  0.247625  1
  O  O23  1  0.688932  0.310382  0.498522  1
  O  O24  1  0.250305  0.252587  0.527276  1
  O  O25  1  0.369100  0.000155  0.246765  1
  F  F26  1  0.194042  0.802799  0.498833  1
  F  F27  1  0.870651  0.482119  0.252193  1
  F  F28  1  0.689275  0.990558  0.747945  1
  F  F29  1  0.544203  0.218521  0.009560  1
