# generated using pymatgen
data_Mn15Si26
_symmetry_space_group_name_H-M   'P 1'
_cell_length_a   5.49357938
_cell_length_b   5.49357937
_cell_length_c   32.76462282
_cell_angle_alpha   94.80897920
_cell_angle_beta   94.80897919
_cell_angle_gamma   89.99999997
_symmetry_Int_Tables_number   1
_chemical_formula_structural   Mn15Si26
_chemical_formula_sum   'Mn30 Si52'
_cell_volume   981.84298660
_cell_formula_units_Z   2
loop_
 _symmetry_equiv_pos_site_id
 _symmetry_equiv_pos_as_xyz
  1  'x, y, z'
loop_
 _atom_site_type_symbol
 _atom_site_label
 _atom_site_symmetry_multiplicity
 _atom_site_fract_x
 _atom_site_fract_y
 _atom_site_fract_z
 _atom_site_occupancy
  Si  Si0  1  0.375000  0.778520  0.250000  1
  Si  Si1  1  0.528520  0.625000  0.750000  1
  Si  Si2  1  0.221480  0.125000  0.750000  1
  Si  Si3  1  0.875000  0.471480  0.250000  1
  Si  Si4  1  0.642855  0.201083  0.708902  1
  Si  Si5  1  0.066047  0.507819  0.708902  1
  Si  Si6  1  0.257819  0.316047  0.208902  1
  Si  Si7  1  0.798917  0.933953  0.291098  1
  Si  Si8  1  0.492181  0.357145  0.291098  1
  Si  Si9  1  0.107145  0.742181  0.791098  1
  Si  Si10  1  0.683953  0.048917  0.791098  1
  Si  Si11  1  0.951083  0.892855  0.208902  1
  Si  Si12  1  0.991484  0.019956  0.670708  1
  Si  Si13  1  0.679224  0.650753  0.670708  1
  Si  Si14  1  0.400753  0.929224  0.170708  1
  Si  Si15  1  0.980044  0.320776  0.329292  1
  Si  Si16  1  0.349247  0.008516  0.329292  1
  Si  Si17  1  0.758516  0.599247  0.829292  1
  Si  Si18  1  0.070776  0.230044  0.829292  1
  Si  Si19  1  0.769956  0.241484  0.170708  1
  Si  Si20  1  0.484760  0.979514  0.634124  1
  Si  Si21  1  0.149364  0.654610  0.634124  1
  Si  Si22  1  0.404610  0.399364  0.134124  1
  Si  Si23  1  0.020486  0.850636  0.365876  1
  Si  Si24  1  0.345390  0.515240  0.365876  1
  Si  Si25  1  0.265240  0.595390  0.865876  1
  Si  Si26  1  0.600636  0.270486  0.865876  1
  Si  Si27  1  0.729514  0.734760  0.134124  1
  Si  Si28  1  0.123881  0.140030  0.597647  1
  Si  Si29  1  0.473767  0.457617  0.597647  1
  Si  Si30  1  0.663736  0.240057  0.020849  1
  Si  Si31  1  0.219208  0.336264  0.979151  1
  Si  Si32  1  0.759943  0.642887  0.979151  1
  Si  Si33  1  0.392887  0.009943  0.479151  1
  Si  Si34  1  0.086264  0.469208  0.479151  1
  Si  Si35  1  0.357113  0.780792  0.020849  1
  Si  Si36  1  0.530792  0.607113  0.520849  1
  Si  Si37  1  0.990057  0.913736  0.520849  1
  Si  Si38  1  0.833665  0.875966  0.060558  1
  Si  Si39  1  0.815408  0.166335  0.939442  1
  Si  Si40  1  0.124034  0.773107  0.939442  1
  Si  Si41  1  0.523107  0.374034  0.439442  1
  Si  Si42  1  0.916335  0.065408  0.439442  1
  Si  Si43  1  0.226893  0.184592  0.060558  1
  Si  Si44  1  0.934592  0.476893  0.560558  1
  Si  Si45  1  0.625966  0.083665  0.560558  1
  Si  Si46  1  0.890030  0.373881  0.097647  1
  Si  Si47  1  0.276233  0.109970  0.902353  1
  Si  Si48  1  0.626119  0.792383  0.902353  1
  Si  Si49  1  0.542383  0.876119  0.402353  1
  Si  Si50  1  0.859970  0.526233  0.402353  1
  Si  Si51  1  0.207617  0.723767  0.097647  1
  Mn  Mn52  1  0.215225  0.715225  0.430450  1
  Mn  Mn53  1  0.284775  0.784775  0.569550  1
  Mn  Mn54  1  0.534775  0.534775  0.069550  1
  Mn  Mn55  1  0.465225  0.465225  0.930450  1
  Mn  Mn56  1  0.151091  0.651091  0.302183  1
  Mn  Mn57  1  0.348909  0.848909  0.697817  1
  Mn  Mn58  1  0.598909  0.598909  0.197817  1
  Mn  Mn59  1  0.401091  0.401091  0.802183  1
  Mn  Mn60  1  0.081811  0.581811  0.163622  1
  Mn  Mn61  1  0.418189  0.918189  0.836378  1
  Mn  Mn62  1  0.668189  0.668189  0.336378  1
  Mn  Mn63  1  0.331811  0.331811  0.663622  1
  Mn  Mn64  1  0.017333  0.517333  0.034666  1
  Mn  Mn65  1  0.482667  0.982667  0.965334  1
  Mn  Mn66  1  0.732667  0.732667  0.465334  1
  Mn  Mn67  1  0.267333  0.267333  0.534666  1
  Mn  Mn68  1  0.948808  0.448808  0.897616  1
  Mn  Mn69  1  0.551192  0.051192  0.102384  1
  Mn  Mn70  1  0.801192  0.801192  0.602384  1
  Mn  Mn71  1  0.198808  0.198808  0.397616  1
  Mn  Mn72  1  0.883627  0.383627  0.767253  1
  Mn  Mn73  1  0.616373  0.116373  0.232747  1
  Mn  Mn74  1  0.866373  0.866373  0.732747  1
  Mn  Mn75  1  0.133627  0.133627  0.267253  1
  Mn  Mn76  1  0.816210  0.316210  0.632420  1
  Mn  Mn77  1  0.683790  0.183790  0.367580  1
  Mn  Mn78  1  0.933790  0.933790  0.867580  1
  Mn  Mn79  1  0.066210  0.066210  0.132420  1
  Mn  Mn80  1  0.750000  0.250000  0.500000  1
  Mn  Mn81  1  0.000000  0.000000  0.000000  1
