# generated using pymatgen
data_Li7V4O11F
_symmetry_space_group_name_H-M   'P 1'
_cell_length_a   5.05793509
_cell_length_b   8.63882259
_cell_length_c   5.13510253
_cell_angle_alpha   77.81799393
_cell_angle_beta   102.51735165
_cell_angle_gamma   93.11869038
_symmetry_Int_Tables_number   1
_chemical_formula_structural   Li7V4O11F
_chemical_formula_sum   'Li7 V4 O11 F1'
_cell_volume   214.10174168
_cell_formula_units_Z   1
loop_
 _symmetry_equiv_pos_site_id
 _symmetry_equiv_pos_as_xyz
  1  'x, y, z'
loop_
 _atom_site_type_symbol
 _atom_site_label
 _atom_site_symmetry_multiplicity
 _atom_site_fract_x
 _atom_site_fract_y
 _atom_site_fract_z
 _atom_site_occupancy
  Li  Li0  1  0.863937  0.710342  0.040880  1
  Li  Li1  1  0.634966  0.797976  0.439301  1
  Li  Li2  1  0.380321  0.871210  0.875438  1
  Li  Li3  1  0.902535  0.371761  0.371134  1
  Li  Li4  1  0.119645  0.627210  0.622034  1
  Li  Li5  1  0.603676  0.126358  0.126311  1
  Li  Li6  1  0.355935  0.206399  0.566694  1
  V  V7  1  0.119749  0.962037  0.292405  1
  V  V8  1  0.350658  0.553077  0.195305  1
  V  V9  1  0.661023  0.454342  0.771924  1
  V  V10  1  0.863414  0.039904  0.712538  1
  O  O11  1  0.769090  0.926572  0.067864  1
  O  O12  1  0.249454  0.755630  0.249391  1
  O  O13  1  0.730086  0.573816  0.439900  1
  O  O14  1  0.002447  0.852854  0.634168  1
  O  O15  1  0.494591  0.631021  0.879499  1
  O  O16  1  0.998906  0.509373  0.990976  1
  O  O17  1  0.996473  0.141943  0.382434  1
  O  O18  1  0.288636  0.434242  0.523620  1
  O  O19  1  0.731927  0.253898  0.752783  1
  O  O20  1  0.508276  0.004313  0.513358  1
  O  O21  1  0.208242  0.066006  0.945437  1
  F  F22  1  0.524916  0.343415  0.142905  1
