# generated using pymatgen
data_NiH12(ClO6)2
_symmetry_space_group_name_H-M   'P 1'
_cell_length_a   11.11323391
_cell_length_b   11.11323391
_cell_length_c   11.11323391
_cell_angle_alpha   90.00000000
_cell_angle_beta   90.00000000
_cell_angle_gamma   90.00000000
_symmetry_Int_Tables_number   1
_chemical_formula_structural   NiH12(ClO6)2
_chemical_formula_sum   'Ni4 H48 Cl8 O48'
_cell_volume   1372.52848451
_cell_formula_units_Z   4
loop_
 _symmetry_equiv_pos_site_id
 _symmetry_equiv_pos_as_xyz
  1  'x, y, z'
loop_
 _atom_site_type_symbol
 _atom_site_label
 _atom_site_symmetry_multiplicity
 _atom_site_fract_x
 _atom_site_fract_y
 _atom_site_fract_z
 _atom_site_occupancy
  Ni  Ni0  1  0.500000  0.500000  0.000000  1
  Ni  Ni1  1  0.500000  0.000000  0.500000  1
  Ni  Ni2  1  0.000000  0.500000  0.500000  1
  Ni  Ni3  1  0.000000  0.000000  0.000000  1
  H  H4  1  0.191052  0.583012  0.145201  1
  H  H5  1  0.808948  0.083012  0.354799  1
  H  H6  1  0.308948  0.416988  0.645201  1
  H  H7  1  0.691052  0.916988  0.854799  1
  H  H8  1  0.145201  0.191052  0.583012  1
  H  H9  1  0.354799  0.808948  0.083012  1
  H  H10  1  0.645201  0.308948  0.416988  1
  H  H11  1  0.854799  0.691052  0.916988  1
  H  H12  1  0.583012  0.145201  0.191052  1
  H  H13  1  0.083012  0.354799  0.808948  1
  H  H14  1  0.416988  0.645201  0.308948  1
  H  H15  1  0.916988  0.854799  0.691052  1
  H  H16  1  0.808948  0.416988  0.854799  1
  H  H17  1  0.191052  0.916988  0.645201  1
  H  H18  1  0.691052  0.583012  0.354799  1
  H  H19  1  0.308948  0.083012  0.145201  1
  H  H20  1  0.854799  0.808948  0.416988  1
  H  H21  1  0.645201  0.191052  0.916988  1
  H  H22  1  0.354799  0.691052  0.583012  1
  H  H23  1  0.145201  0.308948  0.083012  1
  H  H24  1  0.416988  0.854799  0.808948  1
  H  H25  1  0.916988  0.645201  0.191052  1
  H  H26  1  0.583012  0.354799  0.691052  1
  H  H27  1  0.083012  0.145201  0.308948  1
  H  H28  1  0.191096  0.317954  0.888452  1
  H  H29  1  0.808904  0.817954  0.611548  1
  H  H30  1  0.308904  0.682046  0.388452  1
  H  H31  1  0.691096  0.182046  0.111548  1
  H  H32  1  0.888452  0.191096  0.317954  1
  H  H33  1  0.611548  0.808904  0.817954  1
  H  H34  1  0.388452  0.308904  0.682046  1
  H  H35  1  0.111548  0.691096  0.182046  1
  H  H36  1  0.317954  0.888452  0.191096  1
  H  H37  1  0.817954  0.611548  0.808904  1
  H  H38  1  0.682046  0.388452  0.308904  1
  H  H39  1  0.182046  0.111548  0.691096  1
  H  H40  1  0.808904  0.682046  0.111548  1
  H  H41  1  0.191096  0.182046  0.388452  1
  H  H42  1  0.691096  0.317954  0.611548  1
  H  H43  1  0.308904  0.817954  0.888452  1
  H  H44  1  0.111548  0.808904  0.682046  1
  H  H45  1  0.388452  0.191096  0.182046  1
  H  H46  1  0.611548  0.691096  0.317954  1
  H  H47  1  0.888452  0.308904  0.817954  1
  H  H48  1  0.682046  0.111548  0.808904  1
  H  H49  1  0.182046  0.388452  0.191096  1
  H  H50  1  0.317954  0.611548  0.691096  1
  H  H51  1  0.817954  0.888452  0.308904  1
  Cl  Cl52  1  0.177458  0.822542  0.322542  1
  Cl  Cl53  1  0.822542  0.322542  0.177458  1
  Cl  Cl54  1  0.322542  0.177458  0.822542  1
  Cl  Cl55  1  0.677458  0.677458  0.677458  1
  Cl  Cl56  1  0.822542  0.177458  0.677458  1
  Cl  Cl57  1  0.177458  0.677458  0.822542  1
  Cl  Cl58  1  0.677458  0.822542  0.177458  1
  Cl  Cl59  1  0.322542  0.322542  0.322542  1
  O  O60  1  0.388679  0.643130  0.648430  1
  O  O61  1  0.611321  0.143130  0.851570  1
  O  O62  1  0.111321  0.356870  0.148430  1
  O  O63  1  0.888679  0.856870  0.351570  1
  O  O64  1  0.648430  0.388679  0.643130  1
  O  O65  1  0.851570  0.611321  0.143130  1
  O  O66  1  0.148430  0.111321  0.356870  1
  O  O67  1  0.351570  0.888679  0.856870  1
  O  O68  1  0.643130  0.648430  0.388679  1
  O  O69  1  0.143130  0.851570  0.611321  1
  O  O70  1  0.356870  0.148430  0.111321  1
  O  O71  1  0.856870  0.351570  0.888679  1
  O  O72  1  0.611321  0.356870  0.351570  1
  O  O73  1  0.388679  0.856870  0.148430  1
  O  O74  1  0.888679  0.643130  0.851570  1
  O  O75  1  0.111321  0.143130  0.648430  1
  O  O76  1  0.351570  0.611321  0.356870  1
  O  O77  1  0.148430  0.388679  0.856870  1
  O  O78  1  0.851570  0.888679  0.643130  1
  O  O79  1  0.648430  0.111321  0.143130  1
  O  O80  1  0.356870  0.351570  0.611321  1
  O  O81  1  0.856870  0.148430  0.388679  1
  O  O82  1  0.643130  0.851570  0.888679  1
  O  O83  1  0.143130  0.648430  0.111321  1
  O  O84  1  0.469955  0.616027  0.891946  1
  O  O85  1  0.530045  0.116027  0.608054  1
  O  O86  1  0.030045  0.383973  0.391946  1
  O  O87  1  0.969955  0.883973  0.108054  1
  O  O88  1  0.891946  0.469955  0.616027  1
  O  O89  1  0.608054  0.530045  0.116027  1
  O  O90  1  0.391946  0.030045  0.383973  1
  O  O91  1  0.108054  0.969955  0.883973  1
  O  O92  1  0.616027  0.891946  0.469955  1
  O  O93  1  0.116027  0.608054  0.530045  1
  O  O94  1  0.383973  0.391946  0.030045  1
  O  O95  1  0.883973  0.108054  0.969955  1
  O  O96  1  0.530045  0.383973  0.108054  1
  O  O97  1  0.469955  0.883973  0.391946  1
  O  O98  1  0.969955  0.616027  0.608054  1
  O  O99  1  0.030045  0.116027  0.891946  1
  O  O100  1  0.108054  0.530045  0.383973  1
  O  O101  1  0.391946  0.469955  0.883973  1
  O  O102  1  0.608054  0.969955  0.616027  1
  O  O103  1  0.891946  0.030045  0.116027  1
  O  O104  1  0.383973  0.108054  0.530045  1
  O  O105  1  0.883973  0.391946  0.469955  1
  O  O106  1  0.616027  0.608054  0.969955  1
  O  O107  1  0.116027  0.891946  0.030045  1
