# generated using pymatgen
data_Li2Si3NiO8
_symmetry_space_group_name_H-M   'P 1'
_cell_length_a   7.93531872
_cell_length_b   7.93529861
_cell_length_c   7.93516997
_cell_angle_alpha   89.99997336
_cell_angle_beta   89.99999126
_cell_angle_gamma   90.00006123
_symmetry_Int_Tables_number   1
_chemical_formula_structural   Li2Si3NiO8
_chemical_formula_sum   'Li8 Si12 Ni4 O32'
_cell_volume   499.67069870
_cell_formula_units_Z   4
loop_
 _symmetry_equiv_pos_site_id
 _symmetry_equiv_pos_as_xyz
  1  'x, y, z'
loop_
 _atom_site_type_symbol
 _atom_site_label
 _atom_site_symmetry_multiplicity
 _atom_site_fract_x
 _atom_site_fract_y
 _atom_site_fract_z
 _atom_site_occupancy
  Li  Li0  1  0.007831  0.007833  0.007827  1
  Li  Li1  1  0.242158  0.242162  0.242166  1
  Li  Li2  1  0.257841  0.757843  0.742164  1
  Li  Li3  1  0.492172  0.992170  0.507828  1
  Li  Li4  1  0.507829  0.492171  0.992176  1
  Li  Li5  1  0.742159  0.257843  0.757839  1
  Li  Li6  1  0.757841  0.742165  0.257842  1
  Li  Li7  1  0.992171  0.507833  0.492175  1
  Si  Si8  1  0.114939  0.135047  0.625012  1
  Si  Si9  1  0.125016  0.385079  0.864950  1
  Si  Si10  1  0.135050  0.625012  0.114931  1
  Si  Si11  1  0.364949  0.374997  0.614930  1
  Si  Si12  1  0.374987  0.614930  0.364945  1
  Si  Si13  1  0.385057  0.864959  0.125013  1
  Si  Si14  1  0.614942  0.364961  0.374990  1
  Si  Si15  1  0.625016  0.114930  0.135056  1
  Si  Si16  1  0.635055  0.874992  0.885074  1
  Si  Si17  1  0.864946  0.125012  0.385074  1
  Si  Si18  1  0.874985  0.885073  0.635062  1
  Si  Si19  1  0.885059  0.635044  0.874995  1
  Ni  Ni20  1  0.124991  0.875004  0.375008  1
  Ni  Ni21  1  0.375001  0.125000  0.875004  1
  Ni  Ni22  1  0.624995  0.624999  0.624999  1
  Ni  Ni23  1  0.875005  0.374997  0.124999  1
  O  O24  1  0.087410  0.133855  0.398855  1
  O  O25  1  0.101139  0.912591  0.633859  1
  O  O26  1  0.118596  0.618602  0.881405  1
  O  O27  1  0.116161  0.162595  0.851180  1
  O  O28  1  0.133850  0.398860  0.087411  1
  O  O29  1  0.131419  0.368589  0.631419  1
  O  O30  1  0.148830  0.616161  0.337410  1
  O  O31  1  0.162585  0.851170  0.116162  1
  O  O32  1  0.337413  0.148838  0.616159  1
  O  O33  1  0.351172  0.383845  0.837410  1
  O  O34  1  0.368581  0.631420  0.131416  1
  O  O35  1  0.366152  0.601146  0.587409  1
  O  O36  1  0.383839  0.837411  0.351177  1
  O  O37  1  0.381404  0.381405  0.381401  1
  O  O38  1  0.398860  0.087416  0.133854  1
  O  O39  1  0.412588  0.866151  0.898852  1
  O  O40  1  0.587413  0.366152  0.601149  1
  O  O41  1  0.601141  0.587417  0.366147  1
  O  O42  1  0.618596  0.881403  0.118602  1
  O  O43  1  0.616161  0.337410  0.148823  1
  O  O44  1  0.633851  0.101144  0.912594  1
  O  O45  1  0.631419  0.131420  0.368587  1
  O  O46  1  0.648831  0.883844  0.662597  1
  O  O47  1  0.662585  0.648834  0.883845  1
  O  O48  1  0.837416  0.351170  0.383841  1
  O  O49  1  0.851170  0.116157  0.162595  1
  O  O50  1  0.868581  0.868584  0.868591  1
  O  O51  1  0.866148  0.898861  0.412598  1
  O  O52  1  0.883840  0.662593  0.648827  1
  O  O53  1  0.881404  0.118604  0.618604  1
  O  O54  1  0.898861  0.412586  0.866151  1
  O  O55  1  0.912586  0.633852  0.101155  1
