# generated using pymatgen
data_Na3CuAsCO7
_symmetry_space_group_name_H-M   'P 1'
_cell_length_a   9.20655953
_cell_length_b   6.73838430
_cell_length_c   5.30529728
_cell_angle_alpha   90.00000000
_cell_angle_beta   87.00576491
_cell_angle_gamma   90.00000000
_symmetry_Int_Tables_number   1
_chemical_formula_structural   Na3CuAsCO7
_chemical_formula_sum   'Na6 Cu2 As2 C2 O14'
_cell_volume   328.67718565
_cell_formula_units_Z   2
loop_
 _symmetry_equiv_pos_site_id
 _symmetry_equiv_pos_as_xyz
  1  'x, y, z'
loop_
 _atom_site_type_symbol
 _atom_site_label
 _atom_site_symmetry_multiplicity
 _atom_site_fract_x
 _atom_site_fract_y
 _atom_site_fract_z
 _atom_site_occupancy
  Na  Na0  1  0.079261  0.250000  0.768811  1
  Na  Na1  1  0.257737  0.002883  0.245539  1
  Na  Na2  1  0.257737  0.497117  0.245539  1
  Na  Na3  1  0.742263  0.502883  0.754461  1
  Na  Na4  1  0.742263  0.997117  0.754461  1
  Na  Na5  1  0.920739  0.750000  0.231189  1
  Cu  Cu6  1  0.347471  0.750000  0.779846  1
  Cu  Cu7  1  0.652529  0.250000  0.220154  1
  As  As8  1  0.420882  0.250000  0.692389  1
  As  As9  1  0.579118  0.750000  0.307611  1
  C  C10  1  0.057803  0.750000  0.716482  1
  C  C11  1  0.942197  0.250000  0.283518  1
  O  O12  1  0.082746  0.250000  0.258560  1
  O  O13  1  0.132372  0.750000  0.921374  1
  O  O14  1  0.124798  0.750000  0.497231  1
  O  O15  1  0.307889  0.051273  0.775004  1
  O  O16  1  0.307889  0.448727  0.775004  1
  O  O17  1  0.447975  0.250000  0.363829  1
  O  O18  1  0.415962  0.750000  0.174575  1
  O  O19  1  0.584038  0.250000  0.825425  1
  O  O20  1  0.552025  0.750000  0.636171  1
  O  O21  1  0.692111  0.551273  0.224996  1
  O  O22  1  0.692111  0.948727  0.224996  1
  O  O23  1  0.875202  0.250000  0.502769  1
  O  O24  1  0.867628  0.250000  0.078626  1
  O  O25  1  0.917254  0.750000  0.741440  1
