# generated using pymatgen
data_LiSiBiO4
_symmetry_space_group_name_H-M   'P 1'
_cell_length_a   8.98402043
_cell_length_b   8.98390773
_cell_length_c   8.36298671
_cell_angle_alpha   90.00180343
_cell_angle_beta   89.99798993
_cell_angle_gamma   120.00024421
_symmetry_Int_Tables_number   1
_chemical_formula_structural   LiSiBiO4
_chemical_formula_sum   'Li6 Si6 Bi6 O24'
_cell_volume   584.55715804
_cell_formula_units_Z   6
loop_
 _symmetry_equiv_pos_site_id
 _symmetry_equiv_pos_as_xyz
  1  'x, y, z'
loop_
 _atom_site_type_symbol
 _atom_site_label
 _atom_site_symmetry_multiplicity
 _atom_site_fract_x
 _atom_site_fract_y
 _atom_site_fract_z
 _atom_site_occupancy
  Li  Li0  1  0.027043  0.684474  0.257135  1
  Li  Li1  1  0.315530  0.342566  0.257122  1
  Li  Li2  1  0.657439  0.972954  0.257133  1
  Li  Li3  1  0.342555  0.027042  0.757144  1
  Li  Li4  1  0.684469  0.657420  0.757129  1
  Li  Li5  1  0.972965  0.315538  0.757123  1
  Si  Si6  1  0.023259  0.676651  0.871045  1
  Si  Si7  1  0.323364  0.346608  0.871028  1
  Si  Si8  1  0.653352  0.976731  0.871037  1
  Si  Si9  1  0.346625  0.023249  0.371034  1
  Si  Si10  1  0.676637  0.653386  0.371033  1
  Si  Si11  1  0.976750  0.323367  0.371033  1
  Bi  Bi12  1  0.333323  0.666665  0.996042  1
  Bi  Bi13  1  0.333339  0.666668  0.547609  1
  Bi  Bi14  1  0.999919  0.000014  0.946746  1
  Bi  Bi15  1  0.000013  0.000013  0.446727  1
  Bi  Bi16  1  0.666668  0.333324  0.496042  1
  Bi  Bi17  1  0.666667  0.333340  0.047604  1
  O  O18  1  0.079301  0.864039  0.781674  1
  O  O19  1  0.115706  0.731653  0.047986  1
  O  O20  1  0.109575  0.572222  0.784266  1
  O  O21  1  0.244396  0.811843  0.388490  1
  O  O22  1  0.188143  0.432525  0.388508  1
  O  O23  1  0.135975  0.215300  0.781635  1
  O  O24  1  0.462631  0.890436  0.784274  1
  O  O25  1  0.268327  0.384038  0.047975  1
  O  O26  1  0.615976  0.884302  0.047967  1
  O  O27  1  0.215315  0.079310  0.281629  1
  O  O28  1  0.427796  0.537366  0.784259  1
  O  O29  1  0.567476  0.755601  0.388507  1
  O  O30  1  0.432541  0.244406  0.888496  1
  O  O31  1  0.572209  0.462622  0.284256  1
  O  O32  1  0.784667  0.920675  0.781605  1
  O  O33  1  0.384041  0.115688  0.547970  1
  O  O34  1  0.731673  0.615955  0.547969  1
  O  O35  1  0.537376  0.109572  0.284259  1
  O  O36  1  0.864017  0.784703  0.281627  1
  O  O37  1  0.811860  0.567475  0.888509  1
  O  O38  1  0.755642  0.188158  0.888510  1
  O  O39  1  0.890431  0.427790  0.284260  1
  O  O40  1  0.884291  0.268324  0.547965  1
  O  O41  1  0.920700  0.135989  0.281615  1
