# generated using pymatgen
data_Sr2HfO4
_symmetry_space_group_name_H-M   'P 1'
_cell_length_a   5.84534920
_cell_length_b   5.83040445
_cell_length_c   12.67471839
_cell_angle_alpha   90.00000000
_cell_angle_beta   90.00000000
_cell_angle_gamma   90.00000000
_symmetry_Int_Tables_number   1
_chemical_formula_structural   Sr2HfO4
_chemical_formula_sum   'Sr8 Hf4 O16'
_cell_volume   431.96390861
_cell_formula_units_Z   4
loop_
 _symmetry_equiv_pos_site_id
 _symmetry_equiv_pos_as_xyz
  1  'x, y, z'
loop_
 _atom_site_type_symbol
 _atom_site_label
 _atom_site_symmetry_multiplicity
 _atom_site_fract_x
 _atom_site_fract_y
 _atom_site_fract_z
 _atom_site_occupancy
  Sr  Sr0  1  0.014251  0.012854  0.351708  1
  Sr  Sr1  1  0.014251  0.487146  0.851708  1
  Sr  Sr2  1  0.485749  0.012854  0.851708  1
  Sr  Sr3  1  0.485749  0.487146  0.351708  1
  Sr  Sr4  1  0.514251  0.512854  0.648292  1
  Sr  Sr5  1  0.514251  0.987146  0.148292  1
  Sr  Sr6  1  0.985749  0.512854  0.148292  1
  Sr  Sr7  1  0.985749  0.987146  0.648292  1
  Hf  Hf8  1  0.000000  0.000000  0.000000  1
  Hf  Hf9  1  0.000000  0.500000  0.500000  1
  Hf  Hf10  1  0.500000  0.500000  0.000000  1
  Hf  Hf11  1  0.500000  0.000000  0.500000  1
  O  O12  1  0.040535  0.465900  0.336829  1
  O  O13  1  0.040535  0.034100  0.836829  1
  O  O14  1  0.250000  0.250000  0.021217  1
  O  O15  1  0.250000  0.250000  0.521217  1
  O  O16  1  0.250000  0.750000  0.002122  1
  O  O17  1  0.250000  0.750000  0.502122  1
  O  O18  1  0.459465  0.465900  0.836829  1
  O  O19  1  0.459465  0.034100  0.336829  1
  O  O20  1  0.540535  0.534100  0.163171  1
  O  O21  1  0.540535  0.965900  0.663171  1
  O  O22  1  0.750000  0.250000  0.497878  1
  O  O23  1  0.750000  0.750000  0.478783  1
  O  O24  1  0.750000  0.250000  0.997878  1
  O  O25  1  0.750000  0.750000  0.978783  1
  O  O26  1  0.959465  0.965900  0.163171  1
  O  O27  1  0.959465  0.534100  0.663171  1
