# generated using pymatgen
data_Li4Mn(BO3)2
_symmetry_space_group_name_H-M   'P 1'
_cell_length_a   9.26095500
_cell_length_b   7.95808897
_cell_length_c   3.39789408
_cell_angle_alpha   89.99990253
_cell_angle_beta   89.99996266
_cell_angle_gamma   89.99970920
_symmetry_Int_Tables_number   1
_chemical_formula_structural   Li4Mn(BO3)2
_chemical_formula_sum   'Li8 Mn2 B4 O12'
_cell_volume   250.42310779
_cell_formula_units_Z   2
loop_
 _symmetry_equiv_pos_site_id
 _symmetry_equiv_pos_as_xyz
  1  'x, y, z'
loop_
 _atom_site_type_symbol
 _atom_site_label
 _atom_site_symmetry_multiplicity
 _atom_site_fract_x
 _atom_site_fract_y
 _atom_site_fract_z
 _atom_site_occupancy
  Li  Li0  1  0.049978  0.174872  0.500000  1
  Li  Li1  1  0.198460  0.010429  0.000001  1
  Li  Li2  1  0.301547  0.510430  0.500001  1
  Li  Li3  1  0.450024  0.674878  -0.000000  1
  Li  Li4  1  0.549978  0.325124  0.000001  1
  Li  Li5  1  0.698452  0.489571  0.500001  1
  Li  Li6  1  0.801540  0.989571  -0.000000  1
  Li  Li7  1  0.950024  0.825128  0.500000  1
  Mn  Mn8  1  0.999993  0.499994  0.999991  1
  Mn  Mn9  1  0.500002  -0.000001  0.499990  1
  B  B10  1  0.206073  0.770484  0.500002  1
  B  B11  1  0.293951  0.270477  0.000002  1
  B  B12  1  0.706048  0.729525  0.000001  1
  B  B13  1  0.793926  0.229517  0.500000  1
  O  O14  1  0.116904  0.625519  0.500001  1
  O  O15  1  0.144327  0.252597  -0.000000  1
  O  O16  1  0.141815  0.926095  0.500001  1
  O  O17  1  0.358189  0.426088  0.000002  1
  O  O18  1  0.355668  0.752604  0.500003  1
  O  O19  1  0.383096  0.125522  0.000002  1
  O  O20  1  0.616904  0.874479  0.000001  1
  O  O21  1  0.644332  0.247397  0.499998  1
  O  O22  1  0.641812  0.573913  0.000003  1
  O  O23  1  0.858187  0.073904  0.500001  1
  O  O24  1  0.855673  0.747402  0.000000  1
  O  O25  1  0.883095  0.374481  0.499999  1
