# generated using pymatgen
data_Na2NiPCO7
_symmetry_space_group_name_H-M   'P 1'
_cell_length_a   10.14242356
_cell_length_b   10.43543825
_cell_length_c   6.63833633
_cell_angle_alpha   90.26421605
_cell_angle_beta   90.51004717
_cell_angle_gamma   60.18395536
_symmetry_Int_Tables_number   1
_chemical_formula_structural   Na2NiPCO7
_chemical_formula_sum   'Na8 Ni4 P4 C4 O28'
_cell_volume   609.57500883
_cell_formula_units_Z   4
loop_
 _symmetry_equiv_pos_site_id
 _symmetry_equiv_pos_as_xyz
  1  'x, y, z'
loop_
 _atom_site_type_symbol
 _atom_site_label
 _atom_site_symmetry_multiplicity
 _atom_site_fract_x
 _atom_site_fract_y
 _atom_site_fract_z
 _atom_site_occupancy
  Na  Na0  1  0.008858  0.256023  0.481736  1
  Na  Na1  1  0.010208  0.255121  0.015496  1
  Na  Na2  1  0.484608  0.255942  0.971669  1
  Na  Na3  1  0.843041  0.067654  0.736443  1
  Na  Na4  1  0.501499  0.749510  0.009070  1
  Na  Na5  1  0.501368  0.747864  0.491532  1
  Na  Na6  1  0.000242  0.738268  0.989770  1
  Na  Na7  1  0.003202  0.734028  0.513710  1
  Ni  Ni8  1  0.285754  0.066224  0.749003  1
  Ni  Ni9  1  0.220964  0.430842  0.258635  1
  Ni  Ni10  1  0.785079  0.565841  0.750445  1
  Ni  Ni11  1  0.715017  0.935916  0.254994  1
  P  P12  1  0.352128  0.071929  0.250387  1
  P  P13  1  0.146779  0.434588  0.751242  1
  P  P14  1  0.851894  0.570337  0.250488  1
  P  P15  1  0.650818  0.928053  0.752473  1
  C  C16  1  0.821151  0.105675  0.248437  1
  C  C17  1  0.323507  0.602620  0.248456  1
  C  C18  1  0.682420  0.393768  0.752576  1
  C  C19  1  0.170819  0.899205  0.749438  1
  O  O20  1  0.091453  0.043717  0.747130  1
  O  O21  1  0.268102  0.057788  0.063207  1
  O  O22  1  0.269255  0.061371  0.437783  1
  O  O23  1  0.143020  0.289041  0.748380  1
  O  O24  1  0.019661  0.437469  0.251285  1
  O  O25  1  0.484785  0.057767  0.759401  1
  O  O26  1  0.356399  0.216901  0.242341  1
  O  O27  1  0.228620  0.447197  0.939999  1
  O  O28  1  0.219188  0.456909  0.562884  1
  O  O29  1  0.677034  0.152067  0.242330  1
  O  O30  1  0.178227  0.648585  0.251646  1
  O  O31  1  0.407011  0.461038  0.247944  1
  O  O32  1  0.630900  0.307208  0.761807  1
  O  O33  1  0.103878  0.823964  0.751987  1
  O  O34  1  0.877626  0.189193  0.246170  1
  O  O35  1  0.376005  0.688973  0.246822  1
  O  O36  1  0.599891  0.536711  0.748660  1
  O  O37  1  0.828762  0.345691  0.747273  1
  O  O38  1  0.316385  0.843925  0.748857  1
  O  O39  1  0.769856  0.557046  0.061956  1
  O  O40  1  0.769458  0.559253  0.437416  1
  O  O41  1  0.643192  0.783584  0.753483  1
  O  O42  1  0.518667  0.938809  0.250049  1
  O  O43  1  0.977554  0.567748  0.753510  1
  O  O44  1  0.857855  0.715632  0.249755  1
  O  O45  1  0.737092  0.936649  0.566798  1
  O  O46  1  0.739007  0.940889  0.936430  1
  O  O47  1  0.904563  0.962339  0.258852  1
