# generated using pymatgen
data_Mn2OF3
_symmetry_space_group_name_H-M   'P 1'
_cell_length_a   4.83055032
_cell_length_b   13.64285087
_cell_length_c   5.80410528
_cell_angle_alpha   101.12777977
_cell_angle_beta   88.97626542
_cell_angle_gamma   90.84811586
_symmetry_Int_Tables_number   1
_chemical_formula_structural   Mn2OF3
_chemical_formula_sum   'Mn10 O5 F15'
_cell_volume   375.22848356
_cell_formula_units_Z   5
loop_
 _symmetry_equiv_pos_site_id
 _symmetry_equiv_pos_as_xyz
  1  'x, y, z'
loop_
 _atom_site_type_symbol
 _atom_site_label
 _atom_site_symmetry_multiplicity
 _atom_site_fract_x
 _atom_site_fract_y
 _atom_site_fract_z
 _atom_site_occupancy
  Mn  Mn0  1  0.495634  0.998104  0.502666  1
  Mn  Mn1  1  0.497284  0.400010  0.299890  1
  Mn  Mn2  1  0.548398  0.595356  0.686137  1
  Mn  Mn3  1  0.477864  0.213618  0.904342  1
  Mn  Mn4  1  0.496444  0.798907  0.096949  1
  Mn  Mn5  1  0.970357  0.185859  0.400994  1
  Mn  Mn6  1  0.014641  0.404158  0.792214  1
  Mn  Mn7  1  0.009923  0.801950  0.607167  1
  Mn  Mn8  1  0.987379  0.601602  0.220780  1
  Mn  Mn9  1  0.992637  0.000350  0.997049  1
  O  O10  1  0.817897  0.665708  0.529815  1
  O  O11  1  0.792901  0.051550  0.302632  1
  O  O12  1  0.691952  0.459873  0.591035  1
  O  O13  1  0.312106  0.344112  0.000646  1
  O  O14  1  0.192376  0.939511  0.694441  1
  F  F15  1  0.808779  0.860287  0.922174  1
  F  F16  1  0.803467  0.261928  0.727088  1
  F  F17  1  0.797313  0.460827  0.107007  1
  F  F18  1  0.687638  0.073253  0.821442  1
  F  F19  1  0.695732  0.261936  0.227377  1
  F  F20  1  0.690830  0.860381  0.426442  1
  F  F21  1  0.701638  0.659853  0.024136  1
  F  F22  1  0.305323  0.139533  0.577381  1
  F  F23  1  0.295032  0.939056  0.185699  1
  F  F24  1  0.323906  0.729631  0.768346  1
  F  F25  1  0.299641  0.535311  0.370818  1
  F  F26  1  0.211381  0.547121  0.883771  1
  F  F27  1  0.198451  0.328107  0.476611  1
  F  F28  1  0.193225  0.138464  0.070805  1
  F  F29  1  0.189852  0.743643  0.284147  1
