# generated using pymatgen
data_Rb2U2WO10
_symmetry_space_group_name_H-M   'P 1'
_cell_length_a   8.41571517
_cell_length_b   9.54921969
_cell_length_c   29.09314185
_cell_angle_alpha   90.00000000
_cell_angle_beta   90.00000000
_cell_angle_gamma   105.15042837
_symmetry_Int_Tables_number   1
_chemical_formula_structural   Rb2U2WO10
_chemical_formula_sum   'Rb16 U16 W8 O80'
_cell_volume   2256.76422065
_cell_formula_units_Z   8
loop_
 _symmetry_equiv_pos_site_id
 _symmetry_equiv_pos_as_xyz
  1  'x, y, z'
loop_
 _atom_site_type_symbol
 _atom_site_label
 _atom_site_symmetry_multiplicity
 _atom_site_fract_x
 _atom_site_fract_y
 _atom_site_fract_z
 _atom_site_occupancy
  Rb  Rb0  1  0.581187  0.608555  0.121590  1
  Rb  Rb1  1  0.879854  0.955674  0.255531  1
  Rb  Rb2  1  0.759633  0.819283  0.486619  1
  Rb  Rb3  1  0.259633  0.319283  0.013381  1
  Rb  Rb4  1  0.918813  0.891445  0.621590  1
  Rb  Rb5  1  0.740367  0.680717  0.986619  1
  Rb  Rb6  1  0.240367  0.180717  0.513381  1
  Rb  Rb7  1  0.620146  0.544326  0.755531  1
  Rb  Rb8  1  0.521436  0.480774  0.601718  1
  Rb  Rb9  1  0.978564  0.019226  0.101718  1
  Rb  Rb10  1  0.379854  0.455674  0.244469  1
  Rb  Rb11  1  0.120146  0.044326  0.744469  1
  Rb  Rb12  1  0.478564  0.519226  0.398282  1
  Rb  Rb13  1  0.081187  0.108555  0.378410  1
  Rb  Rb14  1  0.021436  0.980774  0.898282  1
  Rb  Rb15  1  0.418813  0.391445  0.878410  1
  U  U16  1  0.028130  0.528695  0.567954  1
  U  U17  1  0.587261  0.081210  0.401911  1
  U  U18  1  0.528130  0.028695  0.932046  1
  U  U19  1  0.912739  0.418790  0.901911  1
  U  U20  1  0.412739  0.918790  0.598089  1
  U  U21  1  0.314475  0.859572  0.186112  1
  U  U22  1  0.814475  0.359572  0.313888  1
  U  U23  1  0.334530  0.782002  0.832314  1
  U  U24  1  0.185525  0.640428  0.686112  1
  U  U25  1  0.971870  0.471305  0.432046  1
  U  U26  1  0.665470  0.217998  0.167686  1
  U  U27  1  0.087261  0.581210  0.098089  1
  U  U28  1  0.165470  0.717998  0.332314  1
  U  U29  1  0.685525  0.140428  0.813888  1
  U  U30  1  0.471870  0.971305  0.067954  1
  U  U31  1  0.834530  0.282002  0.667686  1
  W  W32  1  0.768536  0.189140  0.532168  1
  W  W33  1  0.901153  0.548019  0.210152  1
  W  W34  1  0.598847  0.951981  0.710152  1
  W  W35  1  0.098847  0.451981  0.789848  1
  W  W36  1  0.401153  0.048019  0.289848  1
  W  W37  1  0.268536  0.689140  0.967832  1
  W  W38  1  0.231464  0.810860  0.467832  1
  W  W39  1  0.731464  0.310860  0.032168  1
  O  O40  1  0.103720  0.929471  0.455372  1
  O  O41  1  0.002608  0.813649  0.337500  1
  O  O42  1  0.719461  0.824855  0.709341  1
  O  O43  1  0.139570  0.555222  0.848193  1
  O  O44  1  0.556238  0.119453  0.555589  1
  O  O45  1  0.663604  0.467809  0.321631  1
  O  O46  1  0.896397  0.351527  0.819192  1
  O  O47  1  0.603603  0.148473  0.319192  1
  O  O48  1  0.309259  0.070038  0.063582  1
  O  O49  1  0.547175  0.256708  0.800907  1
  O  O50  1  0.318256  0.810980  0.911640  1
  O  O51  1  0.000322  0.511366  0.356658  1
  O  O52  1  0.181744  0.689020  0.411640  1
  O  O53  1  0.202877  0.623399  0.027739  1
  O  O54  1  0.396280  0.570529  0.955372  1
  O  O55  1  0.896280  0.070529  0.544628  1
  O  O56  1  0.834539  0.131142  0.177050  1
  O  O57  1  0.137767  0.374509  0.432403  1
  O  O58  1  0.754190  0.369345  0.233848  1
  O  O59  1  0.056238  0.619453  0.944411  1
  O  O60  1  0.941810  0.691474  0.083938  1
  O  O61  1  0.860430  0.444778  0.151807  1
  O  O62  1  0.275267  0.033887  0.612500  1
  O  O63  1  0.108254  0.628994  0.494961  1
  O  O64  1  0.794297  0.286400  0.390226  1
  O  O65  1  0.058190  0.308526  0.916062  1
  O  O66  1  0.163604  0.967809  0.178369  1
  O  O67  1  0.690741  0.929962  0.936418  1
  O  O68  1  0.452825  0.743292  0.199093  1
  O  O69  1  0.499678  0.988634  0.856658  1
  O  O70  1  0.396397  0.851527  0.680808  1
  O  O71  1  0.818256  0.310980  0.588360  1
  O  O72  1  0.665461  0.368858  0.677050  1
  O  O73  1  0.780539  0.675145  0.209341  1
  O  O74  1  0.943762  0.380547  0.055589  1
  O  O75  1  0.862233  0.625491  0.567597  1
  O  O76  1  0.507238  0.064946  0.231981  1
  O  O77  1  0.558190  0.808526  0.583938  1
  O  O78  1  0.336396  0.532191  0.678369  1
  O  O79  1  0.797123  0.376601  0.972261  1
  O  O80  1  0.775267  0.533887  0.887500  1
  O  O81  1  0.809259  0.570038  0.436418  1
  O  O82  1  0.639570  0.055222  0.651807  1
  O  O83  1  0.836396  0.032191  0.821631  1
  O  O84  1  0.190741  0.429962  0.563582  1
  O  O85  1  0.745810  0.130655  0.733848  1
  O  O86  1  0.492762  0.935054  0.768019  1
  O  O87  1  0.391746  0.871006  0.994961  1
  O  O88  1  0.637767  0.874509  0.067597  1
  O  O89  1  0.500322  0.011366  0.143342  1
  O  O90  1  0.007238  0.564946  0.268020  1
  O  O91  1  0.205703  0.713600  0.609774  1
  O  O92  1  0.497392  0.686351  0.837500  1
  O  O93  1  0.103603  0.648473  0.180808  1
  O  O94  1  0.360430  0.944778  0.348193  1
  O  O95  1  0.443762  0.880547  0.444411  1
  O  O96  1  0.334539  0.631142  0.322950  1
  O  O97  1  0.724733  0.966113  0.387500  1
  O  O98  1  0.224733  0.466113  0.112500  1
  O  O99  1  0.362233  0.125491  0.932403  1
  O  O100  1  0.992762  0.435054  0.731981  1
  O  O101  1  0.999678  0.488634  0.643342  1
  O  O102  1  0.891746  0.371006  0.505039  1
  O  O103  1  0.280539  0.175145  0.290659  1
  O  O104  1  0.952825  0.243292  0.300907  1
  O  O105  1  0.219461  0.324855  0.790659  1
  O  O106  1  0.441810  0.191474  0.416062  1
  O  O107  1  0.294297  0.786400  0.109774  1
  O  O108  1  0.297123  0.876601  0.527739  1
  O  O109  1  0.254190  0.869345  0.266152  1
  O  O110  1  0.705703  0.213600  0.890226  1
  O  O111  1  0.997392  0.186351  0.662500  1
  O  O112  1  0.502608  0.313649  0.162500  1
  O  O113  1  0.047175  0.756708  0.699093  1
  O  O114  1  0.245810  0.630655  0.766152  1
  O  O115  1  0.165461  0.868858  0.822950  1
  O  O116  1  0.608254  0.128994  0.005039  1
  O  O117  1  0.681744  0.189020  0.088360  1
  O  O118  1  0.702877  0.123399  0.472261  1
  O  O119  1  0.603720  0.429471  0.044628  1
