# generated using pymatgen
data_MnH19C6I3N2
_symmetry_space_group_name_H-M   'P 1'
_cell_length_a   13.37048723
_cell_length_b   10.97985215
_cell_length_c   12.03761927
_cell_angle_alpha   90.00000000
_cell_angle_beta   95.92067489
_cell_angle_gamma   90.00000000
_symmetry_Int_Tables_number   1
_chemical_formula_structural   MnH19C6I3N2
_chemical_formula_sum   'Mn4 H76 C24 I12 N8'
_cell_volume   1757.76759401
_cell_formula_units_Z   4
loop_
 _symmetry_equiv_pos_site_id
 _symmetry_equiv_pos_as_xyz
  1  'x, y, z'
loop_
 _atom_site_type_symbol
 _atom_site_label
 _atom_site_symmetry_multiplicity
 _atom_site_fract_x
 _atom_site_fract_y
 _atom_site_fract_z
 _atom_site_occupancy
  Mn  Mn0  1  0.764155  0.051368  0.184784  1
  Mn  Mn1  1  0.235845  0.551368  0.315216  1
  Mn  Mn2  1  0.235845  0.948632  0.815216  1
  Mn  Mn3  1  0.764155  0.448632  0.684784  1
  H  H4  1  0.345034  0.193566  0.204286  1
  H  H5  1  0.654966  0.693566  0.295714  1
  H  H6  1  0.654966  0.806434  0.795714  1
  H  H7  1  0.345034  0.306434  0.704286  1
  H  H8  1  0.013868  0.271857  0.231295  1
  H  H9  1  0.986132  0.771857  0.268705  1
  H  H10  1  0.986132  0.728143  0.768705  1
  H  H11  1  0.013868  0.228143  0.731295  1
  H  H12  1  0.899131  0.286497  0.141242  1
  H  H13  1  0.100869  0.786497  0.358758  1
  H  H14  1  0.100869  0.713503  0.858758  1
  H  H15  1  0.899131  0.213503  0.641242  1
  H  H16  1  0.978342  0.157139  0.127641  1
  H  H17  1  0.021658  0.657139  0.372359  1
  H  H18  1  0.021658  0.842861  0.872359  1
  H  H19  1  0.978342  0.342861  0.627641  1
  H  H20  1  0.994299  0.006432  0.288712  1
  H  H21  1  0.005701  0.506432  0.211288  1
  H  H22  1  0.005701  0.993568  0.711288  1
  H  H23  1  0.994299  0.493568  0.788712  1
  H  H24  1  0.923036  0.035185  0.403683  1
  H  H25  1  0.076964  0.535185  0.096317  1
  H  H26  1  0.076964  0.964815  0.596317  1
  H  H27  1  0.923036  0.464815  0.903683  1
  H  H28  1  0.026320  0.133386  0.380949  1
  H  H29  1  0.973680  0.633386  0.119051  1
  H  H30  1  0.973680  0.866614  0.619051  1
  H  H31  1  0.026320  0.366614  0.880949  1
  H  H32  1  0.812853  0.203689  0.405158  1
  H  H33  1  0.187147  0.703689  0.094842  1
  H  H34  1  0.187147  0.796311  0.594842  1
  H  H35  1  0.812853  0.296311  0.905158  1
  H  H36  1  0.797963  0.305391  0.289287  1
  H  H37  1  0.202037  0.805391  0.210713  1
  H  H38  1  0.202037  0.694609  0.710713  1
  H  H39  1  0.797963  0.194609  0.789287  1
  H  H40  1  0.913393  0.306677  0.381148  1
  H  H41  1  0.086607  0.806677  0.118852  1
  H  H42  1  0.086607  0.693323  0.618852  1
  H  H43  1  0.913393  0.193323  0.881148  1
  H  H44  1  0.272644  0.008096  0.354729  1
  H  H45  1  0.727356  0.508096  0.145271  1
  H  H46  1  0.727356  0.991904  0.645271  1
  H  H47  1  0.272644  0.491904  0.854729  1
  H  H48  1  0.207193  0.064336  0.225855  1
  H  H49  1  0.792807  0.564336  0.274145  1
  H  H50  1  0.792807  0.935664  0.774145  1
  H  H51  1  0.207193  0.435664  0.725855  1
  H  H52  1  0.234082  0.165238  0.343382  1
  H  H53  1  0.765918  0.665238  0.156618  1
  H  H54  1  0.765918  0.834762  0.656618  1
  H  H55  1  0.234082  0.334762  0.843382  1
  H  H56  1  0.448978  0.084659  0.408844  1
  H  H57  1  0.551022  0.584659  0.091156  1
  H  H58  1  0.551022  0.915341  0.591156  1
  H  H59  1  0.448978  0.415341  0.908844  1
  H  H60  1  0.402097  0.237478  0.390237  1
  H  H61  1  0.597903  0.737478  0.109763  1
  H  H62  1  0.597903  0.762522  0.609763  1
  H  H63  1  0.402097  0.262522  0.890237  1
  H  H64  1  0.503190  0.185847  0.313945  1
  H  H65  1  0.496810  0.685847  0.186055  1
  H  H66  1  0.496810  0.814153  0.686055  1
  H  H67  1  0.503190  0.314153  0.813945  1
  H  H68  1  0.466292  0.045277  0.157373  1
  H  H69  1  0.533708  0.545277  0.342627  1
  H  H70  1  0.533708  0.954723  0.842627  1
  H  H71  1  0.466292  0.454723  0.657373  1
  H  H72  1  0.338624  0.996243  0.120970  1
  H  H73  1  0.661376  0.496243  0.379030  1
  H  H74  1  0.661376  0.003757  0.879030  1
  H  H75  1  0.338624  0.503757  0.620970  1
  H  H76  1  0.409741  0.936562  0.244634  1
  H  H77  1  0.590259  0.436562  0.255366  1
  H  H78  1  0.590259  0.063438  0.755366  1
  H  H79  1  0.409741  0.563438  0.744634  1
  C  C80  1  0.950298  0.221477  0.186925  1
  C  C81  1  0.049702  0.721477  0.313075  1
  C  C82  1  0.049702  0.778523  0.813075  1
  C  C83  1  0.950298  0.278523  0.686925  1
  C  C84  1  0.964147  0.077951  0.339720  1
  C  C85  1  0.035853  0.577951  0.160280  1
  C  C86  1  0.035853  0.922049  0.660280  1
  C  C87  1  0.964147  0.422049  0.839720  1
  C  C88  1  0.852293  0.248972  0.341079  1
  C  C89  1  0.147707  0.748972  0.158921  1
  C  C90  1  0.147707  0.751028  0.658922  1
  C  C91  1  0.852293  0.251028  0.841078  1
  C  C92  1  0.260480  0.086567  0.298415  1
  C  C93  1  0.739520  0.586566  0.201585  1
  C  C94  1  0.739520  0.913434  0.701585  1
  C  C95  1  0.260480  0.413434  0.798415  1
  C  C96  1  0.433998  0.159667  0.349356  1
  C  C97  1  0.566002  0.659667  0.150644  1
  C  C98  1  0.566002  0.840333  0.650644  1
  C  C99  1  0.433998  0.340333  0.849356  1
  C  C100  1  0.396375  0.016332  0.189896  1
  C  C101  1  0.603625  0.516332  0.310104  1
  C  C102  1  0.603625  0.983668  0.810104  1
  C  C103  1  0.396375  0.483668  0.689896  1
  I  I104  1  0.689231  0.927298  0.350856  1
  I  I105  1  0.310769  0.427298  0.149144  1
  I  I106  1  0.310769  0.072702  0.649144  1
  I  I107  1  0.689231  0.572702  0.850856  1
  I  I108  1  0.842861  0.903192  0.041645  1
  I  I109  1  0.157139  0.403192  0.458355  1
  I  I110  1  0.157139  0.096808  0.958355  1
  I  I111  1  0.842861  0.596808  0.541645  1
  I  I112  1  0.638446  0.217803  0.085774  1
  I  I113  1  0.361554  0.717803  0.414226  1
  I  I114  1  0.361554  0.782197  0.914226  1
  I  I115  1  0.638446  0.282197  0.585774  1
  N  N116  1  0.894098  0.156731  0.269030  1
  N  N117  1  0.105902  0.656731  0.230970  1
  N  N118  1  0.105902  0.843269  0.730970  1
  N  N119  1  0.894098  0.343269  0.769030  1
  N  N120  1  0.358705  0.118070  0.256777  1
  N  N121  1  0.641295  0.618070  0.243223  1
  N  N122  1  0.641295  0.881930  0.743223  1
  N  N123  1  0.358705  0.381930  0.756777  1
