# generated using pymatgen
data_Li4Co3(OF3)2
_symmetry_space_group_name_H-M   'P 1'
_cell_length_a   5.25122714
_cell_length_b   5.93681394
_cell_length_c   5.20280656
_cell_angle_alpha   89.31232212
_cell_angle_beta   80.01491225
_cell_angle_gamma   72.47969858
_symmetry_Int_Tables_number   1
_chemical_formula_structural   Li4Co3(OF3)2
_chemical_formula_sum   'Li4 Co3 O2 F6'
_cell_volume   152.19349822
_cell_formula_units_Z   1
loop_
 _symmetry_equiv_pos_site_id
 _symmetry_equiv_pos_as_xyz
  1  'x, y, z'
loop_
 _atom_site_type_symbol
 _atom_site_label
 _atom_site_symmetry_multiplicity
 _atom_site_fract_x
 _atom_site_fract_y
 _atom_site_fract_z
 _atom_site_occupancy
  Li  Li0  1  0.978692  0.002861  0.990086  1
  Li  Li1  1  0.001947  0.238803  0.486589  1
  Li  Li2  1  0.998053  0.511197  0.013411  1
  Li  Li3  1  0.021308  0.747139  0.509914  1
  Co  Co4  1  0.496137  0.108437  0.747849  1
  Co  Co5  1  0.503863  0.641563  0.752151  1
  Co  Co6  1  0.500000  0.875000  0.250000  1
  O  O7  1  0.269941  0.933213  0.604500  1
  O  O8  1  0.730059  0.816787  0.895500  1
  F  F9  1  0.210293  0.184787  0.112930  1
  F  F10  1  0.767954  0.046567  0.380608  1
  F  F11  1  0.748415  0.308761  0.841476  1
  F  F12  1  0.251585  0.441239  0.658524  1
  F  F13  1  0.789707  0.565213  0.387070  1
  F  F14  1  0.232046  0.703433  0.119392  1
