# generated using pymatgen
data_NaLi2MnPCO7
_symmetry_space_group_name_H-M   'P 1'
_cell_length_a   8.71873623
_cell_length_b   6.65221290
_cell_length_c   10.08034722
_cell_angle_alpha   90.04721580
_cell_angle_beta   89.00356906
_cell_angle_gamma   90.11305213
_symmetry_Int_Tables_number   1
_chemical_formula_structural   NaLi2MnPCO7
_chemical_formula_sum   'Na4 Li8 Mn4 P4 C4 O28'
_cell_volume   584.55921508
_cell_formula_units_Z   4
loop_
 _symmetry_equiv_pos_site_id
 _symmetry_equiv_pos_as_xyz
  1  'x, y, z'
loop_
 _atom_site_type_symbol
 _atom_site_label
 _atom_site_symmetry_multiplicity
 _atom_site_fract_x
 _atom_site_fract_y
 _atom_site_fract_z
 _atom_site_occupancy
  Na  Na0  1  0.084159  0.254133  0.877931  1
  Na  Na1  1  0.084277  0.252095  0.378604  1
  Na  Na2  1  0.251580  0.997039  0.124445  1
  Na  Na3  1  0.748454  0.500421  0.376342  1
  Li  Li4  1  0.265075  0.020465  0.616904  1
  Li  Li5  1  0.266928  0.477845  0.613884  1
  Li  Li6  1  0.268049  0.481971  0.115305  1
  Li  Li7  1  0.736475  0.517849  0.882055  1
  Li  Li8  1  0.734690  0.980289  0.885620  1
  Li  Li9  1  0.733846  0.984083  0.384437  1
  Li  Li10  1  0.917806  0.754123  0.628005  1
  Li  Li11  1  0.912663  0.749119  0.123413  1
  Mn  Mn12  1  0.357822  0.747193  0.884346  1
  Mn  Mn13  1  0.359809  0.747714  0.391735  1
  Mn  Mn14  1  0.644641  0.246580  0.615896  1
  Mn  Mn15  1  0.641968  0.248475  0.108919  1
  P  P16  1  0.412513  0.250081  0.849479  1
  P  P17  1  0.412768  0.248303  0.355525  1
  P  P18  1  0.593391  0.749804  0.651247  1
  P  P19  1  0.592942  0.749422  0.145412  1
  C  C20  1  0.041461  0.749816  0.865799  1
  C  C21  1  0.046028  0.756991  0.365866  1
  C  C22  1  0.950471  0.249141  0.633394  1
  C  C23  1  0.945822  0.257304  0.132277  1
  O  O24  1  0.100198  0.248606  0.640344  1
  O  O25  1  0.094350  0.276256  0.141574  1
  O  O26  1  0.088400  0.752896  0.987878  1
  O  O27  1  0.089820  0.749473  0.488444  1
  O  O28  1  0.140814  0.747246  0.767626  1
  O  O29  1  0.147708  0.741868  0.269454  1
  O  O30  1  0.322928  0.061912  0.898068  1
  O  O31  1  0.320625  0.433022  0.904404  1
  O  O32  1  0.314346  0.062966  0.398939  1
  O  O33  1  0.325910  0.433300  0.414000  1
  O  O34  1  0.413428  0.253547  0.693861  1
  O  O35  1  0.423402  0.752505  0.603054  1
  O  O36  1  0.418182  0.265202  0.200515  1
  O  O37  1  0.426274  0.732045  0.093880  1
  O  O38  1  0.582180  0.252840  0.895085  1
  O  O39  1  0.586465  0.754183  0.806774  1
  O  O40  1  0.579106  0.231867  0.404528  1
  O  O41  1  0.581861  0.765896  0.300124  1
  O  O42  1  0.684466  0.562738  0.604579  1
  O  O43  1  0.688631  0.930695  0.597768  1
  O  O44  1  0.694286  0.566487  0.103761  1
  O  O45  1  0.681855  0.933141  0.088092  1
  O  O46  1  0.865323  0.246982  0.740112  1
  O  O47  1  0.860001  0.244207  0.238371  1
  O  O48  1  0.884759  0.251737  0.518827  1
  O  O49  1  0.882227  0.250661  0.017066  1
  O  O50  1  0.895914  0.749038  0.839917  1
  O  O51  1  0.902902  0.778431  0.336114  1
