# generated using pymatgen
data_Li3Co2(SiO4)2
_symmetry_space_group_name_H-M   'P 1'
_cell_length_a   10.58967768
_cell_length_b   5.14168878
_cell_length_c   6.48976495
_cell_angle_alpha   90.00000000
_cell_angle_beta   90.52819092
_cell_angle_gamma   90.00000000
_symmetry_Int_Tables_number   1
_chemical_formula_structural   Li3Co2(SiO4)2
_chemical_formula_sum   'Li6 Co4 Si4 O16'
_cell_volume   353.34507331
_cell_formula_units_Z   2
loop_
 _symmetry_equiv_pos_site_id
 _symmetry_equiv_pos_as_xyz
  1  'x, y, z'
loop_
 _atom_site_type_symbol
 _atom_site_label
 _atom_site_symmetry_multiplicity
 _atom_site_fract_x
 _atom_site_fract_y
 _atom_site_fract_z
 _atom_site_occupancy
  Li  Li0  1  0.158646  0.177977  0.113276  1
  Li  Li1  1  0.336411  0.685187  0.623690  1
  Li  Li2  1  0.421791  0.278025  0.374104  1
  Li  Li3  1  0.658646  0.322023  0.113276  1
  Li  Li4  1  0.836411  0.814813  0.623690  1
  Li  Li5  1  0.921791  0.221975  0.374104  1
  Co  Co6  1  0.161575  0.173352  0.627773  1
  Co  Co7  1  0.337014  0.684851  0.111581  1
  Co  Co8  1  0.661575  0.326648  0.627773  1
  Co  Co9  1  0.837014  0.815149  0.111581  1
  Si  Si10  1  0.093467  0.683709  0.367829  1
  Si  Si11  1  0.411566  0.183852  0.864846  1
  Si  Si12  1  0.593467  0.816291  0.367829  1
  Si  Si13  1  0.911566  0.316148  0.864846  1
  O  O14  1  0.059820  0.242418  0.862470  1
  O  O15  1  0.095947  0.362522  0.378616  1
  O  O16  1  0.168596  0.787915  0.160518  1
  O  O17  1  0.164043  0.806951  0.567893  1
  O  O18  1  0.344663  0.306345  0.078616  1
  O  O19  1  0.338979  0.292406  0.654923  1
  O  O20  1  0.386420  0.864798  0.874332  1
  O  O21  1  0.442867  0.712291  0.355203  1
  O  O22  1  0.559820  0.257582  0.862470  1
  O  O23  1  0.595947  0.137478  0.378616  1
  O  O24  1  0.668596  0.712085  0.160518  1
  O  O25  1  0.664043  0.693049  0.567893  1
  O  O26  1  0.844663  0.193655  0.078616  1
  O  O27  1  0.838979  0.207594  0.654923  1
  O  O28  1  0.886420  0.635202  0.874332  1
  O  O29  1  0.942867  0.787709  0.355203  1
