# generated using pymatgen
data_VO2F
_symmetry_space_group_name_H-M   'P 1'
_cell_length_a   5.13612218
_cell_length_b   13.01871137
_cell_length_c   5.20995520
_cell_angle_alpha   89.60876622
_cell_angle_beta   120.26968628
_cell_angle_gamma   89.23261908
_symmetry_Int_Tables_number   1
_chemical_formula_structural   VO2F
_chemical_formula_sum   'V6 O12 F6'
_cell_volume   300.80751192
_cell_formula_units_Z   6
loop_
 _symmetry_equiv_pos_site_id
 _symmetry_equiv_pos_as_xyz
  1  'x, y, z'
loop_
 _atom_site_type_symbol
 _atom_site_label
 _atom_site_symmetry_multiplicity
 _atom_site_fract_x
 _atom_site_fract_y
 _atom_site_fract_z
 _atom_site_occupancy
  V  V0  1  0.972271  0.499876  0.925266  1
  V  V1  1  0.034505  0.003680  0.067482  1
  V  V2  1  0.699617  0.836414  0.319378  1
  V  V3  1  0.379245  0.666403  0.672475  1
  V  V4  1  0.637438  0.333674  0.284814  1
  V  V5  1  0.304156  0.166131  0.700466  1
  O  O6  1  0.981260  0.750937  0.413005  1
  O  O7  1  0.341267  0.416176  0.092367  1
  O  O8  1  0.089737  0.085777  0.339640  1
  O  O9  1  0.319922  0.916925  0.245683  1
  O  O10  1  0.594693  0.249380  0.010479  1
  O  O11  1  0.012446  0.248940  0.589328  1
  O  O12  1  0.736162  0.919114  0.081160  1
  O  O13  1  0.074927  0.580937  0.743652  1
  O  O14  1  0.569581  0.748841  0.586557  1
  O  O15  1  0.248824  0.081186  0.918513  1
  O  O16  1  0.756060  0.414711  0.668031  1
  O  O17  1  0.660148  0.582330  0.919594  1
  F  F18  1  0.397253  0.750539  0.996716  1
  F  F19  1  0.256087  0.584332  0.340282  1
  F  F20  1  0.427945  0.249833  0.415935  1
  F  F21  1  0.927207  0.415369  0.261748  1
  F  F22  1  0.669792  0.083072  0.750782  1
  F  F23  1  0.909460  0.915425  0.656645  1
