# generated using pymatgen
data_Bi3O2F5
_symmetry_space_group_name_H-M   'P 1'
_cell_length_a   13.54419855
_cell_length_b   5.95869574
_cell_length_c   8.42330838
_cell_angle_alpha   90.00000000
_cell_angle_beta   108.31972156
_cell_angle_gamma   90.00000000
_symmetry_Int_Tables_number   1
_chemical_formula_structural   Bi3O2F5
_chemical_formula_sum   'Bi12 O8 F20'
_cell_volume   645.35493850
_cell_formula_units_Z   4
loop_
 _symmetry_equiv_pos_site_id
 _symmetry_equiv_pos_as_xyz
  1  'x, y, z'
loop_
 _atom_site_type_symbol
 _atom_site_label
 _atom_site_symmetry_multiplicity
 _atom_site_fract_x
 _atom_site_fract_y
 _atom_site_fract_z
 _atom_site_occupancy
  Bi  Bi0  1  0.000000  0.574001  0.750000  1
  Bi  Bi1  1  0.000000  0.425999  0.250000  1
  Bi  Bi2  1  0.143306  0.974828  0.575471  1
  Bi  Bi3  1  0.294240  0.542075  0.877427  1
  Bi  Bi4  1  0.143306  0.025172  0.075471  1
  Bi  Bi5  1  0.294240  0.457925  0.377427  1
  Bi  Bi6  1  0.500000  0.999077  0.750000  1
  Bi  Bi7  1  0.500000  0.000923  0.250000  1
  Bi  Bi8  1  0.705760  0.542075  0.622573  1
  Bi  Bi9  1  0.856694  0.974828  0.924529  1
  Bi  Bi10  1  0.705760  0.457925  0.122573  1
  Bi  Bi11  1  0.856694  0.025172  0.424529  1
  O  O12  1  0.002764  0.784423  0.969851  1
  O  O13  1  0.002764  0.215577  0.469851  1
  O  O14  1  0.158032  0.756250  0.821453  1
  O  O15  1  0.158032  0.243750  0.321453  1
  O  O16  1  0.841968  0.756250  0.678547  1
  O  O17  1  0.841968  0.243750  0.178547  1
  O  O18  1  0.997236  0.784423  0.530149  1
  O  O19  1  0.997236  0.215577  0.030149  1
  F  F20  1  0.163287  0.229263  0.788602  1
  F  F21  1  0.163287  0.770737  0.288602  1
  F  F22  1  0.218855  0.571927  0.573348  1
  F  F23  1  0.347077  0.874971  0.785364  1
  F  F24  1  0.218855  0.428073  0.073348  1
  F  F25  1  0.367338  0.271425  0.619474  1
  F  F26  1  0.347077  0.125029  0.285364  1
  F  F27  1  0.367338  0.728575  0.119474  1
  F  F28  1  0.450687  0.765367  0.535084  1
  F  F29  1  0.549313  0.765367  0.964916  1
  F  F30  1  0.450687  0.234633  0.035084  1
  F  F31  1  0.549313  0.234633  0.464916  1
  F  F32  1  0.632662  0.271425  0.880526  1
  F  F33  1  0.652923  0.874971  0.714636  1
  F  F34  1  0.632662  0.728575  0.380526  1
  F  F35  1  0.781145  0.571927  0.926652  1
  F  F36  1  0.652923  0.125029  0.214636  1
  F  F37  1  0.781145  0.428073  0.426652  1
  F  F38  1  0.836713  0.229263  0.711398  1
  F  F39  1  0.836713  0.770737  0.211398  1
