# generated using pymatgen
data_LiV2(OF)3
_symmetry_space_group_name_H-M   'P 1'
_cell_length_a   5.08641494
_cell_length_b   5.13220704
_cell_length_c   13.58422446
_cell_angle_alpha   88.05147934
_cell_angle_beta   91.30023870
_cell_angle_gamma   118.52020832
_symmetry_Int_Tables_number   1
_chemical_formula_structural   LiV2(OF)3
_chemical_formula_sum   'Li3 V6 O9 F9'
_cell_volume   311.38893389
_cell_formula_units_Z   3
loop_
 _symmetry_equiv_pos_site_id
 _symmetry_equiv_pos_as_xyz
  1  'x, y, z'
loop_
 _atom_site_type_symbol
 _atom_site_label
 _atom_site_symmetry_multiplicity
 _atom_site_fract_x
 _atom_site_fract_y
 _atom_site_fract_z
 _atom_site_occupancy
  Li  Li0  1  0.654222  0.328043  0.537027  1
  Li  Li1  1  0.376814  0.674332  0.874005  1
  Li  Li2  1  0.019000  0.021795  0.204582  1
  V  V3  1  0.947666  0.003215  0.498920  1
  V  V4  1  0.708365  0.318539  0.833515  1
  V  V5  1  0.643076  0.302112  0.320891  1
  V  V6  1  0.351467  0.687099  0.167360  1
  V  V7  1  0.053766  0.036472  0.989070  1
  V  V8  1  0.307924  0.674737  0.655753  1
  O  O9  1  0.911321  0.263104  0.423789  1
  O  O10  1  0.998892  0.416222  0.753805  1
  O  O11  1  0.729563  0.036961  0.916587  1
  O  O12  1  0.627008  0.020069  0.251455  1
  O  O13  1  0.382665  0.402869  0.248434  1
  O  O14  1  0.666538  0.943899  0.590679  1
  O  O15  1  0.352187  0.281837  0.921181  1
  O  O16  1  0.247286  0.908016  0.091918  1
  O  O17  1  0.053334  0.716542  0.581021  1
  F  F18  1  0.988136  0.666742  0.919484  1
  F  F19  1  0.702303  0.647947  0.422778  1
  F  F20  1  0.690725  0.751559  0.087839  1
  F  F21  1  0.327957  0.075923  0.419490  1
  F  F22  1  0.573628  0.591216  0.757605  1
  F  F23  1  0.283810  0.329976  0.584425  1
  F  F24  1  0.065912  0.320865  0.087362  1
  F  F25  1  0.396001  0.988942  0.754964  1
  F  F26  1  0.993116  0.636123  0.256250  1
