# generated using pymatgen
data_LiFeSiO4
_symmetry_space_group_name_H-M   'P 1'
_cell_length_a   18.74725086
_cell_length_b   8.25210403
_cell_length_c   5.47462112
_cell_angle_alpha   90.00004856
_cell_angle_beta   90.00025942
_cell_angle_gamma   89.98416705
_symmetry_Int_Tables_number   1
_chemical_formula_structural   LiFeSiO4
_chemical_formula_sum   'Li12 Fe12 Si12 O48'
_cell_volume   846.94720058
_cell_formula_units_Z   12
loop_
 _symmetry_equiv_pos_site_id
 _symmetry_equiv_pos_as_xyz
  1  'x, y, z'
loop_
 _atom_site_type_symbol
 _atom_site_label
 _atom_site_symmetry_multiplicity
 _atom_site_fract_x
 _atom_site_fract_y
 _atom_site_fract_z
 _atom_site_occupancy
  Li  Li0  1  0.082576  0.576527  0.020478  1
  Li  Li1  1  0.084476  0.077135  0.483805  1
  Li  Li2  1  0.249018  0.920321  0.005985  1
  Li  Li3  1  0.251000  0.420308  0.505954  1
  Li  Li4  1  0.415543  0.577144  0.983828  1
  Li  Li5  1  0.417426  0.076524  0.520452  1
  Li  Li6  1  0.582586  0.923478  0.020489  1
  Li  Li7  1  0.584473  0.422861  0.483792  1
  Li  Li8  1  0.749006  0.579679  0.005946  1
  Li  Li9  1  0.750986  0.079691  0.505971  1
  Li  Li10  1  0.915537  0.922864  0.983805  1
  Li  Li11  1  0.917429  0.423470  0.520435  1
  Fe  Fe12  1  0.999671  0.249258  0.001104  1
  Fe  Fe13  1  0.000299  0.750762  0.501277  1
  Fe  Fe14  1  0.166876  0.748318  0.509525  1
  Fe  Fe15  1  0.166281  0.249775  0.007395  1
  Fe  Fe16  1  0.333594  0.749703  0.507333  1
  Fe  Fe17  1  0.333095  0.248291  0.009426  1
  Fe  Fe18  1  0.499677  0.250738  0.001172  1
  Fe  Fe19  1  0.500318  0.749275  0.501253  1
  Fe  Fe20  1  0.666861  0.751668  0.509419  1
  Fe  Fe21  1  0.666336  0.250261  0.007212  1
  Fe  Fe22  1  0.833618  0.750256  0.507203  1
  Fe  Fe23  1  0.833093  0.251707  0.009589  1
  Si  Si24  1  0.082629  0.902507  0.002431  1
  Si  Si25  1  0.083497  0.402869  0.506869  1
  Si  Si26  1  0.249842  0.595656  0.009537  1
  Si  Si27  1  0.250338  0.095669  0.509529  1
  Si  Si28  1  0.416435  0.902832  0.006923  1
  Si  Si29  1  0.417306  0.402491  0.502374  1
  Si  Si30  1  0.582711  0.597493  0.002433  1
  Si  Si31  1  0.583598  0.097150  0.506875  1
  Si  Si32  1  0.749692  0.904360  0.009517  1
  Si  Si33  1  0.750180  0.404311  0.509535  1
  Si  Si34  1  0.916488  0.597151  0.006899  1
  Si  Si35  1  0.917353  0.097506  0.502380  1
  O  O36  1  0.988793  0.986369  0.500607  1
  O  O37  1  0.011214  0.013635  0.000586  1
  O  O38  1  0.012706  0.515678  0.502725  1
  O  O39  1  0.083334  0.276098  0.746689  1
  O  O40  1  0.083035  0.277834  0.263417  1
  O  O41  1  0.083327  0.776723  0.245181  1
  O  O42  1  0.083257  0.776211  0.762108  1
  O  O43  1  0.153760  0.015109  0.009657  1
  O  O44  1  0.155406  0.513446  0.508688  1
  O  O45  1  0.178161  0.484854  0.010695  1
  O  O46  1  0.179190  0.983114  0.509003  1
  O  O47  1  0.249897  0.222371  0.268798  1
  O  O48  1  0.249795  0.221533  0.751425  1
  O  O49  1  0.250104  0.722385  0.768771  1
  O  O50  1  0.250204  0.721521  0.251495  1
  O  O51  1  0.320774  0.483214  0.009020  1
  O  O52  1  0.321824  0.984897  0.510688  1
  O  O53  1  0.344640  0.013405  0.008675  1
  O  O54  1  0.346274  0.515041  0.509668  1
  O  O55  1  0.416754  0.276168  0.262060  1
  O  O56  1  0.416681  0.276686  0.745126  1
  O  O57  1  0.416988  0.777805  0.763441  1
  O  O58  1  0.416689  0.776050  0.246757  1
  O  O59  1  0.487327  0.015726  0.002700  1
  O  O60  1  0.488843  0.513681  0.500602  1
  O  O61  1  0.511165  0.486287  0.000579  1
  O  O62  1  0.512679  0.984288  0.502723  1
  O  O63  1  0.583307  0.223924  0.746715  1
  O  O64  1  0.583013  0.222179  0.263410  1
  O  O65  1  0.583326  0.723300  0.245186  1
  O  O66  1  0.583258  0.723811  0.762093  1
  O  O67  1  0.653720  0.484982  0.009651  1
  O  O68  1  0.655375  0.986580  0.508685  1
  O  O69  1  0.678191  0.015085  0.010686  1
  O  O70  1  0.679244  0.516813  0.509007  1
  O  O71  1  0.749802  0.278465  0.751468  1
  O  O72  1  0.749903  0.277621  0.268778  1
  O  O73  1  0.750209  0.778459  0.251447  1
  O  O74  1  0.750109  0.777617  0.768787  1
  O  O75  1  0.820821  0.016867  0.009008  1
  O  O76  1  0.821860  0.515177  0.510681  1
  O  O77  1  0.844602  0.486576  0.008668  1
  O  O78  1  0.846239  0.984889  0.509644  1
  O  O79  1  0.916743  0.223814  0.262054  1
  O  O80  1  0.916671  0.223294  0.745137  1
  O  O81  1  0.916967  0.722181  0.763448  1
  O  O82  1  0.916666  0.723924  0.246722  1
  O  O83  1  0.987307  0.484303  0.002690  1
