# generated using pymatgen
data_Li24TiCr11O36
_symmetry_space_group_name_H-M   'P 1'
_cell_length_a   5.08821817
_cell_length_b   13.06490342
_cell_length_c   10.59499105
_cell_angle_alpha   67.14717104
_cell_angle_beta   84.37706989
_cell_angle_gamma   96.74866246
_symmetry_Int_Tables_number   1
_chemical_formula_structural   Li24TiCr11O36
_chemical_formula_sum   'Li24 Ti1 Cr11 O36'
_cell_volume   636.55426547
_cell_formula_units_Z   1
loop_
 _symmetry_equiv_pos_site_id
 _symmetry_equiv_pos_as_xyz
  1  'x, y, z'
loop_
 _atom_site_type_symbol
 _atom_site_label
 _atom_site_symmetry_multiplicity
 _atom_site_fract_x
 _atom_site_fract_y
 _atom_site_fract_z
 _atom_site_occupancy
  Li  Li0  1  0.771448  0.059226  0.939495  1
  Li  Li1  1  0.665770  0.083519  0.666874  1
  Li  Li2  1  0.888432  0.273176  0.727394  1
  Li  Li3  1  0.335239  0.167295  0.833681  1
  Li  Li4  1  0.551896  0.105983  0.394346  1
  Li  Li5  1  0.999681  0.249979  0.998985  1
  Li  Li6  1  0.998971  0.000006  0.499406  1
  Li  Li7  1  0.779801  0.559592  0.939431  1
  Li  Li8  1  0.449968  0.393662  0.607238  1
  Li  Li9  1  0.667465  0.583540  0.667349  1
  Li  Li10  1  0.667531  0.333948  0.165770  1
  Li  Li11  1  0.113104  0.227341  0.271778  1
  Li  Li12  1  0.885101  0.772917  0.727398  1
  Li  Li13  1  0.331984  0.667325  0.833708  1
  Li  Li14  1  0.333236  0.416924  0.332218  1
  Li  Li15  1  0.550851  0.606596  0.393340  1
  Li  Li16  1  0.000018  0.500213  0.499955  1
  Li  Li17  1  0.220025  0.440150  0.059858  1
  Li  Li18  1  0.453076  0.893171  0.607753  1
  Li  Li19  1  0.670376  0.834041  0.164729  1
  Li  Li20  1  0.113147  0.726455  0.273688  1
  Li  Li21  1  0.333379  0.916532  0.333625  1
  Li  Li22  1  0.997696  0.748633  0.000661  1
  Li  Li23  1  0.219373  0.940369  0.060336  1
  Ti  Ti24  1  0.110546  0.974631  0.778916  1
  Cr  Cr25  1  0.889624  0.031151  0.219503  1
  Cr  Cr26  1  0.557582  0.363873  0.886065  1
  Cr  Cr27  1  0.777533  0.302383  0.446982  1
  Cr  Cr28  1  0.225464  0.199286  0.550322  1
  Cr  Cr29  1  0.442513  0.135412  0.114505  1
  Cr  Cr30  1  0.111461  0.469289  0.780079  1
  Cr  Cr31  1  0.891902  0.530390  0.219869  1
  Cr  Cr32  1  0.549604  0.859962  0.890179  1
  Cr  Cr33  1  0.776314  0.802174  0.446929  1
  Cr  Cr34  1  0.223300  0.698185  0.552886  1
  Cr  Cr35  1  0.445970  0.633836  0.114065  1
  O  O36  1  0.423825  0.004502  0.860339  1
  O  O37  1  0.643021  0.211994  0.924294  1
  O  O38  1  0.901568  0.167125  0.470156  1
  O  O39  1  0.309637  0.046926  0.587565  1
  O  O40  1  0.885730  0.408769  0.953869  1
  O  O41  1  0.023792  0.124160  0.741754  1
  O  O42  1  0.553414  0.242640  0.620063  1
  O  O43  1  0.782089  0.424745  0.712273  1
  O  O44  1  0.765710  0.166522  0.196313  1
  O  O45  1  0.235956  0.333100  0.804400  1
  O  O46  1  0.219145  0.075426  0.288000  1
  O  O47  1  0.447905  0.259154  0.377466  1
  O  O48  1  0.431312  0.499545  0.862483  1
  O  O49  1  0.976466  0.378565  0.257000  1
  O  O50  1  0.113324  0.091006  0.046202  1
  O  O51  1  0.692496  0.454246  0.409301  1
  O  O52  1  0.100571  0.334043  0.528209  1
  O  O53  1  0.642512  0.708535  0.926229  1
  O  O54  1  0.358833  0.287738  0.075857  1
  O  O55  1  0.900495  0.666701  0.470788  1
  O  O56  1  0.307733  0.545567  0.590805  1
  O  O57  1  0.872627  0.904377  0.957962  1
  O  O58  1  0.023971  0.621564  0.742531  1
  O  O59  1  0.568679  0.498564  0.138599  1
  O  O60  1  0.552963  0.742171  0.620699  1
  O  O61  1  0.784336  0.926092  0.711660  1
  O  O62  1  0.764506  0.665613  0.196518  1
  O  O63  1  0.247166  0.829922  0.808076  1
  O  O64  1  0.218930  0.575734  0.287333  1
  O  O65  1  0.446586  0.757846  0.378831  1
  O  O66  1  0.975563  0.878814  0.257503  1
  O  O67  1  0.115173  0.590684  0.046420  1
  O  O68  1  0.690933  0.954217  0.409392  1
  O  O69  1  0.099071  0.833449  0.529350  1
  O  O70  1  0.357693  0.788644  0.074653  1
  O  O71  1  0.566887  0.000130  0.137790  1
