# generated using pymatgen
data_Na3VAsCO7
_symmetry_space_group_name_H-M   'P 1'
_cell_length_a   9.21368537
_cell_length_b   6.99988850
_cell_length_c   5.28698801
_cell_angle_alpha   90.00000000
_cell_angle_beta   88.69591957
_cell_angle_gamma   90.00000000
_symmetry_Int_Tables_number   1
_chemical_formula_structural   Na3VAsCO7
_chemical_formula_sum   'Na6 V2 As2 C2 O14'
_cell_volume   340.89475941
_cell_formula_units_Z   2
loop_
 _symmetry_equiv_pos_site_id
 _symmetry_equiv_pos_as_xyz
  1  'x, y, z'
loop_
 _atom_site_type_symbol
 _atom_site_label
 _atom_site_symmetry_multiplicity
 _atom_site_fract_x
 _atom_site_fract_y
 _atom_site_fract_z
 _atom_site_occupancy
  Na  Na0  1  0.080870  0.250000  0.763305  1
  Na  Na1  1  0.260720  0.006708  0.250398  1
  Na  Na2  1  0.260720  0.493292  0.250398  1
  Na  Na3  1  0.739280  0.506708  0.749602  1
  Na  Na4  1  0.739280  0.993292  0.749602  1
  Na  Na5  1  0.919130  0.750000  0.236695  1
  V  V6  1  0.339548  0.750000  0.780945  1
  V  V7  1  0.660452  0.250000  0.219055  1
  As  As8  1  0.414459  0.250000  0.704351  1
  As  As9  1  0.585541  0.750000  0.295649  1
  C  C10  1  0.057734  0.750000  0.726773  1
  C  C11  1  0.942266  0.250000  0.273227  1
  O  O12  1  0.081586  0.250000  0.293619  1
  O  O13  1  0.117627  0.750000  0.948742  1
  O  O14  1  0.143932  0.750000  0.526261  1
  O  O15  1  0.305394  0.057466  0.786552  1
  O  O16  1  0.305394  0.442534  0.786552  1
  O  O17  1  0.441405  0.250000  0.378453  1
  O  O18  1  0.418001  0.750000  0.159873  1
  O  O19  1  0.581999  0.250000  0.840127  1
  O  O20  1  0.558595  0.750000  0.621547  1
  O  O21  1  0.694606  0.557466  0.213448  1
  O  O22  1  0.694606  0.942534  0.213448  1
  O  O23  1  0.856068  0.250000  0.473739  1
  O  O24  1  0.882373  0.250000  0.051258  1
  O  O25  1  0.918413  0.750000  0.706381  1
