# generated using pymatgen
data_Mn6O11F
_symmetry_space_group_name_H-M   'P 1'
_cell_length_a   6.97798674
_cell_length_b   5.39850291
_cell_length_c   5.39850291
_cell_angle_alpha   73.12540354
_cell_angle_beta   72.89087384
_cell_angle_gamma   72.89087384
_symmetry_Int_Tables_number   1
_chemical_formula_structural   Mn6O11F
_chemical_formula_sum   'Mn6 O11 F1'
_cell_volume   181.08498206
_cell_formula_units_Z   1
loop_
 _symmetry_equiv_pos_site_id
 _symmetry_equiv_pos_as_xyz
  1  'x, y, z'
loop_
 _atom_site_type_symbol
 _atom_site_label
 _atom_site_symmetry_multiplicity
 _atom_site_fract_x
 _atom_site_fract_y
 _atom_site_fract_z
 _atom_site_occupancy
  Mn  Mn0  1  0.833333  0.669285  0.664049  1
  Mn  Mn1  1  0.666094  0.329622  0.337668  1
  Mn  Mn2  1  0.333333  0.687573  0.645760  1
  Mn  Mn3  1  0.158255  0.332611  0.349626  1
  Mn  Mn4  1  0.508412  0.983708  0.000722  1
  Mn  Mn5  1  0.000573  0.995665  0.003711  1
  O  O6  1  0.667785  0.024746  0.639256  1
  O  O7  1  0.298661  0.897283  0.895946  1
  O  O8  1  0.627391  0.563394  0.568239  1
  O  O9  1  0.962747  0.234635  0.230483  1
  O  O10  1  0.703920  0.102851  0.098698  1
  O  O11  1  0.039276  0.765095  0.769939  1
  O  O12  1  0.368006  0.437387  0.436050  1
  O  O13  1  0.333333  0.976634  0.356699  1
  O  O14  1  0.668633  0.635256  0.027426  1
  O  O15  1  0.998034  0.305907  0.698077  1
  O  O16  1  0.998882  0.694077  0.308587  1
  F  F17  1  0.333333  0.364271  0.969062  1
