# generated using pymatgen
data_Mn8O13F3
_symmetry_space_group_name_H-M   'P 1'
_cell_length_a   4.49138358
_cell_length_b   5.49872250
_cell_length_c   9.95609784
_cell_angle_alpha   89.96912062
_cell_angle_beta   90.05798718
_cell_angle_gamma   89.06989109
_symmetry_Int_Tables_number   1
_chemical_formula_structural   Mn8O13F3
_chemical_formula_sum   'Mn8 O13 F3'
_cell_volume   245.85191187
_cell_formula_units_Z   1
loop_
 _symmetry_equiv_pos_site_id
 _symmetry_equiv_pos_as_xyz
  1  'x, y, z'
loop_
 _atom_site_type_symbol
 _atom_site_label
 _atom_site_symmetry_multiplicity
 _atom_site_fract_x
 _atom_site_fract_y
 _atom_site_fract_z
 _atom_site_occupancy
  Mn  Mn0  1  0.003423  0.160034  0.627605  1
  Mn  Mn1  1  0.993736  0.850523  0.374920  1
  Mn  Mn2  1  0.993608  0.161499  0.125633  1
  Mn  Mn3  1  0.016440  0.862187  0.879267  1
  Mn  Mn4  1  0.494059  0.338461  0.877374  1
  Mn  Mn5  1  0.498284  0.351238  0.373557  1
  Mn  Mn6  1  0.521356  0.637492  0.120064  1
  Mn  Mn7  1  0.468247  0.636806  0.622581  1
  O  O8  1  0.224247  0.110696  0.461354  1
  O  O9  1  0.230162  0.112778  0.965205  1
  O  O10  1  0.227089  0.885238  0.709761  1
  O  O11  1  0.273541  0.391614  0.208223  1
  O  O12  1  0.258394  0.605343  0.460787  1
  O  O13  1  0.267283  0.387809  0.713243  1
  O  O14  1  0.280479  0.614480  0.959162  1
  O  O15  1  0.739745  0.387989  0.034958  1
  O  O16  1  0.729771  0.607874  0.287948  1
  O  O17  1  0.722985  0.390925  0.539928  1
  O  O18  1  0.766799  0.113791  0.287886  1
  O  O19  1  0.781629  0.884716  0.041578  1
  O  O20  1  0.773223  0.114224  0.791560  1
  F  F21  1  0.260546  0.887071  0.202546  1
  F  F22  1  0.738883  0.621518  0.785823  1
  F  F23  1  0.736071  0.885695  0.549038  1
