# generated using pymatgen
data_Li3BiS3
_symmetry_space_group_name_H-M   'P 1'
_cell_length_a   6.01845053
_cell_length_b   16.14134387
_cell_length_c   5.87639548
_cell_angle_alpha   90.00000000
_cell_angle_beta   89.14665737
_cell_angle_gamma   90.00000000
_symmetry_Int_Tables_number   1
_chemical_formula_structural   Li3BiS3
_chemical_formula_sum   'Li12 Bi4 S12'
_cell_volume   570.80429316
_cell_formula_units_Z   4
loop_
 _symmetry_equiv_pos_site_id
 _symmetry_equiv_pos_as_xyz
  1  'x, y, z'
loop_
 _atom_site_type_symbol
 _atom_site_label
 _atom_site_symmetry_multiplicity
 _atom_site_fract_x
 _atom_site_fract_y
 _atom_site_fract_z
 _atom_site_occupancy
  Li  Li0  1  0.176175  0.691712  0.464868  1
  Li  Li1  1  0.092504  0.429293  0.199734  1
  Li  Li2  1  0.407496  0.929292  0.300266  1
  Li  Li3  1  0.323825  0.191713  0.035132  1
  Li  Li4  1  0.232046  0.688605  0.973910  1
  Li  Li5  1  0.267954  0.188605  0.526090  1
  Li  Li6  1  0.732046  0.811395  0.473910  1
  Li  Li7  1  0.767954  0.311395  0.026090  1
  Li  Li8  1  0.676175  0.808288  0.964868  1
  Li  Li9  1  0.592504  0.070708  0.699734  1
  Li  Li10  1  0.907496  0.570708  0.800266  1
  Li  Li11  1  0.823825  0.308287  0.535132  1
  Bi  Bi12  1  0.087177  0.911851  0.775638  1
  Bi  Bi13  1  0.412823  0.411851  0.724362  1
  Bi  Bi14  1  0.587177  0.588149  0.275638  1
  Bi  Bi15  1  0.912823  0.088149  0.224362  1
  S  S16  1  0.993160  0.910488  0.230966  1
  S  S17  1  0.041672  0.253835  0.251508  1
  S  S18  1  0.977824  0.418088  0.771173  1
  S  S19  1  0.458328  0.753835  0.248492  1
  S  S20  1  0.522176  0.918088  0.728827  1
  S  S21  1  0.506840  0.410488  0.269034  1
  S  S22  1  0.493160  0.589512  0.730966  1
  S  S23  1  0.477824  0.081912  0.271173  1
  S  S24  1  0.541672  0.246165  0.751508  1
  S  S25  1  0.022176  0.581912  0.228827  1
  S  S26  1  0.958328  0.746165  0.748492  1
  S  S27  1  0.006840  0.089512  0.769034  1
