# generated using pymatgen
data_Li4Mn3OF8
_symmetry_space_group_name_H-M   'P 1'
_cell_length_a   10.50760504
_cell_length_b   10.58325851
_cell_length_c   5.19491700
_cell_angle_alpha   90.42479284
_cell_angle_beta   91.05794964
_cell_angle_gamma   82.09637546
_symmetry_Int_Tables_number   1
_chemical_formula_structural   Li4Mn3OF8
_chemical_formula_sum   'Li12 Mn9 O3 F24'
_cell_volume   572.10701371
_cell_formula_units_Z   3
loop_
 _symmetry_equiv_pos_site_id
 _symmetry_equiv_pos_as_xyz
  1  'x, y, z'
loop_
 _atom_site_type_symbol
 _atom_site_label
 _atom_site_symmetry_multiplicity
 _atom_site_fract_x
 _atom_site_fract_y
 _atom_site_fract_z
 _atom_site_occupancy
  Li  Li0  1  0.208916  0.996136  0.499545  1
  Li  Li1  1  0.009599  0.797103  0.495012  1
  Li  Li2  1  0.129684  0.535177  0.429333  1
  Li  Li3  1  0.459020  0.869646  0.421258  1
  Li  Li4  1  0.389884  0.611377  0.380653  1
  Li  Li5  1  0.266571  0.270027  0.470368  1
  Li  Li6  1  0.732349  0.732670  0.468711  1
  Li  Li7  1  0.618558  0.381541  0.384738  1
  Li  Li8  1  0.531437  0.130567  0.437918  1
  Li  Li9  1  0.871651  0.465530  0.442532  1
  Li  Li10  1  0.791797  0.007787  0.505253  1
  Li  Li11  1  0.988374  0.203909  0.505716  1
  Mn  Mn12  1  0.204455  0.749270  0.987965  1
  Mn  Mn13  1  0.094885  0.334049  0.962208  1
  Mn  Mn14  1  0.659943  0.902191  0.954548  1
  Mn  Mn15  1  0.382868  0.404447  0.930546  1
  Mn  Mn16  1  0.999496  0.988811  0.002194  1
  Mn  Mn17  1  0.611352  0.603824  0.907734  1
  Mn  Mn18  1  0.338080  0.104266  0.954202  1
  Mn  Mn19  1  0.907587  0.679355  0.972801  1
  Mn  Mn20  1  0.755636  0.240836  0.953609  1
  O  O21  1  0.025261  0.803268  0.138813  1
  O  O22  1  0.719924  0.726401  0.110660  1
  O  O23  1  0.275422  0.278655  0.114562  1
  F  F24  1  0.117545  0.892319  0.684080  1
  F  F25  1  0.197606  0.000605  0.141644  1
  F  F26  1  0.060255  0.647723  0.686092  1
  F  F27  1  0.366826  0.968287  0.666455  1
  F  F28  1  0.998434  0.498946  0.191326  1
  F  F29  1  0.247585  0.566863  0.178549  1
  F  F30  1  0.372784  0.767866  0.204891  1
  F  F31  1  0.412823  0.584470  0.736499  1
  F  F32  1  0.578683  0.778903  0.649462  1
  F  F33  1  0.211412  0.417833  0.662209  1
  F  F34  1  0.511600  0.503667  0.193572  1
  F  F35  1  0.157589  0.162733  0.636493  1
  F  F36  1  0.841133  0.842987  0.637275  1
  F  F37  1  0.784741  0.585949  0.664813  1
  F  F38  1  0.419696  0.231656  0.662853  1
  F  F39  1  0.627943  0.383769  0.744315  1
  F  F40  1  0.596847  0.232636  0.197538  1
  F  F41  1  0.771706  0.391596  0.209916  1
  F  F42  1  0.500928  0.997481  0.184945  1
  F  F43  1  0.944120  0.352632  0.694177  1
  F  F44  1  0.642811  0.052081  0.690160  1
  F  F45  1  0.797390  0.020748  0.148409  1
  F  F46  1  0.980419  0.190949  0.147161  1
  F  F47  1  0.886370  0.110454  0.701524  1
