# generated using pymatgen
data_LiBiP2O7
_symmetry_space_group_name_H-M   'P 1'
_cell_length_a   8.90941650
_cell_length_b   5.61448275
_cell_length_c   12.32385050
_cell_angle_alpha   90.00000000
_cell_angle_beta   98.40486911
_cell_angle_gamma   90.00000000
_symmetry_Int_Tables_number   1
_chemical_formula_structural   LiBiP2O7
_chemical_formula_sum   'Li4 Bi4 P8 O28'
_cell_volume   609.83991594
_cell_formula_units_Z   4
loop_
 _symmetry_equiv_pos_site_id
 _symmetry_equiv_pos_as_xyz
  1  'x, y, z'
loop_
 _atom_site_type_symbol
 _atom_site_label
 _atom_site_symmetry_multiplicity
 _atom_site_fract_x
 _atom_site_fract_y
 _atom_site_fract_z
 _atom_site_occupancy
  Li  Li0  1  0.234848  0.217684  0.988933  1
  Li  Li1  1  0.265152  0.717684  0.511067  1
  Li  Li2  1  0.734848  0.282316  0.488933  1
  Li  Li3  1  0.765152  0.782316  0.011067  1
  Bi  Bi4  1  0.146186  0.302233  0.665576  1
  Bi  Bi5  1  0.353814  0.802233  0.834424  1
  Bi  Bi6  1  0.646186  0.197767  0.165576  1
  Bi  Bi7  1  0.853814  0.697767  0.334424  1
  P  P8  1  0.016198  0.748478  0.842814  1
  P  P9  1  0.062657  0.201278  0.390224  1
  P  P10  1  0.483802  0.248477  0.657186  1
  P  P11  1  0.562657  0.298722  0.890224  1
  P  P12  1  0.437343  0.701278  0.109776  1
  P  P13  1  0.516198  0.751522  0.342814  1
  P  P14  1  0.937343  0.798722  0.609776  1
  P  P15  1  0.983802  0.251522  0.157186  1
  O  O16  1  0.113908  0.978234  0.830812  1
  O  O17  1  0.134834  0.539750  0.840170  1
  O  O18  1  0.103726  0.709406  0.614363  1
  O  O19  1  0.076118  0.930536  0.402413  1
  O  O20  1  0.104965  0.277913  0.271456  1
  O  O21  1  0.171689  0.336215  0.476935  1
  O  O22  1  0.074379  0.254936  0.066010  1
  O  O23  1  0.396274  0.209406  0.885637  1
  O  O24  1  0.365165  0.039750  0.659830  1
  O  O25  1  0.386092  0.478234  0.669188  1
  O  O26  1  0.425621  0.754936  0.433990  1
  O  O27  1  0.576118  0.569464  0.902413  1
  O  O28  1  0.328311  0.836215  0.023065  1
  O  O29  1  0.395035  0.777913  0.228544  1
  O  O30  1  0.604965  0.222087  0.771456  1
  O  O31  1  0.671689  0.163785  0.976935  1
  O  O32  1  0.423882  0.430536  0.097587  1
  O  O33  1  0.574379  0.245064  0.566010  1
  O  O34  1  0.613908  0.521766  0.330812  1
  O  O35  1  0.634834  0.960250  0.340170  1
  O  O36  1  0.603726  0.790594  0.114363  1
  O  O37  1  0.925621  0.745064  0.933990  1
  O  O38  1  0.828311  0.663785  0.523065  1
  O  O39  1  0.895035  0.722087  0.728544  1
  O  O40  1  0.923882  0.069464  0.597587  1
  O  O41  1  0.896274  0.290594  0.385637  1
  O  O42  1  0.865166  0.460250  0.159830  1
  O  O43  1  0.886092  0.021766  0.169188  1
