# generated using pymatgen
data_VOF2
_symmetry_space_group_name_H-M   'P 1'
_cell_length_a   5.23335407
_cell_length_b   13.37744837
_cell_length_c   5.25342610
_cell_angle_alpha   89.93764513
_cell_angle_beta   119.85056330
_cell_angle_gamma   89.68738477
_symmetry_Int_Tables_number   1
_chemical_formula_structural   VOF2
_chemical_formula_sum   'V6 O6 F12'
_cell_volume   318.98335628
_cell_formula_units_Z   6
loop_
 _symmetry_equiv_pos_site_id
 _symmetry_equiv_pos_as_xyz
  1  'x, y, z'
loop_
 _atom_site_type_symbol
 _atom_site_label
 _atom_site_symmetry_multiplicity
 _atom_site_fract_x
 _atom_site_fract_y
 _atom_site_fract_z
 _atom_site_occupancy
  V  V0  1  0.010548  0.506828  0.992044  1
  V  V1  1  0.965442  0.007124  0.969657  1
  V  V2  1  0.618016  0.839386  0.313829  1
  V  V3  1  0.324846  0.673749  0.697210  1
  V  V4  1  0.707703  0.340598  0.334640  1
  V  V5  1  0.319008  0.173611  0.657147  1
  O  O6  1  0.411066  0.747623  0.989976  1
  O  O7  1  0.331324  0.914763  0.233106  1
  O  O8  1  0.023167  0.248125  0.575863  1
  O  O9  1  0.091002  0.579919  0.777213  1
  O  O10  1  0.907565  0.418176  0.252395  1
  O  O11  1  0.674801  0.081584  0.760056  1
  F  F12  1  0.985251  0.749839  0.411281  1
  F  F13  1  0.326602  0.409625  0.085085  1
  F  F14  1  0.088096  0.076799  0.342178  1
  F  F15  1  0.251538  0.582785  0.355486  1
  F  F16  1  0.603676  0.249029  0.001261  1
  F  F17  1  0.750156  0.910258  0.071081  1
  F  F18  1  0.441045  0.246953  0.414677  1
  F  F19  1  0.582817  0.746819  0.583157  1
  F  F20  1  0.261552  0.083552  0.924110  1
  F  F21  1  0.743642  0.415049  0.673680  1
  F  F22  1  0.918333  0.915414  0.657925  1
  F  F23  1  0.662804  0.582391  0.926940  1
