# generated using pymatgen
data_BaSr2I6
_symmetry_space_group_name_H-M   'P 1'
_cell_length_a   9.98836254
_cell_length_b   9.98115783
_cell_length_c   16.34282624
_cell_angle_alpha   90.00000000
_cell_angle_beta   83.92439502
_cell_angle_gamma   90.00000000
_symmetry_Int_Tables_number   1
_chemical_formula_structural   BaSr2I6
_chemical_formula_sum   'Ba4 Sr8 I24'
_cell_volume   1620.15332831
_cell_formula_units_Z   4
loop_
 _symmetry_equiv_pos_site_id
 _symmetry_equiv_pos_as_xyz
  1  'x, y, z'
loop_
 _atom_site_type_symbol
 _atom_site_label
 _atom_site_symmetry_multiplicity
 _atom_site_fract_x
 _atom_site_fract_y
 _atom_site_fract_z
 _atom_site_occupancy
  Ba  Ba0  1  0.171506  0.809917  0.914669  1
  Ba  Ba1  1  0.328494  0.309917  0.585331  1
  Ba  Ba2  1  0.671506  0.690083  0.414669  1
  Ba  Ba3  1  0.828494  0.190083  0.085331  1
  Sr  Sr4  1  0.106237  0.836214  0.581436  1
  Sr  Sr5  1  0.131067  0.540468  0.243392  1
  Sr  Sr6  1  0.368933  0.040468  0.256608  1
  Sr  Sr7  1  0.393763  0.336214  0.918564  1
  Sr  Sr8  1  0.606237  0.663786  0.081436  1
  Sr  Sr9  1  0.631067  0.959532  0.743392  1
  Sr  Sr10  1  0.868933  0.459532  0.756608  1
  Sr  Sr11  1  0.893763  0.163786  0.418564  1
  I  I12  1  0.112880  0.153655  0.936807  1
  I  I13  1  0.082706  0.194017  0.223931  1
  I  I14  1  0.007522  0.830135  0.378120  1
  I  I15  1  0.184275  0.528642  0.042994  1
  I  I16  1  0.134051  0.405656  0.422247  1
  I  I17  1  0.190817  0.481199  0.774056  1
  I  I18  1  0.309183  0.981199  0.725944  1
  I  I19  1  0.315725  0.028642  0.457006  1
  I  I20  1  0.365949  0.905656  0.077753  1
  I  I21  1  0.492478  0.330135  0.121880  1
  I  I22  1  0.417294  0.694017  0.276069  1
  I  I23  1  0.387120  0.653655  0.563193  1
  I  I24  1  0.612880  0.346345  0.436807  1
  I  I25  1  0.582706  0.305983  0.723931  1
  I  I26  1  0.507522  0.669865  0.878120  1
  I  I27  1  0.634051  0.094344  0.922247  1
  I  I28  1  0.684275  0.971358  0.542994  1
  I  I29  1  0.690817  0.018801  0.274056  1
  I  I30  1  0.809183  0.518801  0.225944  1
  I  I31  1  0.865949  0.594344  0.577753  1
  I  I32  1  0.815725  0.471358  0.957006  1
  I  I33  1  0.992478  0.169865  0.621880  1
  I  I34  1  0.917294  0.805983  0.776069  1
  I  I35  1  0.887120  0.846345  0.063193  1
