# generated using pymatgen
data_Li2Mn3(BO3)3
_symmetry_space_group_name_H-M   'P 1'
_cell_length_a   5.86184151
_cell_length_b   8.28736548
_cell_length_c   9.06725760
_cell_angle_alpha   67.33901606
_cell_angle_beta   102.25647553
_cell_angle_gamma   77.89023997
_symmetry_Int_Tables_number   1
_chemical_formula_structural   Li2Mn3(BO3)3
_chemical_formula_sum   'Li4 Mn6 B6 O18'
_cell_volume   375.87413161
_cell_formula_units_Z   2
loop_
 _symmetry_equiv_pos_site_id
 _symmetry_equiv_pos_as_xyz
  1  'x, y, z'
loop_
 _atom_site_type_symbol
 _atom_site_label
 _atom_site_symmetry_multiplicity
 _atom_site_fract_x
 _atom_site_fract_y
 _atom_site_fract_z
 _atom_site_occupancy
  Li  Li0  1  0.956015  0.387192  0.775825  1
  Li  Li1  1  0.597660  0.719298  0.113634  1
  Li  Li2  1  0.080360  0.612902  0.228916  1
  Li  Li3  1  0.276916  0.059671  0.441081  1
  Mn  Mn4  1  0.762524  0.991203  0.210854  1
  Mn  Mn5  1  0.878135  0.370188  0.112706  1
  Mn  Mn6  1  0.560952  0.690659  0.457606  1
  Mn  Mn7  1  0.462209  0.295839  0.559160  1
  Mn  Mn8  1  0.117350  0.642439  0.867029  1
  Mn  Mn9  1  0.230661  0.020668  0.803047  1
  B  B10  1  0.896768  0.365707  0.456352  1
  B  B11  1  0.782481  0.953976  0.893669  1
  B  B12  1  0.556217  0.704916  0.774597  1
  B  B13  1  0.433112  0.312687  0.211689  1
  B  B14  1  0.214170  0.033767  0.118541  1
  B  B15  1  0.107986  0.630263  0.539668  1
  O  O16  1  0.844869  0.851729  0.063736  1
  O  O17  1  0.869489  0.756059  0.442517  1
  O  O18  1  0.946347  0.929201  0.805247  1
  O  O19  1  0.827610  0.477605  0.285759  1
  O  O20  1  0.758780  0.413590  0.552444  1
  O  O21  1  0.778825  0.561777  0.854814  1
  O  O22  1  0.431154  0.883123  0.198674  1
  O  O23  1  0.577978  0.267343  0.121806  1
  O  O24  1  0.459723  0.805274  0.602811  1
  O  O25  1  0.495291  0.206717  0.381541  1
  O  O26  1  0.428241  0.749675  0.877012  1
  O  O27  1  0.544419  0.078814  0.797331  1
  O  O28  1  0.215593  0.464705  0.123742  1
  O  O29  1  0.267085  0.598605  0.447180  1
  O  O30  1  0.178166  0.529160  0.707859  1
  O  O31  1  0.085710  0.083479  0.215619  1
  O  O32  1  0.110933  0.214333  0.543759  1
  O  O33  1  0.129727  0.136951  0.945282  1
