# generated using pymatgen
data_Na2TiSi4H4O13
_symmetry_space_group_name_H-M   'P 1'
_cell_length_a   9.02142356
_cell_length_b   8.82164582
_cell_length_c   7.46569388
_cell_angle_alpha   90.00000000
_cell_angle_beta   112.27384499
_cell_angle_gamma   90.00000000
_symmetry_Int_Tables_number   1
_chemical_formula_structural   Na2TiSi4H4O13
_chemical_formula_sum   'Na4 Ti2 Si8 H8 O26'
_cell_volume   549.81465436
_cell_formula_units_Z   2
loop_
 _symmetry_equiv_pos_site_id
 _symmetry_equiv_pos_as_xyz
  1  'x, y, z'
loop_
 _atom_site_type_symbol
 _atom_site_label
 _atom_site_symmetry_multiplicity
 _atom_site_fract_x
 _atom_site_fract_y
 _atom_site_fract_z
 _atom_site_occupancy
  Na  Na0  1  0.194939  0.809470  0.211243  1
  Na  Na1  1  0.805061  0.309470  0.288757  1
  Na  Na2  1  0.805061  0.190530  0.788757  1
  Na  Na3  1  0.194939  0.690530  0.711243  1
  Ti  Ti4  1  0.000000  0.000000  0.500000  1
  Ti  Ti5  1  0.000000  0.500000  0.000000  1
  Si  Si6  1  0.159661  0.339462  0.697476  1
  Si  Si7  1  0.840339  0.839462  0.802524  1
  Si  Si8  1  0.840339  0.660538  0.302524  1
  Si  Si9  1  0.159661  0.160538  0.197476  1
  Si  Si10  1  0.314826  0.059465  0.906054  1
  Si  Si11  1  0.685174  0.559465  0.593946  1
  Si  Si12  1  0.685174  0.940535  0.093946  1
  Si  Si13  1  0.314826  0.440535  0.406054  1
  H  H14  1  0.333944  0.896853  0.596515  1
  H  H15  1  0.666056  0.396853  0.903485  1
  H  H16  1  0.666056  0.103147  0.403485  1
  H  H17  1  0.333944  0.603147  0.096515  1
  H  H18  1  0.484665  0.813061  0.577349  1
  H  H19  1  0.515335  0.313061  0.922651  1
  H  H20  1  0.515335  0.186939  0.422651  1
  H  H21  1  0.484665  0.686939  0.077349  1
  O  O22  1  0.314607  0.240787  0.848153  1
  O  O23  1  0.685393  0.740787  0.651847  1
  O  O24  1  0.685393  0.759213  0.151847  1
  O  O25  1  0.314607  0.259213  0.348153  1
  O  O26  1  0.099159  0.462344  0.816039  1
  O  O27  1  0.900841  0.962344  0.683961  1
  O  O28  1  0.900841  0.537656  0.183961  1
  O  O29  1  0.099159  0.037656  0.316039  1
  O  O30  1  0.022506  0.220677  0.568991  1
  O  O31  1  0.977494  0.720677  0.931009  1
  O  O32  1  0.977494  0.779323  0.431009  1
  O  O33  1  0.022506  0.279323  0.068991  1
  O  O34  1  0.235367  0.449074  0.571277  1
  O  O35  1  0.764633  0.949074  0.928723  1
  O  O36  1  0.764633  0.550926  0.428723  1
  O  O37  1  0.235367  0.050926  0.071277  1
  O  O38  1  0.213538  0.963270  0.713576  1
  O  O39  1  0.786462  0.463270  0.786424  1
  O  O40  1  0.786462  0.036730  0.286424  1
  O  O41  1  0.213538  0.536730  0.213576  1
  O  O42  1  0.500000  0.500000  0.500000  1
  O  O43  1  0.500000  0.000000  0.000000  1
  O  O44  1  0.367589  0.819974  0.522768  1
  O  O45  1  0.632411  0.319974  0.977232  1
  O  O46  1  0.632411  0.180026  0.477232  1
  O  O47  1  0.367589  0.680026  0.022768  1
