# generated using pymatgen
data_MnCr3Te2(PO4)6
_symmetry_space_group_name_H-M   'P 1'
_cell_length_a   8.86137527
_cell_length_b   8.86137561
_cell_length_c   8.86137521
_cell_angle_alpha   58.65465052
_cell_angle_beta   58.65464393
_cell_angle_gamma   58.65464920
_symmetry_Int_Tables_number   1
_chemical_formula_structural   MnCr3Te2(PO4)6
_chemical_formula_sum   'Mn1 Cr3 Te2 P6 O24'
_cell_volume   476.89696832
_cell_formula_units_Z   1
loop_
 _symmetry_equiv_pos_site_id
 _symmetry_equiv_pos_as_xyz
  1  'x, y, z'
loop_
 _atom_site_type_symbol
 _atom_site_label
 _atom_site_symmetry_multiplicity
 _atom_site_fract_x
 _atom_site_fract_y
 _atom_site_fract_z
 _atom_site_occupancy
  Mn  Mn0  1  0.844888  0.844888  0.844888  1
  Cr  Cr1  1  0.144896  0.144896  0.144896  1
  Cr  Cr2  1  0.352980  0.352980  0.352980  1
  Cr  Cr3  1  0.647849  0.647849  0.647849  1
  Te  Te4  1  0.991148  0.991148  0.991148  1
  Te  Te5  1  0.497275  0.497275  0.497275  1
  P  P6  1  0.045147  0.750413  0.452437  1
  P  P7  1  0.452437  0.045147  0.750413  1
  P  P8  1  0.750413  0.452437  0.045147  1
  P  P9  1  0.255323  0.537879  0.962635  1
  P  P10  1  0.537879  0.962635  0.255323  1
  P  P11  1  0.962635  0.255323  0.537879  1
  O  O12  1  0.115566  0.308784  0.505633  1
  O  O13  1  0.308784  0.505633  0.115566  1
  O  O14  1  0.067786  0.914816  0.255781  1
  O  O15  1  0.505633  0.115566  0.308784  1
  O  O16  1  0.239449  0.581439  0.423398  1
  O  O17  1  0.030562  0.798764  0.599856  1
  O  O18  1  0.255781  0.067786  0.914816  1
  O  O19  1  0.423398  0.239449  0.581439  1
  O  O20  1  0.581439  0.423398  0.239449  1
  O  O21  1  0.192827  0.390879  0.993776  1
  O  O22  1  0.089134  0.741032  0.940669  1
  O  O23  1  0.390879  0.993776  0.192827  1
  O  O24  1  0.599856  0.030562  0.798764  1
  O  O25  1  0.914816  0.255781  0.067786  1
  O  O26  1  0.798764  0.599856  0.030562  1
  O  O27  1  0.419620  0.563397  0.767707  1
  O  O28  1  0.563397  0.767707  0.419620  1
  O  O29  1  0.741032  0.940669  0.089134  1
  O  O30  1  0.993776  0.192827  0.390879  1
  O  O31  1  0.767707  0.419620  0.563397  1
  O  O32  1  0.489262  0.884425  0.702567  1
  O  O33  1  0.940669  0.089134  0.741032  1
  O  O34  1  0.702567  0.489262  0.884425  1
  O  O35  1  0.884425  0.702567  0.489262  1
