# generated using pymatgen
data_Cr11Ni40Mo9
_symmetry_space_group_name_H-M   'P 1'
_cell_length_a   7.65120187
_cell_length_b   11.26537553
_cell_length_c   16.83390571
_cell_angle_alpha   72.91170637
_cell_angle_beta   81.45854397
_cell_angle_gamma   85.34477735
_symmetry_Int_Tables_number   1
_chemical_formula_structural   Cr11Ni40Mo9
_chemical_formula_sum   'Cr22 Ni80 Mo18'
_cell_volume   1370.45637763
_cell_formula_units_Z   2
loop_
 _symmetry_equiv_pos_site_id
 _symmetry_equiv_pos_as_xyz
  1  'x, y, z'
loop_
 _atom_site_type_symbol
 _atom_site_label
 _atom_site_symmetry_multiplicity
 _atom_site_fract_x
 _atom_site_fract_y
 _atom_site_fract_z
 _atom_site_occupancy
  Cr  Cr0  1  0.798239  0.902711  0.798441  1
  Cr  Cr1  1  0.452102  0.597671  0.951563  1
  Cr  Cr2  1  0.050935  0.898023  0.551133  1
  Cr  Cr3  1  0.148442  0.703308  0.648518  1
  Cr  Cr4  1  0.799890  0.400340  0.800257  1
  Cr  Cr5  1  0.300755  0.900152  0.299934  1
  Cr  Cr6  1  0.847844  0.802755  0.348418  1
  Cr  Cr7  1  0.500143  0.499771  0.499440  1
  Cr  Cr8  1  0.250339  0.998967  0.749973  1
  Cr  Cr9  1  0.701981  0.096845  0.701347  1
  Cr  Cr10  1  0.551563  0.896835  0.051754  1
  Cr  Cr11  1  0.201856  0.596987  0.201320  1
  Cr  Cr12  1  0.650110  0.699643  0.150176  1
  Cr  Cr13  1  0.300649  0.400101  0.299735  1
  Cr  Cr14  1  0.749539  0.499609  0.249953  1
  Cr  Cr15  1  0.400230  0.200034  0.399631  1
  Cr  Cr16  1  0.848319  0.302282  0.348598  1
  Cr  Cr17  1  0.499130  0.002728  0.498382  1
  Cr  Cr18  1  0.999234  0.499925  0.000443  1
  Cr  Cr19  1  0.549556  0.400609  0.050242  1
  Cr  Cr20  1  0.649644  0.200163  0.150524  1
  Cr  Cr21  1  0.749756  0.999971  0.250295  1
  Ni  Ni22  1  0.649941  0.700624  0.816868  1
  Ni  Ni23  1  0.099242  0.800671  0.764935  1
  Ni  Ni24  1  0.749009  0.498745  0.916774  1
  Ni  Ni25  1  0.200854  0.598523  0.867902  1
  Ni  Ni26  1  0.346853  0.801646  0.516919  1
  Ni  Ni27  1  0.448760  0.599686  0.614517  1
  Ni  Ni28  1  0.904134  0.701398  0.566411  1
  Ni  Ni29  1  0.552228  0.399291  0.716731  1
  Ni  Ni30  1  0.999630  0.500118  0.666616  1
  Ni  Ni31  1  0.652252  0.199740  0.814636  1
  Ni  Ni32  1  0.097726  0.300388  0.766028  1
  Ni  Ni33  1  0.748929  0.997204  0.915775  1
  Ni  Ni34  1  0.200840  0.098141  0.864554  1
  Ni  Ni35  1  0.601522  0.800673  0.265873  1
  Ni  Ni36  1  0.699599  0.599066  0.365587  1
  Ni  Ni37  1  0.149903  0.701049  0.314650  1
  Ni  Ni38  1  0.352496  0.299927  0.514494  1
  Ni  Ni39  1  0.797696  0.399205  0.464706  1
  Ni  Ni40  1  0.253596  0.498909  0.415222  1
  Ni  Ni41  1  0.452276  0.097163  0.616424  1
  Ni  Ni42  1  0.898568  0.198243  0.567128  1
  Ni  Ni43  1  0.551491  0.901818  0.716639  1
  Ni  Ni44  1  0.998269  0.998245  0.666675  1
  Ni  Ni45  1  0.403483  0.698945  0.066587  1
  Ni  Ni46  1  0.846077  0.798663  0.017570  1
  Ni  Ni47  1  0.499822  0.500013  0.166619  1
  Ni  Ni48  1  0.948317  0.597511  0.116928  1
  Ni  Ni49  1  0.599714  0.300202  0.266690  1
  Ni  Ni50  1  0.049691  0.400694  0.217570  1
  Ni  Ni51  1  0.698028  0.100033  0.365951  1
  Ni  Ni52  1  0.151409  0.201750  0.316466  1
  Ni  Ni53  1  0.800046  0.899471  0.465546  1
  Ni  Ni54  1  0.252792  0.999345  0.415926  1
  Ni  Ni55  1  0.301154  0.402261  0.966735  1
  Ni  Ni56  1  0.403742  0.201358  0.066533  1
  Ni  Ni57  1  0.846604  0.300899  0.017375  1
  Ni  Ni58  1  0.502615  0.999022  0.166691  1
  Ni  Ni59  1  0.946025  0.099135  0.117596  1
  Ni  Ni60  1  0.047820  0.898832  0.217908  1
  Ni  Ni61  1  0.302534  0.898776  0.966670  1
  Ni  Ni62  1  0.397466  0.701263  0.733098  1
  Ni  Ni63  1  0.852868  0.801828  0.683891  1
  Ni  Ni64  1  0.502135  0.501145  0.835162  1
  Ni  Ni65  1  0.950036  0.600143  0.783356  1
  Ni  Ni66  1  0.099005  0.803045  0.433110  1
  Ni  Ni67  1  0.201997  0.601147  0.534685  1
  Ni  Ni68  1  0.649506  0.699993  0.482986  1
  Ni  Ni69  1  0.302150  0.401101  0.632867  1
  Ni  Ni70  1  0.747129  0.500913  0.583027  1
  Ni  Ni71  1  0.401705  0.197922  0.733830  1
  Ni  Ni72  1  0.847803  0.299905  0.685500  1
  Ni  Ni73  1  0.502279  0.000683  0.831867  1
  Ni  Ni74  1  0.948175  0.097531  0.783345  1
  Ni  Ni75  1  0.352757  0.800043  0.184342  1
  Ni  Ni76  1  0.450700  0.599278  0.282131  1
  Ni  Ni77  1  0.897565  0.698723  0.234657  1
  Ni  Ni78  1  0.101517  0.300681  0.432056  1
  Ni  Ni79  1  0.549988  0.400317  0.383210  1
  Ni  Ni80  1  0.000959  0.499203  0.332292  1
  Ni  Ni81  1  0.202817  0.098896  0.532653  1
  Ni  Ni82  1  0.647786  0.199496  0.482353  1
  Ni  Ni83  1  0.296919  0.901198  0.633646  1
  Ni  Ni84  1  0.750277  0.000881  0.584128  1
  Ni  Ni85  1  0.150776  0.697973  0.984189  1
  Ni  Ni86  1  0.599414  0.800533  0.934408  1
  Ni  Ni87  1  0.251603  0.501994  0.083482  1
  Ni  Ni88  1  0.698591  0.598773  0.034440  1
  Ni  Ni89  1  0.353497  0.301918  0.183933  1
  Ni  Ni90  1  0.796666  0.400682  0.133942  1
  Ni  Ni91  1  0.452415  0.100155  0.283958  1
  Ni  Ni92  1  0.895673  0.200261  0.234882  1
  Ni  Ni93  1  0.551460  0.901601  0.383194  1
  Ni  Ni94  1  0.998553  0.998336  0.333456  1
  Ni  Ni95  1  0.046372  0.402108  0.884913  1
  Ni  Ni96  1  0.149523  0.200742  0.984235  1
  Ni  Ni97  1  0.600624  0.302526  0.934089  1
  Ni  Ni98  1  0.252375  0.999562  0.084364  1
  Ni  Ni99  1  0.698007  0.099858  0.035494  1
  Ni  Ni100  1  0.796035  0.899402  0.135021  1
  Ni  Ni101  1  0.049025  0.900935  0.882335  1
  Mo  Mo102  1  0.349788  0.800175  0.849920  1
  Mo  Mo103  1  0.899765  0.699715  0.900240  1
  Mo  Mo104  1  0.598146  0.804021  0.598166  1
  Mo  Mo105  1  0.248519  0.504211  0.748139  1
  Mo  Mo106  1  0.701406  0.597075  0.701724  1
  Mo  Mo107  1  0.349961  0.300300  0.850138  1
  Mo  Mo108  1  0.452670  0.096183  0.951887  1
  Mo  Mo109  1  0.897175  0.203826  0.898152  1
  Mo  Mo110  1  0.400027  0.700207  0.399629  1
  Mo  Mo111  1  0.049768  0.400036  0.549672  1
  Mo  Mo112  1  0.948988  0.604046  0.447431  1
  Mo  Mo113  1  0.152506  0.195397  0.651673  1
  Mo  Mo114  1  0.599953  0.299710  0.599542  1
  Mo  Mo115  1  0.101579  0.795451  0.102500  1
  Mo  Mo116  1  0.950372  0.099592  0.449738  1
  Mo  Mo117  1  0.097464  0.304751  0.098680  1
  Mo  Mo118  1  0.202353  0.096475  0.202285  1
  Mo  Mo119  1  0.999473  0.999323  0.000452  1
