# generated using pymatgen
data_LiMnPO4F
_symmetry_space_group_name_H-M   'P 1'
_cell_length_a   10.85759953
_cell_length_b   12.52220326
_cell_length_c   6.16141670
_cell_angle_alpha   90.00000000
_cell_angle_beta   90.00000000
_cell_angle_gamma   90.00000000
_symmetry_Int_Tables_number   1
_chemical_formula_structural   LiMnPO4F
_chemical_formula_sum   'Li8 Mn8 P8 O32 F8'
_cell_volume   837.71279634
_cell_formula_units_Z   8
loop_
 _symmetry_equiv_pos_site_id
 _symmetry_equiv_pos_as_xyz
  1  'x, y, z'
loop_
 _atom_site_type_symbol
 _atom_site_label
 _atom_site_symmetry_multiplicity
 _atom_site_fract_x
 _atom_site_fract_y
 _atom_site_fract_z
 _atom_site_occupancy
  Li  Li0  1  0.172444  0.386121  0.801345  1
  Li  Li1  1  0.172444  0.886121  0.698655  1
  Li  Li2  1  0.465384  0.605754  0.601371  1
  Li  Li3  1  0.465384  0.105754  0.898629  1
  Li  Li4  1  0.672444  0.113879  0.301345  1
  Li  Li5  1  0.672444  0.613879  0.198655  1
  Li  Li6  1  0.965384  0.394246  0.398629  1
  Li  Li7  1  0.965384  0.894246  0.101371  1
  Mn  Mn8  1  0.004535  0.122095  0.990800  1
  Mn  Mn9  1  0.004535  0.622095  0.509200  1
  Mn  Mn10  1  0.246846  0.258139  0.235812  1
  Mn  Mn11  1  0.246846  0.758139  0.264188  1
  Mn  Mn12  1  0.504535  0.377905  0.490800  1
  Mn  Mn13  1  0.504535  0.877905  0.009200  1
  Mn  Mn14  1  0.746846  0.241861  0.735812  1
  Mn  Mn15  1  0.746846  0.741861  0.764188  1
  P  P16  1  0.241346  0.504656  0.349427  1
  P  P17  1  0.241346  0.004656  0.150573  1
  P  P18  1  0.502238  0.315300  0.991271  1
  P  P19  1  0.502238  0.815300  0.508729  1
  P  P20  1  0.741346  0.995344  0.849427  1
  P  P21  1  0.741346  0.495344  0.650573  1
  P  P22  1  0.002238  0.184700  0.491271  1
  P  P23  1  0.002238  0.684700  0.008729  1
  O  O24  1  0.030291  0.610864  0.816257  1
  O  O25  1  0.030291  0.110864  0.683743  1
  O  O26  1  0.104026  0.770236  0.060474  1
  O  O27  1  0.104026  0.270236  0.439526  1
  O  O28  1  0.119135  0.997731  0.010443  1
  O  O29  1  0.119135  0.497731  0.489557  1
  O  O30  1  0.239382  0.411728  0.181027  1
  O  O31  1  0.239382  0.911728  0.318973  1
  O  O32  1  0.243822  0.107716  0.285396  1
  O  O33  1  0.243822  0.607716  0.214604  1
  O  O34  1  0.351038  0.496111  0.504738  1
  O  O35  1  0.351038  0.996111  0.995262  1
  O  O36  1  0.388370  0.242315  0.033312  1
  O  O37  1  0.388370  0.742315  0.466688  1
  O  O38  1  0.481544  0.390406  0.797899  1
  O  O39  1  0.481544  0.890406  0.702101  1
  O  O40  1  0.530291  0.389136  0.183743  1
  O  O41  1  0.530291  0.889136  0.316257  1
  O  O42  1  0.604026  0.229764  0.939526  1
  O  O43  1  0.604026  0.729764  0.560474  1
  O  O44  1  0.619135  0.502269  0.510443  1
  O  O45  1  0.619135  0.002269  0.989557  1
  O  O46  1  0.739382  0.088272  0.681027  1
  O  O47  1  0.739382  0.588272  0.818973  1
  O  O48  1  0.743822  0.392284  0.785396  1
  O  O49  1  0.743822  0.892284  0.714604  1
  O  O50  1  0.851038  0.003889  0.004738  1
  O  O51  1  0.851038  0.503889  0.495262  1
  O  O52  1  0.888370  0.757685  0.966688  1
  O  O53  1  0.888370  0.257685  0.533312  1
  O  O54  1  0.981544  0.109594  0.297899  1
  O  O55  1  0.981544  0.609594  0.202101  1
  F  F56  1  0.129745  0.259217  0.958598  1
  F  F57  1  0.129745  0.759217  0.541402  1
  F  F58  1  0.379853  0.270283  0.486165  1
  F  F59  1  0.379853  0.770283  0.013835  1
  F  F60  1  0.629745  0.240783  0.458598  1
  F  F61  1  0.629745  0.740783  0.041402  1
  F  F62  1  0.879853  0.229717  0.986165  1
  F  F63  1  0.879853  0.729717  0.513835  1
