# generated using pymatgen
data_Al2NiO4
_symmetry_space_group_name_H-M   'P 1'
_cell_length_a   5.76768402
_cell_length_b   5.75911872
_cell_length_c   22.92190950
_cell_angle_alpha   59.83452150
_cell_angle_beta   59.85301912
_cell_angle_gamma   60.04910992
_symmetry_Int_Tables_number   1
_chemical_formula_structural   Al2NiO4
_chemical_formula_sum   'Al16 Ni8 O32'
_cell_volume   537.30864905
_cell_formula_units_Z   8
loop_
 _symmetry_equiv_pos_site_id
 _symmetry_equiv_pos_as_xyz
  1  'x, y, z'
loop_
 _atom_site_type_symbol
 _atom_site_label
 _atom_site_symmetry_multiplicity
 _atom_site_fract_x
 _atom_site_fract_y
 _atom_site_fract_z
 _atom_site_occupancy
  Al  Al0  1  0.497207  0.496345  0.002526  1
  Al  Al1  1  0.495665  0.006320  0.125299  1
  Al  Al2  1  0.495665  0.496818  0.125299  1
  Al  Al3  1  0.494385  0.497598  0.252605  1
  Al  Al4  1  0.130014  0.116969  0.534012  1
  Al  Al5  1  0.493523  0.004505  0.375487  1
  Al  Al6  1  0.493523  0.500026  0.375487  1
  Al  Al7  1  0.141047  0.117701  0.780887  1
  Al  Al8  1  0.859034  0.880982  0.219750  1
  Al  Al9  1  0.501467  0.000825  0.624336  1
  Al  Al10  1  0.501467  0.500365  0.624336  1
  Al  Al11  1  0.865661  0.884984  0.466093  1
  Al  Al12  1  0.506816  0.002142  0.873289  1
  Al  Al13  1  0.506816  0.497885  0.873289  1
  Al  Al14  1  0.870199  0.882246  0.716327  1
  Al  Al15  1  0.863044  0.878368  0.970055  1
  Ni  Ni16  1  0.130561  0.126092  0.029314  1
  Ni  Ni17  1  0.003423  0.497994  0.125147  1
  Ni  Ni18  1  0.120217  0.122176  0.283858  1
  Ni  Ni19  1  0.997898  0.500261  0.375395  1
  Ni  Ni20  1  0.000556  0.500402  0.624660  1
  Ni  Ni21  1  0.498931  0.501822  0.499356  1
  Ni  Ni22  1  0.007730  0.498157  0.873989  1
  Ni  Ni23  1  0.503114  0.498910  0.749766  1
  O  O24  1  0.284715  0.250007  0.062858  1
  O  O25  1  0.282035  0.249903  0.179540  1
  O  O26  1  0.284715  0.713846  0.062858  1
  O  O27  1  0.712402  0.261449  0.066175  1
  O  O28  1  0.281292  0.252787  0.313830  1
  O  O29  1  0.262658  0.745774  0.186449  1
  O  O30  1  0.724225  0.270769  0.188174  1
  O  O31  1  0.261367  0.244336  0.437491  1
  O  O32  1  0.281292  0.710600  0.313830  1
  O  O33  1  0.725888  0.751993  0.067532  1
  O  O34  1  0.724225  0.752310  0.188174  1
  O  O35  1  0.699914  0.265557  0.317243  1
  O  O36  1  0.265292  0.232622  0.566768  1
  O  O37  1  0.256284  0.758569  0.431645  1
  O  O38  1  0.731704  0.265477  0.433007  1
  O  O39  1  0.265292  0.735016  0.566768  1
  O  O40  1  0.724667  0.754252  0.316707  1
  O  O41  1  0.273613  0.246367  0.683413  1
  O  O42  1  0.731704  0.770791  0.433007  1
  O  O43  1  0.738003  0.245986  0.567506  1
  O  O44  1  0.269640  0.229165  0.815705  1
  O  O45  1  0.261444  0.753156  0.683061  1
  O  O46  1  0.297868  0.252566  0.924250  1
  O  O47  1  0.734853  0.263623  0.683644  1
  O  O48  1  0.269640  0.738376  0.815705  1
  O  O49  1  0.729350  0.754883  0.565221  1
  O  O50  1  0.754275  0.241017  0.815923  1
  O  O51  1  0.734853  0.766947  0.683644  1
  O  O52  1  0.268408  0.741376  0.937210  1
  O  O53  1  0.729238  0.269388  0.938135  1
  O  O54  1  0.731943  0.752363  0.815833  1
  O  O55  1  0.729238  0.748835  0.938135  1
