# generated using pymatgen
data_Mn6O5F7
_symmetry_space_group_name_H-M   'P 1'
_cell_length_a   4.69259143
_cell_length_b   5.71291430
_cell_length_c   15.66917018
_cell_angle_alpha   90.29430774
_cell_angle_beta   89.85071776
_cell_angle_gamma   90.06931018
_symmetry_Int_Tables_number   1
_chemical_formula_structural   Mn6O5F7
_chemical_formula_sum   'Mn12 O10 F14'
_cell_volume   420.05768600
_cell_formula_units_Z   2
loop_
 _symmetry_equiv_pos_site_id
 _symmetry_equiv_pos_as_xyz
  1  'x, y, z'
loop_
 _atom_site_type_symbol
 _atom_site_label
 _atom_site_symmetry_multiplicity
 _atom_site_fract_x
 _atom_site_fract_y
 _atom_site_fract_z
 _atom_site_occupancy
  Mn  Mn0  1  0.012538  0.170615  0.416249  1
  Mn  Mn1  1  0.003230  0.831873  0.236988  1
  Mn  Mn2  1  0.002517  0.154222  0.075888  1
  Mn  Mn3  1  0.047399  0.162603  0.750678  1
  Mn  Mn4  1  0.026227  0.856420  0.578834  1
  Mn  Mn5  1  0.025327  0.859658  0.913170  1
  Mn  Mn6  1  0.472669  0.332561  0.581861  1
  Mn  Mn7  1  0.495757  0.335952  0.922372  1
  Mn  Mn8  1  0.532942  0.356542  0.255819  1
  Mn  Mn9  1  0.504252  0.647264  0.088295  1
  Mn  Mn10  1  0.488813  0.650510  0.420894  1
  Mn  Mn11  1  0.486540  0.654964  0.758426  1
  O  O12  1  0.224298  0.108876  0.635017  1
  O  O13  1  0.216179  0.113838  0.970508  1
  O  O14  1  0.217329  0.882970  0.131803  1
  O  O15  1  0.222208  0.892286  0.469174  1
  O  O16  1  0.232000  0.890889  0.808367  1
  O  O17  1  0.267043  0.396088  0.477278  1
  O  O18  1  0.292519  0.393765  0.815680  1
  O  O19  1  0.714227  0.376053  0.029027  1
  O  O20  1  0.719342  0.619160  0.193897  1
  O  O21  1  0.727411  0.396071  0.366178  1
  F  F22  1  0.235976  0.104510  0.297842  1
  F  F23  1  0.259340  0.379458  0.151617  1
  F  F24  1  0.250401  0.611034  0.308812  1
  F  F25  1  0.257084  0.607163  0.644696  1
  F  F26  1  0.269066  0.614167  0.981790  1
  F  F27  1  0.737763  0.611592  0.537356  1
  F  F28  1  0.757197  0.617347  0.867510  1
  F  F29  1  0.726476  0.380339  0.693306  1
  F  F30  1  0.767926  0.117824  0.183607  1
  F  F31  1  0.752633  0.106795  0.524130  1
  F  F32  1  0.763319  0.892210  0.355186  1
  F  F33  1  0.760148  0.875664  0.013174  1
  F  F34  1  0.763017  0.122883  0.853066  1
  F  F35  1  0.768886  0.875833  0.691510  1
