# generated using pymatgen
data_LiZn6Fe17O32
_symmetry_space_group_name_H-M   'P 1'
_cell_length_a   6.05440462
_cell_length_b   6.04746279
_cell_length_c   19.94384868
_cell_angle_alpha   98.90845086
_cell_angle_beta   98.73045746
_cell_angle_gamma   59.96202082
_symmetry_Int_Tables_number   1
_chemical_formula_structural   LiZn6Fe17O32
_chemical_formula_sum   'Li1 Zn6 Fe17 O32'
_cell_volume   622.16196519
_cell_formula_units_Z   1
loop_
 _symmetry_equiv_pos_site_id
 _symmetry_equiv_pos_as_xyz
  1  'x, y, z'
loop_
 _atom_site_type_symbol
 _atom_site_label
 _atom_site_symmetry_multiplicity
 _atom_site_fract_x
 _atom_site_fract_y
 _atom_site_fract_z
 _atom_site_occupancy
  Li  Li0  1  0.936940  0.936958  0.810838  1
  Zn  Zn1  1  0.342162  0.345400  0.029724  1
  Zn  Zn2  1  0.218912  0.718009  0.155832  1
  Zn  Zn3  1  0.844811  0.843376  0.532997  1
  Zn  Zn4  1  0.968821  0.469132  0.406774  1
  Zn  Zn5  1  0.093944  0.093497  0.281386  1
  Zn  Zn6  1  0.721159  0.216021  0.658338  1
  Fe  Fe7  1  0.692769  0.680012  0.065550  1
  Fe  Fe8  1  0.744688  0.758953  0.248329  1
  Fe  Fe9  1  0.997975  0.000406  0.996355  1
  Fe  Fe10  1  0.469391  0.968484  0.406766  1
  Fe  Fe11  1  0.968892  0.968484  0.406766  1
  Fe  Fe12  1  0.718790  0.218321  0.155890  1
  Fe  Fe13  1  0.218779  0.218321  0.155890  1
  Fe  Fe14  1  0.442724  0.429112  0.314559  1
  Fe  Fe15  1  0.495840  0.508860  0.500539  1
  Fe  Fe16  1  0.723020  0.721046  0.658553  1
  Fe  Fe17  1  0.214488  0.721046  0.658553  1
  Fe  Fe18  1  0.193137  0.177194  0.563467  1
  Fe  Fe19  1  0.469917  0.963922  0.903755  1
  Fe  Fe20  1  0.593205  0.597374  0.783783  1
  Fe  Fe21  1  0.245306  0.258961  0.749573  1
  Fe  Fe22  1  0.961002  0.471947  0.903247  1
  Fe  Fe23  1  0.470298  0.471947  0.903247  1
  O  O24  1  0.903493  0.920995  0.214606  1
  O  O25  1  0.390118  0.920995  0.214606  1
  O  O26  1  0.533351  0.513493  0.095834  1
  O  O27  1  0.048989  0.513493  0.095834  1
  O  O28  1  0.525944  0.044733  0.096621  1
  O  O29  1  0.276985  0.793338  0.347308  1
  O  O30  1  0.410187  0.393869  0.214244  1
  O  O31  1  0.777588  0.792436  0.347612  1
  O  O32  1  0.909749  0.394420  0.213917  1
  O  O33  1  0.026858  0.042274  0.095990  1
  O  O34  1  0.653406  0.671982  0.466240  1
  O  O35  1  0.140853  0.671982  0.466240  1
  O  O36  1  0.283957  0.264881  0.346495  1
  O  O37  1  0.797657  0.264881  0.346495  1
  O  O38  1  0.908814  0.892031  0.709660  1
  O  O39  1  0.159504  0.144649  0.463656  1
  O  O40  1  0.030990  0.536826  0.598805  1
  O  O41  1  0.530273  0.539613  0.600157  1
  O  O42  1  0.660440  0.144433  0.465314  1
  O  O43  1  0.416912  0.886910  0.720735  1
  O  O44  1  0.410686  0.430012  0.722247  1
  O  O45  1  0.881549  0.430012  0.722247  1
  O  O46  1  0.038066  0.015882  0.597521  1
  O  O47  1  0.762637  0.763946  0.845689  1
  O  O48  1  0.319105  0.763946  0.845689  1
  O  O49  1  0.543573  0.015882  0.597521  1
  O  O50  1  0.761276  0.322271  0.844823  1
  O  O51  1  0.655769  0.653892  0.965430  1
  O  O52  1  0.283038  0.283201  0.849277  1
  O  O53  1  0.161246  0.641217  0.963708  1
  O  O54  1  0.640120  0.162364  0.962382  1
  O  O55  1  0.159898  0.162364  0.962382  1
