# generated using pymatgen
data_LiNiPO4
_symmetry_space_group_name_H-M   'P 1'
_cell_length_a   10.27901413
_cell_length_b   6.11888514
_cell_length_c   4.65855625
_cell_angle_alpha   90.00000000
_cell_angle_beta   90.00000000
_cell_angle_gamma   89.99748553
_symmetry_Int_Tables_number   1
_chemical_formula_structural   LiNiPO4
_chemical_formula_sum   'Li4 Ni4 P4 O16'
_cell_volume   293.00505136
_cell_formula_units_Z   4
loop_
 _symmetry_equiv_pos_site_id
 _symmetry_equiv_pos_as_xyz
  1  'x, y, z'
loop_
 _atom_site_type_symbol
 _atom_site_label
 _atom_site_symmetry_multiplicity
 _atom_site_fract_x
 _atom_site_fract_y
 _atom_site_fract_z
 _atom_site_occupancy
  Li  Li0  1  0.215305  0.749999  0.482899  1
  Li  Li1  1  0.284695  0.250001  0.982899  1
  Li  Li2  1  0.715305  0.749999  0.017101  1
  Li  Li3  1  0.784695  0.250001  0.517101  1
  Ni  Ni4  1  0.000000  0.000000  0.000000  1
  Ni  Ni5  1  0.000000  0.500000  0.000000  1
  Ni  Ni6  1  0.500000  0.000000  0.500000  1
  Ni  Ni7  1  0.500000  0.500000  0.500000  1
  P  P8  1  0.092397  0.249989  0.413049  1
  P  P9  1  0.407603  0.750011  0.913049  1
  P  P10  1  0.592397  0.249989  0.086951  1
  P  P11  1  0.907603  0.750011  0.586951  1
  O  O12  1  0.049280  0.750000  0.727671  1
  O  O13  1  0.085663  0.249989  0.744564  1
  O  O14  1  0.156496  0.041953  0.288764  1
  O  O15  1  0.156490  0.458022  0.288774  1
  O  O16  1  0.343510  0.541978  0.788774  1
  O  O17  1  0.343504  0.958047  0.788764  1
  O  O18  1  0.414336  0.750011  0.244563  1
  O  O19  1  0.450719  0.250000  0.227671  1
  O  O20  1  0.549280  0.750000  0.772329  1
  O  O21  1  0.585663  0.249989  0.755436  1
  O  O22  1  0.656496  0.041953  0.211236  1
  O  O23  1  0.656490  0.458022  0.211226  1
  O  O24  1  0.843510  0.541978  0.711226  1
  O  O25  1  0.843504  0.958047  0.711236  1
  O  O26  1  0.914337  0.750011  0.255437  1
  O  O27  1  0.950720  0.250000  0.272329  1
