# generated using pymatgen
data_LiFeF3
_symmetry_space_group_name_H-M   'P 1'
_cell_length_a   6.11173126
_cell_length_b   6.12676211
_cell_length_c   6.10514370
_cell_angle_alpha   89.95145565
_cell_angle_beta   89.82710885
_cell_angle_gamma   90.09645599
_symmetry_Int_Tables_number   1
_chemical_formula_structural   LiFeF3
_chemical_formula_sum   'Li4 Fe4 F12'
_cell_volume   228.60641244
_cell_formula_units_Z   4
loop_
 _symmetry_equiv_pos_site_id
 _symmetry_equiv_pos_as_xyz
  1  'x, y, z'
loop_
 _atom_site_type_symbol
 _atom_site_label
 _atom_site_symmetry_multiplicity
 _atom_site_fract_x
 _atom_site_fract_y
 _atom_site_fract_z
 _atom_site_occupancy
  Li  Li0  1  0.880999  0.878318  0.879735  1
  Li  Li1  1  0.120584  0.376106  0.619480  1
  Li  Li2  1  0.623000  0.122409  0.374907  1
  Li  Li3  1  0.374438  0.620225  0.122697  1
  Fe  Fe4  1  0.164966  0.164563  0.159476  1
  Fe  Fe5  1  0.341129  0.838936  0.665468  1
  Fe  Fe6  1  0.662163  0.341977  0.834945  1
  Fe  Fe7  1  0.837777  0.666072  0.340545  1
  F  F8  1  0.012989  0.731437  0.623588  1
  F  F9  1  0.269542  0.123453  0.484430  1
  F  F10  1  0.122369  0.491143  0.272519  1
  F  F11  1  0.369115  0.511601  0.769047  1
  F  F12  1  0.233724  0.872920  0.987328  1
  F  F13  1  0.488128  0.268391  0.127685  1
  F  F14  1  0.511912  0.769081  0.371129  1
  F  F15  1  0.769723  0.369920  0.510728  1
  F  F16  1  0.623121  0.016378  0.735961  1
  F  F17  1  0.874661  0.987928  0.231286  1
  F  F18  1  0.729149  0.620104  0.010068  1
  F  F19  1  0.990512  0.229036  0.878980  1
