# generated using pymatgen
data_MoH4O5
_symmetry_space_group_name_H-M   'P 1'
_cell_length_a   10.59816078
_cell_length_b   14.05839893
_cell_length_c   10.78253557
_cell_angle_alpha   90.00000000
_cell_angle_beta   91.58091010
_cell_angle_gamma   90.00000000
_symmetry_Int_Tables_number   1
_chemical_formula_structural   MoH4O5
_chemical_formula_sum   'Mo16 H64 O80'
_cell_volume   1605.91267456
_cell_formula_units_Z   16
loop_
 _symmetry_equiv_pos_site_id
 _symmetry_equiv_pos_as_xyz
  1  'x, y, z'
loop_
 _atom_site_type_symbol
 _atom_site_label
 _atom_site_symmetry_multiplicity
 _atom_site_fract_x
 _atom_site_fract_y
 _atom_site_fract_z
 _atom_site_occupancy
  Mo  Mo0  1  0.382641  0.751300  0.355725  1
  Mo  Mo1  1  0.882641  0.748700  0.855725  1
  Mo  Mo2  1  0.617359  0.248700  0.644275  1
  Mo  Mo3  1  0.117359  0.251300  0.144275  1
  Mo  Mo4  1  0.348864  0.746359  0.882589  1
  Mo  Mo5  1  0.848864  0.753641  0.382589  1
  Mo  Mo6  1  0.651136  0.253642  0.117411  1
  Mo  Mo7  1  0.151136  0.246359  0.617411  1
  Mo  Mo8  1  0.109468  0.755587  0.138971  1
  Mo  Mo9  1  0.609468  0.744413  0.638971  1
  Mo  Mo10  1  0.890532  0.244413  0.861029  1
  Mo  Mo11  1  0.390532  0.255587  0.361029  1
  Mo  Mo12  1  0.138251  0.748941  0.604384  1
  Mo  Mo13  1  0.638251  0.751059  0.104384  1
  Mo  Mo14  1  0.861749  0.251059  0.395616  1
  Mo  Mo15  1  0.361749  0.248941  0.895616  1
  H  H16  1  0.385763  0.563318  0.464729  1
  H  H17  1  0.885763  0.936682  0.964729  1
  H  H18  1  0.614237  0.436682  0.535271  1
  H  H19  1  0.114237  0.063318  0.035271  1
  H  H20  1  0.498903  0.559315  0.373744  1
  H  H21  1  0.998903  0.940685  0.873744  1
  H  H22  1  0.501097  0.440685  0.626256  1
  H  H23  1  0.001097  0.059315  0.126256  1
  H  H24  1  0.382794  0.557778  0.978658  1
  H  H25  1  0.882794  0.942222  0.478658  1
  H  H26  1  0.617206  0.442222  0.021342  1
  H  H27  1  0.117206  0.057778  0.521342  1
  H  H28  1  0.491938  0.564415  0.881645  1
  H  H29  1  0.991938  0.935585  0.381645  1
  H  H30  1  0.508062  0.435585  0.118355  1
  H  H31  1  0.008062  0.064415  0.618355  1
  H  H32  1  0.117126  0.564137  0.223931  1
  H  H33  1  0.617126  0.935863  0.723931  1
  H  H34  1  0.882874  0.435863  0.776069  1
  H  H35  1  0.382874  0.064137  0.276069  1
  H  H36  1  0.502210  0.936528  0.628695  1
  H  H37  1  0.002210  0.563472  0.128695  1
  H  H38  1  0.497790  0.063472  0.371305  1
  H  H39  1  0.997790  0.436528  0.871305  1
  H  H40  1  0.115574  0.564428  0.718683  1
  H  H41  1  0.615574  0.935572  0.218683  1
  H  H42  1  0.884426  0.435572  0.281317  1
  H  H43  1  0.384426  0.064428  0.781317  1
  H  H44  1  0.501070  0.934123  0.122917  1
  H  H45  1  0.001070  0.565877  0.622917  1
  H  H46  1  0.498930  0.065877  0.877083  1
  H  H47  1  0.998930  0.434123  0.377083  1
  H  H48  1  0.141950  0.545828  0.442395  1
  H  H49  1  0.641950  0.954172  0.942395  1
  H  H50  1  0.858050  0.454172  0.557605  1
  H  H51  1  0.358050  0.045828  0.057605  1
  H  H52  1  0.289129  0.961253  0.124152  1
  H  H53  1  0.789129  0.538747  0.624152  1
  H  H54  1  0.710871  0.038747  0.875848  1
  H  H55  1  0.210871  0.461253  0.375848  1
  H  H56  1  0.358498  0.546047  0.190526  1
  H  H57  1  0.858498  0.953953  0.690526  1
  H  H58  1  0.641502  0.453953  0.809474  1
  H  H59  1  0.141502  0.046047  0.309474  1
  H  H60  1  0.209605  0.957640  0.371186  1
  H  H61  1  0.709605  0.542360  0.871186  1
  H  H62  1  0.790395  0.042360  0.628814  1
  H  H63  1  0.290395  0.457640  0.128814  1
  H  H64  1  0.136363  0.551830  0.936206  1
  H  H65  1  0.636363  0.948170  0.436206  1
  H  H66  1  0.863637  0.448170  0.063794  1
  H  H67  1  0.363637  0.051830  0.563794  1
  H  H68  1  0.295884  0.963646  0.623042  1
  H  H69  1  0.795884  0.536354  0.123042  1
  H  H70  1  0.704116  0.036354  0.376958  1
  H  H71  1  0.204116  0.463646  0.876958  1
  H  H72  1  0.355062  0.561592  0.675106  1
  H  H73  1  0.855062  0.938408  0.175106  1
  H  H74  1  0.644938  0.438408  0.324894  1
  H  H75  1  0.144938  0.061592  0.824894  1
  H  H76  1  0.204827  0.965174  0.873141  1
  H  H77  1  0.704827  0.534826  0.373141  1
  H  H78  1  0.795173  0.034826  0.126859  1
  H  H79  1  0.295173  0.465174  0.626859  1
  O  O80  1  0.345238  0.871927  0.359686  1
  O  O81  1  0.845238  0.628073  0.859686  1
  O  O82  1  0.654762  0.128073  0.640314  1
  O  O83  1  0.154762  0.371927  0.140314  1
  O  O84  1  0.324687  0.868535  0.870983  1
  O  O85  1  0.824687  0.631465  0.370983  1
  O  O86  1  0.675313  0.131465  0.129017  1
  O  O87  1  0.175313  0.368535  0.629017  1
  O  O88  1  0.159878  0.873091  0.124304  1
  O  O89  1  0.659878  0.626909  0.624304  1
  O  O90  1  0.840122  0.126909  0.875696  1
  O  O91  1  0.340122  0.373091  0.375696  1
  O  O92  1  0.173981  0.869659  0.612234  1
  O  O93  1  0.673981  0.630341  0.112234  1
  O  O94  1  0.826019  0.130341  0.387766  1
  O  O95  1  0.326019  0.369659  0.887766  1
  O  O96  1  0.267688  0.711936  0.231978  1
  O  O97  1  0.767688  0.788064  0.731978  1
  O  O98  1  0.732312  0.288064  0.768022  1
  O  O99  1  0.232312  0.211936  0.268022  1
  O  O100  1  0.236477  0.711109  0.478601  1
  O  O101  1  0.736477  0.788891  0.978601  1
  O  O102  1  0.763523  0.288891  0.521399  1
  O  O103  1  0.263523  0.211109  0.021399  1
  O  O104  1  0.015775  0.760822  0.276965  1
  O  O105  1  0.515775  0.739178  0.776965  1
  O  O106  1  0.984225  0.239178  0.723035  1
  O  O107  1  0.484225  0.260822  0.223035  1
  O  O108  1  0.483297  0.752524  0.019300  1
  O  O109  1  0.983297  0.747476  0.519300  1
  O  O110  1  0.516703  0.247476  0.980700  1
  O  O111  1  0.016703  0.252524  0.480700  1
  O  O112  1  0.979715  0.748081  0.021320  1
  O  O113  1  0.479715  0.751919  0.521320  1
  O  O114  1  0.020285  0.251919  0.978680  1
  O  O115  1  0.520285  0.248081  0.478680  1
  O  O116  1  0.227516  0.712502  0.988079  1
  O  O117  1  0.727516  0.787498  0.488079  1
  O  O118  1  0.772484  0.287498  0.011921  1
  O  O119  1  0.272484  0.212502  0.511921  1
  O  O120  1  0.024739  0.753672  0.768102  1
  O  O121  1  0.524739  0.746328  0.268102  1
  O  O122  1  0.975261  0.246328  0.231898  1
  O  O123  1  0.475261  0.253672  0.731898  1
  O  O124  1  0.268436  0.707033  0.733333  1
  O  O125  1  0.768436  0.792967  0.233333  1
  O  O126  1  0.731564  0.292967  0.266667  1
  O  O127  1  0.231564  0.207033  0.766667  1
  O  O128  1  0.414328  0.589073  0.384319  1
  O  O129  1  0.914328  0.910927  0.884319  1
  O  O130  1  0.585672  0.410927  0.615681  1
  O  O131  1  0.085672  0.089073  0.115681  1
  O  O132  1  0.405043  0.587009  0.897941  1
  O  O133  1  0.905043  0.912991  0.397941  1
  O  O134  1  0.594957  0.412991  0.102059  1
  O  O135  1  0.094957  0.087009  0.602059  1
  O  O136  1  0.087475  0.592515  0.143723  1
  O  O137  1  0.587475  0.907485  0.643723  1
  O  O138  1  0.912525  0.407485  0.856277  1
  O  O139  1  0.412525  0.092515  0.356277  1
  O  O140  1  0.089328  0.589678  0.635600  1
  O  O141  1  0.589328  0.910322  0.135600  1
  O  O142  1  0.910672  0.410322  0.364400  1
  O  O143  1  0.410672  0.089678  0.864400  1
  O  O144  1  0.135759  0.503011  0.370624  1
  O  O145  1  0.635759  0.996989  0.870624  1
  O  O146  1  0.864241  0.496989  0.629376  1
  O  O147  1  0.364241  0.003011  0.129376  1
  O  O148  1  0.363638  0.500733  0.121771  1
  O  O149  1  0.863638  0.999267  0.621771  1
  O  O150  1  0.636362  0.499267  0.878229  1
  O  O151  1  0.136362  0.000733  0.378229  1
  O  O152  1  0.130079  0.506196  0.867595  1
  O  O153  1  0.630079  0.993804  0.367595  1
  O  O154  1  0.869921  0.493804  0.132405  1
  O  O155  1  0.369921  0.006196  0.632405  1
  O  O156  1  0.366133  0.509589  0.615431  1
  O  O157  1  0.866133  0.990411  0.115431  1
  O  O158  1  0.633867  0.490411  0.384569  1
  O  O159  1  0.133867  0.009589  0.884569  1
