# generated using pymatgen
data_Li4V3P8O29
_symmetry_space_group_name_H-M   'P 1'
_cell_length_a   9.78676257
_cell_length_b   9.78359371
_cell_length_c   13.93052498
_cell_angle_alpha   90.08945178
_cell_angle_beta   90.17071895
_cell_angle_gamma   59.94006594
_symmetry_Int_Tables_number   1
_chemical_formula_structural   Li4V3P8O29
_chemical_formula_sum   'Li8 V6 P16 O58'
_cell_volume   1154.43914626
_cell_formula_units_Z   2
loop_
 _symmetry_equiv_pos_site_id
 _symmetry_equiv_pos_as_xyz
  1  'x, y, z'
loop_
 _atom_site_type_symbol
 _atom_site_label
 _atom_site_symmetry_multiplicity
 _atom_site_fract_x
 _atom_site_fract_y
 _atom_site_fract_z
 _atom_site_occupancy
  Li  Li0  1  0.910494  0.318874  0.559375  1
  Li  Li1  1  0.770154  0.322912  0.060645  1
  Li  Li2  1  0.322870  0.902599  0.059054  1
  Li  Li3  1  0.677621  0.226525  0.440802  1
  Li  Li4  1  0.322421  0.772786  0.558442  1
  Li  Li5  1  0.680634  0.088356  0.939839  1
  Li  Li6  1  0.090685  0.681092  0.440740  1
  Li  Li7  1  0.095535  0.228559  0.939472  1
  V  V8  1  0.566070  0.432852  0.248479  1
  V  V9  1  0.426886  0.568177  0.754947  1
  V  V10  1  0.571500  0.994046  0.744352  1
  V  V11  1  0.432119  0.004520  0.256829  1
  V  V12  1  0.995175  0.570918  0.244328  1
  V  V13  1  0.000259  0.436491  0.751661  1
  P  P14  1  0.916283  0.771383  0.844058  1
  P  P15  1  0.772339  0.914557  0.341375  1
  P  P16  1  0.912407  0.318748  0.343508  1
  P  P17  1  0.662796  0.668453  0.126909  1
  P  P18  1  0.663657  0.663032  0.626831  1
  P  P19  1  0.769810  0.318348  0.842173  1
  P  P20  1  0.680316  0.232048  0.658884  1
  P  P21  1  0.318661  0.914040  0.841834  1
  P  P22  1  0.681844  0.085689  0.155049  1
  P  P23  1  0.319397  0.768052  0.342030  1
  P  P24  1  0.229565  0.684456  0.157369  1
  P  P25  1  0.331718  0.337486  0.373274  1
  P  P26  1  0.337655  0.327583  0.873071  1
  P  P27  1  0.086233  0.682597  0.656664  1
  P  P28  1  0.228773  0.086365  0.657073  1
  P  P29  1  0.088200  0.228673  0.159439  1
  O  O30  1  0.010977  0.756609  0.564472  1
  O  O31  1  0.917030  0.744419  0.339616  1
  O  O32  1  0.751040  0.005376  0.063468  1
  O  O33  1  0.743422  0.917519  0.835970  1
  O  O34  1  0.904846  0.618904  0.823653  1
  O  O35  1  0.814115  0.668241  0.173488  1
  O  O36  1  0.905597  0.477563  0.320535  1
  O  O37  1  0.000044  0.241712  0.068251  1
  O  O38  1  0.917543  0.335820  0.842151  1
  O  O39  1  0.664746  0.813625  0.673661  1
  O  O40  1  0.618730  0.904483  0.324382  1
  O  O41  1  0.812018  0.513725  0.666903  1
  O  O42  1  0.667781  0.667582  0.020378  1
  O  O43  1  0.657681  0.671399  0.520458  1
  O  O44  1  0.673727  0.512657  0.166497  1
  O  O45  1  0.478036  0.906591  0.823513  1
  O  O46  1  0.513899  0.817278  0.169044  1
  O  O47  1  0.744516  0.339081  0.338537  1
  O  O48  1  0.793102  0.207932  0.750056  1
  O  O49  1  0.756984  0.242262  0.568436  1
  O  O50  1  0.755691  0.242758  0.932255  1
  O  O51  1  0.618392  0.478902  0.822966  1
  O  O52  1  0.510734  0.670405  0.669925  1
  O  O53  1  0.662864  0.252966  0.160147  1
  O  O54  1  0.479203  0.619758  0.324602  1
  O  O55  1  0.340366  0.915485  0.334002  1
  O  O56  1  0.794689  0.994055  0.245590  1
  O  O57  1  0.761797  0.006581  0.428009  1
  O  O58  1  0.241389  0.991528  0.571814  1
  O  O59  1  0.657280  0.087066  0.663368  1
  O  O60  1  0.521794  0.384430  0.677260  1
  O  O61  1  0.342513  0.745510  0.836483  1
  O  O62  1  0.485529  0.327474  0.332789  1
  O  O63  1  0.381485  0.522826  0.174799  1
  O  O64  1  0.235371  0.769866  0.071933  1
  O  O65  1  0.241652  0.761555  0.432633  1
  O  O66  1  0.205197  0.789527  0.253194  1
  O  O67  1  0.256804  0.662289  0.664291  1
  O  O68  1  0.490049  0.181497  0.830313  1
  O  O69  1  0.521972  0.094521  0.179444  1
  O  O70  1  0.335452  0.479286  0.826452  1
  O  O71  1  0.342026  0.329709  0.979506  1
  O  O72  1  0.331067  0.333549  0.479716  1
  O  O73  1  0.182108  0.486907  0.330770  1
  O  O74  1  0.381849  0.094939  0.677225  1
  O  O75  1  0.331446  0.186266  0.326872  1
  O  O76  1  0.085459  0.657864  0.165066  1
  O  O77  1  0.995631  0.793655  0.746849  1
  O  O78  1  -0.000155  0.768572  0.931802  1
  O  O79  1  0.100248  0.521620  0.676275  1
  O  O80  1  0.187897  0.326164  0.833737  1
  O  O81  1  0.096801  0.381576  0.176314  1
  O  O82  1  0.255684  0.082640  0.159940  1
  O  O83  1  0.243694  0.999152  0.933343  1
  O  O84  1  0.204417  0.006187  0.753512  1
  O  O85  1  0.083125  0.254821  0.659498  1
  O  O86  1  0.994063  0.246214  0.434638  1
  O  O87  1  0.000758  0.207371  0.250695  1
