# generated using pymatgen
data_Li5Fe8(BO3)8
_symmetry_space_group_name_H-M   'P 1'
_cell_length_a   5.25138243
_cell_length_b   9.12913762
_cell_length_c   10.14163181
_cell_angle_alpha   91.90057271
_cell_angle_beta   90.75427475
_cell_angle_gamma   89.14734106
_symmetry_Int_Tables_number   1
_chemical_formula_structural   Li5Fe8(BO3)8
_chemical_formula_sum   'Li5 Fe8 B8 O24'
_cell_volume   485.83551527
_cell_formula_units_Z   1
loop_
 _symmetry_equiv_pos_site_id
 _symmetry_equiv_pos_as_xyz
  1  'x, y, z'
loop_
 _atom_site_type_symbol
 _atom_site_label
 _atom_site_symmetry_multiplicity
 _atom_site_fract_x
 _atom_site_fract_y
 _atom_site_fract_z
 _atom_site_occupancy
  Li  Li0  1  0.823658  0.833016  0.154572  1
  Li  Li1  1  0.679272  0.669239  0.421363  1
  Li  Li2  1  0.664354  0.675501  0.904738  1
  Li  Li3  1  0.342434  0.328022  0.653708  1
  Li  Li4  1  0.166384  0.170215  0.391438  1
  Fe  Fe5  1  0.839058  0.158367  0.634272  1
  Fe  Fe6  1  0.827704  0.494972  0.135386  1
  Fe  Fe7  1  0.686133  0.005421  0.878359  1
  Fe  Fe8  1  0.653931  0.337573  0.375749  1
  Fe  Fe9  1  0.326267  0.662868  0.630018  1
  Fe  Fe10  1  0.333096  0.002190  0.125837  1
  Fe  Fe11  1  0.166224  0.841535  0.382976  1
  Fe  Fe12  1  0.167395  0.501183  0.881325  1
  B  B13  1  0.830694  0.491035  0.631821  1
  B  B14  1  0.830705  0.163158  0.136309  1
  B  B15  1  0.666905  0.001164  0.374862  1
  B  B16  1  0.675331  0.341405  0.867908  1
  B  B17  1  0.339575  0.005301  0.624619  1
  B  B18  1  0.332042  0.675999  0.118592  1
  B  B19  1  0.162529  0.501542  0.382686  1
  B  B20  1  0.169841  0.826950  0.887416  1
  O  O21  1  0.903206  0.512304  0.347606  1
  O  O22  1  0.910851  0.827605  0.889800  1
  O  O23  1  0.809668  0.213653  0.832608  1
  O  O24  1  0.794049  0.123321  0.428377  1
  O  O25  1  0.786940  0.866589  0.357722  1
  O  O26  1  0.806038  0.465737  0.913354  1
  O  O27  1  0.700267  0.618531  0.618508  1
  O  O28  1  0.695293  0.036415  0.094668  1
  O  O29  1  0.713284  0.356665  0.596536  1
  O  O30  1  0.702925  0.290319  0.168493  1
  O  O31  1  0.592563  0.673668  0.110939  1
  O  O32  1  0.591162  0.011772  0.669211  1
  O  O33  1  0.412751  0.017294  0.333415  1
  O  O34  1  0.415619  0.350148  0.852743  1
  O  O35  1  0.303971  0.697833  0.844506  1
  O  O36  1  0.298751  0.629424  0.413405  1
  O  O37  1  0.278076  0.366381  0.392086  1
  O  O38  1  0.316210  0.945036  0.931095  1
  O  O39  1  0.185797  0.557844  0.075358  1
  O  O40  1  0.202440  0.137124  0.613338  1
  O  O41  1  0.232075  0.875075  0.587817  1
  O  O42  1  0.201865  0.804111  0.164695  1
  O  O43  1  0.090319  0.151331  0.147897  1
  O  O44  1  0.085234  0.486796  0.677440  1
