# generated using pymatgen
data_AsS
_symmetry_space_group_name_H-M   'P 1'
_cell_length_a   6.81350514
_cell_length_b   9.00854649
_cell_length_c   29.16211626
_cell_angle_alpha   92.22157925
_cell_angle_beta   68.09317224
_cell_angle_gamma   78.42099116
_symmetry_Int_Tables_number   1
_chemical_formula_structural   AsS
_chemical_formula_sum   'As24 S24'
_cell_volume   1614.14771049
_cell_formula_units_Z   24
loop_
 _symmetry_equiv_pos_site_id
 _symmetry_equiv_pos_as_xyz
  1  'x, y, z'
loop_
 _atom_site_type_symbol
 _atom_site_label
 _atom_site_symmetry_multiplicity
 _atom_site_fract_x
 _atom_site_fract_y
 _atom_site_fract_z
 _atom_site_occupancy
  As  As0  1  0.217178  0.831596  0.955122  1
  As  As1  1  0.260783  0.810000  0.142907  1
  As  As2  1  0.292657  0.260434  0.171329  1
  As  As3  1  0.124043  0.919224  0.518806  1
  As  As4  1  0.287702  0.610954  0.434911  1
  As  As5  1  0.179256  0.826117  0.680966  1
  As  As6  1  0.335370  0.320980  0.321278  1
  As  As7  1  0.566623  0.782099  0.972479  1
  As  As8  1  0.201000  0.662822  0.847753  1
  As  As9  1  0.326721  0.399027  0.794505  1
  As  As10  1  0.346738  0.340743  0.668715  1
  As  As11  1  0.585010  0.715190  0.376612  1
  As  As12  1  0.595348  0.450045  0.262205  1
  As  As13  1  0.814873  0.134581  0.181526  1
  As  As14  1  0.466386  0.261591  0.966011  1
  As  As15  1  0.530359  0.864227  0.656503  1
  As  As16  1  0.740201  0.255082  0.308043  1
  As  As17  1  0.661714  0.550961  0.559451  1
  As  As18  1  0.790997  0.192400  0.468103  1
  As  As19  1  0.835789  0.186161  0.713321  1
  As  As20  1  0.570856  0.756267  0.057566  1
  As  As21  1  0.726098  0.002454  0.944445  1
  As  As22  1  0.965985  0.311225  0.518641  1
  As  As23  1  0.668924  0.180076  0.020524  1
  S  S24  1  0.959763  0.906352  0.128335  1
  S  S25  1  0.122565  0.276056  0.025348  1
  S  S26  1  0.078829  0.990006  0.446732  1
  S  S27  1  0.142905  0.468001  0.396455  1
  S  S28  1  0.086607  0.039537  0.737724  1
  S  S29  1  0.206439  0.523962  0.737692  1
  S  S30  1  0.453983  0.124400  0.218624  1
  S  S31  1  0.493131  0.968714  0.112244  1
  S  S32  1  0.518077  0.371676  0.123600  1
  S  S33  1  0.343415  0.498084  0.607170  1
  S  S34  1  0.518836  0.116183  0.532502  1
  S  S35  1  0.489866  0.912307  0.505858  1
  S  S36  1  0.644837  0.490157  0.408330  1
  S  S37  1  0.387069  0.615113  0.898708  1
  S  S38  1  0.554820  0.891676  0.839297  1
  S  S39  1  0.429936  0.799058  0.793785  1
  S  S40  1  0.683475  0.393143  0.774249  1
  S  S41  1  0.632421  0.668324  0.295342  1
  S  S42  1  0.888289  0.046683  0.247018  1
  S  S43  1  0.777460  0.645516  0.615457  1
  S  S44  1  0.055815  0.301620  0.653362  1
  S  S45  1  0.935243  0.131932  0.572551  1
  S  S46  1  0.916403  0.329871  0.987524  1
  S  S47  1  0.290506  0.013473  0.899273  1
