# generated using pymatgen
data_Al(HO)3
_symmetry_space_group_name_H-M   'P 1'
_cell_length_a   5.14359111
_cell_length_b   8.67664691
_cell_length_c   4.78946914
_cell_angle_alpha   90.00000000
_cell_angle_beta   83.75112791
_cell_angle_gamma   90.00000000
_symmetry_Int_Tables_number   1
_chemical_formula_structural   Al(HO)3
_chemical_formula_sum   'Al4 H12 O12'
_cell_volume   212.47981329
_cell_formula_units_Z   4
loop_
 _symmetry_equiv_pos_site_id
 _symmetry_equiv_pos_as_xyz
  1  'x, y, z'
loop_
 _atom_site_type_symbol
 _atom_site_label
 _atom_site_symmetry_multiplicity
 _atom_site_fract_x
 _atom_site_fract_y
 _atom_site_fract_z
 _atom_site_occupancy
  Al  Al0  1  0.036677  0.332867  0.998172  1
  Al  Al1  1  0.463323  0.832867  0.001828  1
  Al  Al2  1  0.536677  0.167133  0.998172  1
  Al  Al3  1  0.963323  0.667133  0.001828  1
  H  H4  1  0.198784  0.800315  0.588185  1
  H  H5  1  0.156846  0.034953  0.225376  1
  H  H6  1  0.287920  0.599887  0.311047  1
  H  H7  1  0.212080  0.099887  0.688953  1
  H  H8  1  0.343154  0.534953  0.774624  1
  H  H9  1  0.301216  0.300315  0.411815  1
  H  H10  1  0.698784  0.699685  0.588185  1
  H  H11  1  0.656846  0.465047  0.225376  1
  H  H12  1  0.787920  0.900113  0.311047  1
  H  H13  1  0.712080  0.400113  0.688953  1
  H  H14  1  0.843154  0.965047  0.774624  1
  H  H15  1  0.801216  0.199685  0.411815  1
  O  O16  1  0.157369  0.509865  0.788387  1
  O  O17  1  0.161848  0.828172  0.788926  1
  O  O18  1  0.260478  0.198543  0.767057  1
  O  O19  1  0.239522  0.698543  0.232943  1
  O  O20  1  0.338152  0.328172  0.211074  1
  O  O21  1  0.342631  0.009865  0.211613  1
  O  O22  1  0.657369  0.990135  0.788387  1
  O  O23  1  0.661848  0.671828  0.788926  1
  O  O24  1  0.760478  0.301457  0.767057  1
  O  O25  1  0.739522  0.801457  0.232943  1
  O  O26  1  0.838152  0.171828  0.211074  1
  O  O27  1  0.842631  0.490135  0.211613  1
