# generated using pymatgen
data_Li2Mn(CoO3)2
_symmetry_space_group_name_H-M   'P 1'
_cell_length_a   6.72029182
_cell_length_b   5.73197067
_cell_length_c   5.95501687
_cell_angle_alpha   91.25672754
_cell_angle_beta   103.86417164
_cell_angle_gamma   78.16835955
_symmetry_Int_Tables_number   1
_chemical_formula_structural   Li2Mn(CoO3)2
_chemical_formula_sum   'Li4 Mn2 Co4 O12'
_cell_volume   217.88649852
_cell_formula_units_Z   2
loop_
 _symmetry_equiv_pos_site_id
 _symmetry_equiv_pos_as_xyz
  1  'x, y, z'
loop_
 _atom_site_type_symbol
 _atom_site_label
 _atom_site_symmetry_multiplicity
 _atom_site_fract_x
 _atom_site_fract_y
 _atom_site_fract_z
 _atom_site_occupancy
  Li  Li0  1  0.982488  0.482424  0.489430  1
  Li  Li1  1  0.333333  0.166667  0.833333  1
  Li  Li2  1  0.333333  0.666667  0.833333  1
  Li  Li3  1  0.684179  0.850910  0.177237  1
  Mn  Mn4  1  0.333333  0.166667  0.333333  1
  Mn  Mn5  1  0.333333  0.666667  0.333333  1
  Co  Co6  1  0.998348  0.498025  0.003275  1
  Co  Co7  1  0.990957  0.997729  0.991998  1
  Co  Co8  1  0.675709  0.335604  0.674669  1
  Co  Co9  1  0.668319  0.835308  0.663392  1
  O  O10  1  0.029706  0.245405  0.225079  1
  O  O11  1  0.024209  0.727794  0.236022  1
  O  O12  1  0.333634  0.419374  0.555787  1
  O  O13  1  0.329380  0.921019  0.550047  1
  O  O14  1  0.337287  0.412314  0.116619  1
  O  O15  1  0.676163  0.069253  0.894856  1
  O  O16  1  0.333033  0.913959  0.110879  1
  O  O17  1  0.636961  0.087928  0.441588  1
  O  O18  1  0.660590  0.595610  0.878339  1
  O  O19  1  0.642458  0.605539  0.430645  1
  O  O20  1  0.990503  0.264080  0.771811  1
  O  O21  1  0.006077  0.737723  0.788328  1
