# generated using pymatgen
data_H7C3N6Cl
_symmetry_space_group_name_H-M   'P 1'
_cell_length_a   9.35028682
_cell_length_b   10.67261475
_cell_length_c   10.67261475
_cell_angle_alpha   108.46106699
_cell_angle_beta   65.10782078
_cell_angle_gamma   65.10782078
_symmetry_Int_Tables_number   1
_chemical_formula_structural   H7C3N6Cl
_chemical_formula_sum   'H28 C12 N24 Cl4'
_cell_volume   700.97955693
_cell_formula_units_Z   4
loop_
 _symmetry_equiv_pos_site_id
 _symmetry_equiv_pos_as_xyz
  1  'x, y, z'
loop_
 _atom_site_type_symbol
 _atom_site_label
 _atom_site_symmetry_multiplicity
 _atom_site_fract_x
 _atom_site_fract_y
 _atom_site_fract_z
 _atom_site_occupancy
  H  H0  1  0.693174  0.324704  0.147292  1
  H  H1  1  0.693174  0.147292  0.324704  1
  H  H2  1  0.198032  0.335800  0.144827  1
  H  H3  1  0.198032  0.144827  0.335800  1
  H  H4  1  0.744111  0.433432  0.261215  1
  H  H5  1  0.744111  0.261215  0.433432  1
  H  H6  1  0.249714  0.485767  0.304360  1
  H  H7  1  0.249714  0.304360  0.485767  1
  H  H8  1  0.759867  0.868397  0.063434  1
  H  H9  1  0.759867  0.063434  0.868397  1
  H  H10  1  0.262452  0.642067  0.291863  1
  H  H11  1  0.262452  0.291863  0.642067  1
  H  H12  1  0.234509  0.781356  0.150906  1
  H  H13  1  0.234509  0.150906  0.781356  1
  H  H14  1  0.765491  0.849094  0.218644  1
  H  H15  1  0.765491  0.218644  0.849094  1
  H  H16  1  0.737548  0.708137  0.357933  1
  H  H17  1  0.737548  0.357933  0.708137  1
  H  H18  1  0.240133  0.131603  0.936566  1
  H  H19  1  0.240133  0.936566  0.131603  1
  H  H20  1  0.750286  0.695640  0.514233  1
  H  H21  1  0.750286  0.514233  0.695640  1
  H  H22  1  0.255889  0.566568  0.738785  1
  H  H23  1  0.255889  0.738785  0.566568  1
  H  H24  1  0.801968  0.855173  0.664200  1
  H  H25  1  0.801968  0.664200  0.855173  1
  H  H26  1  0.306826  0.852708  0.675296  1
  H  H27  1  0.306826  0.675296  0.852708  1
  C  C28  1  0.731003  0.484006  0.096211  1
  C  C29  1  0.731003  0.096211  0.484006  1
  C  C30  1  0.255908  0.499133  0.116122  1
  C  C31  1  0.255908  0.116122  0.499133  1
  C  C32  1  0.762495  0.676453  0.067394  1
  C  C33  1  0.762495  0.067394  0.676453  1
  C  C34  1  0.237505  0.932606  0.323547  1
  C  C35  1  0.237505  0.323547  0.932606  1
  C  C36  1  0.744092  0.883878  0.500867  1
  C  C37  1  0.744092  0.500867  0.883878  1
  C  C38  1  0.268997  0.515994  0.903789  1
  C  C39  1  0.268997  0.903789  0.515994  1
  N  N40  1  0.240718  0.373039  0.066363  1
  N  N41  1  0.240718  0.066363  0.373039  1
  N  N42  1  0.712212  0.414514  0.180002  1
  N  N43  1  0.712212  0.180002  0.414514  1
  N  N44  1  0.272082  0.571446  0.035326  1
  N  N45  1  0.272082  0.035326  0.571446  1
  N  N46  1  0.749371  0.605954  0.150706  1
  N  N47  1  0.749371  0.150706  0.605954  1
  N  N48  1  0.251431  0.547927  0.249583  1
  N  N49  1  0.251431  0.249583  0.547927  1
  N  N50  1  0.777780  0.798479  0.111076  1
  N  N51  1  0.777780  0.111076  0.798479  1
  N  N52  1  0.222220  0.888924  0.201521  1
  N  N53  1  0.222220  0.201521  0.888924  1
  N  N54  1  0.748569  0.750417  0.452073  1
  N  N55  1  0.748569  0.452073  0.750417  1
  N  N56  1  0.250629  0.849294  0.394046  1
  N  N57  1  0.250629  0.394046  0.849294  1
  N  N58  1  0.727918  0.964674  0.428554  1
  N  N59  1  0.727918  0.428554  0.964674  1
  N  N60  1  0.287788  0.819998  0.585486  1
  N  N61  1  0.287788  0.585486  0.819998  1
  N  N62  1  0.759282  0.933637  0.626961  1
  N  N63  1  0.759282  0.626961  0.933637  1
  Cl  Cl64  1  0.584434  0.160990  0.160990  1
  Cl  Cl65  1  0.967792  0.341860  0.341860  1
  Cl  Cl66  1  0.032208  0.658140  0.658140  1
  Cl  Cl67  1  0.415566  0.839010  0.839010  1
