# generated using pymatgen
data_LiBiP2O7
_symmetry_space_group_name_H-M   'P 1'
_cell_length_a   8.07028233
_cell_length_b   10.36410086
_cell_length_c   7.57068827
_cell_angle_alpha   90.00000000
_cell_angle_beta   89.33143685
_cell_angle_gamma   90.00000000
_symmetry_Int_Tables_number   1
_chemical_formula_structural   LiBiP2O7
_chemical_formula_sum   'Li4 Bi4 P8 O28'
_cell_volume   633.17849473
_cell_formula_units_Z   4
loop_
 _symmetry_equiv_pos_site_id
 _symmetry_equiv_pos_as_xyz
  1  'x, y, z'
loop_
 _atom_site_type_symbol
 _atom_site_label
 _atom_site_symmetry_multiplicity
 _atom_site_fract_x
 _atom_site_fract_y
 _atom_site_fract_z
 _atom_site_occupancy
  Li  Li0  1  0.033049  0.603259  0.691999  1
  Li  Li1  1  0.033049  0.896741  0.191999  1
  Li  Li2  1  0.966951  0.103259  0.808001  1
  Li  Li3  1  0.966951  0.396741  0.308001  1
  Bi  Bi4  1  0.366251  0.354293  0.612125  1
  Bi  Bi5  1  0.366251  0.145707  0.112125  1
  Bi  Bi6  1  0.633749  0.854293  0.887875  1
  Bi  Bi7  1  0.633749  0.645707  0.387875  1
  P  P8  1  0.201841  0.406078  0.981970  1
  P  P9  1  0.201841  0.093922  0.481970  1
  P  P10  1  0.298067  0.960634  0.803911  1
  P  P11  1  0.298067  0.539366  0.303911  1
  P  P12  1  0.701933  0.460634  0.696089  1
  P  P13  1  0.701933  0.039366  0.196089  1
  P  P14  1  0.798159  0.906078  0.518030  1
  P  P15  1  0.798159  0.593922  0.018030  1
  O  O16  1  0.096154  0.185837  0.593379  1
  O  O17  1  0.096154  0.314163  0.093379  1
  O  O18  1  0.139594  0.459355  0.807958  1
  O  O19  1  0.139594  0.040645  0.307958  1
  O  O20  1  0.163316  0.022900  0.922092  1
  O  O21  1  0.163316  0.477100  0.422092  1
  O  O22  1  0.242531  0.967368  0.600885  1
  O  O23  1  0.242531  0.532632  0.100885  1
  O  O24  1  0.342395  0.821007  0.843303  1
  O  O25  1  0.342395  0.678993  0.343303  1
  O  O26  1  0.371109  0.336117  0.937762  1
  O  O27  1  0.371109  0.163883  0.437762  1
  O  O28  1  0.458807  0.045546  0.827639  1
  O  O29  1  0.458807  0.454454  0.327639  1
  O  O30  1  0.541193  0.545546  0.672361  1
  O  O31  1  0.541193  0.954454  0.172361  1
  O  O32  1  0.628891  0.836117  0.562238  1
  O  O33  1  0.628891  0.663883  0.062238  1
  O  O34  1  0.657605  0.321007  0.656697  1
  O  O35  1  0.657605  0.178993  0.156696  1
  O  O36  1  0.757469  0.467368  0.899115  1
  O  O37  1  0.757469  0.032632  0.399115  1
  O  O38  1  0.836684  0.522900  0.577908  1
  O  O39  1  0.836684  0.977100  0.077908  1
  O  O40  1  0.860406  0.959355  0.692042  1
  O  O41  1  0.860406  0.540645  0.192042  1
  O  O42  1  0.903846  0.685837  0.906621  1
  O  O43  1  0.903846  0.814163  0.406621  1
