# generated using pymatgen
data_Li3NbFe3O8
_symmetry_space_group_name_H-M   'P 1'
_cell_length_a   10.52161446
_cell_length_b   10.53606441
_cell_length_c   14.87353295
_cell_angle_alpha   19.60335633
_cell_angle_beta   19.60242055
_cell_angle_gamma   33.79945456
_symmetry_Int_Tables_number   1
_chemical_formula_structural   Li3NbFe3O8
_chemical_formula_sum   'Li3 Nb1 Fe3 O8'
_cell_volume   160.56383308
_cell_formula_units_Z   1
loop_
 _symmetry_equiv_pos_site_id
 _symmetry_equiv_pos_as_xyz
  1  'x, y, z'
loop_
 _atom_site_type_symbol
 _atom_site_label
 _atom_site_symmetry_multiplicity
 _atom_site_fract_x
 _atom_site_fract_y
 _atom_site_fract_z
 _atom_site_occupancy
  Li  Li0  1  0.999995  0.500001  0.500001  1
  Li  Li1  1  0.499996  -0.000001  0.500002  1
  Li  Li2  1  0.499997  0.500001  0.499999  1
  Nb  Nb3  1  0.000010  0.000007  -0.000010  1
  Fe  Fe4  1  0.000046  0.500018  -0.000025  1
  Fe  Fe5  1  0.500000  -0.000002  -0.000000  1
  Fe  Fe6  1  0.499982  0.499973  0.000026  1
  O  O7  1  0.000244  0.972177  0.279082  1
  O  O8  1  0.999893  0.521048  0.243983  1
  O  O9  1  0.533071  0.016152  0.226025  1
  O  O10  1  0.999749  0.027816  0.720924  1
  O  O11  1  0.466863  0.483312  0.292191  1
  O  O12  1  0.000101  0.478954  0.756017  1
  O  O13  1  0.466925  0.983855  0.773972  1
  O  O14  1  0.533126  0.516689  0.707813  1
