# generated using pymatgen
data_Li3Mn2(SiO4)2
_symmetry_space_group_name_H-M   'P 1'
_cell_length_a   10.90347131
_cell_length_b   4.97075754
_cell_length_c   6.63305167
_cell_angle_alpha   90.00000000
_cell_angle_beta   91.70071546
_cell_angle_gamma   90.00000000
_symmetry_Int_Tables_number   1
_chemical_formula_structural   Li3Mn2(SiO4)2
_chemical_formula_sum   'Li6 Mn4 Si4 O16'
_cell_volume   359.34316799
_cell_formula_units_Z   2
loop_
 _symmetry_equiv_pos_site_id
 _symmetry_equiv_pos_as_xyz
  1  'x, y, z'
loop_
 _atom_site_type_symbol
 _atom_site_label
 _atom_site_symmetry_multiplicity
 _atom_site_fract_x
 _atom_site_fract_y
 _atom_site_fract_z
 _atom_site_occupancy
  Li  Li0  1  0.096151  0.707715  0.870802  1
  Li  Li1  1  0.329136  0.703987  0.615529  1
  Li  Li2  1  0.403117  0.200368  0.373126  1
  Li  Li3  1  0.596151  0.792285  0.870802  1
  Li  Li4  1  0.829136  0.796013  0.615529  1
  Li  Li5  1  0.903117  0.299632  0.373126  1
  Mn  Mn6  1  0.090551  0.702205  0.351568  1
  Mn  Mn7  1  0.417076  0.208692  0.876939  1
  Mn  Mn8  1  0.590551  0.797795  0.351568  1
  Mn  Mn9  1  0.917076  0.291308  0.876939  1
  Si  Si10  1  0.162183  0.195143  0.615319  1
  Si  Si11  1  0.334444  0.686142  0.120517  1
  Si  Si12  1  0.662183  0.304857  0.615319  1
  Si  Si13  1  0.834445  0.813858  0.120517  1
  O  O14  1  0.088693  0.301020  0.411375  1
  O  O15  1  0.087726  0.311469  0.808819  1
  O  O16  1  0.160866  0.862427  0.617220  1
  O  O17  1  0.191492  0.770228  0.111783  1
  O  O18  1  0.307511  0.299963  0.626410  1
  O  O19  1  0.351302  0.354902  0.117322  1
  O  O20  1  0.401543  0.790748  0.334049  1
  O  O21  1  0.406066  0.798094  0.915911  1
  O  O22  1  0.588693  0.198980  0.411375  1
  O  O23  1  0.587726  0.188531  0.808819  1
  O  O24  1  0.660866  0.637573  0.617220  1
  O  O25  1  0.691492  0.729772  0.111783  1
  O  O26  1  0.807511  0.200037  0.626410  1
  O  O27  1  0.851302  0.145098  0.117322  1
  O  O28  1  0.901543  0.709252  0.334049  1
  O  O29  1  0.906066  0.701906  0.915911  1
