# generated using pymatgen
data_Li3Ti(PO4)2
_symmetry_space_group_name_H-M   'P 1'
_cell_length_a   4.98025510
_cell_length_b   8.92642885
_cell_length_c   6.44454189
_cell_angle_alpha   90.00000000
_cell_angle_beta   94.71533693
_cell_angle_gamma   90.00000000
_symmetry_Int_Tables_number   1
_chemical_formula_structural   Li3Ti(PO4)2
_chemical_formula_sum   'Li6 Ti2 P4 O16'
_cell_volume   285.52818803
_cell_formula_units_Z   2
loop_
 _symmetry_equiv_pos_site_id
 _symmetry_equiv_pos_as_xyz
  1  'x, y, z'
loop_
 _atom_site_type_symbol
 _atom_site_label
 _atom_site_symmetry_multiplicity
 _atom_site_fract_x
 _atom_site_fract_y
 _atom_site_fract_z
 _atom_site_occupancy
  Li  Li0  1  0.015674  0.142429  0.696463  1
  Li  Li1  1  0.000000  0.500000  0.000000  1
  Li  Li2  1  0.484326  0.642428  0.803537  1
  Li  Li3  1  0.500000  0.000000  0.500000  1
  Li  Li4  1  0.515674  0.357571  0.196463  1
  Li  Li5  1  0.984326  0.857572  0.303537  1
  Ti  Ti6  1  0.000000  0.500000  0.500000  1
  Ti  Ti7  1  0.500000  0.000000  0.000000  1
  P  P8  1  0.027414  0.180941  0.222591  1
  P  P9  1  0.472586  0.680941  0.277409  1
  P  P10  1  0.527414  0.319059  0.722591  1
  P  P11  1  0.972586  0.819059  0.777409  1
  O  O12  1  0.069185  0.354687  0.249000  1
  O  O13  1  0.153748  0.098774  0.412679  1
  O  O14  1  0.218172  0.356680  0.692868  1
  O  O15  1  0.162403  0.134073  0.022249  1
  O  O16  1  0.281828  0.856680  0.807132  1
  O  O17  1  0.337597  0.634073  0.477751  1
  O  O18  1  0.346252  0.598774  0.087321  1
  O  O19  1  0.430815  0.854687  0.251000  1
  O  O20  1  0.569185  0.145313  0.749000  1
  O  O21  1  0.653748  0.401226  0.912679  1
  O  O22  1  0.662403  0.365927  0.522249  1
  O  O23  1  0.718172  0.143320  0.192868  1
  O  O24  1  0.837597  0.865927  0.977751  1
  O  O25  1  0.781828  0.643320  0.307132  1
  O  O26  1  0.846252  0.901226  0.587321  1
  O  O27  1  0.930815  0.645313  0.751000  1
