# generated using pymatgen
data_Zr3N2O3
_symmetry_space_group_name_H-M   'P 1'
_cell_length_a   4.01016232
_cell_length_b   5.77735651
_cell_length_c   10.89214286
_cell_angle_alpha   90.00000000
_cell_angle_beta   90.00000000
_cell_angle_gamma   69.69248468
_symmetry_Int_Tables_number   1
_chemical_formula_structural   Zr3N2O3
_chemical_formula_sum   'Zr6 N4 O6'
_cell_volume   236.66540817
_cell_formula_units_Z   2
loop_
 _symmetry_equiv_pos_site_id
 _symmetry_equiv_pos_as_xyz
  1  'x, y, z'
loop_
 _atom_site_type_symbol
 _atom_site_label
 _atom_site_symmetry_multiplicity
 _atom_site_fract_x
 _atom_site_fract_y
 _atom_site_fract_z
 _atom_site_occupancy
  Zr  Zr0  1  0.136126  0.727747  0.939814  1
  Zr  Zr1  1  0.135538  0.728923  0.553806  1
  Zr  Zr2  1  0.186220  0.627559  0.248898  1
  Zr  Zr3  1  0.813780  0.372441  0.748898  1
  Zr  Zr4  1  0.864462  0.271077  0.053806  1
  Zr  Zr5  1  0.863874  0.272253  0.439814  1
  N  N6  1  0.046999  0.906004  0.385197  1
  N  N7  1  0.705326  0.589346  0.575625  1
  N  N8  1  0.294674  0.410654  0.075625  1
  N  N9  1  0.953001  0.093996  0.885197  1
  O  O10  1  0.044841  0.910318  0.117022  1
  O  O11  1  0.692756  0.614489  0.919671  1
  O  O12  1  0.756456  0.487090  0.259967  1
  O  O13  1  0.243544  0.512910  0.759967  1
  O  O14  1  0.307244  0.385511  0.419671  1
  O  O15  1  0.955159  0.089682  0.617022  1
