# generated using pymatgen
data_InH12S2NO12
_symmetry_space_group_name_H-M   'P 1'
_cell_length_a   9.26740283
_cell_length_b   10.71385003
_cell_length_c   10.95729525
_cell_angle_alpha   90.00000000
_cell_angle_beta   90.00000000
_cell_angle_gamma   102.12543987
_symmetry_Int_Tables_number   1
_chemical_formula_structural   InH12S2NO12
_chemical_formula_sum   'In4 H48 S8 N4 O48'
_cell_volume   1063.67308798
_cell_formula_units_Z   4
loop_
 _symmetry_equiv_pos_site_id
 _symmetry_equiv_pos_as_xyz
  1  'x, y, z'
loop_
 _atom_site_type_symbol
 _atom_site_label
 _atom_site_symmetry_multiplicity
 _atom_site_fract_x
 _atom_site_fract_y
 _atom_site_fract_z
 _atom_site_occupancy
  In  In0  1  0.153442  0.289115  0.868282  1
  In  In1  1  0.348143  0.709132  0.135687  1
  In  In2  1  0.651857  0.290868  0.635687  1
  In  In3  1  0.846558  0.710885  0.368282  1
  H  H4  1  0.071939  0.831772  0.524491  1
  H  H5  1  0.075898  0.912118  0.812286  1
  H  H6  1  0.071993  0.829349  0.927200  1
  H  H7  1  0.142798  0.589628  0.317751  1
  H  H8  1  0.201924  0.633823  0.689617  1
  H  H9  1  0.059132  0.093044  0.038054  1
  H  H10  1  0.228937  0.750539  0.791921  1
  H  H11  1  0.128797  0.267949  0.299427  1
  H  H12  1  0.180622  0.369111  0.185130  1
  H  H13  1  0.288335  0.912774  0.594492  1
  H  H14  1  0.188490  0.398184  0.629248  1
  H  H15  1  0.308119  0.871273  0.460260  1
  H  H16  1  0.307526  0.606636  0.372741  1
  H  H17  1  0.308782  0.623210  0.812053  1
  H  H18  1  0.186049  0.158473  0.537332  1
  H  H19  1  0.205498  0.082016  0.419355  1
  H  H20  1  0.374498  0.728099  0.702941  1
  H  H21  1  0.275652  0.251211  0.210514  1
  H  H22  1  0.293633  0.373614  0.306580  1
  H  H23  1  0.441198  0.908691  0.969532  1
  H  H24  1  0.354002  0.417782  0.683016  1
  H  H25  1  0.561197  0.904175  0.699442  1
  H  H26  1  0.570157  0.829745  0.980270  1
  H  H27  1  0.563048  0.829372  0.579700  1
  H  H28  1  0.436952  0.170628  0.079700  1
  H  H29  1  0.429843  0.170255  0.480270  1
  H  H30  1  0.438803  0.095825  0.199442  1
  H  H31  1  0.645998  0.582218  0.183016  1
  H  H32  1  0.558802  0.091309  0.469532  1
  H  H33  1  0.706367  0.626386  0.806580  1
  H  H34  1  0.724348  0.748789  0.710514  1
  H  H35  1  0.625502  0.271901  0.202941  1
  H  H36  1  0.794502  0.917984  0.919355  1
  H  H37  1  0.813951  0.841527  0.037332  1
  H  H38  1  0.691218  0.376790  0.312053  1
  H  H39  1  0.692474  0.393364  0.872741  1
  H  H40  1  0.691881  0.128727  0.960260  1
  H  H41  1  0.811510  0.601816  0.129248  1
  H  H42  1  0.711665  0.087226  0.094492  1
  H  H43  1  0.819378  0.630889  0.685130  1
  H  H44  1  0.871203  0.732051  0.799427  1
  H  H45  1  0.771063  0.249461  0.291921  1
  H  H46  1  0.940868  0.906956  0.538054  1
  H  H47  1  0.798076  0.366177  0.189617  1
  H  H48  1  0.857202  0.410372  0.817751  1
  H  H49  1  0.928007  0.170651  0.427200  1
  H  H50  1  0.924102  0.087882  0.312286  1
  H  H51  1  0.928061  0.168228  0.024491  1
  S  S52  1  0.112806  0.897041  0.200568  1
  S  S53  1  0.031870  0.527209  0.017232  1
  S  S54  1  0.470160  0.472597  0.985334  1
  S  S55  1  0.389621  0.100732  0.807510  1
  S  S56  1  0.610379  0.899268  0.307510  1
  S  S57  1  0.529840  0.527403  0.485334  1
  S  S58  1  0.968131  0.472791  0.517232  1
  S  S59  1  0.887194  0.102959  0.700568  1
  N  N60  1  0.278601  0.684074  0.748666  1
  N  N61  1  0.219622  0.315255  0.250582  1
  N  N62  1  0.780378  0.684745  0.750582  1
  N  N63  1  0.721399  0.315926  0.248666  1
  O  O64  1  0.047125  0.928499  0.084032  1
  O  O65  1  0.031241  0.767066  0.243590  1
  O  O66  1  0.112281  0.994383  0.293730  1
  O  O67  1  0.072266  0.823752  0.837954  1
  O  O68  1  0.025849  0.452241  0.129681  1
  O  O69  1  0.030629  0.441602  0.905451  1
  O  O70  1  0.092667  0.408578  0.504157  1
  O  O71  1  0.040951  0.180430  0.025728  1
  O  O72  1  0.175507  0.626170  0.009182  1
  O  O73  1  0.241986  0.852591  0.530495  1
  O  O74  1  0.270092  0.883069  0.178040  1
  O  O75  1  0.248405  0.600149  0.295236  1
  O  O76  1  0.248255  0.400597  0.706482  1
  O  O77  1  0.256129  0.152369  0.472137  1
  O  O78  1  0.231564  0.113205  0.829970  1
  O  O79  1  0.326515  0.373316  0.993873  1
  O  O80  1  0.458401  0.820742  0.980645  1
  O  O81  1  0.404653  0.590773  0.499251  1
  O  O82  1  0.541798  0.926638  0.424117  1
  O  O83  1  0.471352  0.558315  0.097457  1
  O  O84  1  0.532583  0.770515  0.260117  1
  O  O85  1  0.475374  0.546706  0.872744  1
  O  O86  1  0.610057  0.000722  0.217846  1
  O  O87  1  0.434142  0.180874  0.168627  1
  O  O88  1  0.565858  0.819126  0.668627  1
  O  O89  1  0.389943  0.999278  0.717846  1
  O  O90  1  0.524626  0.453294  0.372744  1
  O  O91  1  0.467417  0.229485  0.760117  1
  O  O92  1  0.528648  0.441685  0.597457  1
  O  O93  1  0.458202  0.073362  0.924117  1
  O  O94  1  0.595347  0.409227  0.999251  1
  O  O95  1  0.541599  0.179258  0.480645  1
  O  O96  1  0.673485  0.626684  0.493873  1
  O  O97  1  0.768436  0.886795  0.329970  1
  O  O98  1  0.743871  0.847631  0.972137  1
  O  O99  1  0.751745  0.599403  0.206482  1
  O  O100  1  0.751595  0.399851  0.795236  1
  O  O101  1  0.729908  0.116931  0.678040  1
  O  O102  1  0.758014  0.147409  0.030495  1
  O  O103  1  0.824493  0.373830  0.509182  1
  O  O104  1  0.959049  0.819570  0.525728  1
  O  O105  1  0.907333  0.591422  0.004157  1
  O  O106  1  0.969371  0.558398  0.405451  1
  O  O107  1  0.974151  0.547759  0.629681  1
  O  O108  1  0.927734  0.176248  0.337954  1
  O  O109  1  0.887719  0.005617  0.793730  1
  O  O110  1  0.968759  0.232934  0.743590  1
  O  O111  1  0.952875  0.071501  0.584032  1
