# generated using pymatgen
data_TeO3
_symmetry_space_group_name_H-M   'P 1'
_cell_length_a   5.21889768
_cell_length_b   4.92603774
_cell_length_c   8.46529654
_cell_angle_alpha   90.00000000
_cell_angle_beta   90.00000000
_cell_angle_gamma   90.00000000
_symmetry_Int_Tables_number   1
_chemical_formula_structural   TeO3
_chemical_formula_sum   'Te4 O12'
_cell_volume   217.62996548
_cell_formula_units_Z   4
loop_
 _symmetry_equiv_pos_site_id
 _symmetry_equiv_pos_as_xyz
  1  'x, y, z'
loop_
 _atom_site_type_symbol
 _atom_site_label
 _atom_site_symmetry_multiplicity
 _atom_site_fract_x
 _atom_site_fract_y
 _atom_site_fract_z
 _atom_site_occupancy
  Te  Te0  1  0.000000  0.000000  0.099565  1
  Te  Te1  1  0.000000  0.500000  0.414504  1
  Te  Te2  1  0.500000  0.000000  0.914504  1
  Te  Te3  1  0.500000  0.500000  0.599565  1
  O  O4  1  0.138578  0.249887  0.257083  1
  O  O5  1  0.185252  0.287328  0.580854  1
  O  O6  1  0.185179  0.212532  0.933148  1
  O  O7  1  0.314821  0.712532  0.433148  1
  O  O8  1  0.314748  0.787328  0.080854  1
  O  O9  1  0.361422  0.749887  0.757083  1
  O  O10  1  0.638578  0.250113  0.757083  1
  O  O11  1  0.685252  0.212672  0.080854  1
  O  O12  1  0.685179  0.287468  0.433148  1
  O  O13  1  0.814821  0.787468  0.933148  1
  O  O14  1  0.814748  0.712672  0.580854  1
  O  O15  1  0.861422  0.750113  0.257083  1
