# generated using pymatgen
data_Na2NiPCO7
_symmetry_space_group_name_H-M   'P 1'
_cell_length_a   10.09848337
_cell_length_b   10.32168656
_cell_length_c   6.66640146
_cell_angle_alpha   90.48000217
_cell_angle_beta   90.24369372
_cell_angle_gamma   60.59041315
_symmetry_Int_Tables_number   1
_chemical_formula_structural   Na2NiPCO7
_chemical_formula_sum   'Na8 Ni4 P4 C4 O28'
_cell_volume   605.29465203
_cell_formula_units_Z   4
loop_
 _symmetry_equiv_pos_site_id
 _symmetry_equiv_pos_as_xyz
  1  'x, y, z'
loop_
 _atom_site_type_symbol
 _atom_site_label
 _atom_site_symmetry_multiplicity
 _atom_site_fract_x
 _atom_site_fract_y
 _atom_site_fract_z
 _atom_site_occupancy
  Na  Na0  1  0.007215  0.259881  0.481774  1
  Na  Na1  1  0.005753  0.260603  0.017044  1
  Na  Na2  1  0.488734  0.253606  0.989850  1
  Na  Na3  1  0.490705  0.250125  0.513099  1
  Na  Na4  1  0.856201  0.055333  0.736357  1
  Na  Na5  1  0.505712  0.749555  0.010486  1
  Na  Na6  1  0.505165  0.749649  0.487833  1
  Na  Na7  1  0.999656  0.734284  0.979766  1
  Ni  Ni8  1  0.283275  0.064121  0.750738  1
  Ni  Ni9  1  0.214992  0.439119  0.255713  1
  Ni  Ni10  1  0.786273  0.561176  0.749661  1
  Ni  Ni11  1  0.719549  0.935625  0.253676  1
  P  P12  1  0.350415  0.070078  0.249955  1
  P  P13  1  0.150679  0.430103  0.751110  1
  P  P14  1  0.850261  0.573118  0.250967  1
  P  P15  1  0.645902  0.933858  0.749935  1
  C  C16  1  0.821191  0.109884  0.247381  1
  C  C17  1  0.320377  0.607905  0.250700  1
  C  C18  1  0.680434  0.387765  0.749807  1
  C  C19  1  0.180339  0.891889  0.752467  1
  O  O20  1  0.097632  0.037590  0.748335  1
  O  O21  1  0.266646  0.057108  0.063677  1
  O  O22  1  0.267643  0.058581  0.436730  1
  O  O23  1  0.143127  0.282995  0.752566  1
  O  O24  1  0.019052  0.441334  0.250345  1
  O  O25  1  0.476508  0.065302  0.757450  1
  O  O26  1  0.355482  0.218105  0.249697  1
  O  O27  1  0.233416  0.443834  0.938587  1
  O  O28  1  0.236075  0.436670  0.565006  1
  O  O29  1  0.675730  0.154376  0.250338  1
  O  O30  1  0.176022  0.652958  0.249656  1
  O  O31  1  0.403254  0.463636  0.254776  1
  O  O32  1  0.626139  0.299984  0.751945  1
  O  O33  1  0.118894  0.812574  0.759749  1
  O  O34  1  0.873830  0.197846  0.247702  1
  O  O35  1  0.375711  0.693141  0.248018  1
  O  O36  1  0.598703  0.530905  0.749344  1
  O  O37  1  0.827087  0.336482  0.747789  1
  O  O38  1  0.325558  0.844227  0.749034  1
  O  O39  1  0.769347  0.553738  0.064637  1
  O  O40  1  0.768739  0.558244  0.437018  1
  O  O41  1  0.642931  0.786415  0.748470  1
  O  O42  1  0.518848  0.939367  0.248878  1
  O  O43  1  0.982613  0.557755  0.755889  1
  O  O44  1  0.854242  0.719726  0.243940  1
  O  O45  1  0.718935  0.960044  0.563240  1
  O  O46  1  0.732314  0.949376  0.932966  1
  O  O47  1  0.905505  0.966883  0.246052  1
