# generated using pymatgen
data_Li9V3P8O29
_symmetry_space_group_name_H-M   'P 1'
_cell_length_a   9.92534831
_cell_length_b   9.92451221
_cell_length_c   13.77357969
_cell_angle_alpha   89.81092965
_cell_angle_beta   89.99617135
_cell_angle_gamma   59.94622373
_symmetry_Int_Tables_number   1
_chemical_formula_structural   Li9V3P8O29
_chemical_formula_sum   'Li18 V6 P16 O58'
_cell_volume   1174.33957832
_cell_formula_units_Z   2
loop_
 _symmetry_equiv_pos_site_id
 _symmetry_equiv_pos_as_xyz
  1  'x, y, z'
loop_
 _atom_site_type_symbol
 _atom_site_label
 _atom_site_symmetry_multiplicity
 _atom_site_fract_x
 _atom_site_fract_y
 _atom_site_fract_z
 _atom_site_occupancy
  Li  Li0  1  0.904145  0.765919  0.061787  1
  Li  Li1  1  0.761408  0.909462  0.573418  1
  Li  Li2  1  0.908292  0.318349  0.563979  1
  Li  Li3  1  0.668506  0.664400  0.377440  1
  Li  Li4  1  0.667899  0.695353  0.880899  1
  Li  Li5  1  0.771098  0.329378  0.060921  1
  Li  Li6  1  0.329329  0.904203  0.064680  1
  Li  Li7  1  0.653056  0.243464  0.434435  1
  Li  Li8  1  0.668762  0.094754  0.925010  1
  Li  Li9  1  0.230758  0.665757  0.939885  1
  Li  Li10  1  0.562420  0.009993  0.756431  1
  Li  Li11  1  0.366744  0.302407  0.621785  1
  Li  Li12  1  0.332234  0.333313  0.120179  1
  Li  Li13  1  0.099737  0.664398  0.437390  1
  Li  Li14  1  0.231713  0.102208  0.435430  1
  Li  Li15  1  0.102675  0.230504  0.933460  1
  Li  Li16  1  0.994560  0.002801  0.986767  1
  Li  Li17  1  0.924322  0.039090  0.503902  1
  V  V18  1  0.569914  0.430950  0.245893  1
  V  V19  1  0.432375  0.560995  0.761199  1
  V  V20  1  0.365543  0.753302  0.562609  1
  V  V21  1  0.436759  0.000679  0.250595  1
  V  V22  1  0.998717  0.565293  0.250736  1
  V  V23  1  0.004850  0.432211  0.747108  1
  P  P24  1  0.912046  0.774408  0.842042  1
  P  P25  1  0.775031  0.912013  0.343986  1
  P  P26  1  0.910357  0.314477  0.345754  1
  P  P27  1  0.667343  0.666275  0.123260  1
  P  P28  1  0.660717  0.665504  0.620879  1
  P  P29  1  0.777379  0.312674  0.843084  1
  P  P30  1  0.680963  0.229267  0.654755  1
  P  P31  1  0.320442  0.905955  0.849612  1
  P  P32  1  0.685883  0.087525  0.152718  1
  P  P33  1  0.329989  0.765332  0.342299  1
  P  P34  1  0.226149  0.682504  0.158564  1
  P  P35  1  0.333559  0.334941  0.377624  1
  P  P36  1  0.327339  0.337716  0.880302  1
  P  P37  1  0.089072  0.687816  0.653007  1
  P  P38  1  0.236757  0.087176  0.661584  1
  P  P39  1  0.090530  0.227189  0.156798  1
  O  O40  1  0.997856  0.782976  0.564472  1
  O  O41  1  0.921769  0.750778  0.346797  1
  O  O42  1  0.775871  0.994449  0.064797  1
  O  O43  1  0.754093  0.917823  0.842096  1
  O  O44  1  0.895706  0.627774  0.825322  1
  O  O45  1  0.811987  0.673450  0.163350  1
  O  O46  1  0.889068  0.479349  0.337969  1
  O  O47  1  0.998368  0.231414  0.067815  1
  O  O48  1  0.921739  0.330972  0.842409  1
  O  O49  1  0.681803  0.802373  0.639686  1
  O  O50  1  0.630799  0.892450  0.336649  1
  O  O51  1  0.809008  0.508215  0.640204  1
  O  O52  1  0.666766  0.666967  0.014054  1
  O  O53  1  0.585635  0.675361  0.515462  1
  O  O54  1  0.678079  0.511139  0.160586  1
  O  O55  1  0.480312  0.887273  0.842542  1
  O  O56  1  0.516433  0.810341  0.164131  1
  O  O57  1  0.750907  0.324957  0.344325  1
  O  O58  1  0.788908  0.215953  0.746680  1
  O  O59  1  0.767648  0.236383  0.563692  1
  O  O60  1  0.783772  0.215048  0.931216  1
  O  O61  1  0.629323  0.473421  0.838085  1
  O  O62  1  0.515137  0.680540  0.679980  1
  O  O63  1  0.673826  0.247726  0.152259  1
  O  O64  1  0.494378  0.630150  0.323953  1
  O  O65  1  0.329294  0.919575  0.347287  1
  O  O66  1  0.787897  0.998203  0.248350  1
  O  O67  1  0.771098  0.008852  0.431301  1
  O  O68  1  0.249871  0.980839  0.570824  1
  O  O69  1  0.664668  0.086806  0.652808  1
  O  O70  1  0.520744  0.379573  0.665958  1
  O  O71  1  0.320697  0.750250  0.847702  1
  O  O72  1  0.483632  0.329559  0.336760  1
  O  O73  1  0.370118  0.518608  0.167690  1
  O  O74  1  0.229576  0.776479  0.072762  1
  O  O75  1  0.260516  0.741369  0.437062  1
  O  O76  1  0.214256  0.777618  0.257986  1
  O  O77  1  0.255086  0.674677  0.650053  1
  O  O78  1  0.481592  0.200157  0.849543  1
  O  O79  1  0.522017  0.108320  0.165182  1
  O  O80  1  0.312087  0.494722  0.839296  1
  O  O81  1  0.299283  0.357312  0.988840  1
  O  O82  1  0.335979  0.336689  0.487188  1
  O  O83  1  0.187276  0.485555  0.338768  1
  O  O84  1  0.373851  0.111093  0.666429  1
  O  O85  1  0.328135  0.188312  0.339904  1
  O  O86  1  0.076868  0.673290  0.157807  1
  O  O87  1  0.009586  0.785722  0.748652  1
  O  O88  1  0.006749  0.763977  0.932247  1
  O  O89  1  0.110753  0.524949  0.660870  1
  O  O90  1  0.186300  0.326089  0.833885  1
  O  O91  1  0.110073  0.370832  0.169387  1
  O  O92  1  0.250739  0.078866  0.157929  1
  O  O93  1  0.218614  0.001411  0.935204  1
  O  O94  1  0.219508  0.996319  0.752044  1
  O  O95  1  0.080010  0.239706  0.653140  1
  O  O96  1  0.003100  0.222684  0.434678  1
  O  O97  1  0.001160  0.214349  0.251726  1
