# generated using pymatgen
data_Li5V3P8O29
_symmetry_space_group_name_H-M   'P 1'
_cell_length_a   9.76837609
_cell_length_b   9.76792324
_cell_length_c   14.06716338
_cell_angle_alpha   90.25272249
_cell_angle_beta   90.23872911
_cell_angle_gamma   60.20540519
_symmetry_Int_Tables_number   1
_chemical_formula_structural   Li5V3P8O29
_chemical_formula_sum   'Li10 V6 P16 O58'
_cell_volume   1164.80066555
_cell_formula_units_Z   2
loop_
 _symmetry_equiv_pos_site_id
 _symmetry_equiv_pos_as_xyz
  1  'x, y, z'
loop_
 _atom_site_type_symbol
 _atom_site_label
 _atom_site_symmetry_multiplicity
 _atom_site_fract_x
 _atom_site_fract_y
 _atom_site_fract_z
 _atom_site_occupancy
  Li  Li0  1  0.770101  0.902816  0.561839  1
  Li  Li1  1  0.905469  0.322430  0.565505  1
  Li  Li2  1  0.766588  0.328431  0.057155  1
  Li  Li3  1  0.328697  0.905965  0.054927  1
  Li  Li4  1  0.680687  0.226461  0.440834  1
  Li  Li5  1  0.323455  0.771117  0.562193  1
  Li  Li6  1  0.231455  0.669529  0.940684  1
  Li  Li7  1  0.091524  0.683396  0.436937  1
  Li  Li8  1  0.223163  0.090468  0.445076  1
  Li  Li9  1  0.943873  0.010473  0.990237  1
  V  V10  1  0.569284  0.433609  0.249445  1
  V  V11  1  0.432959  0.565481  0.749180  1
  V  V12  1  0.567619  0.001698  0.758214  1
  V  V13  1  0.436722  0.000891  0.244978  1
  V  V14  1  0.997532  0.568130  0.244201  1
  V  V15  1  0.003736  0.432020  0.753755  1
  P  P16  1  0.919142  0.778606  0.839343  1
  P  P17  1  0.769523  0.913433  0.342184  1
  P  P18  1  0.915339  0.319283  0.345061  1
  P  P19  1  0.663623  0.668356  0.129479  1
  P  P20  1  0.665494  0.670641  0.631152  1
  P  P21  1  0.772467  0.314781  0.841367  1
  P  P22  1  0.679728  0.227981  0.659802  1
  P  P23  1  0.313125  0.912678  0.843045  1
  P  P24  1  0.696091  0.083769  0.157434  1
  P  P25  1  0.322879  0.771219  0.341893  1
  P  P26  1  0.230196  0.684429  0.159824  1
  P  P27  1  0.333129  0.332573  0.367592  1
  P  P28  1  0.333350  0.334148  0.870836  1
  P  P29  1  0.086402  0.679898  0.654530  1
  P  P30  1  0.232816  0.086940  0.660442  1
  P  P31  1  0.082675  0.220892  0.160304  1
  O  O32  1  0.000225  0.753659  0.563352  1
  O  O33  1  0.918337  0.748840  0.339835  1
  O  O34  1  0.793434  0.996945  0.074817  1
  O  O35  1  0.745606  0.917727  0.836005  1
  O  O36  1  0.924111  0.620070  0.834839  1
  O  O37  1  0.804756  0.677917  0.172271  1
  O  O38  1  0.906152  0.478101  0.323274  1
  O  O39  1  0.989979  0.203960  0.081547  1
  O  O40  1  0.911505  0.346746  0.830062  1
  O  O41  1  0.670483  0.816613  0.678056  1
  O  O42  1  0.619284  0.902581  0.319507  1
  O  O43  1  0.813168  0.517053  0.667468  1
  O  O44  1  0.642801  0.680047  0.024719  1
  O  O45  1  0.659057  0.686534  0.525296  1
  O  O46  1  0.676143  0.511219  0.168322  1
  O  O47  1  0.472752  0.910417  0.828609  1
  O  O48  1  0.506382  0.813991  0.174573  1
  O  O49  1  0.748112  0.337180  0.341175  1
  O  O50  1  0.790713  0.204601  0.750241  1
  O  O51  1  0.758276  0.239075  0.570244  1
  O  O52  1  0.787744  0.227438  0.931126  1
  O  O53  1  0.616183  0.469613  0.829491  1
  O  O54  1  0.511784  0.674019  0.669590  1
  O  O55  1  0.660844  0.256864  0.160742  1
  O  O56  1  0.482513  0.623897  0.323076  1
  O  O57  1  0.337070  0.922832  0.340893  1
  O  O58  1  0.789572  0.010265  0.256712  1
  O  O59  1  0.751608  0.000127  0.433933  1
  O  O60  1  0.245797  0.995884  0.570923  1
  O  O61  1  0.663297  0.078312  0.659742  1
  O  O62  1  0.519044  0.376575  0.676942  1
  O  O63  1  0.339294  0.742941  0.837330  1
  O  O64  1  0.487098  0.327987  0.331906  1
  O  O65  1  0.384701  0.526550  0.174141  1
  O  O66  1  0.231259  0.767865  0.070912  1
  O  O67  1  0.244031  0.761302  0.431311  1
  O  O68  1  0.209480  0.793277  0.251708  1
  O  O69  1  0.253214  0.661632  0.656488  1
  O  O70  1  0.487580  0.187274  0.824170  1
  O  O71  1  0.537470  0.080659  0.169783  1
  O  O72  1  0.323610  0.489271  0.831187  1
  O  O73  1  0.344051  0.327166  0.975932  1
  O  O74  1  0.331219  0.315318  0.472591  1
  O  O75  1  0.186491  0.484013  0.328611  1
  O  O76  1  0.383691  0.094725  0.680107  1
  O  O77  1  0.331922  0.184107  0.318147  1
  O  O78  1  0.088177  0.656348  0.164125  1
  O  O79  1  0.991769  0.798538  0.739896  1
  O  O80  1  0.007397  0.803672  0.918453  1
  O  O81  1  0.095865  0.521150  0.675346  1
  O  O82  1  0.194551  0.322937  0.825565  1
  O  O83  1  0.084283  0.376414  0.168761  1
  O  O84  1  0.256630  0.078277  0.159752  1
  O  O85  1  0.231204  0.991183  0.932880  1
  O  O86  1  0.208477  0.998482  0.750326  1
  O  O87  1  0.084074  0.251827  0.659100  1
  O  O88  1  0.996731  0.247702  0.437395  1
  O  O89  1  0.013741  0.198597  0.261137  1
