# generated using pymatgen
data_Na4SiO4
_symmetry_space_group_name_H-M   'P 1'
_cell_length_a   5.63726847
_cell_length_b   5.64373383
_cell_length_c   8.52366079
_cell_angle_alpha   81.05125823
_cell_angle_beta   71.76873332
_cell_angle_gamma   67.59975860
_symmetry_Int_Tables_number   1
_chemical_formula_structural   Na4SiO4
_chemical_formula_sum   'Na8 Si2 O8'
_cell_volume   237.93044561
_cell_formula_units_Z   2
loop_
 _symmetry_equiv_pos_site_id
 _symmetry_equiv_pos_as_xyz
  1  'x, y, z'
loop_
 _atom_site_type_symbol
 _atom_site_label
 _atom_site_symmetry_multiplicity
 _atom_site_fract_x
 _atom_site_fract_y
 _atom_site_fract_z
 _atom_site_occupancy
  O  O0  1  0.350439  0.956457  0.851602  1
  O  O1  1  0.790748  0.536963  0.872364  1
  O  O2  1  0.209252  0.463037  0.127636  1
  O  O3  1  0.845754  0.957405  0.693840  1
  O  O4  1  0.154246  0.042595  0.306160  1
  O  O5  1  0.651823  0.648558  0.586440  1
  O  O6  1  0.649561  0.043543  0.148398  1
  O  O7  1  0.348177  0.351442  0.413560  1
  Na  Na8  1  0.980924  0.233780  0.063242  1
  Na  Na9  1  0.451959  0.736421  0.107887  1
  Na  Na10  1  0.898881  0.765211  0.329571  1
  Na  Na11  1  0.264042  0.743428  0.517054  1
  Na  Na12  1  0.735958  0.256572  0.482946  1
  Na  Na13  1  0.548041  0.263579  0.892113  1
  Na  Na14  1  0.019076  0.766220  0.936758  1
  Na  Na15  1  0.101119  0.234789  0.670429  1
  Si  Si16  1  0.343300  0.224578  0.253020  1
  Si  Si17  1  0.656700  0.775422  0.746980  1
