# generated using pymatgen
data_LiMn3Al2(HO2)6
_symmetry_space_group_name_H-M   'P 1'
_cell_length_a   5.96909132
_cell_length_b   10.11904803
_cell_length_c   7.79854407
_cell_angle_alpha   70.40278969
_cell_angle_beta   101.64171393
_cell_angle_gamma   90.73174692
_symmetry_Int_Tables_number   1
_chemical_formula_structural   LiMn3Al2(HO2)6
_chemical_formula_sum   'Li2 Mn6 Al4 H12 O24'
_cell_volume   433.85908331
_cell_formula_units_Z   2
loop_
 _symmetry_equiv_pos_site_id
 _symmetry_equiv_pos_as_xyz
  1  'x, y, z'
loop_
 _atom_site_type_symbol
 _atom_site_label
 _atom_site_symmetry_multiplicity
 _atom_site_fract_x
 _atom_site_fract_y
 _atom_site_fract_z
 _atom_site_occupancy
  Li  Li0  1  0.837388  0.496842  0.323493  1
  Li  Li1  1  0.995926  0.503158  0.010005  1
  Mn  Mn2  1  0.837271  0.997000  0.334913  1
  Mn  Mn3  1  0.495885  0.003417  0.998688  1
  Mn  Mn4  1  0.665343  0.001351  0.665457  1
  Mn  Mn5  1  0.337330  0.995988  0.336418  1
  Mn  Mn6  1  0.997857  0.002396  0.998650  1
  Mn  Mn7  1  0.166129  0.000338  0.665374  1
  Al  Al8  1  0.503061  0.503195  0.003548  1
  Al  Al9  1  0.672861  0.498734  0.668420  1
  Al  Al10  1  0.330307  0.496649  0.330081  1
  Al  Al11  1  0.160470  0.501313  0.664776  1
  H  H12  1  0.915377  0.288366  0.665281  1
  H  H13  1  0.728782  0.710803  0.010550  1
  H  H14  1  0.917959  0.711460  0.667650  1
  H  H15  1  0.560788  0.290490  0.306162  1
  H  H16  1  0.729475  0.296916  0.972595  1
  H  H17  1  0.579105  0.699216  0.359874  1
  H  H18  1  0.409048  0.290321  0.654439  1
  H  H19  1  0.272132  0.709331  0.027995  1
  H  H20  1  0.424150  0.709658  0.678937  1
  H  H21  1  0.104851  0.289230  0.322586  1
  H  H22  1  0.253825  0.300869  0.973658  1
  H  H23  1  0.104526  0.703478  0.360233  1
  O  O24  1  0.766216  0.102997  0.066342  1
  O  O25  1  0.924444  0.107207  0.737001  1
  O  O26  1  0.906067  0.392593  0.629332  1
  O  O27  1  0.744749  0.608133  0.049554  1
  O  O28  1  0.908831  0.892904  0.596272  1
  O  O29  1  0.927331  0.607527  0.704157  1
  O  O30  1  0.545665  0.393399  0.260124  1
  O  O31  1  0.593900  0.102717  0.396477  1
  O  O32  1  0.709128  0.399566  0.924805  1
  O  O33  1  0.581776  0.595171  0.412195  1
  O  O34  1  0.728131  0.901151  0.937182  1
  O  O35  1  0.560695  0.895745  0.264935  1
  O  O36  1  0.422586  0.109041  0.737426  1
  O  O37  1  0.402551  0.395135  0.605125  1
  O  O38  1  0.268039  0.103877  0.067264  1
  O  O39  1  0.430844  0.604688  0.728455  1
  O  O40  1  0.410778  0.890467  0.596929  1
  O  O41  1  0.287530  0.606666  0.073101  1
  O  O42  1  0.110455  0.099117  0.396760  1
  O  O43  1  0.088437  0.391566  0.283964  1
  O  O44  1  0.251662  0.404703  0.921286  1
  O  O45  1  0.124307  0.600051  0.408883  1
  O  O46  1  0.073645  0.895030  0.264239  1
  O  O47  1  0.232582  0.899431  0.938610  1
