# generated using pymatgen
data_SrTiFe(PO4)3
_symmetry_space_group_name_H-M   'P 1'
_cell_length_a   9.08380211
_cell_length_b   9.08380268
_cell_length_c   9.08380187
_cell_angle_alpha   56.48483105
_cell_angle_beta   56.48482869
_cell_angle_gamma   56.48482790
_symmetry_Int_Tables_number   1
_chemical_formula_structural   SrTiFe(PO4)3
_chemical_formula_sum   'Sr2 Ti2 Fe2 P6 O24'
_cell_volume   486.94901301
_cell_formula_units_Z   2
loop_
 _symmetry_equiv_pos_site_id
 _symmetry_equiv_pos_as_xyz
  1  'x, y, z'
loop_
 _atom_site_type_symbol
 _atom_site_label
 _atom_site_symmetry_multiplicity
 _atom_site_fract_x
 _atom_site_fract_y
 _atom_site_fract_z
 _atom_site_occupancy
  Sr  Sr0  1  0.998348  0.998348  0.998348  1
  Sr  Sr1  1  0.498348  0.498348  0.498348  1
  Ti  Ti2  1  0.149313  0.149313  0.149313  1
  Ti  Ti3  1  0.649313  0.649313  0.649313  1
  Fe  Fe4  1  0.350340  0.350340  0.350340  1
  Fe  Fe5  1  0.850340  0.850340  0.850340  1
  P  P6  1  0.037814  0.748959  0.465005  1
  P  P7  1  0.465005  0.037814  0.748959  1
  P  P8  1  0.748959  0.465005  0.037814  1
  P  P9  1  0.248959  0.537814  0.965005  1
  P  P10  1  0.537814  0.965005  0.248959  1
  P  P11  1  0.965005  0.248959  0.537814  1
  O  O12  1  0.133589  0.267907  0.514675  1
  O  O13  1  0.267907  0.514675  0.133589  1
  O  O14  1  0.061318  0.928064  0.283386  1
  O  O15  1  0.514675  0.133589  0.267907  1
  O  O16  1  0.217070  0.575589  0.434098  1
  O  O17  1  0.014675  0.767907  0.633589  1
  O  O18  1  0.283386  0.061318  0.928064  1
  O  O19  1  0.434098  0.217070  0.575589  1
  O  O20  1  0.575589  0.434098  0.217070  1
  O  O21  1  0.228983  0.363007  0.992533  1
  O  O22  1  0.075589  0.717070  0.934098  1
  O  O23  1  0.363007  0.992533  0.228983  1
  O  O24  1  0.633589  0.014675  0.767907  1
  O  O25  1  0.928064  0.283386  0.061318  1
  O  O26  1  0.767907  0.633589  0.014675  1
  O  O27  1  0.428064  0.561318  0.783386  1
  O  O28  1  0.561318  0.783386  0.428064  1
  O  O29  1  0.717070  0.934098  0.075589  1
  O  O30  1  0.992533  0.228983  0.363007  1
  O  O31  1  0.783386  0.428064  0.561318  1
  O  O32  1  0.492533  0.863007  0.728983  1
  O  O33  1  0.934098  0.075589  0.717070  1
  O  O34  1  0.728983  0.492533  0.863007  1
  O  O35  1  0.863007  0.728983  0.492533  1
