# generated using pymatgen
data_Li6Mn3Cr(PO4)6
_symmetry_space_group_name_H-M   'P 1'
_cell_length_a   8.77316914
_cell_length_b   8.59772915
_cell_length_c   8.50166218
_cell_angle_alpha   61.41351401
_cell_angle_beta   61.78238103
_cell_angle_gamma   60.75792396
_symmetry_Int_Tables_number   1
_chemical_formula_structural   Li6Mn3Cr(PO4)6
_chemical_formula_sum   'Li6 Mn3 Cr1 P6 O24'
_cell_volume   466.80829825
_cell_formula_units_Z   1
loop_
 _symmetry_equiv_pos_site_id
 _symmetry_equiv_pos_as_xyz
  1  'x, y, z'
loop_
 _atom_site_type_symbol
 _atom_site_label
 _atom_site_symmetry_multiplicity
 _atom_site_fract_x
 _atom_site_fract_y
 _atom_site_fract_z
 _atom_site_occupancy
  Li  Li0  1  0.023061  0.016295  0.992675  1
  Li  Li1  1  0.753051  0.161370  0.339279  1
  Li  Li2  1  0.478616  0.503797  0.488080  1
  Li  Li3  1  0.247977  0.838455  0.658986  1
  Li  Li4  1  0.653327  0.260489  0.840331  1
  Li  Li5  1  0.850596  0.656749  0.251384  1
  Mn  Mn6  1  0.143554  0.141220  0.143789  1
  Mn  Mn7  1  0.353711  0.358589  0.359191  1
  Mn  Mn8  1  0.647812  0.650926  0.644291  1
  Cr  Cr9  1  0.855629  0.854481  0.853474  1
  P  P10  1  0.052707  0.750061  0.445889  1
  P  P11  1  0.452533  0.049071  0.750813  1
  P  P12  1  0.749924  0.458183  0.043620  1
  P  P13  1  0.245585  0.534941  0.963396  1
  P  P14  1  0.545340  0.962302  0.252120  1
  P  P15  1  0.954188  0.247497  0.540628  1
  O  O16  1  0.122795  0.279818  0.506244  1
  O  O17  1  0.296757  0.508120  0.125517  1
  O  O18  1  0.059556  0.923512  0.259451  1
  O  O19  1  0.531044  0.126382  0.292389  1
  O  O20  1  0.239876  0.587858  0.432373  1
  O  O21  1  0.018415  0.804721  0.611227  1
  O  O22  1  0.267396  0.069879  0.909463  1
  O  O23  1  0.448382  0.233851  0.577148  1
  O  O24  1  0.600361  0.437925  0.237986  1
  O  O25  1  0.195083  0.371493  -0.000288  1
  O  O26  1  0.082467  0.729356  0.941791  1
  O  O27  1  0.375964  0.991393  0.221620  1
  O  O28  1  0.615235  0.016608  0.801277  1
  O  O29  1  0.902478  0.262436  0.059034  1
  O  O30  1  0.810359  0.615882  0.006720  1
  O  O31  1  0.400739  0.557985  0.770349  1
  O  O32  1  0.574266  0.767692  0.416516  1
  O  O33  1  0.729794  0.933728  0.087894  1
  O  O34  1  0.964670  0.202957  0.379293  1
  O  O35  1  0.767455  0.416377  0.563755  1
  O  O36  1  0.478656  0.886071  0.698338  1
  O  O37  1  0.926327  0.087227  0.736163  1
  O  O38  1  0.686896  0.493253  0.882656  1
  O  O39  1  0.897416  0.700051  0.466139  1
