# generated using pymatgen
data_Li4Nb3V3Cr2O16
_symmetry_space_group_name_H-M   'P 1'
_cell_length_a   6.03979449
_cell_length_b   6.03676043
_cell_length_c   9.80421290
_cell_angle_alpha   89.99929659
_cell_angle_beta   89.27687463
_cell_angle_gamma   119.98245695
_symmetry_Int_Tables_number   1
_chemical_formula_structural   Li4Nb3V3Cr2O16
_chemical_formula_sum   'Li4 Nb3 V3 Cr2 O16'
_cell_volume   309.59936671
_cell_formula_units_Z   1
loop_
 _symmetry_equiv_pos_site_id
 _symmetry_equiv_pos_as_xyz
  1  'x, y, z'
loop_
 _atom_site_type_symbol
 _atom_site_label
 _atom_site_symmetry_multiplicity
 _atom_site_fract_x
 _atom_site_fract_y
 _atom_site_fract_z
 _atom_site_occupancy
  Li  Li0  1  0.333146  0.666585  0.897854  1
  Li  Li1  1  0.015949  0.007989  0.993686  1
  Li  Li2  1  0.017430  0.008730  0.495309  1
  Li  Li3  1  0.668863  0.334432  0.386862  1
  Nb  Nb4  1  0.662757  0.831395  0.213685  1
  Nb  Nb5  1  0.822952  0.648732  0.712449  1
  Nb  Nb6  1  0.822935  0.174230  0.712458  1
  V  V7  1  0.172970  0.831967  0.212731  1
  V  V8  1  0.172966  0.341018  0.212724  1
  V  V9  1  0.346435  0.173228  0.711843  1
  Cr  Cr10  1  0.322506  0.661239  0.481484  1
  Cr  Cr11  1  0.660502  0.330271  0.989694  1
  O  O12  1  0.152089  0.820162  0.600603  1
  O  O13  1  0.041474  0.520747  0.337128  1
  O  O14  1  0.346248  0.673151  0.100146  1
  O  O15  1  0.995808  0.997905  0.313442  1
  O  O16  1  0.995651  0.997832  0.810374  1
  O  O17  1  0.152084  0.331934  0.600606  1
  O  O18  1  0.483446  0.959730  0.341760  1
  O  O19  1  0.483435  0.523710  0.341753  1
  O  O20  1  0.325127  0.162588  0.102802  1
  O  O21  1  0.662719  0.831369  0.601186  1
  O  O22  1  0.527298  0.488066  0.847075  1
  O  O23  1  0.527302  0.039266  0.847079  1
  O  O24  1  0.667834  0.333935  0.585997  1
  O  O25  1  0.828804  0.668677  0.103206  1
  O  O26  1  0.962462  0.481240  0.850683  1
  O  O27  1  0.828803  0.160172  0.103218  1
