# generated using pymatgen
data_Li3CoPCO7
_symmetry_space_group_name_H-M   'P 1'
_cell_length_a   8.48786782
_cell_length_b   9.85127664
_cell_length_c   6.38859718
_cell_angle_alpha   90.00000000
_cell_angle_beta   90.00000000
_cell_angle_gamma   85.01437512
_symmetry_Int_Tables_number   1
_chemical_formula_structural   Li3CoPCO7
_chemical_formula_sum   'Li12 Co4 P4 C4 O28'
_cell_volume   532.16998150
_cell_formula_units_Z   4
loop_
 _symmetry_equiv_pos_site_id
 _symmetry_equiv_pos_as_xyz
  1  'x, y, z'
loop_
 _atom_site_type_symbol
 _atom_site_label
 _atom_site_symmetry_multiplicity
 _atom_site_fract_x
 _atom_site_fract_y
 _atom_site_fract_z
 _atom_site_occupancy
  Li  Li0  1  0.098017  0.382178  0.251787  1
  Li  Li1  1  0.098017  0.882178  0.248213  1
  Li  Li2  1  0.280098  0.118754  0.013576  1
  Li  Li3  1  0.280098  0.618754  0.486424  1
  Li  Li4  1  0.346387  0.390075  0.746091  1
  Li  Li5  1  0.346387  0.890075  0.753909  1
  Li  Li6  1  0.653613  0.109925  0.246091  1
  Li  Li7  1  0.653613  0.609925  0.253909  1
  Li  Li8  1  0.719902  0.381246  0.513576  1
  Li  Li9  1  0.719902  0.881246  0.986424  1
  Li  Li10  1  0.901983  0.117822  0.751787  1
  Li  Li11  1  0.901983  0.617822  0.748213  1
  Co  Co12  1  0.275095  0.123531  0.493874  1
  Co  Co13  1  0.275095  0.623531  0.006126  1
  Co  Co14  1  0.724905  0.376469  0.993874  1
  Co  Co15  1  0.724905  0.876469  0.506126  1
  P  P16  1  0.408839  0.359868  0.252154  1
  P  P17  1  0.408839  0.859868  0.247846  1
  P  P18  1  0.591161  0.140132  0.752154  1
  P  P19  1  0.591161  0.640132  0.747846  1
  C  C20  1  0.037889  0.351935  0.749374  1
  C  C21  1  0.037889  0.851935  0.750626  1
  C  C22  1  0.962111  0.148065  0.249374  1
  C  C23  1  0.962111  0.648065  0.250626  1
  O  O24  1  0.069379  0.476593  0.754962  1
  O  O25  1  0.110906  0.179631  0.259663  1
  O  O26  1  0.069379  0.976593  0.745038  1
  O  O27  1  0.147539  0.252577  0.733961  1
  O  O28  1  0.110906  0.679631  0.240337  1
  O  O29  1  0.147539  0.752577  0.766039  1
  O  O30  1  0.310102  0.415257  0.058492  1
  O  O31  1  0.313713  0.414946  0.442883  1
  O  O32  1  0.313713  0.914946  0.057117  1
  O  O33  1  0.310102  0.915257  0.441508  1
  O  O34  1  0.420417  0.094090  0.745095  1
  O  O35  1  0.421237  0.200496  0.252594  1
  O  O36  1  0.420417  0.594090  0.754905  1
  O  O37  1  0.421237  0.700496  0.247406  1
  O  O38  1  0.578763  0.299504  0.752594  1
  O  O39  1  0.579583  0.405910  0.245095  1
  O  O40  1  0.578763  0.799504  0.747406  1
  O  O41  1  0.579583  0.905910  0.254905  1
  O  O42  1  0.686287  0.085054  0.942883  1
  O  O43  1  0.689898  0.084743  0.558492  1
  O  O44  1  0.686287  0.585054  0.557117  1
  O  O45  1  0.689898  0.584743  0.941508  1
  O  O46  1  0.852461  0.247423  0.233961  1
  O  O47  1  0.889094  0.320369  0.759663  1
  O  O48  1  0.852461  0.747423  0.266039  1
  O  O49  1  0.930621  0.023407  0.254962  1
  O  O50  1  0.889094  0.820369  0.740337  1
  O  O51  1  0.930621  0.523407  0.245038  1
