# generated using pymatgen
data_TiPHO5
_symmetry_space_group_name_H-M   'P 1'
_cell_length_a   5.25680341
_cell_length_b   7.47984687
_cell_length_c   5.20516382
_cell_angle_alpha   109.59663090
_cell_angle_beta   97.66188941
_cell_angle_gamma   106.17687703
_symmetry_Int_Tables_number   1
_chemical_formula_structural   TiPHO5
_chemical_formula_sum   'Ti2 P2 H2 O10'
_cell_volume   179.26774981
_cell_formula_units_Z   2
loop_
 _symmetry_equiv_pos_site_id
 _symmetry_equiv_pos_as_xyz
  1  'x, y, z'
loop_
 _atom_site_type_symbol
 _atom_site_label
 _atom_site_symmetry_multiplicity
 _atom_site_fract_x
 _atom_site_fract_y
 _atom_site_fract_z
 _atom_site_occupancy
  Ti  Ti0  1  0.000000  0.500000  0.000000  1
  Ti  Ti1  1  0.000000  0.000000  0.000000  1
  P  P2  1  0.353679  0.228494  0.674464  1
  P  P3  1  0.646321  0.771506  0.325536  1
  H  H4  1  0.027583  0.334181  0.349203  1
  H  H5  1  0.972417  0.665819  0.650797  1
  O  O6  1  0.032680  0.721317  0.858873  1
  O  O7  1  0.198201  0.383302  0.728535  1
  O  O8  1  0.339726  0.660773  0.287340  1
  O  O9  1  0.231276  0.077330  0.364767  1
  O  O10  1  0.318224  0.118385  0.875539  1
  O  O11  1  0.681776  0.881615  0.124461  1
  O  O12  1  0.768724  0.922670  0.635233  1
  O  O13  1  0.660274  0.339227  0.712660  1
  O  O14  1  0.801799  0.616698  0.271465  1
  O  O15  1  0.967320  0.278683  0.141127  1
