# generated using pymatgen
data_Mg7Cu2O9
_symmetry_space_group_name_H-M   'P 1'
_cell_length_a   3.01345917
_cell_length_b   7.95351710
_cell_length_c   7.35498341
_cell_angle_alpha   89.90831757
_cell_angle_beta   90.02663109
_cell_angle_gamma   79.06109478
_symmetry_Int_Tables_number   1
_chemical_formula_structural   Mg7Cu2O9
_chemical_formula_sum   'Mg7 Cu2 O9'
_cell_volume   173.07800285
_cell_formula_units_Z   1
loop_
 _symmetry_equiv_pos_site_id
 _symmetry_equiv_pos_as_xyz
  1  'x, y, z'
loop_
 _atom_site_type_symbol
 _atom_site_label
 _atom_site_symmetry_multiplicity
 _atom_site_fract_x
 _atom_site_fract_y
 _atom_site_fract_z
 _atom_site_occupancy
  Mg  Mg0  1  0.557094  0.885860  0.669010  1
  Mg  Mg1  1  0.109874  0.780376  0.330916  1
  Mg  Mg2  1  0.888680  0.222526  0.665801  1
  Mg  Mg3  1  0.667568  0.664898  0.997025  1
  Mg  Mg4  1  0.777699  0.444633  0.334522  1
  Mg  Mg5  1  0.333159  0.333511  0.999800  1
  Mg  Mg6  1  0.999212  0.001516  0.002992  1
  Cu  Cu7  1  0.222048  0.555732  0.665843  1
  Cu  Cu8  1  0.444652  0.110892  0.334084  1
  O  O9  1  0.109627  0.780989  0.835838  1
  O  O10  1  0.666196  0.669155  0.496281  1
  O  O11  1  0.778609  0.441045  0.836707  1
  O  O12  1  0.557199  0.885319  0.163736  1
  O  O13  1  0.444031  0.111766  0.833488  1
  O  O14  1  0.333080  0.333717  0.500292  1
  O  O15  1  0.222728  0.554727  0.166446  1
  O  O16  1  0.000638  0.998329  0.502878  1
  O  O17  1  0.887905  0.225010  0.164340  1
