# generated using pymatgen
data_LiSi3BiO8
_symmetry_space_group_name_H-M   'P 1'
_cell_length_a   7.74983454
_cell_length_b   7.74983454
_cell_length_c   14.01019892
_cell_angle_alpha   76.49215663
_cell_angle_beta   103.50784337
_cell_angle_gamma   66.93453131
_symmetry_Int_Tables_number   1
_chemical_formula_structural   LiSi3BiO8
_chemical_formula_sum   'Li4 Si12 Bi4 O32'
_cell_volume   701.30744554
_cell_formula_units_Z   4
loop_
 _symmetry_equiv_pos_site_id
 _symmetry_equiv_pos_as_xyz
  1  'x, y, z'
loop_
 _atom_site_type_symbol
 _atom_site_label
 _atom_site_symmetry_multiplicity
 _atom_site_fract_x
 _atom_site_fract_y
 _atom_site_fract_z
 _atom_site_occupancy
  Li  Li0  1  0.410391  0.813504  0.823445  1
  Li  Li1  1  0.186496  0.589609  0.323445  1
  Li  Li2  1  0.821402  0.811366  0.623395  1
  Li  Li3  1  0.188634  0.178598  0.123395  1
  Si  Si4  1  0.210922  0.552088  0.838017  1
  Si  Si5  1  0.812628  0.798832  0.877000  1
  Si  Si6  1  0.172174  0.155449  0.896061  1
  Si  Si7  1  0.447912  0.789078  0.338016  1
  Si  Si8  1  0.150932  0.178003  0.598490  1
  Si  Si9  1  0.201168  0.187372  0.377000  1
  Si  Si10  1  0.844551  0.827826  0.396061  1
  Si  Si11  1  0.798383  0.416768  0.671362  1
  Si  Si12  1  0.549084  0.187041  0.664891  1
  Si  Si13  1  0.821997  0.849068  0.098490  1
  Si  Si14  1  0.812959  0.450916  0.164891  1
  Si  Si15  1  0.583232  0.201617  0.171362  1
  Bi  Bi16  1  0.227343  0.733216  0.584022  1
  Bi  Bi17  1  0.740651  0.355555  0.933809  1
  Bi  Bi18  1  0.266784  0.772657  0.084022  1
  Bi  Bi19  1  0.644445  0.259349  0.433809  1
  O  O20  1  0.036284  0.707572  0.870388  1
  O  O21  1  0.335712  0.936039  0.913872  1
  O  O22  1  0.241235  0.943607  0.671895  1
  O  O23  1  0.132603  0.624885  0.708793  1
  O  O24  1  0.417101  0.558745  0.889652  1
  O  O25  1  0.252541  0.321224  0.890527  1
  O  O26  1  0.714307  0.650766  0.872391  1
  O  O27  1  0.063961  0.664287  0.413872  1
  O  O28  1  0.292428  0.963716  0.370388  1
  O  O29  1  0.375115  0.867397  0.208793  1
  O  O30  1  0.056393  0.758765  0.171895  1
  O  O31  1  0.703537  0.651718  0.636774  1
  O  O32  1  0.303629  0.272212  0.632857  1
  O  O33  1  0.441255  0.582899  0.389652  1
  O  O34  1  0.131190  0.169460  0.479988  1
  O  O35  1  0.888841  0.898479  0.499923  1
  O  O36  1  0.595373  0.376486  0.667649  1
  O  O37  1  0.349234  0.285693  0.372391  1
  O  O38  1  0.678776  0.747459  0.390527  1
  O  O39  1  0.659007  0.013148  0.780462  1
  O  O40  1  0.951787  0.271724  0.795242  1
  O  O41  1  0.921610  0.315951  0.596585  1
  O  O42  1  0.638590  0.103416  0.582511  1
  O  O43  1  0.348282  0.296463  0.136774  1
  O  O44  1  0.727788  0.696371  0.132857  1
  O  O45  1  0.101521  0.111159  0.999923  1
  O  O46  1  0.830539  0.868810  0.979988  1
  O  O47  1  0.623514  0.404627  0.167649  1
  O  O48  1  0.728276  0.048213  0.295242  1
  O  O49  1  0.986852  0.340993  0.280462  1
  O  O50  1  0.896584  0.361410  0.082511  1
  O  O51  1  0.684049  0.078390  0.096585  1
