# generated using pymatgen
data_LiFe8(BO3)8
_symmetry_space_group_name_H-M   'P 1'
_cell_length_a   5.24301788
_cell_length_b   9.10284764
_cell_length_c   11.45993152
_cell_angle_alpha   65.74070394
_cell_angle_beta   76.77912106
_cell_angle_gamma   88.74580825
_symmetry_Int_Tables_number   1
_chemical_formula_structural   LiFe8(BO3)8
_chemical_formula_sum   'Li1 Fe8 B8 O24'
_cell_volume   483.82402827
_cell_formula_units_Z   1
loop_
 _symmetry_equiv_pos_site_id
 _symmetry_equiv_pos_as_xyz
  1  'x, y, z'
loop_
 _atom_site_type_symbol
 _atom_site_label
 _atom_site_symmetry_multiplicity
 _atom_site_fract_x
 _atom_site_fract_y
 _atom_site_fract_z
 _atom_site_occupancy
  Li  Li0  1  0.238844  0.253216  0.154158  1
  Fe  Fe1  1  0.980129  0.647757  0.375136  1
  Fe  Fe2  1  0.732295  0.064063  0.877306  1
  Fe  Fe3  1  0.516486  0.847115  0.628735  1
  Fe  Fe4  1  0.750494  0.452567  0.125420  1
  Fe  Fe5  1  0.231634  0.561330  0.882318  1
  Fe  Fe6  1  0.493492  0.153302  0.376467  1
  Fe  Fe7  1  0.017792  0.348898  0.629320  1
  Fe  Fe8  1  0.266286  0.925538  0.124924  1
  B  B9  1  0.979638  0.317327  0.374186  1
  B  B10  1  0.733764  0.392842  0.878340  1
  B  B11  1  0.525136  0.184620  0.628156  1
  B  B12  1  0.763082  0.104705  0.127425  1
  B  B13  1  0.471485  0.813659  0.376959  1
  B  B14  1  0.234104  0.893091  0.876264  1
  B  B15  1  0.028754  0.684989  0.627422  1
  B  B16  1  0.265133  0.607753  0.126940  1
  O  O17  1  0.982745  0.918531  0.871343  1
  O  O18  1  0.869467  0.289494  0.826783  1
  O  O19  1  0.872093  0.477430  0.923902  1
  O  O20  1  0.862974  0.799462  0.631191  1
  O  O21  1  0.981464  0.581337  0.570629  1
  O  O22  1  0.751572  0.165367  0.676755  1
  O  O23  1  0.745563  0.328649  0.335945  1
  O  O24  1  0.471540  0.403766  0.888590  1
  O  O25  1  0.372425  0.787785  0.828771  1
  O  O26  1  0.512740  0.920042  0.432369  1
  O  O27  1  0.635281  0.698647  0.376855  1
  O  O28  1  0.365943  0.971071  0.931346  1
  O  O29  1  0.635618  0.025477  0.072226  1
  O  O30  1  0.360925  0.297535  0.635395  1
  O  O31  1  0.472779  0.079676  0.573071  1
  O  O32  1  0.611605  0.203540  0.177969  1
  O  O33  1  0.518054  0.615519  0.126760  1
  O  O34  1  0.252934  0.665418  0.678048  1
  O  O35  1  0.252515  0.830974  0.321860  1
  O  O36  1  0.031900  0.416235  0.433329  1
  O  O37  1  0.158555  0.217587  0.347545  1
  O  O38  1  0.155623  0.506323  0.081507  1
  O  O39  1  0.096208  0.706313  0.174467  1
  O  O40  1  0.021962  0.088393  0.130713  1
