# generated using pymatgen
data_Cr4OF11
_symmetry_space_group_name_H-M   'P 1'
_cell_length_a   5.09694791
_cell_length_b   5.33094804
_cell_length_c   16.88739295
_cell_angle_alpha   92.43602108
_cell_angle_beta   98.62552916
_cell_angle_gamma   61.36750907
_symmetry_Int_Tables_number   1
_chemical_formula_structural   Cr4OF11
_chemical_formula_sum   'Cr8 O2 F22'
_cell_volume   397.96072290
_cell_formula_units_Z   2
loop_
 _symmetry_equiv_pos_site_id
 _symmetry_equiv_pos_as_xyz
  1  'x, y, z'
loop_
 _atom_site_type_symbol
 _atom_site_label
 _atom_site_symmetry_multiplicity
 _atom_site_fract_x
 _atom_site_fract_y
 _atom_site_fract_z
 _atom_site_occupancy
  Cr  Cr0  1  0.743625  0.648282  0.129911  1
  Cr  Cr1  1  0.748013  0.120284  0.624581  1
  Cr  Cr2  1  0.496638  0.750295  0.750174  1
  Cr  Cr3  1  0.503996  0.239227  0.247839  1
  Cr  Cr4  1  0.243258  0.887636  0.378152  1
  Cr  Cr5  1  0.247528  0.376546  0.875999  1
  Cr  Cr6  1  0.007532  0.480417  0.496334  1
  Cr  Cr7  1  0.996183  0.006923  0.001988  1
  O  O8  1  0.745647  0.942622  0.188354  1
  O  O9  1  0.242787  0.186276  0.437083  1
  F  F10  1  0.818317  0.782046  0.034550  1
  F  F11  1  0.757621  0.808763  0.559677  1
  F  F12  1  0.755000  0.324207  0.065060  1
  F  F13  1  0.683671  0.967778  0.718467  1
  F  F14  1  0.680662  0.654342  0.407860  1
  F  F15  1  0.677541  0.473006  0.217581  1
  F  F16  1  0.812898  0.593888  0.842560  1
  F  F17  1  0.809223  0.092963  0.343178  1
  F  F18  1  0.810106  0.283031  0.532533  1
  F  F19  1  0.311338  0.850552  0.094783  1
  F  F20  1  0.743678  0.436969  0.686978  1
  F  F21  1  0.263619  0.562578  0.313380  1
  F  F22  1  0.682908  0.153252  0.908569  1
  F  F23  1  0.184486  0.908197  0.656858  1
  F  F24  1  0.180473  0.411394  0.158625  1
  F  F25  1  0.183210  0.714048  0.467801  1
  F  F26  1  0.312458  0.531699  0.782715  1
  F  F27  1  0.310195  0.338974  0.592102  1
  F  F28  1  0.312050  0.032069  0.282963  1
  F  F29  1  0.246992  0.688760  0.939543  1
  F  F30  1  0.246978  0.061560  0.813951  1
  F  F31  1  0.180331  0.224049  0.969138  1
