# generated using pymatgen
data_LiCoCO4
_symmetry_space_group_name_H-M   'P 1'
_cell_length_a   9.19374823
_cell_length_b   9.42404202
_cell_length_c   3.15399601
_cell_angle_alpha   90.00000000
_cell_angle_beta   90.85475821
_cell_angle_gamma   90.00000000
_symmetry_Int_Tables_number   1
_chemical_formula_structural   LiCoCO4
_chemical_formula_sum   'Li4 Co4 C4 O16'
_cell_volume   273.23896422
_cell_formula_units_Z   4
loop_
 _symmetry_equiv_pos_site_id
 _symmetry_equiv_pos_as_xyz
  1  'x, y, z'
loop_
 _atom_site_type_symbol
 _atom_site_label
 _atom_site_symmetry_multiplicity
 _atom_site_fract_x
 _atom_site_fract_y
 _atom_site_fract_z
 _atom_site_occupancy
  Li  Li0  1  0.183630  0.407504  0.755957  1
  Li  Li1  1  0.316370  0.907504  0.744043  1
  Li  Li2  1  0.683630  0.092496  0.255957  1
  Li  Li3  1  0.816370  0.592496  0.244043  1
  Co  Co4  1  0.051226  0.117914  0.256399  1
  Co  Co5  1  0.448774  0.617914  0.243601  1
  Co  Co6  1  0.551226  0.382086  0.756399  1
  Co  Co7  1  0.948774  0.882086  0.743601  1
  C  C8  1  0.137640  0.668567  0.235312  1
  C  C9  1  0.362360  0.168567  0.264688  1
  C  C10  1  0.637640  0.831433  0.735312  1
  C  C11  1  0.862360  0.331433  0.764688  1
  O  O12  1  0.015082  0.745810  0.236812  1
  O  O13  1  0.115391  0.997722  0.756347  1
  O  O14  1  0.128954  0.536348  0.254741  1
  O  O15  1  0.238874  0.237749  0.285942  1
  O  O16  1  0.261126  0.737749  0.214058  1
  O  O17  1  0.371046  0.036348  0.245259  1
  O  O18  1  0.384609  0.497722  0.743653  1
  O  O19  1  0.484918  0.245810  0.263188  1
  O  O20  1  0.515082  0.754190  0.736812  1
  O  O21  1  0.615391  0.502278  0.256347  1
  O  O22  1  0.628954  0.963652  0.754741  1
  O  O23  1  0.738874  0.262251  0.785942  1
  O  O24  1  0.761126  0.762251  0.714058  1
  O  O25  1  0.871046  0.463652  0.745259  1
  O  O26  1  0.884609  0.002278  0.243653  1
  O  O27  1  0.984918  0.254190  0.763188  1
