# generated using pymatgen
data_Rb2TeH6SO10
_symmetry_space_group_name_H-M   'P 1'
_cell_length_a   12.59798782
_cell_length_b   7.64464634
_cell_length_c   14.18476102
_cell_angle_alpha   90.00000000
_cell_angle_beta   103.67572358
_cell_angle_gamma   90.00000000
_symmetry_Int_Tables_number   1
_chemical_formula_structural   Rb2TeH6SO10
_chemical_formula_sum   'Rb8 Te4 H24 S4 O40'
_cell_volume   1327.36445862
_cell_formula_units_Z   4
loop_
 _symmetry_equiv_pos_site_id
 _symmetry_equiv_pos_as_xyz
  1  'x, y, z'
loop_
 _atom_site_type_symbol
 _atom_site_label
 _atom_site_symmetry_multiplicity
 _atom_site_fract_x
 _atom_site_fract_y
 _atom_site_fract_z
 _atom_site_occupancy
  Rb  Rb0  1  0.684285  0.514760  0.361803  1
  Rb  Rb1  1  0.815715  0.014760  0.638197  1
  Rb  Rb2  1  0.315715  0.485240  0.638197  1
  Rb  Rb3  1  0.184285  0.985240  0.361803  1
  Rb  Rb4  1  0.618555  0.030991  0.879058  1
  Rb  Rb5  1  0.881445  0.530991  0.120942  1
  Rb  Rb6  1  0.381445  0.969009  0.120942  1
  Rb  Rb7  1  0.118555  0.469009  0.879058  1
  Te  Te8  1  0.500000  0.500000  0.000000  1
  Te  Te9  1  0.000000  0.000000  0.000000  1
  Te  Te10  1  0.000000  0.500000  0.500000  1
  Te  Te11  1  0.500000  0.000000  0.500000  1
  H  H12  1  0.867278  0.267878  0.925261  1
  H  H13  1  0.632722  0.767878  0.074739  1
  H  H14  1  0.132722  0.732122  0.074739  1
  H  H15  1  0.367278  0.232122  0.925261  1
  H  H16  1  0.584900  0.278410  0.137957  1
  H  H17  1  0.915100  0.778410  0.862043  1
  H  H18  1  0.415100  0.721590  0.862043  1
  H  H19  1  0.084900  0.221590  0.137957  1
  H  H20  1  0.087804  0.678515  0.634586  1
  H  H21  1  0.412196  0.178515  0.365414  1
  H  H22  1  0.912196  0.321485  0.365414  1
  H  H23  1  0.587804  0.821485  0.634586  1
  H  H24  1  0.935375  0.057101  0.371978  1
  H  H25  1  0.564625  0.557101  0.628022  1
  H  H26  1  0.064625  0.942899  0.628022  1
  H  H27  1  0.435375  0.442899  0.371978  1
  H  H28  1  0.571478  0.494156  0.733098  1
  H  H29  1  0.928522  0.994156  0.266902  1
  H  H30  1  0.428522  0.505844  0.266902  1
  H  H31  1  0.071478  0.005844  0.733098  1
  H  H32  1  0.763823  0.739438  0.841794  1
  H  H33  1  0.736177  0.239438  0.158206  1
  H  H34  1  0.236177  0.260562  0.158206  1
  H  H35  1  0.263823  0.760562  0.841794  1
  S  S36  1  0.715612  0.978449  0.217657  1
  S  S37  1  0.784388  0.478449  0.782343  1
  S  S38  1  0.284388  0.021551  0.782343  1
  S  S39  1  0.215612  0.521551  0.217657  1
  O  O40  1  0.748962  0.825654  0.163848  1
  O  O41  1  0.751038  0.325654  0.836152  1
  O  O42  1  0.251038  0.174346  0.836152  1
  O  O43  1  0.248962  0.674346  0.163848  1
  O  O44  1  0.862141  0.626648  0.631818  1
  O  O45  1  0.637859  0.126648  0.368182  1
  O  O46  1  0.137859  0.373352  0.368182  1
  O  O47  1  0.362141  0.873352  0.631818  1
  O  O48  1  0.707740  0.649977  0.815022  1
  O  O49  1  0.792260  0.149977  0.184978  1
  O  O50  1  0.292260  0.350023  0.184978  1
  O  O51  1  0.207740  0.850023  0.815022  1
  O  O52  1  0.958634  0.962315  0.334108  1
  O  O53  1  0.541366  0.462315  0.665892  1
  O  O54  1  0.041366  0.037685  0.665892  1
  O  O55  1  0.458634  0.537685  0.334108  1
  O  O56  1  0.929244  0.246551  0.982611  1
  O  O57  1  0.570756  0.746551  0.017389  1
  O  O58  1  0.070756  0.753449  0.017389  1
  O  O59  1  0.429244  0.253449  0.982611  1
  O  O60  1  0.610102  0.398377  0.127249  1
  O  O61  1  0.889898  0.898377  0.872751  1
  O  O62  1  0.389898  0.601623  0.872751  1
  O  O63  1  0.110102  0.101623  0.127249  1
  O  O64  1  0.102741  0.462565  0.166959  1
  O  O65  1  0.397259  0.962565  0.833041  1
  O  O66  1  0.897259  0.537435  0.833041  1
  O  O67  1  0.602741  0.037435  0.166959  1
  O  O68  1  0.932251  0.613884  0.387295  1
  O  O69  1  0.567749  0.113884  0.612705  1
  O  O70  1  0.067749  0.386116  0.612705  1
  O  O71  1  0.432251  0.886116  0.387295  1
  O  O72  1  0.654136  0.047460  0.452117  1
  O  O73  1  0.845864  0.547460  0.547883  1
  O  O74  1  0.345864  0.952540  0.547883  1
  O  O75  1  0.154136  0.452540  0.452117  1
  O  O76  1  0.931421  0.276220  0.432171  1
  O  O77  1  0.568579  0.776220  0.567829  1
  O  O78  1  0.068579  0.723780  0.567829  1
  O  O79  1  0.431421  0.223780  0.432171  1
