# generated using pymatgen
data_MnFeCo(PO4)3
_symmetry_space_group_name_H-M   'P 1'
_cell_length_a   9.85508182
_cell_length_b   6.00656167
_cell_length_c   14.65443421
_cell_angle_alpha   90.00000000
_cell_angle_beta   89.70174073
_cell_angle_gamma   90.00000000
_symmetry_Int_Tables_number   1
_chemical_formula_structural   MnFeCo(PO4)3
_chemical_formula_sum   'Mn4 Fe4 Co4 P12 O48'
_cell_volume   867.45977560
_cell_formula_units_Z   4
loop_
 _symmetry_equiv_pos_site_id
 _symmetry_equiv_pos_as_xyz
  1  'x, y, z'
loop_
 _atom_site_type_symbol
 _atom_site_label
 _atom_site_symmetry_multiplicity
 _atom_site_fract_x
 _atom_site_fract_y
 _atom_site_fract_z
 _atom_site_occupancy
  Mn  Mn0  1  0.215905  0.750000  0.812266  1
  Mn  Mn1  1  0.213288  0.750000  0.480414  1
  Mn  Mn2  1  0.283033  0.250000  0.646046  1
  Mn  Mn3  1  0.283552  0.250000  0.313244  1
  Fe  Fe4  1  0.225495  0.750000  0.153938  1
  Fe  Fe5  1  0.276915  0.250000  0.985102  1
  Fe  Fe6  1  0.729117  0.750000  0.344107  1
  Fe  Fe7  1  0.726849  0.750000  0.008879  1
  Co  Co8  1  0.726444  0.750000  0.677073  1
  Co  Co9  1  0.771845  0.250000  0.176520  1
  Co  Co10  1  0.774120  0.250000  0.514139  1
  Co  Co11  1  0.772821  0.250000  0.840625  1
  P  P12  1  0.098477  0.250000  0.472750  1
  P  P13  1  0.097383  0.250000  0.805315  1
  P  P14  1  0.099239  0.250000  0.140344  1
  P  P15  1  0.400303  0.750000  0.970579  1
  P  P16  1  0.401111  0.750000  0.307329  1
  P  P17  1  0.400688  0.750000  0.639510  1
  P  P18  1  0.601684  0.250000  0.027615  1
  P  P19  1  0.601529  0.250000  0.362418  1
  P  P20  1  0.598098  0.250000  0.696039  1
  P  P21  1  0.900430  0.750000  0.529680  1
  P  P22  1  0.900861  0.750000  0.860379  1
  P  P23  1  0.901285  0.750000  0.194906  1
  O  O24  1  0.053293  0.750000  0.882427  1
  O  O25  1  0.053007  0.750000  0.553687  1
  O  O26  1  0.053351  0.750000  0.216466  1
  O  O27  1  0.119946  0.250000  0.244417  1
  O  O28  1  0.118691  0.250000  0.576682  1
  O  O29  1  0.117692  0.250000  0.908452  1
  O  O30  1  0.170987  0.049700  0.424449  1
  O  O31  1  0.170987  0.450300  0.424449  1
  O  O32  1  0.167953  0.048912  0.756594  1
  O  O33  1  0.167953  0.451088  0.756594  1
  O  O34  1  0.171686  0.050325  0.091559  1
  O  O35  1  0.171686  0.449675  0.091559  1
  O  O36  1  0.327313  0.551986  0.257065  1
  O  O37  1  0.327313  0.948014  0.257065  1
  O  O38  1  0.328446  0.545670  0.925144  1
  O  O39  1  0.328446  0.954330  0.925144  1
  O  O40  1  0.329856  0.549457  0.591120  1
  O  O41  1  0.329856  0.950543  0.591120  1
  O  O42  1  0.379094  0.750000  0.074659  1
  O  O43  1  0.378910  0.750000  0.410840  1
  O  O44  1  0.381035  0.750000  0.743665  1
  O  O45  1  0.450174  0.250000  0.048955  1
  O  O46  1  0.447887  0.250000  0.383174  1
  O  O47  1  0.445179  0.250000  0.717544  1
  O  O48  1  0.552853  0.750000  0.949384  1
  O  O49  1  0.552204  0.750000  0.286481  1
  O  O50  1  0.555312  0.750000  0.620803  1
  O  O51  1  0.623567  0.250000  0.257651  1
  O  O52  1  0.627105  0.250000  0.923682  1
  O  O53  1  0.621145  0.250000  0.591110  1
  O  O54  1  0.672728  0.047881  0.409711  1
  O  O55  1  0.672728  0.452119  0.409711  1
  O  O56  1  0.674670  0.048743  0.075796  1
  O  O57  1  0.674670  0.451257  0.075796  1
  O  O58  1  0.669834  0.048954  0.743650  1
  O  O59  1  0.669834  0.451046  0.743650  1
  O  O60  1  0.827668  0.548791  0.578125  1
  O  O61  1  0.827668  0.951209  0.578125  1
  O  O62  1  0.829688  0.549977  0.909570  1
  O  O63  1  0.829688  0.950023  0.909570  1
  O  O64  1  0.827966  0.550873  0.244982  1
  O  O65  1  0.827966  0.949127  0.244982  1
  O  O66  1  0.876776  0.750000  0.756284  1
  O  O67  1  0.879972  0.750000  0.091904  1
  O  O68  1  0.882192  0.750000  0.426255  1
  O  O69  1  0.944532  0.250000  0.452671  1
  O  O70  1  0.942883  0.250000  0.784705  1
  O  O71  1  0.945125  0.250000  0.122606  1
