# generated using pymatgen
data_NaMnPCO7
_symmetry_space_group_name_H-M   'P 1'
_cell_length_a   18.15090448
_cell_length_b   6.25644562
_cell_length_c   5.23075898
_cell_angle_alpha   90.00000000
_cell_angle_beta   88.00206459
_cell_angle_gamma   90.00000000
_symmetry_Int_Tables_number   1
_chemical_formula_structural   NaMnPCO7
_chemical_formula_sum   'Na4 Mn4 P4 C4 O28'
_cell_volume   593.64465231
_cell_formula_units_Z   4
loop_
 _symmetry_equiv_pos_site_id
 _symmetry_equiv_pos_as_xyz
  1  'x, y, z'
loop_
 _atom_site_type_symbol
 _atom_site_label
 _atom_site_symmetry_multiplicity
 _atom_site_fract_x
 _atom_site_fract_y
 _atom_site_fract_z
 _atom_site_occupancy
  Na  Na0  1  0.119357  0.469849  0.242920  1
  Na  Na1  1  0.380643  0.530151  0.757080  1
  Na  Na2  1  0.619357  0.030151  0.242920  1
  Na  Na3  1  0.880643  0.969849  0.757080  1
  Mn  Mn4  1  0.171230  0.753129  0.783059  1
  Mn  Mn5  1  0.328770  0.246871  0.216941  1
  Mn  Mn6  1  0.671230  0.746871  0.783059  1
  Mn  Mn7  1  0.828770  0.253129  0.216941  1
  P  P8  1  0.216729  0.251431  0.718758  1
  P  P9  1  0.283271  0.748569  0.281242  1
  P  P10  1  0.716729  0.248569  0.718758  1
  P  P11  1  0.783271  0.751431  0.281242  1
  C  C12  1  0.039016  0.743480  0.729481  1
  C  C13  1  0.460984  0.256520  0.270519  1
  C  C14  1  0.539016  0.756520  0.729481  1
  C  C15  1  0.960984  0.243480  0.270519  1
  O  O16  1  0.027768  0.238004  0.300589  1
  O  O17  1  0.071203  0.746570  0.952257  1
  O  O18  1  0.089858  0.747611  0.540029  1
  O  O19  1  0.168176  0.056463  0.784540  1
  O  O20  1  0.163543  0.441356  0.783866  1
  O  O21  1  0.238042  0.260638  0.428123  1
  O  O22  1  0.212726  0.736900  0.127405  1
  O  O23  1  0.287274  0.263100  0.872595  1
  O  O24  1  0.261958  0.739362  0.571877  1
  O  O25  1  0.336457  0.558644  0.216134  1
  O  O26  1  0.331824  0.943537  0.215460  1
  O  O27  1  0.410142  0.252389  0.459971  1
  O  O28  1  0.428797  0.253430  0.047743  1
  O  O29  1  0.472233  0.761996  0.699411  1
  O  O30  1  0.527768  0.261996  0.300589  1
  O  O31  1  0.571203  0.753430  0.952257  1
  O  O32  1  0.589858  0.752389  0.540029  1
  O  O33  1  0.663543  0.058644  0.783866  1
  O  O34  1  0.668176  0.443537  0.784540  1
  O  O35  1  0.738042  0.239362  0.428123  1
  O  O36  1  0.712726  0.763100  0.127405  1
  O  O37  1  0.787274  0.236900  0.872595  1
  O  O38  1  0.761958  0.760638  0.571877  1
  O  O39  1  0.831824  0.556463  0.215460  1
  O  O40  1  0.836457  0.941356  0.216134  1
  O  O41  1  0.910142  0.247611  0.459971  1
  O  O42  1  0.928797  0.246570  0.047743  1
  O  O43  1  0.972232  0.738004  0.699411  1
