# generated using pymatgen
data_Li3Mn2Fe(BO3)3
_symmetry_space_group_name_H-M   'P 1'
_cell_length_a   8.27254368
_cell_length_b   8.84940985
_cell_length_c   6.34826337
_cell_angle_alpha   68.98067165
_cell_angle_beta   90.00000000
_cell_angle_gamma   62.11801663
_symmetry_Int_Tables_number   1
_chemical_formula_structural   Li3Mn2Fe(BO3)3
_chemical_formula_sum   'Li6 Mn4 Fe2 B6 O18'
_cell_volume   375.44638182
_cell_formula_units_Z   2
loop_
 _symmetry_equiv_pos_site_id
 _symmetry_equiv_pos_as_xyz
  1  'x, y, z'
loop_
 _atom_site_type_symbol
 _atom_site_label
 _atom_site_symmetry_multiplicity
 _atom_site_fract_x
 _atom_site_fract_y
 _atom_site_fract_z
 _atom_site_occupancy
  Li  Li0  1  0.716500  0.981733  0.759115  1
  Li  Li1  1  0.716500  0.981733  0.259151  1
  Li  Li2  1  0.983100  0.301154  0.598527  1
  Li  Li3  1  0.983100  0.301154  0.100319  1
  Li  Li4  1  0.301564  0.716009  0.891963  1
  Li  Li5  1  0.301564  0.716009  0.392028  1
  Mn  Mn6  1  0.628032  0.359722  0.820139  1
  Mn  Mn7  1  0.628177  0.359763  0.320119  1
  Mn  Mn8  1  0.359156  0.012738  0.993631  1
  Mn  Mn9  1  0.012256  0.628400  0.685800  1
  Fe  Fe10  1  0.359482  0.008080  0.495960  1
  Fe  Fe11  1  0.008258  0.631747  0.184127  1
  B  B12  1  0.666453  0.667762  0.416315  1
  B  B13  1  0.666453  0.667762  0.915923  1
  B  B14  1  0.332080  0.333037  0.581124  1
  B  B15  1  0.332080  0.333037  0.085839  1
  B  B16  1  0.001896  0.997748  0.001126  1
  B  B17  1  0.000563  0.001903  0.499049  1
  O  O18  1  0.887358  0.921508  0.539246  1
  O  O19  1  0.888879  0.916070  0.041965  1
  O  O20  1  0.860366  0.581913  0.962713  1
  O  O21  1  0.860366  0.581913  0.455375  1
  O  O22  1  0.921156  0.191650  0.904175  1
  O  O23  1  0.920844  0.195310  0.402346  1
  O  O24  1  0.558185  0.861556  0.323477  1
  O  O25  1  0.558185  0.861556  0.814967  1
  O  O26  1  0.581125  0.559644  0.970098  1
  O  O27  1  0.581125  0.559644  0.470258  1
  O  O28  1  0.526178  0.251093  0.624608  1
  O  O29  1  0.526178  0.251093  0.124300  1
  O  O30  1  0.195140  0.888629  0.555686  1
  O  O31  1  0.195146  0.883715  0.058143  1
  O  O32  1  0.219945  0.527210  0.484210  1
  O  O33  1  0.219945  0.527210  0.988580  1
  O  O34  1  0.251333  0.220400  0.636876  1
  O  O35  1  0.251333  0.220400  0.142724  1
