# generated using pymatgen
data_K2U2MoO10
_symmetry_space_group_name_H-M   'P 1'
_cell_length_a   8.39681089
_cell_length_b   8.43671764
_cell_length_c   15.58684742
_cell_angle_alpha   90.00000000
_cell_angle_beta   90.00000000
_cell_angle_gamma   104.60796063
_symmetry_Int_Tables_number   1
_chemical_formula_structural   K2U2MoO10
_chemical_formula_sum   'K8 U8 Mo4 O40'
_cell_volume   1068.50191584
_cell_formula_units_Z   4
loop_
 _symmetry_equiv_pos_site_id
 _symmetry_equiv_pos_as_xyz
  1  'x, y, z'
loop_
 _atom_site_type_symbol
 _atom_site_label
 _atom_site_symmetry_multiplicity
 _atom_site_fract_x
 _atom_site_fract_y
 _atom_site_fract_z
 _atom_site_occupancy
  K  K0  1  0.824867  0.574658  0.263870  1
  K  K1  1  0.444574  0.226328  0.541960  1
  K  K2  1  0.444574  0.726328  0.958040  1
  K  K3  1  0.824867  0.074658  0.236130  1
  K  K4  1  0.555426  0.773672  0.458040  1
  K  K5  1  0.175133  0.925342  0.763870  1
  K  K6  1  0.555426  0.273672  0.041960  1
  K  K7  1  0.175133  0.425342  0.736130  1
  U  U8  1  0.883808  0.605852  0.928790  1
  U  U9  1  0.116192  0.894148  0.428790  1
  U  U10  1  0.133941  0.417293  0.425831  1
  U  U11  1  0.133941  0.917293  0.074169  1
  U  U12  1  0.116192  0.394148  0.071210  1
  U  U13  1  0.883808  0.105852  0.571210  1
  U  U14  1  0.866059  0.582707  0.574169  1
  U  U15  1  0.866059  0.082707  0.925831  1
  Mo  Mo16  1  0.621760  0.290165  0.763273  1
  Mo  Mo17  1  0.621760  0.790165  0.736727  1
  Mo  Mo18  1  0.378240  0.209835  0.263273  1
  Mo  Mo19  1  0.378240  0.709835  0.236727  1
  O  O20  1  0.973180  0.868299  0.956667  1
  O  O21  1  0.247148  0.679395  0.331828  1
  O  O22  1  0.026820  0.131701  0.043333  1
  O  O23  1  0.098071  0.145175  0.465789  1
  O  O24  1  0.715450  0.093631  0.492617  1
  O  O25  1  0.664336  0.964795  0.665769  1
  O  O26  1  0.309556  0.490047  0.499410  1
  O  O27  1  0.040476  0.120252  0.655845  1
  O  O28  1  0.969075  0.345728  0.346276  1
  O  O29  1  0.655619  0.625779  0.671061  1
  O  O30  1  0.690444  0.009953  0.999410  1
  O  O31  1  0.247148  0.179395  0.168172  1
  O  O32  1  0.413935  0.241441  0.729189  1
  O  O33  1  0.715450  0.593631  0.007383  1
  O  O34  1  0.335664  0.535205  0.165769  1
  O  O35  1  0.969075  0.845728  0.153724  1
  O  O36  1  0.690444  0.509953  0.500590  1
  O  O37  1  0.664336  0.464795  0.834231  1
  O  O38  1  0.973180  0.368299  0.543333  1
  O  O39  1  0.586065  0.758559  0.270811  1
  O  O40  1  0.284550  0.906369  0.507383  1
  O  O41  1  0.030925  0.154272  0.846276  1
  O  O42  1  0.335664  0.035205  0.334231  1
  O  O43  1  0.959524  0.379748  0.155845  1
  O  O44  1  0.752852  0.320605  0.668172  1
  O  O45  1  0.026820  0.631701  0.456667  1
  O  O46  1  0.586065  0.258559  0.229189  1
  O  O47  1  0.040476  0.620252  0.844155  1
  O  O48  1  0.098071  0.645175  0.034211  1
  O  O49  1  0.344381  0.374221  0.328939  1
  O  O50  1  0.284550  0.406369  0.992617  1
  O  O51  1  0.901929  0.354825  0.965789  1
  O  O52  1  0.030925  0.654272  0.653724  1
  O  O53  1  0.344381  0.874221  0.171061  1
  O  O54  1  0.901929  0.854825  0.534211  1
  O  O55  1  0.752852  0.820605  0.831828  1
  O  O56  1  0.413935  0.741441  0.770811  1
  O  O57  1  0.309556  0.990047  0.000590  1
  O  O58  1  0.959524  0.879748  0.344155  1
  O  O59  1  0.655619  0.125779  0.828939  1
