# generated using pymatgen
data_Li4V3CrO8
_symmetry_space_group_name_H-M   'P 1'
_cell_length_a   5.19659712
_cell_length_b   5.97231866
_cell_length_c   5.21031761
_cell_angle_alpha   90.00699708
_cell_angle_beta   70.06538382
_cell_angle_gamma   89.99796726
_symmetry_Int_Tables_number   1
_chemical_formula_structural   Li4V3CrO8
_chemical_formula_sum   'Li4 V3 Cr1 O8'
_cell_volume   152.01697746
_cell_formula_units_Z   1
loop_
 _symmetry_equiv_pos_site_id
 _symmetry_equiv_pos_as_xyz
  1  'x, y, z'
loop_
 _atom_site_type_symbol
 _atom_site_label
 _atom_site_symmetry_multiplicity
 _atom_site_fract_x
 _atom_site_fract_y
 _atom_site_fract_z
 _atom_site_occupancy
  Li  Li0  1  0.000000  0.002058  0.999974  1
  Li  Li1  1  0.000001  0.497962  0.000011  1
  Li  Li2  1  -0.000013  0.250109  0.500017  1
  Li  Li3  1  0.000007  0.749925  0.499996  1
  V  V4  1  0.500084  0.749798  0.000015  1
  V  V5  1  0.500082  0.000253  0.499954  1
  V  V6  1  0.500031  0.499785  0.499996  1
  Cr  Cr7  1  0.499993  0.250159  -0.000079  1
  O  O8  1  0.270568  0.003195  0.239077  1
  O  O9  1  0.270524  0.496733  0.238921  1
  O  O10  1  0.722040  0.250026  0.256771  1
  O  O11  1  0.277847  0.250048  0.743293  1
  O  O12  1  0.725162  0.749942  0.258257  1
  O  O13  1  0.729402  0.003255  0.760883  1
  O  O14  1  0.274895  0.749988  0.741706  1
  O  O15  1  0.729375  0.496762  0.761207  1
