# generated using pymatgen
data_Li24Mn7Cr5O36
_symmetry_space_group_name_H-M   'P 1'
_cell_length_a   5.01748570
_cell_length_b   13.25725832
_cell_length_c   9.74538432
_cell_angle_alpha   97.14662051
_cell_angle_beta   94.88923615
_cell_angle_gamma   100.72469838
_symmetry_Int_Tables_number   1
_chemical_formula_structural   Li24Mn7Cr5O36
_chemical_formula_sum   'Li24 Mn7 Cr5 O36'
_cell_volume   628.05571747
_cell_formula_units_Z   1
loop_
 _symmetry_equiv_pos_site_id
 _symmetry_equiv_pos_as_xyz
  1  'x, y, z'
loop_
 _atom_site_type_symbol
 _atom_site_label
 _atom_site_symmetry_multiplicity
 _atom_site_fract_x
 _atom_site_fract_y
 _atom_site_fract_z
 _atom_site_occupancy
  Li  Li0  1  0.828682  0.167695  0.000114  1
  Li  Li1  1  0.951263  0.385758  0.000018  1
  Li  Li2  1  0.999836  0.749569  0.250099  1
  Li  Li3  1  0.663434  0.082867  0.250571  1
  Li  Li4  1  0.952589  0.887849  0.500559  1
  Li  Li5  1  0.616082  0.221376  0.500291  1
  Li  Li6  1  0.836201  0.666740  0.499594  1
  Li  Li7  1  0.496808  0.000057  0.499549  1
  Li  Li8  1  0.715320  0.444807  0.499032  1
  Li  Li9  1  0.667209  0.583698  0.749980  1
  Li  Li10  1  0.498291  0.500077  0.000411  1
  Li  Li11  1  0.716701  0.946472  0.000233  1
  Li  Li12  1  0.384410  0.280658  0.001346  1
  Li  Li13  1  0.615737  0.719927  0.000783  1
  Li  Li14  1  0.285527  0.052741  0.998434  1
  Li  Li15  1  0.334115  0.415800  0.249351  1
  Li  Li16  1  0.285011  0.555823  0.500571  1
  Li  Li17  1  0.165184  0.333282  0.500764  1
  Li  Li18  1  0.379453  0.777989  0.498865  1
  Li  Li19  1  0.054023  0.112060  0.500248  1
  Li  Li20  1  0.333244  0.916982  0.750030  1
  Li  Li21  1  0.167702  0.833399  0.999757  1
  Li  Li22  1  0.002093  0.251411  0.749866  1
  Li  Li23  1  0.049636  0.613559  0.999771  1
  Mn  Mn24  1  0.773880  0.305419  0.247214  1
  Mn  Mn25  1  0.444634  0.138669  0.749160  1
  Mn  Mn26  1  0.556864  0.861010  0.249794  1
  Mn  Mn27  1  0.446130  0.640211  0.251590  1
  Mn  Mn28  1  0.220140  0.693802  0.749037  1
  Mn  Mn29  1  0.112704  0.472363  0.750833  1
  Mn  Mn30  1  0.112379  0.971303  0.251178  1
  Cr  Cr31  1  0.893759  0.030012  0.752248  1
  Cr  Cr32  1  0.895481  0.526871  0.249795  1
  Cr  Cr33  1  0.770717  0.805077  0.748977  1
  Cr  Cr34  1  0.560295  0.362766  0.750129  1
  Cr  Cr35  1  0.216212  0.192561  0.250278  1
  O  O36  1  0.004801  0.071927  0.138678  1
  O  O37  1  0.935409  0.215946  0.363032  1
  O  O38  1  0.997605  0.570758  0.638224  1
  O  O39  1  0.861863  0.357638  0.637011  1
  O  O40  1  0.736202  0.116804  0.636759  1
  O  O41  1  0.661786  0.402419  0.136490  1
  O  O42  1  0.931427  0.715989  0.863603  1
  O  O43  1  0.810995  0.476055  0.861779  1
  O  O44  1  0.591273  0.049403  0.865815  1
  O  O45  1  0.855895  0.856817  0.138422  1
  O  O46  1  0.734262  0.617661  0.136126  1
  O  O47  1  0.521917  0.190628  0.138757  1
  O  O48  1  0.662803  0.262568  0.861270  1
  O  O49  1  0.810887  0.976571  0.361443  1
  O  O50  1  0.597641  0.549099  0.363741  1
  O  O51  1  0.477722  0.309357  0.361641  1
  O  O52  1  0.668634  0.762638  0.361798  1
  O  O53  1  0.334902  0.092971  0.362839  1
  O  O54  1  0.671779  0.903285  0.637738  1
  O  O55  1  0.331749  0.237180  0.637453  1
  O  O56  1  0.520951  0.689218  0.638054  1
  O  O57  1  0.402186  0.449886  0.636355  1
  O  O58  1  0.195710  0.023959  0.637259  1
  O  O59  1  0.332749  0.738127  0.138540  1
  O  O60  1  0.473640  0.808441  0.862124  1
  O  O61  1  0.258697  0.382478  0.865381  1
  O  O62  1  0.142651  0.142737  0.861496  1
  O  O63  1  0.403786  0.951810  0.136470  1
  O  O64  1  0.186878  0.525447  0.138555  1
  O  O65  1  0.065474  0.286608  0.134664  1
  O  O66  1  0.335633  0.595345  0.861704  1
  O  O67  1  0.263563  0.880925  0.363477  1
  O  O68  1  0.149265  0.644797  0.363229  1
  O  O69  1  0.996654  0.429176  0.361166  1
  O  O70  1  0.073478  0.784179  0.635223  1
  O  O71  1  0.997386  0.930484  0.863212  1
