# generated using pymatgen
data_Li8NbS6
_symmetry_space_group_name_H-M   'P 1'
_cell_length_a   6.97370061
_cell_length_b   6.95340800
_cell_length_c   13.48645876
_cell_angle_alpha   90.09817643
_cell_angle_beta   89.81441355
_cell_angle_gamma   120.00134561
_symmetry_Int_Tables_number   1
_chemical_formula_structural   Li8NbS6
_chemical_formula_sum   'Li16 Nb2 S12'
_cell_volume   566.34543257
_cell_formula_units_Z   2
loop_
 _symmetry_equiv_pos_site_id
 _symmetry_equiv_pos_as_xyz
  1  'x, y, z'
loop_
 _atom_site_type_symbol
 _atom_site_label
 _atom_site_symmetry_multiplicity
 _atom_site_fract_x
 _atom_site_fract_y
 _atom_site_fract_z
 _atom_site_occupancy
  Li  Li0  1  0.000065  0.678939  0.765723  1
  Li  Li1  1  0.999923  0.620490  0.131357  1
  Li  Li2  1  0.999797  0.379279  0.631174  1
  Li  Li3  1  0.000135  0.321177  0.265791  1
  Li  Li4  1  0.332883  0.666194  0.399505  1
  Li  Li5  1  0.333233  0.666915  0.899601  1
  Li  Li6  1  0.320900  0.320871  0.765769  1
  Li  Li7  1  0.379634  0.379746  0.131388  1
  Li  Li8  1  0.619868  0.620097  0.631409  1
  Li  Li9  1  0.320924  0.000144  0.265531  1
  Li  Li10  1  0.679146  0.679161  0.265655  1
  Li  Li11  1  0.380237  0.000048  0.631729  1
  Li  Li12  1  0.666672  0.333786  0.899610  1
  Li  Li13  1  0.667212  0.333602  0.399493  1
  Li  Li14  1  0.620076  0.000021  0.131353  1
  Li  Li15  1  0.679265  0.000022  0.765872  1
  Nb  Nb16  1  0.001920  0.002055  0.998010  1
  Nb  Nb17  1  -0.000178  0.997794  0.498200  1
  S  S18  1  0.000158  0.676093  0.949933  1
  S  S19  1  -0.000170  0.324087  0.449732  1
  S  S20  1  0.333282  0.666650  0.215675  1
  S  S21  1  -0.000064  0.000072  0.175429  1
  S  S22  1  0.000235  0.999525  0.675268  1
  S  S23  1  0.333340  0.666723  0.715763  1
  S  S24  1  0.322199  0.321602  0.950329  1
  S  S25  1  0.323448  0.000994  0.450306  1
  S  S26  1  0.676448  0.677620  0.450170  1
  S  S27  1  0.666671  0.333341  0.715783  1
  S  S28  1  0.666673  0.333358  0.215670  1
  S  S29  1  0.675870  -0.000406  0.950035  1
