# generated using pymatgen
data_Li4Ti3NbO8
_symmetry_space_group_name_H-M   'P 1'
_cell_length_a   10.74175437
_cell_length_b   10.74184493
_cell_length_c   15.27632873
_cell_angle_alpha   18.28928929
_cell_angle_beta   18.29032986
_cell_angle_gamma   31.46695266
_symmetry_Int_Tables_number   1
_chemical_formula_structural   Li4Ti3NbO8
_chemical_formula_sum   'Li4 Ti3 Nb1 O8'
_cell_volume   151.01507085
_cell_formula_units_Z   1
loop_
 _symmetry_equiv_pos_site_id
 _symmetry_equiv_pos_as_xyz
  1  'x, y, z'
loop_
 _atom_site_type_symbol
 _atom_site_label
 _atom_site_symmetry_multiplicity
 _atom_site_fract_x
 _atom_site_fract_y
 _atom_site_fract_z
 _atom_site_occupancy
  Li  Li0  1  0.000001  0.000000  0.499998  1
  Li  Li1  1  0.000002  0.499999  0.499998  1
  Li  Li2  1  0.500000  0.000001  0.499999  1
  Li  Li3  1  0.500003  0.500001  0.499997  1
  Ti  Ti4  1  0.000002  0.500000  -0.000000  1
  Ti  Ti5  1  0.499999  0.999996  0.000003  1
  Ti  Ti6  1  0.500008  0.499992  -0.000001  1
  Nb  Nb7  1  0.999992  0.000005  0.000004  1
  O  O8  1  0.998350  0.998351  0.259082  1
  O  O9  1  0.997260  0.485119  0.262474  1
  O  O10  1  0.485093  0.997246  0.262508  1
  O  O11  1  0.001658  0.001654  0.740909  1
  O  O12  1  0.511107  0.511083  0.236266  1
  O  O13  1  0.002736  0.514889  0.737527  1
  O  O14  1  0.514896  0.002751  0.737499  1
  O  O15  1  0.488893  0.488910  0.763738  1
