# generated using pymatgen
data_MgH12(I4O3)2
_symmetry_space_group_name_H-M   'P 1'
_cell_length_a   9.12699403
_cell_length_b   9.82638326
_cell_length_c   7.73119464
_cell_angle_alpha   114.30899789
_cell_angle_beta   102.97157187
_cell_angle_gamma   104.93025361
_symmetry_Int_Tables_number   1
_chemical_formula_structural   MgH12(I4O3)2
_chemical_formula_sum   'Mg1 H12 I8 O6'
_cell_volume   565.92220859
_cell_formula_units_Z   1
loop_
 _symmetry_equiv_pos_site_id
 _symmetry_equiv_pos_as_xyz
  1  'x, y, z'
loop_
 _atom_site_type_symbol
 _atom_site_label
 _atom_site_symmetry_multiplicity
 _atom_site_fract_x
 _atom_site_fract_y
 _atom_site_fract_z
 _atom_site_occupancy
  Mg  Mg0  1  0.000000  0.000000  0.000000  1
  H  H1  1  0.691744  0.769480  0.866761  1
  H  H2  1  0.308256  0.230520  0.133239  1
  H  H3  1  0.812729  0.684230  0.895105  1
  H  H4  1  0.187271  0.315770  0.104895  1
  H  H5  1  0.766258  0.131186  0.988491  1
  H  H6  1  0.233742  0.868814  0.011509  1
  H  H7  1  0.766836  0.052534  0.763916  1
  H  H8  1  0.233164  0.947466  0.236084  1
  H  H9  1  0.100948  0.960246  0.676468  1
  H  H10  1  0.899052  0.039754  0.323532  1
  H  H11  1  0.949084  0.796640  0.593109  1
  H  H12  1  0.050916  0.203360  0.406891  1
  I  I13  1  0.356867  0.739599  0.705669  1
  I  I14  1  0.643133  0.260401  0.294331  1
  I  I15  1  0.364261  0.431325  0.692035  1
  I  I16  1  0.635739  0.568675  0.307965  1
  I  I17  1  0.378060  0.128684  0.663671  1
  I  I18  1  0.621940  0.871316  0.336328  1
  I  I19  1  0.894052  0.429817  0.792860  1
  I  I20  1  0.105948  0.570183  0.207140  1
  O  O21  1  0.807404  0.788744  0.918504  1
  O  O22  1  0.192596  0.211256  0.081496  1
  O  O23  1  0.823902  0.080641  0.905125  1
  O  O24  1  0.176098  0.919359  0.094875  1
  O  O25  1  0.017117  0.904045  0.712316  1
  O  O26  1  0.982883  0.095955  0.287684  1
