# generated using pymatgen
data_Li4Mn3Cu2Sb3O16
_symmetry_space_group_name_H-M   'P 1'
_cell_length_a   6.18747390
_cell_length_b   6.12751979
_cell_length_c   9.95196553
_cell_angle_alpha   90.78172033
_cell_angle_beta   88.50901136
_cell_angle_gamma   120.60772300
_symmetry_Int_Tables_number   1
_chemical_formula_structural   Li4Mn3Cu2Sb3O16
_chemical_formula_sum   'Li4 Mn3 Cu2 Sb3 O16'
_cell_volume   324.63716702
_cell_formula_units_Z   1
loop_
 _symmetry_equiv_pos_site_id
 _symmetry_equiv_pos_as_xyz
  1  'x, y, z'
loop_
 _atom_site_type_symbol
 _atom_site_label
 _atom_site_symmetry_multiplicity
 _atom_site_fract_x
 _atom_site_fract_y
 _atom_site_fract_z
 _atom_site_occupancy
  Li  Li0  1  0.318973  0.663124  0.875115  1
  Li  Li1  1  0.983512  0.985947  0.994435  1
  Li  Li2  1  0.999386  0.999155  0.505891  1
  Li  Li3  1  0.651220  0.328953  0.393913  1
  Mn  Mn4  1  0.666383  0.832054  0.217792  1
  Mn  Mn5  1  0.830577  0.664716  0.713914  1
  Mn  Mn6  1  0.831156  0.168273  0.716848  1
  Cu  Cu7  1  0.358987  0.678415  0.521163  1
  Cu  Cu8  1  0.686921  0.344304  0.983193  1
  Sb  Sb9  1  0.170953  0.830238  0.214629  1
  Sb  Sb10  1  0.170395  0.338441  0.214777  1
  Sb  Sb11  1  0.342005  0.173076  0.716325  1
  O  O12  1  0.162589  0.843763  0.604845  1
  O  O13  1  0.017045  0.507946  0.326258  1
  O  O14  1  0.310692  0.653574  0.094975  1
  O  O15  1  0.025976  0.012226  0.323925  1
  O  O16  1  0.006148  0.984839  0.815649  1
  O  O17  1  0.163594  0.314848  0.608825  1
  O  O18  1  0.477794  0.965900  0.323495  1
  O  O19  1  0.476848  0.513807  0.323458  1
  O  O20  1  0.316794  0.156765  0.099533  1
  O  O21  1  0.696547  0.846014  0.611737  1
  O  O22  1  0.510899  0.488275  0.829348  1
  O  O23  1  0.509664  0.032704  0.828703  1
  O  O24  1  0.661363  0.350563  0.600488  1
  O  O25  1  0.852404  0.691261  0.110319  1
  O  O26  1  0.947224  0.479010  0.827840  1
  O  O27  1  0.853949  0.152106  0.110448  1
