# generated using pymatgen
data_Ta2CrNO5
_symmetry_space_group_name_H-M   'P 1'
_cell_length_a   4.76171813
_cell_length_b   4.75844281
_cell_length_c   9.24447570
_cell_angle_alpha   90.00000000
_cell_angle_beta   90.35393735
_cell_angle_gamma   90.00000000
_symmetry_Int_Tables_number   1
_chemical_formula_structural   Ta2CrNO5
_chemical_formula_sum   'Ta4 Cr2 N2 O10'
_cell_volume   209.46069347
_cell_formula_units_Z   2
loop_
 _symmetry_equiv_pos_site_id
 _symmetry_equiv_pos_as_xyz
  1  'x, y, z'
loop_
 _atom_site_type_symbol
 _atom_site_label
 _atom_site_symmetry_multiplicity
 _atom_site_fract_x
 _atom_site_fract_y
 _atom_site_fract_z
 _atom_site_occupancy
  Ta  Ta0  1  0.002697  0.995919  0.338902  1
  Ta  Ta1  1  0.982434  0.997323  0.682852  1
  Ta  Ta2  1  0.497303  0.495919  0.161098  1
  Ta  Ta3  1  0.517566  0.497323  0.817148  1
  Cr  Cr4  1  0.998557  0.000394  0.002309  1
  Cr  Cr5  1  0.501443  0.500394  0.497691  1
  N  N6  1  0.696566  0.700417  0.663900  1
  N  N7  1  0.803434  0.200417  0.836100  1
  O  O8  1  0.199901  0.805913  0.492778  1
  O  O9  1  0.198442  0.805475  0.835346  1
  O  O10  1  0.197424  0.801716  0.172557  1
  O  O11  1  0.302576  0.301716  0.327443  1
  O  O12  1  0.301559  0.305475  0.664654  1
  O  O13  1  0.300100  0.305913  0.007222  1
  O  O14  1  0.689593  0.695352  0.003819  1
  O  O15  1  0.698829  0.697491  0.329027  1
  O  O16  1  0.801171  0.197491  0.170973  1
  O  O17  1  0.810407  0.195352  0.496181  1
