# generated using pymatgen
data_LiVSiO4
_symmetry_space_group_name_H-M   'P 1'
_cell_length_a   8.57676539
_cell_length_b   5.41809898
_cell_length_c   8.24555094
_cell_angle_alpha   90.00000000
_cell_angle_beta   105.36958441
_cell_angle_gamma   90.00000000
_symmetry_Int_Tables_number   1
_chemical_formula_structural   LiVSiO4
_chemical_formula_sum   'Li4 V4 Si4 O16'
_cell_volume   369.46524729
_cell_formula_units_Z   4
loop_
 _symmetry_equiv_pos_site_id
 _symmetry_equiv_pos_as_xyz
  1  'x, y, z'
loop_
 _atom_site_type_symbol
 _atom_site_label
 _atom_site_symmetry_multiplicity
 _atom_site_fract_x
 _atom_site_fract_y
 _atom_site_fract_z
 _atom_site_occupancy
  Li  Li0  1  0.072801  0.852810  0.969737  1
  Li  Li1  1  0.292887  0.338644  0.510104  1
  Li  Li2  1  0.572801  0.147190  0.969737  1
  Li  Li3  1  0.792887  0.661356  0.510104  1
  V  V4  1  0.206346  0.340355  0.866454  1
  V  V5  1  0.381479  0.831390  0.362805  1
  V  V6  1  0.706346  0.659645  0.866454  1
  V  V7  1  0.881479  0.168610  0.362805  1
  Si  Si8  1  0.006470  0.669178  0.246035  1
  Si  Si9  1  0.330181  0.836253  0.740603  1
  Si  Si10  1  0.506470  0.330822  0.246035  1
  Si  Si11  1  0.830181  0.163747  0.740603  1
  O  O12  1  0.009851  0.179906  0.878058  1
  O  O13  1  0.040916  0.384807  0.314842  1
  O  O14  1  0.198505  0.691622  0.821943  1
  O  O15  1  0.279441  0.129664  0.704678  1
  O  O16  1  0.172813  0.785260  0.212534  1
  O  O17  1  0.341238  0.694648  0.567790  1
  O  O18  1  0.509851  0.820094  0.878058  1
  O  O19  1  0.436861  0.176532  0.385264  1
  O  O20  1  0.384011  0.290796  0.057953  1
  O  O21  1  0.540916  0.615193  0.314842  1
  O  O22  1  0.698505  0.308378  0.821943  1
  O  O23  1  0.779441  0.870336  0.704678  1
  O  O24  1  0.672813  0.214740  0.212534  1
  O  O25  1  0.841238  0.305352  0.567790  1
  O  O26  1  0.936861  0.823468  0.385264  1
  O  O27  1  0.884011  0.709204  0.057953  1
