# generated using pymatgen
data_Li2VO2F
_symmetry_space_group_name_H-M   'P 1'
_cell_length_a   4.03393605
_cell_length_b   4.06125522
_cell_length_c   7.13729360
_cell_angle_alpha   90.00000000
_cell_angle_beta   73.58481421
_cell_angle_gamma   90.00000000
_symmetry_Int_Tables_number   1
_chemical_formula_structural   Li2VO2F
_chemical_formula_sum   'Li4 V2 O4 F2'
_cell_volume   112.16302942
_cell_formula_units_Z   2
loop_
 _symmetry_equiv_pos_site_id
 _symmetry_equiv_pos_as_xyz
  1  'x, y, z'
loop_
 _atom_site_type_symbol
 _atom_site_label
 _atom_site_symmetry_multiplicity
 _atom_site_fract_x
 _atom_site_fract_y
 _atom_site_fract_z
 _atom_site_occupancy
  Li  Li0  1  0.488704  0.500000  0.022593  1
  Li  Li1  1  0.344630  0.000000  0.310741  1
  Li  Li2  1  0.655658  0.000000  0.688686  1
  Li  Li3  1  0.177676  0.500000  0.644647  1
  V  V4  1  0.999191  0.000000  0.001618  1
  V  V5  1  0.834142  0.500000  0.331715  1
  O  O6  1  0.507998  0.000000  0.984004  1
  O  O7  1  0.987993  0.500000  0.024014  1
  O  O8  1  0.845340  0.000000  0.309319  1
  O  O9  1  0.325335  0.500000  0.349330  1
  F  F10  1  0.155868  0.000000  0.688265  1
  F  F11  1  0.677465  0.500000  0.645069  1
