# generated using pymatgen
data_Li2Cr3FeO8
_symmetry_space_group_name_H-M   'P 1'
_cell_length_a   5.87647561
_cell_length_b   5.87955960
_cell_length_c   9.53501017
_cell_angle_alpha   89.16648971
_cell_angle_beta   90.41696598
_cell_angle_gamma   120.01736094
_symmetry_Int_Tables_number   1
_chemical_formula_structural   Li2Cr3FeO8
_chemical_formula_sum   'Li4 Cr6 Fe2 O16'
_cell_volume   285.22761399
_cell_formula_units_Z   2
loop_
 _symmetry_equiv_pos_site_id
 _symmetry_equiv_pos_as_xyz
  1  'x, y, z'
loop_
 _atom_site_type_symbol
 _atom_site_label
 _atom_site_symmetry_multiplicity
 _atom_site_fract_x
 _atom_site_fract_y
 _atom_site_fract_z
 _atom_site_occupancy
  Li  Li0  1  0.331826  0.668265  0.895015  1
  Li  Li1  1  0.000440  0.000340  0.997154  1
  Li  Li2  1  0.999560  0.999900  0.497154  1
  Li  Li3  1  0.668174  0.336438  0.395016  1
  Cr  Cr4  1  0.168990  0.831930  0.212454  1
  Cr  Cr5  1  0.170164  0.340064  0.215068  1
  Cr  Cr6  1  0.662419  0.831917  0.212460  1
  Cr  Cr7  1  0.337581  0.169498  0.712460  1
  Cr  Cr8  1  0.831010  0.662940  0.712454  1
  Cr  Cr9  1  0.829836  0.169898  0.715068  1
  Fe  Fe10  1  0.336522  0.664784  0.488369  1
  Fe  Fe11  1  0.663478  0.328262  0.988369  1
  O  O12  1  0.163837  0.838416  0.606520  1
  O  O13  1  0.040294  0.527403  0.335714  1
  O  O14  1  0.334793  0.671616  0.103452  1
  O  O15  1  0.998747  0.995642  0.312604  1
  O  O16  1  0.001253  0.996893  0.812604  1
  O  O17  1  0.172539  0.324492  0.603403  1
  O  O18  1  0.482719  0.963024  0.332079  1
  O  O19  1  0.489809  0.527989  0.335125  1
  O  O20  1  0.324571  0.153106  0.104502  1
  O  O21  1  0.675429  0.828534  0.604502  1
  O  O22  1  0.517281  0.480305  0.832079  1
  O  O23  1  0.510191  0.038180  0.835125  1
  O  O24  1  0.665207  0.336822  0.603452  1
  O  O25  1  0.836163  0.674580  0.106520  1
  O  O26  1  0.959706  0.487110  0.835714  1
  O  O27  1  0.827461  0.151953  0.103403  1
