# generated using pymatgen
data_V2Fe3P6WO24
_symmetry_space_group_name_H-M   'P 1'
_cell_length_a   8.62140937
_cell_length_b   8.67160431
_cell_length_c   8.67160456
_cell_angle_alpha   59.99999685
_cell_angle_beta   59.80722042
_cell_angle_gamma   59.80721420
_symmetry_Int_Tables_number   1
_chemical_formula_structural   V2Fe3P6WO24
_chemical_formula_sum   'V2 Fe3 P6 W1 O24'
_cell_volume   457.07820865
_cell_formula_units_Z   1
loop_
 _symmetry_equiv_pos_site_id
 _symmetry_equiv_pos_as_xyz
  1  'x, y, z'
loop_
 _atom_site_type_symbol
 _atom_site_label
 _atom_site_symmetry_multiplicity
 _atom_site_fract_x
 _atom_site_fract_y
 _atom_site_fract_z
 _atom_site_occupancy
  V  V0  1  0.006837  0.997721  0.997721  1
  V  V1  1  0.501540  0.499487  0.499487  1
  Fe  Fe2  1  0.068106  0.643965  0.643965  1
  Fe  Fe3  1  0.436537  0.854488  0.854488  1
  Fe  Fe4  1  0.932084  0.355972  0.355972  1
  P  P5  1  0.244873  0.252358  0.548606  1
  P  P6  1  0.244873  0.954164  0.252358  1
  P  P7  1  0.244873  0.548606  0.954164  1
  P  P8  1  0.748814  0.462573  0.044486  1
  P  P9  1  0.748814  0.044486  0.744125  1
  P  P10  1  0.748814  0.744125  0.462573  1
  W  W11  1  0.570727  0.143091  0.143091  1
  O  O12  1  0.070680  0.110670  0.317920  1
  O  O13  1  0.070680  0.500731  0.110670  1
  O  O14  1  0.070680  0.317920  0.500731  1
  O  O15  1  0.231675  0.088197  0.738695  1
  O  O16  1  0.431712  0.180839  0.388301  1
  O  O17  1  0.273973  0.411361  0.554022  1
  O  O18  1  0.231675  0.941433  0.088197  1
  O  O19  1  0.273973  0.760642  0.411361  1
  O  O20  1  0.567439  0.612291  0.004812  1
  O  O21  1  0.273973  0.554022  0.760642  1
  O  O22  1  0.763750  0.260837  0.065232  1
  O  O23  1  0.567439  0.004812  0.815459  1
  O  O24  1  0.431712  -0.000853  0.180839  1
  O  O25  1  0.231675  0.738695  0.941433  1
  O  O26  1  0.730458  0.439904  0.240834  1
  O  O27  1  0.431712  0.388301  -0.000853  1
  O  O28  1  0.730458  0.240834  0.588805  1
  O  O29  1  0.763750  0.065232  0.910182  1
  O  O30  1  0.730458  0.588805  0.439904  1
  O  O31  1  0.567439  0.815459  0.612291  1
  O  O32  1  0.763750  0.910182  0.260837  1
  O  O33  1  0.931348  0.690706  0.492326  1
  O  O34  1  0.931348  0.492326  0.885620  1
  O  O35  1  0.931348  0.885620  0.690706  1
