# generated using pymatgen
data_Rb2MgH12(SeO7)2
_symmetry_space_group_name_H-M   'P 1'
_cell_length_a   9.46236464
_cell_length_b   12.84624297
_cell_length_c   6.39717966
_cell_angle_alpha   90.00000000
_cell_angle_beta   105.08462035
_cell_angle_gamma   90.00000000
_symmetry_Int_Tables_number   1
_chemical_formula_structural   Rb2MgH12(SeO7)2
_chemical_formula_sum   'Rb4 Mg2 H24 Se4 O28'
_cell_volume   750.81988214
_cell_formula_units_Z   2
loop_
 _symmetry_equiv_pos_site_id
 _symmetry_equiv_pos_as_xyz
  1  'x, y, z'
loop_
 _atom_site_type_symbol
 _atom_site_label
 _atom_site_symmetry_multiplicity
 _atom_site_fract_x
 _atom_site_fract_y
 _atom_site_fract_z
 _atom_site_occupancy
  Rb  Rb0  1  0.131642  0.345861  0.341582  1
  Rb  Rb1  1  0.368358  0.845861  0.658418  1
  Rb  Rb2  1  0.631642  0.154139  0.341582  1
  Rb  Rb3  1  0.868358  0.654139  0.658418  1
  Mg  Mg4  1  0.000000  0.000000  0.000000  1
  Mg  Mg5  1  0.500000  0.500000  0.000000  1
  H  H6  1  0.089846  0.056072  0.654062  1
  H  H7  1  0.031173  0.860786  0.332636  1
  H  H8  1  0.139665  0.819042  0.995753  1
  H  H9  1  0.235808  0.404223  0.933343  1
  H  H10  1  0.267644  0.628667  0.910593  1
  H  H11  1  0.205834  0.090059  0.315846  1
  H  H12  1  0.294166  0.590059  0.684154  1
  H  H13  1  0.232356  0.128667  0.089407  1
  H  H14  1  0.264192  0.904223  0.066657  1
  H  H15  1  0.360335  0.319042  0.004247  1
  H  H16  1  0.468827  0.360786  0.667364  1
  H  H17  1  0.410154  0.556072  0.345938  1
  H  H18  1  0.589846  0.443928  0.654062  1
  H  H19  1  0.531173  0.639214  0.332636  1
  H  H20  1  0.639665  0.680958  0.995753  1
  H  H21  1  0.735808  0.095777  0.933343  1
  H  H22  1  0.767644  0.871333  0.910593  1
  H  H23  1  0.705834  0.409941  0.315846  1
  H  H24  1  0.794166  0.909941  0.684154  1
  H  H25  1  0.732356  0.371333  0.089407  1
  H  H26  1  0.764192  0.595777  0.066657  1
  H  H27  1  0.860335  0.180958  0.004247  1
  H  H28  1  0.968827  0.139214  0.667364  1
  H  H29  1  0.910154  0.943928  0.345938  1
  Se  Se30  1  0.096244  0.640107  0.267952  1
  Se  Se31  1  0.403756  0.140107  0.732048  1
  Se  Se32  1  0.596244  0.859893  0.267952  1
  Se  Se33  1  0.903756  0.359893  0.732048  1
  O  O34  1  0.000558  0.066104  0.705864  1
  O  O35  1  0.060132  0.427427  0.780655  1
  O  O36  1  0.163399  0.892941  0.972639  1
  O  O37  1  0.087891  0.741748  0.429506  1
  O  O38  1  0.128229  0.682838  0.035144  1
  O  O39  1  0.156158  0.108815  0.163839  1
  O  O40  1  0.233130  0.562279  0.401443  1
  O  O41  1  0.266870  0.062279  0.598557  1
  O  O42  1  0.343842  0.608816  0.836161  1
  O  O43  1  0.371771  0.182838  0.964856  1
  O  O44  1  0.412109  0.241748  0.570494  1
  O  O45  1  0.336601  0.392941  0.027361  1
  O  O46  1  0.500558  0.433896  0.705864  1
  O  O47  1  0.439868  0.927427  0.219345  1
  O  O48  1  0.560132  0.072573  0.780655  1
  O  O49  1  0.499442  0.566104  0.294136  1
  O  O50  1  0.663399  0.607059  0.972639  1
  O  O51  1  0.587891  0.758252  0.429506  1
  O  O52  1  0.628229  0.817162  0.035144  1
  O  O53  1  0.656158  0.391184  0.163839  1
  O  O54  1  0.733130  0.937721  0.401443  1
  O  O55  1  0.766870  0.437721  0.598557  1
  O  O56  1  0.843842  0.891184  0.836161  1
  O  O57  1  0.871771  0.317162  0.964856  1
  O  O58  1  0.912109  0.258252  0.570494  1
  O  O59  1  0.836601  0.107059  0.027361  1
  O  O60  1  0.939868  0.572573  0.219345  1
  O  O61  1  0.999442  0.933896  0.294136  1
