# generated using pymatgen
data_NaSr3NdTi5O15
_symmetry_space_group_name_H-M   'P 1'
_cell_length_a   5.51524720
_cell_length_b   5.51524689
_cell_length_c   27.78987284
_cell_angle_alpha   119.78043543
_cell_angle_beta   119.78043350
_cell_angle_gamma   89.99996656
_symmetry_Int_Tables_number   1
_chemical_formula_structural   NaSr3NdTi5O15
_chemical_formula_sum   'Na2 Sr6 Nd2 Ti10 O30'
_cell_volume   601.67082485
_cell_formula_units_Z   2
loop_
 _symmetry_equiv_pos_site_id
 _symmetry_equiv_pos_as_xyz
  1  'x, y, z'
loop_
 _atom_site_type_symbol
 _atom_site_label
 _atom_site_symmetry_multiplicity
 _atom_site_fract_x
 _atom_site_fract_y
 _atom_site_fract_z
 _atom_site_occupancy
  Na  Na0  1  0.746739  0.246739  0.898703  1
  Na  Na1  1  0.753274  0.253274  0.701304  1
  Sr  Sr2  1  0.253871  0.753871  0.501549  1
  Sr  Sr3  1  0.250065  0.750065  0.300006  1
  Sr  Sr4  1  0.753120  0.253120  0.501247  1
  Sr  Sr5  1  0.246145  0.746145  0.098443  1
  Sr  Sr6  1  0.749964  0.249964  0.299998  1
  Sr  Sr7  1  0.746881  0.246881  0.098758  1
  Nd  Nd8  1  0.247049  0.747049  0.898820  1
  Nd  Nd9  1  0.253042  0.753042  0.701194  1
  Ti  Ti10  1  -0.000061  0.000031  0.799996  1
  Ti  Ti11  1  0.500031  0.499939  0.799996  1
  Ti  Ti12  1  0.002062  0.002068  0.400827  1
  Ti  Ti13  1  0.506933  0.506905  0.602767  1
  Ti  Ti14  1  0.997949  0.997953  0.199173  1
  Ti  Ti15  1  0.502068  0.502062  0.400827  1
  Ti  Ti16  1  0.006905  0.006933  0.602767  1
  Ti  Ti17  1  0.993058  0.993088  0.997233  1
  Ti  Ti18  1  0.497953  0.497949  0.199173  1
  Ti  Ti19  1  0.493088  0.493058  0.997233  1
  O  O20  1  0.246693  0.246732  0.898683  1
  O  O21  1  0.210685  0.307508  0.803632  1
  O  O22  1  0.289308  0.789308  0.796358  1
  O  O23  1  0.253284  0.253193  0.701316  1
  O  O24  1  0.746732  0.746693  0.898683  1
  O  O25  1  0.221990  0.302081  0.604806  1
  O  O26  1  0.692507  0.192507  0.796370  1
  O  O27  1  0.282224  0.782224  0.601476  1
  O  O28  1  0.807508  0.710685  0.803632  1
  O  O29  1  0.254044  0.254047  0.501626  1
  O  O30  1  0.753193  0.753284  0.701316  1
  O  O31  1  0.230081  0.276332  0.401282  1
  O  O32  1  0.725039  0.225039  0.601454  1
  O  O33  1  0.274735  0.774735  0.400541  1
  O  O34  1  0.802081  0.721990  0.604806  1
  O  O35  1  0.250030  0.249984  0.300000  1
  O  O36  1  0.754047  0.754044  0.501626  1
  O  O37  1  0.225305  0.272058  0.199471  1
  O  O38  1  0.727918  0.227918  0.400514  1
  O  O39  1  0.269904  0.769904  0.198715  1
  O  O40  1  0.776332  0.730081  0.401282  1
  O  O41  1  0.245913  0.245949  0.098372  1
  O  O42  1  0.749984  0.750030  0.300000  1
  O  O43  1  0.217760  0.274909  0.998539  1
  O  O44  1  0.723671  0.223671  0.198719  1
  O  O45  1  0.278057  0.778057  0.995196  1
  O  O46  1  0.772058  0.725305  0.199471  1
  O  O47  1  0.745949  0.745913  0.098372  1
  O  O48  1  0.697924  0.197924  0.995189  1
  O  O49  1  0.774909  0.717760  0.998539  1
