# generated using pymatgen
data_NdAl3(BO3)4
_symmetry_space_group_name_H-M   'P 1'
_cell_length_a   5.96650081
_cell_length_b   5.96650081
_cell_length_c   5.96650082
_cell_angle_alpha   104.13751015
_cell_angle_beta   104.13751018
_cell_angle_gamma   104.13751021
_symmetry_Int_Tables_number   1
_chemical_formula_structural   NdAl3(BO3)4
_chemical_formula_sum   'Nd1 Al3 B4 O12'
_cell_volume   189.01210756
_cell_formula_units_Z   1
loop_
 _symmetry_equiv_pos_site_id
 _symmetry_equiv_pos_as_xyz
  1  'x, y, z'
loop_
 _atom_site_type_symbol
 _atom_site_label
 _atom_site_symmetry_multiplicity
 _atom_site_fract_x
 _atom_site_fract_y
 _atom_site_fract_z
 _atom_site_occupancy
  B  B0  1  0.058193  0.500000  0.941807  1
  B  B1  1  0.500000  0.941807  0.058193  1
  B  B2  1  0.941807  0.058193  0.500000  1
  B  B3  1  0.500000  0.500000  0.500000  1
  O  O4  1  0.225685  0.379044  0.972945  1
  O  O5  1  0.774315  0.027055  0.620956  1
  O  O6  1  0.620956  0.774315  0.027055  1
  O  O7  1  0.027055  0.620956  0.774315  1
  O  O8  1  0.351445  0.648555  0.500000  1
  O  O9  1  0.500000  0.351445  0.648555  1
  O  O10  1  0.648555  0.500000  0.351445  1
  O  O11  1  0.090460  0.909540  0.500000  1
  O  O12  1  0.500000  0.090460  0.909540  1
  O  O13  1  0.909540  0.500000  0.090460  1
  O  O14  1  0.972945  0.225685  0.379044  1
  O  O15  1  0.379044  0.972945  0.225685  1
  Al  Al16  1  0.444365  0.000000  0.555635  1
  Al  Al17  1  0.000000  0.555635  0.444365  1
  Al  Al18  1  0.555635  0.444365  0.000000  1
  Nd  Nd19  1  0.000000  0.000000  0.000000  1
