# generated using pymatgen
data_Li2Fe2(SiO3)3
_symmetry_space_group_name_H-M   'P 1'
_cell_length_a   12.38980435
_cell_length_b   9.65449997
_cell_length_c   6.28087282
_cell_angle_alpha   90.00000000
_cell_angle_beta   90.00000000
_cell_angle_gamma   90.00000000
_symmetry_Int_Tables_number   1
_chemical_formula_structural   Li2Fe2(SiO3)3
_chemical_formula_sum   'Li8 Fe8 Si12 O36'
_cell_volume   751.30146118
_cell_formula_units_Z   4
loop_
 _symmetry_equiv_pos_site_id
 _symmetry_equiv_pos_as_xyz
  1  'x, y, z'
loop_
 _atom_site_type_symbol
 _atom_site_label
 _atom_site_symmetry_multiplicity
 _atom_site_fract_x
 _atom_site_fract_y
 _atom_site_fract_z
 _atom_site_occupancy
  Li  Li0  1  0.084008  0.558935  0.148565  1
  Li  Li1  1  0.084008  0.941065  0.148565  1
  Li  Li2  1  0.415992  0.058935  0.648565  1
  Li  Li3  1  0.415992  0.441065  0.648565  1
  Li  Li4  1  0.584008  0.558935  0.351435  1
  Li  Li5  1  0.584008  0.941065  0.351435  1
  Li  Li6  1  0.915992  0.058935  0.851435  1
  Li  Li7  1  0.915992  0.441065  0.851435  1
  Fe  Fe8  1  0.163751  0.502426  0.701689  1
  Fe  Fe9  1  0.163751  0.997574  0.701689  1
  Fe  Fe10  1  0.336249  0.002426  0.201689  1
  Fe  Fe11  1  0.336249  0.497574  0.201689  1
  Fe  Fe12  1  0.663751  0.502426  0.798311  1
  Fe  Fe13  1  0.663751  0.997574  0.798311  1
  Fe  Fe14  1  0.836249  0.002426  0.298311  1
  Fe  Fe15  1  0.836249  0.497574  0.298311  1
  Si  Si16  1  0.035952  0.750000  0.534918  1
  Si  Si17  1  0.081167  0.250000  0.035947  1
  Si  Si18  1  0.214391  0.250000  0.432816  1
  Si  Si19  1  0.285609  0.750000  0.932816  1
  Si  Si20  1  0.418833  0.750000  0.535947  1
  Si  Si21  1  0.464048  0.250000  0.034918  1
  Si  Si22  1  0.535952  0.750000  0.965082  1
  Si  Si23  1  0.581167  0.250000  0.464053  1
  Si  Si24  1  0.714391  0.250000  0.067184  1
  Si  Si25  1  0.785609  0.750000  0.567184  1
  Si  Si26  1  0.918833  0.750000  0.964053  1
  Si  Si27  1  0.964048  0.250000  0.465082  1
  O  O28  1  0.024925  0.750000  0.799722  1
  O  O29  1  0.072376  0.102644  0.914359  1
  O  O30  1  0.072376  0.397356  0.914359  1
  O  O31  1  0.095691  0.608772  0.458799  1
  O  O32  1  0.095691  0.891228  0.458799  1
  O  O33  1  0.093359  0.250000  0.539411  1
  O  O34  1  0.225818  0.895272  0.997616  1
  O  O35  1  0.225818  0.604728  0.997616  1
  O  O36  1  0.196677  0.250000  0.172237  1
  O  O37  1  0.303323  0.750000  0.672237  1
  O  O38  1  0.274182  0.104728  0.497616  1
  O  O39  1  0.274182  0.395272  0.497616  1
  O  O40  1  0.406641  0.750000  0.039411  1
  O  O41  1  0.404309  0.108772  0.958799  1
  O  O42  1  0.404309  0.391228  0.958799  1
  O  O43  1  0.427624  0.602644  0.414359  1
  O  O44  1  0.427624  0.897356  0.414359  1
  O  O45  1  0.475075  0.250000  0.299722  1
  O  O46  1  0.524925  0.750000  0.700278  1
  O  O47  1  0.572376  0.102644  0.585641  1
  O  O48  1  0.572376  0.397356  0.585641  1
  O  O49  1  0.595691  0.608772  0.041201  1
  O  O50  1  0.595691  0.891228  0.041201  1
  O  O51  1  0.593359  0.250000  0.960589  1
  O  O52  1  0.725818  0.604728  0.502384  1
  O  O53  1  0.725818  0.895272  0.502384  1
  O  O54  1  0.696677  0.250000  0.327763  1
  O  O55  1  0.803323  0.750000  0.827763  1
  O  O56  1  0.774182  0.104728  0.002384  1
  O  O57  1  0.774182  0.395272  0.002384  1
  O  O58  1  0.906641  0.750000  0.460589  1
  O  O59  1  0.904309  0.108772  0.541201  1
  O  O60  1  0.904309  0.391228  0.541201  1
  O  O61  1  0.927624  0.602644  0.085641  1
  O  O62  1  0.927624  0.897356  0.085641  1
  O  O63  1  0.975075  0.250000  0.200278  1
