# generated using pymatgen
data_Li24Mn5Cr7O36
_symmetry_space_group_name_H-M   'P 1'
_cell_length_a   5.00496596
_cell_length_b   13.31092125
_cell_length_c   9.74726651
_cell_angle_alpha   97.17720490
_cell_angle_beta   94.48296462
_cell_angle_gamma   100.57244003
_symmetry_Int_Tables_number   1
_chemical_formula_structural   Li24Mn5Cr7O36
_chemical_formula_sum   'Li24 Mn5 Cr7 O36'
_cell_volume   629.93323819
_cell_formula_units_Z   1
loop_
 _symmetry_equiv_pos_site_id
 _symmetry_equiv_pos_as_xyz
  1  'x, y, z'
loop_
 _atom_site_type_symbol
 _atom_site_label
 _atom_site_symmetry_multiplicity
 _atom_site_fract_x
 _atom_site_fract_y
 _atom_site_fract_z
 _atom_site_occupancy
  Li  Li0  1  0.834215  0.166831  0.000652  1
  Li  Li1  1  0.954470  0.387440  0.999169  1
  Li  Li2  1  0.000158  0.750096  0.249701  1
  Li  Li3  1  0.666657  0.084091  0.249596  1
  Li  Li4  1  0.953507  0.887474  0.498930  1
  Li  Li5  1  0.618517  0.219775  0.501075  1
  Li  Li6  1  0.835702  0.666714  0.499846  1
  Li  Li7  1  0.501742  0.000884  0.499800  1
  Li  Li8  1  0.713559  0.446110  0.499989  1
  Li  Li9  1  0.665170  0.583338  0.750038  1
  Li  Li10  1  0.503774  0.499970  0.000130  1
  Li  Li11  1  0.715274  0.945761  0.001416  1
  Li  Li12  1  0.380006  0.277285  0.999392  1
  Li  Li13  1  0.615779  0.720261  0.998506  1
  Li  Li14  1  0.284725  0.055734  0.000534  1
  Li  Li15  1  0.331627  0.416867  0.250351  1
  Li  Li16  1  0.282563  0.553237  0.499238  1
  Li  Li17  1  0.164509  0.333144  0.500153  1
  Li  Li18  1  0.382433  0.779317  0.500685  1
  Li  Li19  1  0.048173  0.113477  0.500038  1
  Li  Li20  1  0.331584  0.916066  0.750200  1
  Li  Li21  1  0.163390  0.834061  0.999505  1
  Li  Li22  1  0.999504  0.249006  0.749582  1
  Li  Li23  1  0.050805  0.613037  0.001027  1
  Mn  Mn24  1  0.891966  0.528191  0.251435  1
  Mn  Mn25  1  0.777871  0.804644  0.750297  1
  Mn  Mn26  1  0.442029  0.138505  0.748556  1
  Mn  Mn27  1  0.220934  0.194117  0.248634  1
  Mn  Mn28  1  0.225524  0.695462  0.751287  1
  Cr  Cr29  1  0.885546  0.025239  0.749888  1
  Cr  Cr30  1  0.772241  0.306792  0.250344  1
  Cr  Cr31  1  0.557942  0.358341  0.749489  1
  Cr  Cr32  1  0.556529  0.858932  0.250298  1
  Cr  Cr33  1  0.442383  0.636641  0.249212  1
  Cr  Cr34  1  0.106779  0.474920  0.750273  1
  Cr  Cr35  1  0.111598  0.974753  0.250330  1
  O  O36  1  0.999092  0.072482  0.137979  1
  O  O37  1  0.930599  0.215820  0.363392  1
  O  O38  1  0.003588  0.572134  0.639199  1
  O  O39  1  0.847854  0.357933  0.637233  1
  O  O40  1  0.733705  0.119147  0.634809  1
  O  O41  1  0.671245  0.404208  0.138757  1
  O  O42  1  0.928986  0.714546  0.863463  1
  O  O43  1  0.817859  0.475707  0.862705  1
  O  O44  1  0.600574  0.049446  0.863047  1
  O  O45  1  0.850920  0.857709  0.137798  1
  O  O46  1  0.742351  0.617654  0.136101  1
  O  O47  1  0.518799  0.188929  0.136797  1
  O  O48  1  0.664623  0.261732  0.861114  1
  O  O49  1  0.816477  0.975640  0.362453  1
  O  O50  1  0.597739  0.548448  0.363994  1
  O  O51  1  0.479104  0.308629  0.361383  1
  O  O52  1  0.662314  0.761232  0.362196  1
  O  O53  1  0.333549  0.097173  0.361174  1
  O  O54  1  0.669535  0.903709  0.638536  1
  O  O55  1  0.329747  0.236005  0.637721  1
  O  O56  1  0.524332  0.690094  0.638432  1
  O  O57  1  0.399834  0.450786  0.635442  1
  O  O58  1  0.188477  0.024703  0.638521  1
  O  O59  1  0.335603  0.735814  0.137861  1
  O  O60  1  0.476158  0.810260  0.861204  1
  O  O61  1  0.267620  0.383551  0.864465  1
  O  O62  1  0.144283  0.143181  0.861947  1
  O  O63  1  0.397438  0.950473  0.135489  1
  O  O64  1  0.191246  0.523882  0.138504  1
  O  O65  1  0.070298  0.285137  0.136319  1
  O  O66  1  0.336865  0.598533  0.862830  1
  O  O67  1  0.268343  0.882789  0.365097  1
  O  O68  1  0.138452  0.642921  0.362317  1
  O  O69  1  0.003819  0.431158  0.363301  1
  O  O70  1  0.071294  0.785311  0.636473  1
  O  O71  1  0.998094  0.926612  0.862348  1
