# generated using pymatgen
data_LiFeF4
_symmetry_space_group_name_H-M   'P 1'
_cell_length_a   5.22646661
_cell_length_b   5.22621920
_cell_length_c   12.09469050
_cell_angle_alpha   90.05971962
_cell_angle_beta   89.94044143
_cell_angle_gamma   120.07847579
_symmetry_Int_Tables_number   1
_chemical_formula_structural   LiFeF4
_chemical_formula_sum   'Li3 Fe3 F12'
_cell_volume   285.87547986
_cell_formula_units_Z   3
loop_
 _symmetry_equiv_pos_site_id
 _symmetry_equiv_pos_as_xyz
  1  'x, y, z'
loop_
 _atom_site_type_symbol
 _atom_site_label
 _atom_site_symmetry_multiplicity
 _atom_site_fract_x
 _atom_site_fract_y
 _atom_site_fract_z
 _atom_site_occupancy
  Li  Li0  1  0.999692  0.427786  0.166404  1
  Li  Li1  1  0.572369  0.572411  0.500012  1
  Li  Li2  1  0.427735  0.999654  0.833597  1
  Fe  Fe3  1  0.999488  0.427824  0.666484  1
  Fe  Fe4  1  0.572988  0.572981  0.000022  1
  Fe  Fe5  1  0.427989  0.999507  0.333502  1
  F  F6  1  0.071548  0.677938  0.291919  1
  F  F7  1  0.070568  0.671965  0.787346  1
  F  F8  1  0.327583  0.398892  0.120374  1
  F  F9  1  0.319992  0.392440  0.624831  1
  F  F10  1  0.608152  0.928791  0.958350  1
  F  F11  1  0.602522  0.929408  0.453645  1
  F  F12  1  0.392392  0.319965  0.375197  1
  F  F13  1  0.399000  0.327619  0.879616  1
  F  F14  1  0.929337  0.602505  0.546356  1
  F  F15  1  0.928805  0.608194  0.041686  1
  F  F16  1  0.677920  0.071496  0.708083  1
  F  F17  1  0.671918  0.070624  0.212640  1
