# generated using pymatgen
data_Mo2H5C5N3O14
_symmetry_space_group_name_H-M   'P 1'
_cell_length_a   7.73478551
_cell_length_b   18.32156328
_cell_length_c   12.26623557
_cell_angle_alpha   90.00000000
_cell_angle_beta   90.00000000
_cell_angle_gamma   90.00000000
_symmetry_Int_Tables_number   1
_chemical_formula_structural   Mo2H5C5N3O14
_chemical_formula_sum   'Mo8 H20 C20 N12 O56'
_cell_volume   1738.28948390
_cell_formula_units_Z   4
loop_
 _symmetry_equiv_pos_site_id
 _symmetry_equiv_pos_as_xyz
  1  'x, y, z'
loop_
 _atom_site_type_symbol
 _atom_site_label
 _atom_site_symmetry_multiplicity
 _atom_site_fract_x
 _atom_site_fract_y
 _atom_site_fract_z
 _atom_site_occupancy
  Mo  Mo0  1  0.703996  0.330902  0.470774  1
  Mo  Mo1  1  0.203996  0.169098  0.029226  1
  Mo  Mo2  1  0.296004  0.830902  0.529226  1
  Mo  Mo3  1  0.796004  0.669098  0.970774  1
  Mo  Mo4  1  0.296004  0.669098  0.529226  1
  Mo  Mo5  1  0.796004  0.830902  0.970774  1
  Mo  Mo6  1  0.703996  0.169098  0.470774  1
  Mo  Mo7  1  0.203996  0.330902  0.029226  1
  H  H8  1  0.202001  0.250000  0.418948  1
  H  H9  1  0.702001  0.250000  0.081052  1
  H  H10  1  0.797999  0.750000  0.581052  1
  H  H11  1  0.297999  0.750000  0.918948  1
  H  H12  1  0.553767  0.459414  0.718854  1
  H  H13  1  0.053767  0.040586  0.781146  1
  H  H14  1  0.446233  0.959414  0.281146  1
  H  H15  1  0.946233  0.540586  0.218854  1
  H  H16  1  0.446233  0.540586  0.281146  1
  H  H17  1  0.946233  0.959414  0.218854  1
  H  H18  1  0.553767  0.040586  0.718854  1
  H  H19  1  0.053767  0.459414  0.781146  1
  H  H20  1  0.590801  0.346807  0.211094  1
  H  H21  1  0.090801  0.153193  0.288906  1
  H  H22  1  0.409199  0.846807  0.788906  1
  H  H23  1  0.909199  0.653193  0.711094  1
  H  H24  1  0.409199  0.653193  0.788906  1
  H  H25  1  0.909199  0.846807  0.711094  1
  H  H26  1  0.590801  0.153193  0.211094  1
  H  H27  1  0.090801  0.346807  0.288906  1
  C  C28  1  0.344871  0.250000  0.427502  1
  C  C29  1  0.844871  0.250000  0.072498  1
  C  C30  1  0.655129  0.750000  0.572498  1
  C  C31  1  0.155129  0.750000  0.927502  1
  C  C32  1  0.622083  0.401185  0.245658  1
  C  C33  1  0.122083  0.098815  0.254342  1
  C  C34  1  0.377917  0.901185  0.754342  1
  C  C35  1  0.877917  0.598815  0.745658  1
  C  C36  1  0.377917  0.598815  0.754342  1
  C  C37  1  0.877917  0.901185  0.745658  1
  C  C38  1  0.622083  0.098815  0.245658  1
  C  C39  1  0.122083  0.401185  0.254342  1
  C  C40  1  0.629165  0.411721  0.689343  1
  C  C41  1  0.129165  0.088279  0.810657  1
  C  C42  1  0.370835  0.911721  0.310657  1
  C  C43  1  0.870835  0.588279  0.189343  1
  C  C44  1  0.370835  0.588279  0.310657  1
  C  C45  1  0.870835  0.911721  0.189343  1
  C  C46  1  0.629165  0.088279  0.689343  1
  C  C47  1  0.129165  0.411721  0.810657  1
  N  N48  1  0.772611  0.554555  0.453384  1
  N  N49  1  0.272611  0.945445  0.046616  1
  N  N50  1  0.227389  0.054555  0.546616  1
  N  N51  1  0.727389  0.445445  0.953384  1
  N  N52  1  0.227389  0.445445  0.546616  1
  N  N53  1  0.727389  0.054555  0.953384  1
  N  N54  1  0.772611  0.945445  0.453384  1
  N  N55  1  0.272611  0.554555  0.046616  1
  N  N56  1  0.564079  0.750000  0.225269  1
  N  N57  1  0.064079  0.750000  0.274731  1
  N  N58  1  0.435921  0.250000  0.774731  1
  N  N59  1  0.935921  0.250000  0.725269  1
  O  O60  1  0.728242  0.250000  0.368384  1
  O  O61  1  0.228242  0.250000  0.131616  1
  O  O62  1  0.271758  0.750000  0.631616  1
  O  O63  1  0.771758  0.750000  0.868384  1
  O  O64  1  0.661768  0.250000  0.568243  1
  O  O65  1  0.161768  0.250000  0.931757  1
  O  O66  1  0.338232  0.750000  0.431757  1
  O  O67  1  0.838232  0.750000  0.068243  1
  O  O68  1  0.607429  0.397711  0.585235  1
  O  O69  1  0.107429  0.102289  0.914765  1
  O  O70  1  0.392571  0.897711  0.414765  1
  O  O71  1  0.892571  0.602289  0.085235  1
  O  O72  1  0.392571  0.602289  0.414765  1
  O  O73  1  0.892571  0.897711  0.085235  1
  O  O74  1  0.607429  0.102289  0.585235  1
  O  O75  1  0.107429  0.397711  0.914765  1
  O  O76  1  0.681413  0.398835  0.346962  1
  O  O77  1  0.181413  0.101165  0.153038  1
  O  O78  1  0.318587  0.898835  0.653038  1
  O  O79  1  0.818587  0.601165  0.846962  1
  O  O80  1  0.318587  0.601165  0.653038  1
  O  O81  1  0.818587  0.898835  0.846962  1
  O  O82  1  0.681413  0.101165  0.346962  1
  O  O83  1  0.181413  0.398835  0.153038  1
  O  O84  1  0.417300  0.312293  0.431691  1
  O  O85  1  0.917300  0.187707  0.068309  1
  O  O86  1  0.582700  0.812293  0.568309  1
  O  O87  1  0.082700  0.687707  0.931691  1
  O  O88  1  0.582700  0.687707  0.568309  1
  O  O89  1  0.082700  0.812293  0.931691  1
  O  O90  1  0.417300  0.187707  0.431691  1
  O  O91  1  0.917300  0.312293  0.068309  1
  O  O92  1  0.918705  0.346611  0.494459  1
  O  O93  1  0.418705  0.153389  0.005541  1
  O  O94  1  0.081295  0.846611  0.505541  1
  O  O95  1  0.581295  0.653389  0.994459  1
  O  O96  1  0.081295  0.653389  0.505541  1
  O  O97  1  0.581295  0.846611  0.994459  1
  O  O98  1  0.918705  0.153389  0.494459  1
  O  O99  1  0.418705  0.346611  0.005541  1
  O  O100  1  0.720827  0.376079  0.752193  1
  O  O101  1  0.220827  0.123921  0.747807  1
  O  O102  1  0.279173  0.876079  0.247807  1
  O  O103  1  0.779173  0.623921  0.252193  1
  O  O104  1  0.279173  0.623921  0.247807  1
  O  O105  1  0.779173  0.876079  0.252193  1
  O  O106  1  0.720827  0.123921  0.752193  1
  O  O107  1  0.220827  0.376079  0.747807  1
  O  O108  1  0.605290  0.458483  0.195171  1
  O  O109  1  0.105290  0.041517  0.304829  1
  O  O110  1  0.394710  0.958483  0.804829  1
  O  O111  1  0.894710  0.541517  0.695171  1
  O  O112  1  0.394710  0.541517  0.804829  1
  O  O113  1  0.894710  0.958483  0.695171  1
  O  O114  1  0.605290  0.041517  0.195171  1
  O  O115  1  0.105290  0.458483  0.304829  1
