# generated using pymatgen
data_Li2VP4(H4O5)4
_symmetry_space_group_name_H-M   'P 1'
_cell_length_a   7.19374483
_cell_length_b   10.70935970
_cell_length_c   11.04412125
_cell_angle_alpha   90.00000000
_cell_angle_beta   79.78822660
_cell_angle_gamma   90.00000000
_symmetry_Int_Tables_number   1
_chemical_formula_structural   Li2VP4(H4O5)4
_chemical_formula_sum   'Li4 V2 P8 H32 O40'
_cell_volume   837.36548603
_cell_formula_units_Z   2
loop_
 _symmetry_equiv_pos_site_id
 _symmetry_equiv_pos_as_xyz
  1  'x, y, z'
loop_
 _atom_site_type_symbol
 _atom_site_label
 _atom_site_symmetry_multiplicity
 _atom_site_fract_x
 _atom_site_fract_y
 _atom_site_fract_z
 _atom_site_occupancy
  Li  Li0  1  0.251211  0.659326  0.546418  1
  Li  Li1  1  0.248789  0.159326  0.953582  1
  Li  Li2  1  0.751211  0.840674  0.046418  1
  Li  Li3  1  0.748789  0.340674  0.453582  1
  V  V4  1  0.000000  0.000000  0.500000  1
  V  V5  1  0.500000  0.500000  0.000000  1
  P  P6  1  0.233478  0.759901  0.084043  1
  P  P7  1  0.266522  0.259901  0.415957  1
  P  P8  1  0.237895  0.955358  0.723369  1
  P  P9  1  0.262105  0.455358  0.776631  1
  P  P10  1  0.737895  0.544642  0.223369  1
  P  P11  1  0.762105  0.044642  0.276631  1
  P  P12  1  0.733478  0.740099  0.584043  1
  P  P13  1  0.766522  0.240099  0.915957  1
  H  H14  1  0.154801  0.405806  0.105008  1
  H  H15  1  0.140893  0.039649  0.191899  1
  H  H16  1  0.122449  0.433062  0.395483  1
  H  H17  1  0.183139  0.622358  0.310858  1
  H  H18  1  0.187840  0.830628  0.342449  1
  H  H19  1  0.073822  0.290902  0.789294  1
  H  H20  1  0.312160  0.330628  0.157551  1
  H  H21  1  0.316861  0.122358  0.189142  1
  H  H22  1  0.165575  0.586366  0.924210  1
  H  H23  1  0.155101  0.891858  0.945495  1
  H  H24  1  0.377551  0.933062  0.104517  1
  H  H25  1  0.359107  0.539649  0.308101  1
  H  H26  1  0.345199  0.905806  0.394992  1
  H  H27  1  0.344899  0.391858  0.554505  1
  H  H28  1  0.334425  0.086366  0.575790  1
  H  H29  1  0.426178  0.790902  0.710706  1
  H  H30  1  0.573822  0.209098  0.289294  1
  H  H31  1  0.665575  0.913634  0.424210  1
  H  H32  1  0.655101  0.608142  0.445495  1
  H  H33  1  0.654801  0.094194  0.605008  1
  H  H34  1  0.640893  0.460351  0.691899  1
  H  H35  1  0.622449  0.066938  0.895483  1
  H  H36  1  0.844899  0.108142  0.054505  1
  H  H37  1  0.834425  0.413634  0.075790  1
  H  H38  1  0.683139  0.877642  0.810858  1
  H  H39  1  0.687840  0.669372  0.842449  1
  H  H40  1  0.926178  0.709098  0.210706  1
  H  H41  1  0.812160  0.169372  0.657551  1
  H  H42  1  0.816861  0.377642  0.689142  1
  H  H43  1  0.877551  0.566938  0.604517  1
  H  H44  1  0.859107  0.960351  0.808101  1
  H  H45  1  0.845199  0.594194  0.894992  1
  O  O46  1  0.089632  0.832240  0.016588  1
  O  O47  1  0.134684  0.741890  0.217941  1
  O  O48  1  0.081843  0.343622  0.421676  1
  O  O49  1  0.046430  0.973569  0.685135  1
  O  O50  1  0.261784  0.062091  0.136239  1
  O  O51  1  0.279166  0.365579  0.080475  1
  O  O52  1  0.290222  0.639115  0.015294  1
  O  O53  1  0.209778  0.139115  0.484706  1
  O  O54  1  0.220834  0.865579  0.419525  1
  O  O55  1  0.238216  0.562091  0.363761  1
  O  O56  1  0.106130  0.539939  0.859819  1
  O  O57  1  0.204913  0.313342  0.807184  1
  O  O58  1  0.418157  0.843622  0.078324  1
  O  O59  1  0.256577  0.485212  0.642523  1
  O  O60  1  0.365316  0.241890  0.282059  1
  O  O61  1  0.243423  0.985212  0.857477  1
  O  O62  1  0.295087  0.813342  0.692816  1
  O  O63  1  0.410368  0.332240  0.483412  1
  O  O64  1  0.393870  0.039939  0.640181  1
  O  O65  1  0.546430  0.526431  0.185135  1
  O  O66  1  0.453570  0.473569  0.814865  1
  O  O67  1  0.606130  0.960061  0.359819  1
  O  O68  1  0.589632  0.667760  0.516588  1
  O  O69  1  0.704913  0.186658  0.307184  1
  O  O70  1  0.756577  0.014788  0.142523  1
  O  O71  1  0.634684  0.758110  0.717941  1
  O  O72  1  0.743423  0.514788  0.357477  1
  O  O73  1  0.581843  0.156378  0.921676  1
  O  O74  1  0.795087  0.686658  0.192816  1
  O  O75  1  0.893870  0.460061  0.140181  1
  O  O76  1  0.761784  0.437909  0.636239  1
  O  O77  1  0.779166  0.134421  0.580475  1
  O  O78  1  0.790222  0.860885  0.515294  1
  O  O79  1  0.709778  0.360885  0.984706  1
  O  O80  1  0.720834  0.634421  0.919525  1
  O  O81  1  0.738216  0.937909  0.863761  1
  O  O82  1  0.953570  0.026431  0.314865  1
  O  O83  1  0.918157  0.656378  0.578324  1
  O  O84  1  0.865316  0.258110  0.782059  1
  O  O85  1  0.910368  0.167760  0.983412  1
