# generated using pymatgen
data_Y(BO2)3
_symmetry_space_group_name_H-M   'P 1'
_cell_length_a   6.56171777
_cell_length_b   6.29391754
_cell_length_c   6.56171777
_cell_angle_alpha   121.50735989
_cell_angle_beta   104.79649533
_cell_angle_gamma   104.69585034
_symmetry_Int_Tables_number   1
_chemical_formula_structural   Y(BO2)3
_chemical_formula_sum   'Y2 B6 O12'
_cell_volume   197.20736683
_cell_formula_units_Z   2
loop_
 _symmetry_equiv_pos_site_id
 _symmetry_equiv_pos_as_xyz
  1  'x, y, z'
loop_
 _atom_site_type_symbol
 _atom_site_label
 _atom_site_symmetry_multiplicity
 _atom_site_fract_x
 _atom_site_fract_y
 _atom_site_fract_z
 _atom_site_occupancy
  Y  Y0  1  0.296303  0.250000  0.046303  1
  Y  Y1  1  0.703697  0.750000  0.953697  1
  B  B2  1  0.717236  0.250000  0.467236  1
  B  B3  1  0.840479  0.637963  0.426439  1
  B  B4  1  0.711524  0.137963  0.797483  1
  B  B5  1  0.288476  0.862037  0.202517  1
  B  B6  1  0.159521  0.362037  0.573561  1
  B  B7  1  0.282764  0.750000  0.532764  1
  O  O8  1  0.912169  0.206613  0.416000  1
  O  O9  1  0.502061  0.996401  0.208645  1
  O  O10  1  0.708915  0.598765  0.205319  1
  O  O11  1  0.893446  0.098765  0.889851  1
  O  O12  1  0.712244  0.503599  0.505661  1
  O  O13  1  0.709387  0.293387  0.705556  1
  O  O14  1  0.290613  0.706613  0.294444  1
  O  O15  1  0.287756  0.496401  0.494339  1
  O  O16  1  0.106554  0.901235  0.110149  1
  O  O17  1  0.291085  0.401235  0.794681  1
  O  O18  1  0.497939  0.003599  0.791355  1
  O  O19  1  0.087831  0.793387  0.584000  1
