# generated using pymatgen
data_Co4OF11
_symmetry_space_group_name_H-M   'P 1'
_cell_length_a   7.28773830
_cell_length_b   5.06273235
_cell_length_c   5.29400334
_cell_angle_alpha   89.93500997
_cell_angle_beta   93.56240839
_cell_angle_gamma   90.41734282
_symmetry_Int_Tables_number   1
_chemical_formula_structural   Co4OF11
_chemical_formula_sum   'Co4 O1 F11'
_cell_volume   194.94420582
_cell_formula_units_Z   1
loop_
 _symmetry_equiv_pos_site_id
 _symmetry_equiv_pos_as_xyz
  1  'x, y, z'
loop_
 _atom_site_type_symbol
 _atom_site_label
 _atom_site_symmetry_multiplicity
 _atom_site_fract_x
 _atom_site_fract_y
 _atom_site_fract_z
 _atom_site_occupancy
  Co  Co0  1  0.986531  0.489782  0.500574  1
  Co  Co1  1  0.001217  0.997271  0.000927  1
  Co  Co2  1  0.505916  0.497045  0.500373  1
  Co  Co3  1  0.499837  0.999047  0.999665  1
  O  O4  1  0.737516  0.413474  0.496748  1
  F  F5  1  0.258114  0.888648  0.999156  1
  F  F6  1  0.056845  0.193046  0.312528  1
  F  F7  1  0.260343  0.601998  0.499746  1
  F  F8  1  0.057578  0.298181  0.817416  1
  F  F9  1  0.553636  0.801974  0.314900  1
  F  F10  1  0.446776  0.313198  0.200963  1
  F  F11  1  0.556771  0.685694  0.801638  1
  F  F12  1  0.448076  0.199460  0.684536  1
  F  F13  1  0.940364  0.699841  0.183058  1
  F  F14  1  0.947091  0.807059  0.687526  1
  F  F15  1  0.743389  0.114283  0.000246  1
