# generated using pymatgen
data_Hf2N2O
_symmetry_space_group_name_H-M   'P 1'
_cell_length_a   8.74511553
_cell_length_b   8.74725013
_cell_length_c   8.69348578
_cell_angle_alpha   109.19943566
_cell_angle_beta   109.50726844
_cell_angle_gamma   109.69387070
_symmetry_Int_Tables_number   1
_chemical_formula_structural   Hf2N2O
_chemical_formula_sum   'Hf16 N16 O8'
_cell_volume   512.00369541
_cell_formula_units_Z   8
loop_
 _symmetry_equiv_pos_site_id
 _symmetry_equiv_pos_as_xyz
  1  'x, y, z'
loop_
 _atom_site_type_symbol
 _atom_site_label
 _atom_site_symmetry_multiplicity
 _atom_site_fract_x
 _atom_site_fract_y
 _atom_site_fract_z
 _atom_site_occupancy
  Hf  Hf0  1  0.489924  0.990141  0.988559  1
  Hf  Hf1  1  0.757676  0.293300  0.544828  1
  Hf  Hf2  1  0.721147  0.469444  0.248236  1
  Hf  Hf3  1  0.206478  0.957432  0.242831  1
  Hf  Hf4  1  0.248041  0.213538  0.953415  1
  Hf  Hf5  1  0.024190  0.739784  0.771382  1
  Hf  Hf6  1  0.530723  0.746561  0.281690  1
  Hf  Hf7  1  0.972812  0.258331  0.224773  1
  Hf  Hf8  1  0.504420  0.509704  0.513423  1
  Hf  Hf9  1  0.002414  0.000590  0.500126  1
  Hf  Hf10  1  0.471123  0.258356  0.725553  1
  Hf  Hf11  1  0.998886  0.510063  0.999191  1
  Hf  Hf12  1  0.751445  0.784321  0.043077  1
  Hf  Hf13  1  0.287580  0.537859  0.752614  1
  Hf  Hf14  1  0.781619  0.030802  0.746162  1
  Hf  Hf15  1  0.249668  0.706987  0.462453  1
  N  N16  1  0.510457  0.239142  0.971207  1
  N  N17  1  0.010170  0.044642  0.272439  1
  N  N18  1  0.770671  0.726843  0.265186  1
  N  N19  1  0.725865  0.254960  0.767381  1
  N  N20  1  0.765895  0.535131  0.525034  1
  N  N21  1  0.492309  0.767842  0.035699  1
  N  N22  1  0.272763  0.741684  0.229066  1
  N  N23  1  0.956243  0.728453  0.985978  1
  N  N24  1  0.541408  0.773517  0.548494  1
  N  N25  1  0.989632  0.958552  0.731656  1
  N  N26  1  0.226076  0.270917  0.737818  1
  N  N27  1  0.550812  0.532800  0.773952  1
  N  N28  1  0.230372  0.455590  0.465318  1
  N  N29  1  0.963585  0.506219  0.236911  1
  N  N30  1  0.032651  0.483642  0.757784  1
  N  N31  1  0.262093  0.780986  0.726865  1
  O  O32  1  0.727360  0.997729  0.956347  1
  O  O33  1  0.281907  0.015620  0.054867  1
  O  O34  1  0.762734  0.034715  0.485521  1
  O  O35  1  0.741456  0.217738  0.275251  1
  O  O36  1  0.048679  0.270119  0.018767  1
  O  O37  1  0.441745  0.464714  0.221394  1
  O  O38  1  0.237456  0.967928  0.508912  1
  O  O39  1  0.459518  0.223307  0.449837  1
