# generated using pymatgen
data_Li6Fe3Co7O20
_symmetry_space_group_name_H-M   'P 1'
_cell_length_a   20.70436929
_cell_length_b   2.87608691
_cell_length_c   5.89634007
_cell_angle_alpha   90.00000000
_cell_angle_beta   84.29930465
_cell_angle_gamma   90.00000000
_symmetry_Int_Tables_number   1
_chemical_formula_structural   Li6Fe3Co7O20
_chemical_formula_sum   'Li6 Fe3 Co7 O20'
_cell_volume   349.37622080
_cell_formula_units_Z   1
loop_
 _symmetry_equiv_pos_site_id
 _symmetry_equiv_pos_as_xyz
  1  'x, y, z'
loop_
 _atom_site_type_symbol
 _atom_site_label
 _atom_site_symmetry_multiplicity
 _atom_site_fract_x
 _atom_site_fract_y
 _atom_site_fract_z
 _atom_site_occupancy
  Li  Li0  1  0.100000  0.500000  0.200000  1
  Li  Li1  1  0.285399  0.500000  0.556775  1
  Li  Li2  1  0.403981  0.000000  0.800790  1
  Li  Li3  1  0.600000  0.000000  0.200000  1
  Li  Li4  1  0.796019  0.000000  0.599210  1
  Li  Li5  1  0.914601  0.500000  0.843225  1
  Fe  Fe6  1  0.400378  0.000000  0.278892  1
  Fe  Fe7  1  0.600000  0.000000  0.700000  1
  Fe  Fe8  1  0.799622  0.000000  0.121108  1
  Co  Co9  1  0.001773  0.000000  0.501832  1
  Co  Co10  1  0.100000  0.500000  0.700000  1
  Co  Co11  1  0.198227  0.000000  0.898168  1
  Co  Co12  1  0.295791  0.500000  0.093442  1
  Co  Co13  1  0.499088  0.500000  0.496556  1
  Co  Co14  1  0.700912  0.500000  0.903444  1
  Co  Co15  1  0.904209  0.500000  0.306558  1
  O  O16  1  0.007322  0.500000  0.709268  1
  O  O17  1  0.092641  0.000000  0.482783  1
  O  O18  1  0.107359  0.000000  0.917217  1
  O  O19  1  0.202554  0.500000  0.105418  1
  O  O20  1  0.192678  0.500000  0.690732  1
  O  O21  1  0.302242  0.000000  0.314291  1
  O  O22  1  0.289752  0.000000  0.875126  1
  O  O23  1  0.389393  0.500000  0.049648  1
  O  O24  1  0.406983  0.500000  0.522620  1
  O  O25  1  0.498519  0.000000  0.287777  1
  O  O26  1  0.501180  0.000000  0.706200  1
  O  O27  1  0.590467  0.500000  0.466354  1
  O  O28  1  0.609533  0.500000  0.933646  1
  O  O29  1  0.701481  0.000000  0.112223  1
  O  O30  1  0.698820  0.000000  0.693800  1
  O  O31  1  0.810607  0.500000  0.350352  1
  O  O32  1  0.793017  0.500000  0.877380  1
  O  O33  1  0.897758  0.000000  0.085709  1
  O  O34  1  0.910248  0.000000  0.524874  1
  O  O35  1  0.997446  0.500000  0.294582  1
