# generated using pymatgen
data_NaLi2MnPCO7
_symmetry_space_group_name_H-M   'P 1'
_cell_length_a   8.68565189
_cell_length_b   6.70204367
_cell_length_c   10.06552143
_cell_angle_alpha   89.86606248
_cell_angle_beta   88.64103532
_cell_angle_gamma   90.52388774
_symmetry_Int_Tables_number   1
_chemical_formula_structural   NaLi2MnPCO7
_chemical_formula_sum   'Na4 Li8 Mn4 P4 C4 O28'
_cell_volume   585.73908850
_cell_formula_units_Z   4
loop_
 _symmetry_equiv_pos_site_id
 _symmetry_equiv_pos_as_xyz
  1  'x, y, z'
loop_
 _atom_site_type_symbol
 _atom_site_label
 _atom_site_symmetry_multiplicity
 _atom_site_fract_x
 _atom_site_fract_y
 _atom_site_fract_z
 _atom_site_occupancy
  Na  Na0  1  0.083907  0.259134  0.877778  1
  Na  Na1  1  0.252059  0.999300  0.623301  1
  Na  Na2  1  0.251676  0.998812  0.126517  1
  Na  Na3  1  0.748659  0.499508  0.375441  1
  Li  Li4  1  0.081337  0.253033  0.376236  1
  Li  Li5  1  0.268634  0.478100  0.612370  1
  Li  Li6  1  0.268567  0.481005  0.118164  1
  Li  Li7  1  0.733734  0.520240  0.882355  1
  Li  Li8  1  0.732679  0.978497  0.885114  1
  Li  Li9  1  0.736270  0.984662  0.383688  1
  Li  Li10  1  0.914362  0.745601  0.625891  1
  Li  Li11  1  0.912874  0.748760  0.124700  1
  Mn  Mn12  1  0.357666  0.746178  0.887078  1
  Mn  Mn13  1  0.357325  0.744768  0.388311  1
  Mn  Mn14  1  0.646491  0.245881  0.613112  1
  Mn  Mn15  1  0.644353  0.248536  0.110154  1
  P  P16  1  0.414627  0.254549  0.851297  1
  P  P17  1  0.404749  0.248786  0.352160  1
  P  P18  1  0.596918  0.744860  0.648663  1
  P  P19  1  0.594084  0.749854  0.145745  1
  C  C20  1  0.041161  0.748452  0.867117  1
  C  C21  1  0.045226  0.756136  0.364960  1
  C  C22  1  0.955107  0.258264  0.629816  1
  C  C23  1  0.948183  0.256779  0.139510  1
  O  O24  1  0.101151  0.277398  0.647677  1
  O  O25  1  0.095301  0.274869  0.155493  1
  O  O26  1  0.087990  0.751562  0.988830  1
  O  O27  1  0.088622  0.750417  0.487599  1
  O  O28  1  0.141266  0.743985  0.768859  1
  O  O29  1  0.146177  0.737833  0.268143  1
  O  O30  1  0.323343  0.063122  0.893054  1
  O  O31  1  0.321976  0.432034  0.910419  1
  O  O32  1  0.303410  0.062670  0.387821  1
  O  O33  1  0.313754  0.429356  0.409223  1
  O  O34  1  0.420556  0.270391  0.696376  1
  O  O35  1  0.429374  0.734282  0.597052  1
  O  O36  1  0.419887  0.269859  0.197384  1
  O  O37  1  0.427262  0.733672  0.094414  1
  O  O38  1  0.584186  0.253307  0.899070  1
  O  O39  1  0.585689  0.752069  0.804465  1
  O  O40  1  0.570020  0.233573  0.406736  1
  O  O41  1  0.581880  0.765286  0.300620  1
  O  O42  1  0.696463  0.563940  0.605517  1
  O  O43  1  0.687683  0.930238  0.595015  1
  O  O44  1  0.695603  0.568290  0.104289  1
  O  O45  1  0.683882  0.933397  0.088044  1
  O  O46  1  0.859832  0.244810  0.731702  1
  O  O47  1  0.856553  0.241801  0.243565  1
  O  O48  1  0.902184  0.251131  0.509772  1
  O  O49  1  0.889031  0.252744  0.022322  1
  O  O50  1  0.894983  0.749402  0.841210  1
  O  O51  1  0.901289  0.778868  0.335857  1
