# generated using pymatgen
data_Li3MnPCO7
_symmetry_space_group_name_H-M   'P 1'
_cell_length_a   8.59484061
_cell_length_b   9.95353370
_cell_length_c   6.58420233
_cell_angle_alpha   89.68664400
_cell_angle_beta   90.42636393
_cell_angle_gamma   85.45835276
_symmetry_Int_Tables_number   1
_chemical_formula_structural   Li3MnPCO7
_chemical_formula_sum   'Li12 Mn4 P4 C4 O28'
_cell_volume   561.47759106
_cell_formula_units_Z   4
loop_
 _symmetry_equiv_pos_site_id
 _symmetry_equiv_pos_as_xyz
  1  'x, y, z'
loop_
 _atom_site_type_symbol
 _atom_site_label
 _atom_site_symmetry_multiplicity
 _atom_site_fract_x
 _atom_site_fract_y
 _atom_site_fract_z
 _atom_site_occupancy
  Li  Li0  1  0.098697  0.387869  0.256548  1
  Li  Li1  1  0.090827  0.877016  0.253712  1
  Li  Li2  1  0.275712  0.130205  0.483671  1
  Li  Li3  1  0.273866  0.611559  0.016639  1
  Li  Li4  1  0.274757  0.611308  0.481244  1
  Li  Li5  1  0.344980  0.400824  0.745334  1
  Li  Li6  1  0.720795  0.378603  0.536242  1
  Li  Li7  1  0.720865  0.378053  0.964139  1
  Li  Li8  1  0.725727  0.875481  0.531023  1
  Li  Li9  1  0.726625  0.875538  0.969539  1
  Li  Li10  1  0.904796  0.119621  0.747820  1
  Li  Li11  1  0.904912  0.616552  0.749168  1
  Mn  Mn12  1  0.267454  0.143934  0.000017  1
  Mn  Mn13  1  0.344564  0.875445  0.744384  1
  Mn  Mn14  1  0.658353  0.112257  0.250501  1
  Mn  Mn15  1  0.660367  0.609217  0.249893  1
  P  P16  1  0.408190  0.362631  0.251642  1
  P  P17  1  0.410034  0.861525  0.249447  1
  P  P18  1  0.590692  0.141317  0.749786  1
  P  P19  1  0.589303  0.638313  0.749832  1
  C  C20  1  0.035716  0.351572  0.754496  1
  C  C21  1  0.033576  0.852649  0.752249  1
  C  C22  1  0.964577  0.148868  0.251339  1
  C  C23  1  0.967132  0.648783  0.249682  1
  O  O24  1  0.070015  0.473641  0.748936  1
  O  O25  1  0.110725  0.181534  0.251939  1
  O  O26  1  0.069181  0.977032  0.755116  1
  O  O27  1  0.147058  0.252358  0.761273  1
  O  O28  1  0.112402  0.677725  0.249335  1
  O  O29  1  0.144872  0.755928  0.750549  1
  O  O30  1  0.310885  0.408459  0.060671  1
  O  O31  1  0.312427  0.412399  0.437414  1
  O  O32  1  0.311822  0.918409  0.061406  1
  O  O33  1  0.310279  0.916999  0.431312  1
  O  O34  1  0.422986  0.089273  0.748585  1
  O  O35  1  0.421548  0.201868  0.250595  1
  O  O36  1  0.420542  0.596914  0.749461  1
  O  O37  1  0.422858  0.704454  0.248960  1
  O  O38  1  0.573931  0.296642  0.749887  1
  O  O39  1  0.578185  0.404406  0.251136  1
  O  O40  1  0.581222  0.796711  0.749331  1
  O  O41  1  0.578031  0.907165  0.250388  1
  O  O42  1  0.688799  0.084308  0.935318  1
  O  O43  1  0.687309  0.084376  0.566183  1
  O  O44  1  0.688657  0.584758  0.566475  1
  O  O45  1  0.689501  0.583653  0.934483  1
  O  O46  1  0.854187  0.244458  0.252100  1
  O  O47  1  0.891051  0.318956  0.750325  1
  O  O48  1  0.855903  0.746322  0.249436  1
  O  O49  1  0.933219  0.024597  0.250437  1
  O  O50  1  0.889515  0.822039  0.750176  1
  O  O51  1  0.930374  0.525472  0.250427  1
