# generated using pymatgen
data_Li5Nb2Ni5O12
_symmetry_space_group_name_H-M   'P 1'
_cell_length_a   9.91434390
_cell_length_b   9.47670528
_cell_length_c   5.14238761
_cell_angle_alpha   79.39049892
_cell_angle_beta   69.90362118
_cell_angle_gamma   30.80606996
_symmetry_Int_Tables_number   1
_chemical_formula_structural   Li5Nb2Ni5O12
_chemical_formula_sum   'Li5 Nb2 Ni5 O12'
_cell_volume   226.10066001
_cell_formula_units_Z   1
loop_
 _symmetry_equiv_pos_site_id
 _symmetry_equiv_pos_as_xyz
  1  'x, y, z'
loop_
 _atom_site_type_symbol
 _atom_site_label
 _atom_site_symmetry_multiplicity
 _atom_site_fract_x
 _atom_site_fract_y
 _atom_site_fract_z
 _atom_site_occupancy
  Li  Li0  1  0.706127  0.709159  0.043481  1
  Li  Li1  1  0.291167  0.294778  0.957575  1
  Li  Li2  1  0.622185  0.625723  0.628407  1
  Li  Li3  1  0.462378  0.468294  0.787037  1
  Li  Li4  1  0.956034  0.963221  0.291820  1
  Nb  Nb5  1  0.125351  0.129569  0.124371  1
  Nb  Nb6  1  0.873261  0.876942  0.875687  1
  Ni  Ni7  1  0.039106  0.041981  0.710655  1
  Ni  Ni8  1  0.536640  0.540616  0.212322  1
  Ni  Ni9  1  0.373984  0.378250  0.374718  1
  Ni  Ni10  1  0.209774  0.213392  0.539728  1
  Ni  Ni11  1  0.785836  0.789508  0.463366  1
  O  O12  1  0.705301  0.210364  0.038111  1
  O  O13  1  0.540157  0.047428  0.215449  1
  O  O14  1  0.964472  0.447256  0.292323  1
  O  O15  1  0.804805  0.287944  0.442303  1
  O  O16  1  0.106775  0.639635  0.121735  1
  O  O17  1  0.636121  0.110023  0.633337  1
  O  O18  1  0.879837  0.366926  0.880740  1
  O  O19  1  0.364165  0.882741  0.374401  1
  O  O20  1  0.206739  0.709084  0.547622  1
  O  O21  1  0.043391  0.544053  0.699300  1
  O  O22  1  0.283677  0.809158  0.967940  1
  O  O23  1  0.443288  0.968464  0.799046  1
