# generated using pymatgen
data_Li2V(CO3)2
_symmetry_space_group_name_H-M   'P 1'
_cell_length_a   5.33801463
_cell_length_b   6.41348125
_cell_length_c   8.67139669
_cell_angle_alpha   84.15256408
_cell_angle_beta   73.94421862
_cell_angle_gamma   66.28930773
_symmetry_Int_Tables_number   1
_chemical_formula_structural   Li2V(CO3)2
_chemical_formula_sum   'Li4 V2 C4 O12'
_cell_volume   261.19103070
_cell_formula_units_Z   2
loop_
 _symmetry_equiv_pos_site_id
 _symmetry_equiv_pos_as_xyz
  1  'x, y, z'
loop_
 _atom_site_type_symbol
 _atom_site_label
 _atom_site_symmetry_multiplicity
 _atom_site_fract_x
 _atom_site_fract_y
 _atom_site_fract_z
 _atom_site_occupancy
  Li  Li0  1  0.231282  0.512549  0.838217  1
  Li  Li1  1  0.796543  0.036099  0.653923  1
  Li  Li2  1  0.519796  0.946701  0.331318  1
  Li  Li3  1  0.594333  0.436781  0.173435  1
  V  V4  1  0.865971  0.503731  0.502076  1
  V  V5  1  0.107064  0.989999  0.997660  1
  C  C6  1  0.826979  0.390620  0.802403  1
  C  C7  1  0.393696  0.906409  0.698502  1
  C  C8  1  0.002109  0.094935  0.298615  1
  C  C9  1  0.044082  0.593858  0.200849  1
  O  O10  1  0.472431  0.966927  0.809505  1
  O  O11  1  0.029208  0.444038  0.710741  1
  O  O12  1  0.823887  0.329561  0.948979  1
  O  O13  1  0.147732  0.891606  0.738480  1
  O  O14  1  0.631391  0.398258  0.735457  1
  O  O15  1  0.565844  0.861037  0.554933  1
  O  O16  1  0.192807  0.547581  0.305113  1
  O  O17  1  0.246105  0.040328  0.195015  1
  O  O18  1  0.970829  0.149575  0.444278  1
  O  O19  1  0.793244  0.094467  0.247137  1
  O  O20  1  0.145786  0.637580  0.053691  1
  O  O21  1  0.787286  0.596895  0.254590  1
