# generated using pymatgen
data_H2Ru6C18SO20
_symmetry_space_group_name_H-M   'P 1'
_cell_length_a   12.40547665
_cell_length_b   14.44369684
_cell_length_c   9.68898474
_cell_angle_alpha   104.99693414
_cell_angle_beta   109.68612313
_cell_angle_gamma   71.80979177
_symmetry_Int_Tables_number   1
_chemical_formula_structural   H2Ru6C18SO20
_chemical_formula_sum   'H4 Ru12 C36 S2 O40'
_cell_volume   1529.85376432
_cell_formula_units_Z   2
loop_
 _symmetry_equiv_pos_site_id
 _symmetry_equiv_pos_as_xyz
  1  'x, y, z'
loop_
 _atom_site_type_symbol
 _atom_site_label
 _atom_site_symmetry_multiplicity
 _atom_site_fract_x
 _atom_site_fract_y
 _atom_site_fract_z
 _atom_site_occupancy
  H  H0  1  0.112691  0.919740  0.097848  1
  H  H1  1  0.887309  0.080260  0.902152  1
  H  H2  1  0.909275  0.929601  0.937813  1
  H  H3  1  0.090725  0.070399  0.062187  1
  Ru  Ru4  1  0.129933  0.793827  0.846478  1
  Ru  Ru5  1  0.870067  0.206173  0.153522  1
  Ru  Ru6  1  0.886631  0.833246  0.667042  1
  Ru  Ru7  1  0.113369  0.166754  0.332958  1
  Ru  Ru8  1  0.048442  0.754013  0.093702  1
  Ru  Ru9  1  0.951558  0.245987  0.906298  1
  Ru  Ru10  1  0.282245  0.667129  0.057760  1
  Ru  Ru11  1  0.717755  0.332871  0.942240  1
  Ru  Ru12  1  0.672200  0.773740  0.600362  1
  Ru  Ru13  1  0.327800  0.226260  0.399638  1
  Ru  Ru14  1  0.806149  0.794799  0.905833  1
  Ru  Ru15  1  0.193851  0.205201  0.094167  1
  C  C16  1  0.024785  0.899826  0.704540  1
  C  C17  1  0.975215  0.100174  0.295460  1
  C  C18  1  0.193818  0.702881  0.700794  1
  C  C19  1  0.806182  0.297119  0.299206  1
  C  C20  1  0.251622  0.859076  0.893445  1
  C  C21  1  0.748378  0.140924  0.106555  1
  C  C22  1  0.790266  0.929088  0.545827  1
  C  C23  1  0.209734  0.070912  0.454173  1
  C  C24  1  0.921341  0.740949  0.502156  1
  C  C25  1  0.078659  0.259051  0.497844  1
  C  C26  1  0.883066  0.822592  0.138480  1
  C  C27  1  0.116934  0.177408  0.861520  1
  C  C28  1  0.049151  0.632482  0.128948  1
  C  C29  1  0.950849  0.367518  0.871052  1
  C  C30  1  0.117657  0.791766  0.299124  1
  C  C31  1  0.882343  0.208234  0.700876  1
  C  C32  1  0.420818  0.638102  0.993285  1
  C  C33  1  0.579182  0.361898  0.006716  1
  C  C34  1  0.343074  0.592918  0.218214  1
  C  C35  1  0.656926  0.407082  0.781786  1
  C  C36  1  0.309100  0.789647  0.188003  1
  C  C37  1  0.690900  0.210353  0.811997  1
  C  C38  1  0.227450  0.556955  0.907680  1
  C  C39  1  0.772550  0.443045  0.092320  1
  C  C40  1  0.597313  0.914276  0.653278  1
  C  C41  1  0.402687  0.085724  0.346722  1
  C  C42  1  0.628261  0.771749  0.390009  1
  C  C43  1  0.371739  0.228251  0.609991  1
  C  C44  1  0.769068  0.636456  0.579659  1
  C  C45  1  0.230932  0.363544  0.420341  1
  C  C46  1  0.541823  0.735238  0.614049  1
  C  C47  1  0.458177  0.264762  0.385951  1
  C  C48  1  0.773914  0.678510  0.914101  1
  C  C49  1  0.226086  0.321490  0.085899  1
  C  C50  1  0.662474  0.864570  0.951257  1
  C  C51  1  0.337526  0.135430  0.048743  1
  S  S52  1  0.986559  0.698239  0.820425  1
  S  S53  1  0.013441  0.301761  0.179575  1
  O  O54  1  0.057018  0.883106  0.026684  1
  O  O55  1  0.942982  0.116894  0.973316  1
  O  O56  1  0.834685  0.922374  0.860565  1
  O  O57  1  0.165315  0.077626  0.139435  1
  O  O58  1  0.039384  0.965685  0.668128  1
  O  O59  1  0.960616  0.034315  0.331872  1
  O  O60  1  0.234558  0.645219  0.611904  1
  O  O61  1  0.765442  0.354781  0.388096  1
  O  O62  1  0.324387  0.900256  0.917163  1
  O  O63  1  0.675613  0.099744  0.082837  1
  O  O64  1  0.734039  0.989042  0.472839  1
  O  O65  1  0.265961  0.010958  0.527161  1
  O  O66  1  0.944324  0.680509  0.403740  1
  O  O67  1  0.055676  0.319491  0.596260  1
  O  O68  1  0.848454  0.855189  0.244691  1
  O  O69  1  0.151546  0.144811  0.755309  1
  O  O70  1  0.048660  0.557384  0.150796  1
  O  O71  1  0.951340  0.442616  0.849204  1
  O  O72  1  0.156089  0.814656  0.426365  1
  O  O73  1  0.843911  0.185344  0.573635  1
  O  O74  1  0.506009  0.619489  0.956312  1
  O  O75  1  0.493991  0.380511  0.043688  1
  O  O76  1  0.383818  0.549589  0.316514  1
  O  O77  1  0.616182  0.450411  0.683486  1
  O  O78  1  0.327641  0.861382  0.268145  1
  O  O79  1  0.672359  0.138618  0.731855  1
  O  O80  1  0.205668  0.489183  0.820292  1
  O  O81  1  0.794332  0.510817  0.179708  1
  O  O82  1  0.546699  0.995198  0.681528  1
  O  O83  1  0.453301  0.004802  0.318472  1
  O  O84  1  0.603297  0.768633  0.262644  1
  O  O85  1  0.396703  0.231367  0.737356  1
  O  O86  1  0.818558  0.554375  0.558923  1
  O  O87  1  0.181442  0.445625  0.441077  1
  O  O88  1  0.461726  0.714139  0.622401  1
  O  O89  1  0.538274  0.285861  0.377599  1
  O  O90  1  0.749445  0.607889  0.917460  1
  O  O91  1  0.250555  0.392111  0.082540  1
  O  O92  1  0.577110  0.903076  0.987941  1
  O  O93  1  0.422890  0.096924  0.012059  1
