# generated using pymatgen
data_Li4Nb2V3Cr3O16
_symmetry_space_group_name_H-M   'P 1'
_cell_length_a   6.02473823
_cell_length_b   6.00426351
_cell_length_c   9.68387394
_cell_angle_alpha   90.00958454
_cell_angle_beta   90.44529497
_cell_angle_gamma   119.98207738
_symmetry_Int_Tables_number   1
_chemical_formula_structural   Li4Nb2V3Cr3O16
_chemical_formula_sum   'Li4 Nb2 V3 Cr3 O16'
_cell_volume   303.41582219
_cell_formula_units_Z   1
loop_
 _symmetry_equiv_pos_site_id
 _symmetry_equiv_pos_as_xyz
  1  'x, y, z'
loop_
 _atom_site_type_symbol
 _atom_site_label
 _atom_site_symmetry_multiplicity
 _atom_site_fract_x
 _atom_site_fract_y
 _atom_site_fract_z
 _atom_site_occupancy
  Li  Li0  1  0.333987  0.667089  0.901094  1
  Li  Li1  1  0.002057  0.000825  0.992137  1
  Li  Li2  1  0.003468  0.002064  0.491964  1
  Li  Li3  1  0.665885  0.332964  0.397729  1
  Nb  Nb4  1  0.332705  0.666833  0.493061  1
  Nb  Nb5  1  0.663283  0.330730  0.994574  1
  V  V6  1  0.658377  0.828709  0.217704  1
  V  V7  1  0.829586  0.657816  0.716131  1
  V  V8  1  0.831302  0.173436  0.716427  1
  Cr  Cr9  1  0.170619  0.829713  0.214687  1
  Cr  Cr10  1  0.170777  0.341021  0.214736  1
  Cr  Cr11  1  0.339789  0.169703  0.714712  1
  O  O12  1  0.169014  0.833433  0.593394  1
  O  O13  1  0.040169  0.519817  0.339261  1
  O  O14  1  0.335609  0.668133  0.108770  1
  O  O15  1  0.999498  0.999531  0.305265  1
  O  O16  1  0.000199  0.000350  0.804673  1
  O  O17  1  0.171134  0.336504  0.592949  1
  O  O18  1  0.476126  0.960102  0.343526  1
  O  O19  1  0.476689  0.516606  0.343364  1
  O  O20  1  0.333383  0.167068  0.095420  1
  O  O21  1  0.665325  0.833625  0.591350  1
  O  O22  1  0.517995  0.477549  0.842699  1
  O  O23  1  0.515954  0.040563  0.843275  1
  O  O24  1  0.666443  0.332536  0.608015  1
  O  O25  1  0.835166  0.664841  0.092596  1
  O  O26  1  0.960377  0.479128  0.845444  1
  O  O27  1  0.835087  0.169609  0.092885  1
