# generated using pymatgen
data_Li2CrSi3O8
_symmetry_space_group_name_H-M   'P 1'
_cell_length_a   6.93211212
_cell_length_b   6.55713018
_cell_length_c   8.17447630
_cell_angle_alpha   90.00000000
_cell_angle_beta   90.00000000
_cell_angle_gamma   109.74721152
_symmetry_Int_Tables_number   1
_chemical_formula_structural   Li2CrSi3O8
_chemical_formula_sum   'Li4 Cr2 Si6 O16'
_cell_volume   349.71781985
_cell_formula_units_Z   2
loop_
 _symmetry_equiv_pos_site_id
 _symmetry_equiv_pos_as_xyz
  1  'x, y, z'
loop_
 _atom_site_type_symbol
 _atom_site_label
 _atom_site_symmetry_multiplicity
 _atom_site_fract_x
 _atom_site_fract_y
 _atom_site_fract_z
 _atom_site_occupancy
  Li  Li0  1  0.238169  0.824821  0.327779  1
  Li  Li1  1  0.561362  0.599111  0.822116  1
  Li  Li2  1  0.438638  0.400889  0.322116  1
  Li  Li3  1  0.761831  0.175179  0.827779  1
  Cr  Cr4  1  0.374270  0.017216  0.994530  1
  Cr  Cr5  1  0.625730  0.982784  0.494530  1
  Si  Si6  1  0.046871  0.413058  0.530808  1
  Si  Si7  1  0.056540  0.226872  0.175936  1
  Si  Si8  1  0.327405  0.195009  0.658297  1
  Si  Si9  1  0.672595  0.804991  0.158297  1
  Si  Si10  1  0.943460  0.773128  0.675936  1
  Si  Si11  1  0.953129  0.586942  0.030808  1
  O  O12  1  0.117680  0.002702  0.726344  1
  O  O13  1  0.949481  0.332165  0.031873  1
  O  O14  1  0.094981  0.384824  0.337292  1
  O  O15  1  0.160142  0.756555  0.098419  1
  O  O16  1  0.254023  0.411629  0.632944  1
  O  O17  1  0.278811  0.221895  0.130224  1
  O  O18  1  0.401197  0.132283  0.480786  1
  O  O19  1  0.492504  0.245421  0.807803  1
  O  O20  1  0.507496  0.754579  0.307803  1
  O  O21  1  0.598803  0.867717  0.980786  1
  O  O22  1  0.721189  0.778105  0.630224  1
  O  O23  1  0.745977  0.588371  0.132944  1
  O  O24  1  0.839858  0.243445  0.598419  1
  O  O25  1  0.905019  0.615176  0.837292  1
  O  O26  1  0.050519  0.667835  0.531873  1
  O  O27  1  0.882320  0.997298  0.226344  1
