# generated using pymatgen
data_LiFeBO3
_symmetry_space_group_name_H-M   'P 1'
_cell_length_a   14.47145282
_cell_length_b   14.46426327
_cell_length_c   3.16102954
_cell_angle_alpha   89.28442422
_cell_angle_beta   90.79041470
_cell_angle_gamma   119.92220371
_symmetry_Int_Tables_number   1
_chemical_formula_structural   LiFeBO3
_chemical_formula_sum   'Li9 Fe9 B9 O27'
_cell_volume   573.39927494
_cell_formula_units_Z   9
loop_
 _symmetry_equiv_pos_site_id
 _symmetry_equiv_pos_as_xyz
  1  'x, y, z'
loop_
 _atom_site_type_symbol
 _atom_site_label
 _atom_site_symmetry_multiplicity
 _atom_site_fract_x
 _atom_site_fract_y
 _atom_site_fract_z
 _atom_site_occupancy
  Li  Li0  1  0.099677  0.883192  0.508172  1
  Li  Li1  1  0.115217  0.562562  0.486436  1
  Li  Li2  1  0.447056  0.884049  0.560501  1
  Li  Li3  1  0.116101  0.216382  0.505934  1
  Li  Li4  1  0.436857  0.553778  0.449520  1
  Li  Li5  1  0.453283  0.250885  0.503122  1
  Li  Li6  1  0.783450  0.900365  0.494122  1
  Li  Li7  1  0.796769  0.546358  0.489334  1
  Li  Li8  1  0.748412  0.202526  0.500542  1
  Fe  Fe9  1  0.247429  0.804506  0.064428  1
  Fe  Fe10  1  0.194039  0.442150  0.007957  1
  Fe  Fe11  1  0.225726  0.112842  0.010639  1
  Fe  Fe12  1  0.557175  0.753391  0.940971  1
  Fe  Fe13  1  0.569867  0.464377  0.974515  1
  Fe  Fe14  1  0.534785  0.105806  0.022518  1
  Fe  Fe15  1  0.886325  0.774174  0.985816  1
  Fe  Fe16  1  0.893219  0.429070  0.987401  1
  Fe  Fe17  1  0.887050  0.113133  0.009625  1
  B  B18  1  0.008682  0.662625  0.996407  1
  B  B19  1  0.333373  0.667018  0.000608  1
  B  B20  1  0.336488  0.346220  0.986577  1
  B  B21  1  0.653599  0.990944  0.015826  1
  B  B22  1  0.331894  0.013737  0.530567  1
  B  B23  1  0.680783  0.667703  0.466971  1
  B  B24  1  0.665974  0.332970  0.998153  1
  B  B25  1  0.999684  0.999735  0.007041  1
  B  B26  1  0.985258  0.317984  0.503582  1
  O  O27  1  0.019907  0.915224  0.010219  1
  O  O28  1  0.021141  0.573158  0.970246  1
  O  O29  1  0.096436  0.763051  0.077198  1
  O  O30  1  0.321204  0.913401  0.563543  1
  O  O31  1  0.085587  0.407713  0.503693  1
  O  O32  1  0.225681  0.592602  0.007471  1
  O  O33  1  0.367011  0.773471  0.072453  1
  O  O34  1  0.083936  0.104251  0.024704  1
  O  O35  1  0.551835  0.978159  0.054830  1
  O  O36  1  0.235506  0.332826  0.056672  1
  O  O37  1  0.406932  0.634945  0.921662  1
  O  O38  1  0.666332  0.904058  0.918999  1
  O  O39  1  0.348961  0.257394  0.945631  1
  O  O40  1  0.425551  0.448363  0.960007  1
  O  O41  1  0.241444  0.024266  0.514740  1
  O  O42  1  0.591298  0.678878  0.446661  1
  O  O43  1  0.668031  0.565669  0.474326  1
  O  O44  1  0.433647  0.102916  0.513810  1
  O  O45  1  0.895090  0.979585  0.986423  1
  O  O46  1  0.781704  0.757918  0.480455  1
  O  O47  1  0.567078  0.326439  0.009472  1
  O  O48  1  0.672553  0.240595  0.984142  1
  O  O49  1  0.758208  0.431921  0.000633  1
  O  O50  1  0.907591  0.650560  0.944454  1
  O  O51  1  0.742589  0.091489  0.069571  1
  O  O52  1  0.895832  0.330405  0.495864  1
  O  O53  1  0.975214  0.217170  0.510656  1
