# generated using pymatgen
data_Li4Cr3NiO8
_symmetry_space_group_name_H-M   'P 1'
_cell_length_a   5.12241332
_cell_length_b   5.91160535
_cell_length_c   10.65475919
_cell_angle_alpha   106.16239109
_cell_angle_beta   85.50381600
_cell_angle_gamma   73.21516323
_symmetry_Int_Tables_number   1
_chemical_formula_structural   Li4Cr3NiO8
_chemical_formula_sum   'Li8 Cr6 Ni2 O16'
_cell_volume   292.23321605
_cell_formula_units_Z   2
loop_
 _symmetry_equiv_pos_site_id
 _symmetry_equiv_pos_as_xyz
  1  'x, y, z'
loop_
 _atom_site_type_symbol
 _atom_site_label
 _atom_site_symmetry_multiplicity
 _atom_site_fract_x
 _atom_site_fract_y
 _atom_site_fract_z
 _atom_site_occupancy
  Li  Li0  1  0.995663  0.129389  0.750210  1
  Li  Li1  1  0.003538  0.996048  0.000592  1
  Li  Li2  1  0.005609  0.244979  0.499095  1
  Li  Li3  1  0.994721  0.379790  0.250276  1
  Li  Li4  1  0.998456  0.622835  0.751278  1
  Li  Li5  1  0.000942  0.502959  0.999508  1
  Li  Li6  1  0.001482  0.751451  0.497497  1
  Li  Li7  1  0.999386  0.872733  0.251527  1
  Cr  Cr8  1  0.501382  0.062149  0.874984  1
  Cr  Cr9  1  0.500209  0.186656  0.624530  1
  Cr  Cr10  1  0.498743  0.312788  0.375166  1
  Cr  Cr11  1  0.499646  0.439912  0.125549  1
  Cr  Cr12  1  0.500405  0.687440  0.624580  1
  Cr  Cr13  1  0.499596  0.935931  0.125490  1
  Ni  Ni14  1  0.499510  0.562683  0.875434  1
  Ni  Ni15  1  0.500401  0.812233  0.374539  1
  O  O16  1  0.272988  0.092777  0.309401  1
  O  O17  1  0.726956  0.044488  0.441233  1
  O  O18  1  0.274945  0.322727  0.810977  1
  O  O19  1  0.723579  0.273205  0.938400  1
  O  O20  1  0.724625  0.164763  0.190689  1
  O  O21  1  0.275989  0.209294  0.057271  1
  O  O22  1  0.272198  0.462595  0.561489  1
  O  O23  1  0.725590  0.412662  0.687578  1
  O  O24  1  0.272169  0.581446  0.309645  1
  O  O25  1  0.725543  0.533467  0.441580  1
  O  O26  1  0.277956  0.850630  0.810589  1
  O  O27  1  0.726177  0.801460  0.938176  1
  O  O28  1  0.270802  0.714118  0.063061  1
  O  O29  1  0.272349  0.963629  0.564344  1
  O  O30  1  0.731550  0.658873  0.184104  1
  O  O31  1  0.726901  0.913889  0.691208  1
