# generated using pymatgen
data_FeOF
_symmetry_space_group_name_H-M   'P 1'
_cell_length_a   14.14238297
_cell_length_b   14.17154025
_cell_length_c   3.11061159
_cell_angle_alpha   90.00000000
_cell_angle_beta   90.00000000
_cell_angle_gamma   89.90743354
_symmetry_Int_Tables_number   1
_chemical_formula_structural   FeOF
_chemical_formula_sum   'Fe18 O18 F18'
_cell_volume   623.42593768
_cell_formula_units_Z   18
loop_
 _symmetry_equiv_pos_site_id
 _symmetry_equiv_pos_as_xyz
  1  'x, y, z'
loop_
 _atom_site_type_symbol
 _atom_site_label
 _atom_site_symmetry_multiplicity
 _atom_site_fract_x
 _atom_site_fract_y
 _atom_site_fract_z
 _atom_site_occupancy
  Fe  Fe0  1  0.012046  0.997906  0.000000  1
  Fe  Fe1  1  0.007981  0.328309  0.000000  1
  Fe  Fe2  1  0.005217  0.669883  0.000000  1
  Fe  Fe3  1  0.153485  0.165310  0.500000  1
  Fe  Fe4  1  0.148693  0.498133  0.500000  1
  Fe  Fe5  1  0.153273  0.829912  0.500000  1
  Fe  Fe6  1  0.345598  0.997285  0.000000  1
  Fe  Fe7  1  0.343605  0.333463  0.000000  1
  Fe  Fe8  1  0.343659  0.662758  0.000000  1
  Fe  Fe9  1  0.487917  0.497590  0.500000  1
  Fe  Fe10  1  0.485484  0.165893  0.500000  1
  Fe  Fe11  1  0.485895  0.828744  0.500000  1
  Fe  Fe12  1  0.669859  0.001185  0.000000  1
  Fe  Fe13  1  0.680216  0.330005  0.000000  1
  Fe  Fe14  1  0.680264  0.665099  0.000000  1
  Fe  Fe15  1  0.841583  0.183950  0.500000  1
  Fe  Fe16  1  0.821218  0.497267  0.500000  1
  Fe  Fe17  1  0.835650  0.817434  0.500000  1
  O  O18  1  0.068073  0.271745  0.500000  1
  O  O19  1  0.062146  0.602928  0.500000  1
  O  O20  1  0.064126  0.935530  0.500000  1
  O  O21  1  0.099884  0.103203  0.000000  1
  O  O22  1  0.097422  0.435778  0.000000  1
  O  O23  1  0.104360  0.767285  0.000000  1
  O  O24  1  0.396139  0.270226  0.500000  1
  O  O25  1  0.397096  0.601149  0.500000  1
  O  O26  1  0.399424  0.935303  0.500000  1
  O  O27  1  0.434963  0.101541  0.000000  1
  O  O28  1  0.434732  0.435874  0.000000  1
  O  O29  1  0.433992  0.767346  0.000000  1
  O  O30  1  0.729795  0.264298  0.500000  1
  O  O31  1  0.731845  0.602849  0.500000  1
  O  O32  1  0.767839  0.434196  0.000000  1
  O  O33  1  0.768787  0.770316  0.000000  1
  O  O34  1  0.903254  0.235576  0.000000  1
  O  O35  1  0.938761  0.728524  0.500000  1
  F  F36  1  0.232112  0.233098  0.000000  1
  F  F37  1  0.229079  0.566115  0.000000  1
  F  F38  1  0.232852  0.899734  0.000000  1
  F  F39  1  0.267309  0.066365  0.500000  1
  F  F40  1  0.267628  0.732537  0.500000  1
  F  F41  1  0.264640  0.401094  0.500000  1
  F  F42  1  0.564375  0.233378  0.000000  1
  F  F43  1  0.565879  0.566924  0.000000  1
  F  F44  1  0.567510  0.897921  0.000000  1
  F  F45  1  0.600645  0.070771  0.500000  1
  F  F46  1  0.600868  0.398879  0.500000  1
  F  F47  1  0.600980  0.734149  0.500000  1
  F  F48  1  0.738465  0.933002  0.500000  1
  F  F49  1  0.772463  0.102253  0.000000  1
  F  F50  1  0.898166  0.563036  0.000000  1
  F  F51  1  0.898160  0.900509  0.000000  1
  F  F52  1  0.930540  0.063939  0.500000  1
  F  F53  1  0.934051  0.402503  0.500000  1
