# generated using pymatgen
data_LiFeSiO4
_symmetry_space_group_name_H-M   'P 1'
_cell_length_a   8.97302775
_cell_length_b   8.97302775
_cell_length_c   8.97302775
_cell_angle_alpha   90.57230926
_cell_angle_beta   89.42769074
_cell_angle_gamma   89.42769074
_symmetry_Int_Tables_number   1
_chemical_formula_structural   LiFeSiO4
_chemical_formula_sum   'Li6 Fe6 Si6 O24'
_cell_volume   722.35651691
_cell_formula_units_Z   6
loop_
 _symmetry_equiv_pos_site_id
 _symmetry_equiv_pos_as_xyz
  1  'x, y, z'
loop_
 _atom_site_type_symbol
 _atom_site_label
 _atom_site_symmetry_multiplicity
 _atom_site_fract_x
 _atom_site_fract_y
 _atom_site_fract_z
 _atom_site_occupancy
  Li  Li0  1  0.226222  0.231284  0.218497  1
  Li  Li1  1  0.268716  0.273778  0.718497  1
  Li  Li2  1  0.281503  0.731284  0.273778  1
  Li  Li3  1  0.726222  0.718497  0.731284  1
  Li  Li4  1  0.768716  0.218497  0.773778  1
  Li  Li5  1  0.781503  0.773778  0.231284  1
  Fe  Fe6  1  0.990879  0.247457  0.496121  1
  Fe  Fe7  1  0.003879  0.747457  0.509121  1
  Fe  Fe8  1  0.252543  0.509121  0.996121  1
  Fe  Fe9  1  0.490879  0.996121  0.747457  1
  Fe  Fe10  1  0.503879  0.009121  0.247457  1
  Fe  Fe11  1  0.752543  0.496121  0.009121  1
  Si  Si12  1  0.009139  0.507125  0.253329  1
  Si  Si13  1  0.992875  0.490861  0.753329  1
  Si  Si14  1  0.246671  0.007125  0.490861  1
  Si  Si15  1  0.509139  0.753329  0.007125  1
  Si  Si16  1  0.492875  0.253329  0.990861  1
  Si  Si17  1  0.746671  0.990861  0.507125  1
  O  O18  1  0.079433  0.358710  0.654829  1
  O  O19  1  0.095139  0.641234  0.346415  1
  O  O20  1  0.141290  0.420567  0.154829  1
  O  O21  1  0.114834  0.572164  0.858656  1
  O  O22  1  0.153585  0.141234  0.404861  1
  O  O23  1  0.141344  0.885166  0.572164  1
  O  O24  1  0.346312  0.088979  0.622258  1
  O  O25  1  0.345171  0.920567  0.358710  1
  O  O26  1  0.358766  0.346415  0.904861  1
  O  O27  1  0.377742  0.653688  0.088979  1
  O  O28  1  0.411021  0.153688  0.122258  1
  O  O29  1  0.427836  0.858656  0.885166  1
  O  O30  1  0.579433  0.154829  0.858710  1
  O  O31  1  0.595139  0.846415  0.141234  1
  O  O32  1  0.614834  0.358656  0.072164  1
  O  O33  1  0.641290  0.654829  0.920567  1
  O  O34  1  0.641344  0.072164  0.385166  1
  O  O35  1  0.653585  0.904861  0.641234  1
  O  O36  1  0.846312  0.122258  0.588978  1
  O  O37  1  0.845171  0.858710  0.420567  1
  O  O38  1  0.877742  0.588978  0.153688  1
  O  O39  1  0.858766  0.404861  0.846415  1
  O  O40  1  0.927836  0.385166  0.358656  1
  O  O41  1  0.911022  0.622258  0.653688  1
