# generated using pymatgen
data_Sr2MnMoO6
_symmetry_space_group_name_H-M   'P 1'
_cell_length_a   8.10345878
_cell_length_b   8.10274672
_cell_length_c   8.15882808
_cell_angle_alpha   89.97269833
_cell_angle_beta   89.96639640
_cell_angle_gamma   90.01188843
_symmetry_Int_Tables_number   1
_chemical_formula_structural   Sr2MnMoO6
_chemical_formula_sum   'Sr8 Mn4 Mo4 O24'
_cell_volume   535.71072303
_cell_formula_units_Z   4
loop_
 _symmetry_equiv_pos_site_id
 _symmetry_equiv_pos_as_xyz
  1  'x, y, z'
loop_
 _atom_site_type_symbol
 _atom_site_label
 _atom_site_symmetry_multiplicity
 _atom_site_fract_x
 _atom_site_fract_y
 _atom_site_fract_z
 _atom_site_occupancy
  Sr  Sr0  1  0.249775  0.250813  0.250612  1
  Sr  Sr1  1  0.749971  0.250387  0.260158  1
  Sr  Sr2  1  0.250154  0.749667  0.739867  1
  Sr  Sr3  1  0.751064  0.748761  0.248189  1
  Sr  Sr4  1  0.249088  0.251270  0.751939  1
  Sr  Sr5  1  0.250043  0.751189  0.238818  1
  Sr  Sr6  1  0.750202  0.749200  0.749304  1
  Sr  Sr7  1  0.749909  0.248801  0.761132  1
  Mn  Mn8  1  0.500109  0.000106  0.499833  1
  Mn  Mn9  1  0.999791  0.000014  0.999820  1
  Mn  Mn10  1  0.000031  0.499755  0.500222  1
  Mn  Mn11  1  0.500048  0.499793  0.000101  1
  Mo  Mo12  1  0.500194  0.499988  0.500043  1
  Mo  Mo13  1  -0.000180  0.999979  0.499951  1
  Mo  Mo14  1  0.499946  -0.000097  0.999963  1
  Mo  Mo15  1  0.000086  0.500036  0.000039  1
  O  O16  1  0.736337  0.544259  0.482817  1
  O  O17  1  0.984392  0.516802  0.762074  1
  O  O18  1  0.263573  0.455730  0.517154  1
  O  O19  1  0.536665  0.763219  0.022164  1
  O  O20  1  0.453948  0.736372  0.483111  1
  O  O21  1  0.763828  0.957019  0.476980  1
  O  O22  1  0.021577  0.018143  0.262540  1
  O  O23  1  0.036479  0.262880  0.981636  1
  O  O24  1  0.546104  0.263777  0.516887  1
  O  O25  1  0.015525  0.483228  0.238039  1
  O  O26  1  0.045511  0.763606  0.485729  1
  O  O27  1  0.236366  0.042944  0.522922  1
  O  O28  1  0.263220  0.960644  0.980014  1
  O  O29  1  0.762753  0.461585  0.013333  1
  O  O30  1  0.485166  0.479171  0.262503  1
  O  O31  1  0.978253  0.981921  0.737373  1
  O  O32  1  0.954371  0.236313  0.514303  1
  O  O33  1  0.736791  0.039445  0.020036  1
  O  O34  1  0.963426  0.737140  0.018350  1
  O  O35  1  0.237157  0.538395  0.986690  1
  O  O36  1  0.523523  0.980470  0.762545  1
  O  O37  1  0.463401  0.236847  0.977899  1
  O  O38  1  0.476561  0.019670  0.237435  1
  O  O39  1  0.514843  0.520761  0.737476  1
