# generated using pymatgen
data_V2NiP2H6O13
_symmetry_space_group_name_H-M   'P 1'
_cell_length_a   10.62382281
_cell_length_b   9.55650657
_cell_length_c   10.61960714
_cell_angle_alpha   90.00000000
_cell_angle_beta   90.00000000
_cell_angle_gamma   90.00000000
_symmetry_Int_Tables_number   1
_chemical_formula_structural   V2NiP2H6O13
_chemical_formula_sum   'V8 Ni4 P8 H24 O52'
_cell_volume   1078.17295121
_cell_formula_units_Z   4
loop_
 _symmetry_equiv_pos_site_id
 _symmetry_equiv_pos_as_xyz
  1  'x, y, z'
loop_
 _atom_site_type_symbol
 _atom_site_label
 _atom_site_symmetry_multiplicity
 _atom_site_fract_x
 _atom_site_fract_y
 _atom_site_fract_z
 _atom_site_occupancy
  V  V0  1  0.676148  0.250000  0.186025  1
  V  V1  1  0.176148  0.250000  0.313975  1
  V  V2  1  0.323852  0.750000  0.813975  1
  V  V3  1  0.823852  0.750000  0.686025  1
  V  V4  1  0.485543  0.250000  0.911833  1
  V  V5  1  0.985543  0.250000  0.588167  1
  V  V6  1  0.514457  0.750000  0.088167  1
  V  V7  1  0.014457  0.750000  0.411833  1
  Ni  Ni8  1  0.743656  0.250000  0.857279  1
  Ni  Ni9  1  0.243656  0.250000  0.642721  1
  Ni  Ni10  1  0.256344  0.750000  0.142721  1
  Ni  Ni11  1  0.756344  0.750000  0.357279  1
  P  P12  1  0.586180  0.556166  0.808728  1
  P  P13  1  0.086180  0.943834  0.691272  1
  P  P14  1  0.413820  0.056166  0.191272  1
  P  P15  1  0.913820  0.443834  0.308728  1
  P  P16  1  0.413820  0.443834  0.191272  1
  P  P17  1  0.913820  0.056166  0.308728  1
  P  P18  1  0.586180  0.943834  0.808728  1
  P  P19  1  0.086180  0.556166  0.691272  1
  H  H20  1  0.931374  0.604470  0.898707  1
  H  H21  1  0.431374  0.895530  0.601293  1
  H  H22  1  0.068626  0.104470  0.101293  1
  H  H23  1  0.568626  0.395530  0.398707  1
  H  H24  1  0.068626  0.395530  0.101293  1
  H  H25  1  0.568626  0.104470  0.398707  1
  H  H26  1  0.931374  0.895530  0.898707  1
  H  H27  1  0.431374  0.604470  0.601293  1
  H  H28  1  0.740118  0.710571  0.101281  1
  H  H29  1  0.240118  0.789429  0.398719  1
  H  H30  1  0.259882  0.210571  0.898719  1
  H  H31  1  0.759882  0.289429  0.601281  1
  H  H32  1  0.259882  0.289429  0.898719  1
  H  H33  1  0.759882  0.210571  0.601281  1
  H  H34  1  0.740118  0.789429  0.101281  1
  H  H35  1  0.240118  0.710571  0.398719  1
  H  H36  1  0.377294  0.250000  0.074002  1
  H  H37  1  0.877294  0.250000  0.425998  1
  H  H38  1  0.622706  0.750000  0.925998  1
  H  H39  1  0.122706  0.750000  0.574002  1
  H  H40  1  0.968272  0.250000  0.829318  1
  H  H41  1  0.468272  0.250000  0.670682  1
  H  H42  1  0.031728  0.750000  0.170682  1
  H  H43  1  0.531728  0.750000  0.329318  1
  O  O44  1  0.397335  0.374099  0.055386  1
  O  O45  1  0.897335  0.125901  0.444614  1
  O  O46  1  0.602665  0.874099  0.944614  1
  O  O47  1  0.102665  0.625901  0.555386  1
  O  O48  1  0.602665  0.625901  0.944614  1
  O  O49  1  0.102665  0.874099  0.555386  1
  O  O50  1  0.397335  0.125901  0.055386  1
  O  O51  1  0.897335  0.374099  0.444614  1
  O  O52  1  0.599045  0.394649  0.822233  1
  O  O53  1  0.099045  0.105351  0.677767  1
  O  O54  1  0.400955  0.894649  0.177767  1
  O  O55  1  0.900955  0.605351  0.322233  1
  O  O56  1  0.400955  0.605351  0.177767  1
  O  O57  1  0.900955  0.894649  0.322233  1
  O  O58  1  0.599045  0.105351  0.822233  1
  O  O59  1  0.099045  0.394649  0.677767  1
  O  O60  1  0.454636  0.596614  0.760125  1
  O  O61  1  0.954636  0.903386  0.739875  1
  O  O62  1  0.545364  0.096614  0.239875  1
  O  O63  1  0.045364  0.403386  0.260125  1
  O  O64  1  0.545364  0.403386  0.239875  1
  O  O65  1  0.045364  0.096614  0.260125  1
  O  O66  1  0.454636  0.903386  0.760125  1
  O  O67  1  0.954636  0.596614  0.739875  1
  O  O68  1  0.647415  0.250000  0.014689  1
  O  O69  1  0.147415  0.250000  0.485311  1
  O  O70  1  0.352585  0.750000  0.985311  1
  O  O71  1  0.852585  0.750000  0.514689  1
  O  O72  1  0.899463  0.250000  0.766747  1
  O  O73  1  0.399463  0.250000  0.733253  1
  O  O74  1  0.100537  0.750000  0.233253  1
  O  O75  1  0.600537  0.750000  0.266747  1
  O  O76  1  0.693704  0.605217  0.725699  1
  O  O77  1  0.193704  0.894783  0.774301  1
  O  O78  1  0.306296  0.105217  0.274301  1
  O  O79  1  0.806296  0.394783  0.225699  1
  O  O80  1  0.306296  0.394783  0.274301  1
  O  O81  1  0.806296  0.105217  0.225699  1
  O  O82  1  0.693704  0.894783  0.725699  1
  O  O83  1  0.193704  0.605217  0.774301  1
  O  O84  1  0.098544  0.125365  0.013713  1
  O  O85  1  0.598544  0.374635  0.486287  1
  O  O86  1  0.901456  0.625365  0.986287  1
  O  O87  1  0.401456  0.874635  0.513713  1
  O  O88  1  0.901456  0.874635  0.986287  1
  O  O89  1  0.401456  0.625365  0.513713  1
  O  O90  1  0.098544  0.374635  0.013713  1
  O  O91  1  0.598544  0.125365  0.486287  1
  O  O92  1  0.526720  0.250000  0.515502  1
  O  O93  1  0.026720  0.250000  0.984498  1
  O  O94  1  0.473280  0.750000  0.484498  1
  O  O95  1  0.973280  0.750000  0.015502  1
