# generated using pymatgen
data_Li6AlFeO6
_symmetry_space_group_name_H-M   'P 1'
_cell_length_a   9.35280100
_cell_length_b   5.39486914
_cell_length_c   9.76335818
_cell_angle_alpha   89.94632532
_cell_angle_beta   89.94889735
_cell_angle_gamma   29.99536083
_symmetry_Int_Tables_number   1
_chemical_formula_structural   Li6AlFeO6
_chemical_formula_sum   'Li12 Al2 Fe2 O12'
_cell_volume   246.28089716
_cell_formula_units_Z   2
loop_
 _symmetry_equiv_pos_site_id
 _symmetry_equiv_pos_as_xyz
  1  'x, y, z'
loop_
 _atom_site_type_symbol
 _atom_site_label
 _atom_site_symmetry_multiplicity
 _atom_site_fract_x
 _atom_site_fract_y
 _atom_site_fract_z
 _atom_site_occupancy
  Li  Li0  1  0.379906  0.558708  0.425816  1
  Li  Li1  1  0.320488  0.741870  0.923281  1
  Li  Li2  1  0.066456  0.554484  0.926110  1
  Li  Li3  1  0.687241  0.251595  0.075855  1
  Li  Li4  1  0.942482  0.743206  0.426472  1
  Li  Li5  1  0.629019  0.431779  0.577249  1
  Li  Li6  1  0.324685  0.293214  0.578054  1
  Li  Li7  1  0.690187  0.690415  0.422841  1
  Li  Li8  1  0.628455  0.684305  0.924449  1
  Li  Li9  1  0.382603  0.301047  0.077208  1
  Li  Li10  1  0.942219  0.435078  0.080212  1
  Li  Li11  1  0.068466  0.245612  0.577689  1
  Al  Al12  1  0.671795  0.993586  0.751501  1
  Al  Al13  1  0.339137  0.992781  0.251646  1
  Fe  Fe14  1  0.005511  0.991716  0.251021  1
  Fe  Fe15  1  0.005081  0.992478  0.751092  1
  O  O16  1  0.300218  0.753547  0.135048  1
  O  O17  1  0.357508  0.586368  0.634599  1
  O  O18  1  0.059682  0.592484  0.134548  1
  O  O19  1  0.653593  0.401820  0.368388  1
  O  O20  1  0.711107  0.232807  0.867557  1
  O  O21  1  0.951917  0.752237  0.634515  1
  O  O22  1  0.711659  0.636341  0.634767  1
  O  O23  1  0.353297  0.352924  0.867984  1
  O  O24  1  0.653692  0.639913  0.134969  1
  O  O25  1  0.299743  0.350050  0.367894  1
  O  O26  1  0.061472  0.232551  0.367697  1
  O  O27  1  0.946951  0.403722  0.867871  1
