# generated using pymatgen
data_Li24Mn11CrO36
_symmetry_space_group_name_H-M   'P 1'
_cell_length_a   8.66726581
_cell_length_b   8.64537399
_cell_length_c   10.55503350
_cell_angle_alpha   114.06100106
_cell_angle_beta   97.50901435
_cell_angle_gamma   60.09399838
_symmetry_Int_Tables_number   1
_chemical_formula_structural   Li24Mn11CrO36
_chemical_formula_sum   'Li24 Mn11 Cr1 O36'
_cell_volume   623.38528087
_cell_formula_units_Z   1
loop_
 _symmetry_equiv_pos_site_id
 _symmetry_equiv_pos_as_xyz
  1  'x, y, z'
loop_
 _atom_site_type_symbol
 _atom_site_label
 _atom_site_symmetry_multiplicity
 _atom_site_fract_x
 _atom_site_fract_y
 _atom_site_fract_z
 _atom_site_occupancy
  Li  Li0  1  0.167731  0.005784  0.001287  1
  Li  Li1  1  0.085191  0.082080  0.748480  1
  Li  Li2  1  0.998499  0.498837  0.498957  1
  Li  Li3  1  0.336216  0.168104  0.498500  1
  Li  Li4  1  0.249676  0.250088  0.250990  1
  Li  Li5  1  0.498870  0.339583  0.998199  1
  Li  Li6  1  0.166047  0.324802  0.997006  1
  Li  Li7  1  0.498172  0.003798  0.000485  1
  Li  Li8  1  0.418142  0.415907  0.750947  1
  Li  Li9  1  0.330342  0.496581  0.500300  1
  Li  Li10  1  0.663618  0.166530  0.500517  1
  Li  Li11  1  0.000059  0.836160  0.499752  1
  Li  Li12  1  0.166583  0.665376  0.998711  1
  Li  Li13  1  0.998288  0.161260  0.497902  1
  Li  Li14  1  0.335011  0.830075  0.498803  1
  Li  Li15  1  0.666788  0.500956  0.498126  1
  Li  Li16  1  0.582398  0.583302  0.246996  1
  Li  Li17  1  0.832639  0.668839  0.996916  1
  Li  Li18  1  0.504075  0.661303  0.001500  1
  Li  Li19  1  0.831993  0.333691  0.998977  1
  Li  Li20  1  0.750013  0.749975  0.751146  1
  Li  Li21  1  0.666647  0.824172  0.499936  1
  Li  Li22  1  0.916310  0.919615  0.251219  1
  Li  Li23  1  0.836852  0.993708  0.001118  1
  Mn  Mn24  1  0.083754  0.415544  0.748895  1
  Mn  Mn25  1  0.417284  0.082928  0.748673  1
  Mn  Mn26  1  0.083155  0.750634  0.749832  1
  Mn  Mn27  1  0.750135  0.082663  0.749470  1
  Mn  Mn28  1  0.251047  0.582748  0.251351  1
  Mn  Mn29  1  0.582850  0.250438  0.249286  1
  Mn  Mn30  1  0.416808  0.749353  0.749645  1
  Mn  Mn31  1  0.750002  0.416888  0.749415  1
  Mn  Mn32  1  0.249062  0.916824  0.249204  1
  Mn  Mn33  1  0.915943  0.248847  0.248363  1
  Mn  Mn34  1  0.581182  0.916536  0.247639  1
  Cr  Cr35  1  0.915856  0.586870  0.248819  1
  O  O36  1  0.309038  0.027301  0.862901  1
  O  O37  1  0.215965  0.139688  0.636722  1
  O  O38  1  0.117429  0.192626  0.360416  1
  O  O39  1  0.285070  0.359143  0.860975  1
  O  O40  1  0.022368  0.304516  0.134321  1
  O  O41  1  0.617929  0.049972  0.860989  1
  O  O42  1  0.190519  0.473113  0.635850  1
  O  O43  1  0.549213  0.115220  0.636571  1
  O  O44  1  0.121505  0.549616  0.363065  1
  O  O45  1  0.474990  0.193745  0.363067  1
  O  O46  1  0.950984  0.026666  0.861381  1
  O  O47  1  0.049990  0.611558  0.137823  1
  O  O48  1  0.284429  0.717381  0.861555  1
  O  O49  1  0.641451  0.360896  0.863321  1
  O  O50  1  0.381561  0.307379  0.137763  1
  O  O51  1  0.215393  0.783282  0.637965  1
  O  O52  1  0.857271  0.139561  0.635427  1
  O  O53  1  0.548425  0.473291  0.637941  1
  O  O54  1  0.452342  0.526739  0.361702  1
  O  O55  1  0.141093  0.861263  0.364053  1
  O  O56  1  0.784200  0.215360  0.360827  1
  O  O57  1  0.618301  0.693204  0.861286  1
  O  O58  1  0.356284  0.639984  0.135645  1
  O  O59  1  0.714041  0.283203  0.137010  1
  O  O60  1  0.952166  0.382191  0.860959  1
  O  O61  1  0.047647  0.971646  0.137460  1
  O  O62  1  0.524887  0.805139  0.635064  1
  O  O63  1  0.881769  0.449818  0.637595  1
  O  O64  1  0.451287  0.882315  0.360166  1
  O  O65  1  0.810037  0.524673  0.362223  1
  O  O66  1  0.379967  0.951209  0.137197  1
  O  O67  1  0.975433  0.693612  0.863739  1
  O  O68  1  0.711066  0.642566  0.134964  1
  O  O69  1  0.881700  0.807019  0.637660  1
  O  O70  1  0.782414  0.856952  0.360952  1
  O  O71  1  0.691309  0.972870  0.135462  1
