# generated using pymatgen
data_LiMn3Al2(HO2)6
_symmetry_space_group_name_H-M   'P 1'
_cell_length_a   9.67442863
_cell_length_b   5.96669729
_cell_length_c   7.85626984
_cell_angle_alpha   77.89991325
_cell_angle_beta   82.89004603
_cell_angle_gamma   80.69887866
_symmetry_Int_Tables_number   1
_chemical_formula_structural   LiMn3Al2(HO2)6
_chemical_formula_sum   'Li2 Mn6 Al4 H12 O24'
_cell_volume   435.68997068
_cell_formula_units_Z   2
loop_
 _symmetry_equiv_pos_site_id
 _symmetry_equiv_pos_as_xyz
  1  'x, y, z'
loop_
 _atom_site_type_symbol
 _atom_site_label
 _atom_site_symmetry_multiplicity
 _atom_site_fract_x
 _atom_site_fract_y
 _atom_site_fract_z
 _atom_site_occupancy
  Li  Li0  1  0.499544  0.176196  0.821551  1
  Li  Li1  1  0.500319  0.490536  0.511749  1
  Mn  Mn2  1  0.997571  0.997355  0.000331  1
  Mn  Mn3  1  0.001022  0.169128  0.332789  1
  Mn  Mn4  1  0.998755  0.497758  0.000851  1
  Mn  Mn5  1  0.000194  0.333140  0.666502  1
  Mn  Mn6  1  0.002263  0.669412  0.333060  1
  Mn  Mn7  1  0.000106  0.832996  0.666539  1
  Al  Al8  1  0.502303  0.002209  0.505533  1
  Al  Al9  1  0.500102  0.333365  0.166673  1
  Al  Al10  1  0.500023  0.833398  0.166616  1
  Al  Al11  1  0.497586  0.664507  0.827742  1
  H  H12  1  0.296189  0.155931  0.088560  1
  H  H13  1  0.712961  0.004333  0.249053  1
  H  H14  1  0.294810  0.315930  0.405703  1
  H  H15  1  0.709266  0.155107  0.580746  1
  H  H16  1  0.287108  0.662130  0.084556  1
  H  H17  1  0.290635  0.511648  0.752426  1
  H  H18  1  0.703857  0.511220  0.245604  1
  H  H19  1  0.705236  0.351064  0.927705  1
  H  H20  1  0.300701  0.836695  0.407653  1
  H  H21  1  0.709531  0.687950  0.595258  1
  H  H22  1  0.290314  0.978511  0.737683  1
  H  H23  1  0.699242  0.829336  0.925524  1
  O  O24  1  0.103230  0.029307  0.764692  1
  O  O25  1  0.099028  0.193480  0.094165  1
  O  O26  1  0.399639  0.131033  0.083257  1
  O  O27  1  0.607346  0.029691  0.259999  1
  O  O28  1  0.109329  0.386023  0.442430  1
  O  O29  1  0.398778  0.284138  0.389904  1
  O  O30  1  0.901500  0.135272  0.569977  1
  O  O31  1  0.606962  0.181739  0.582761  1
  O  O32  1  0.392697  0.636949  0.073370  1
  O  O33  1  0.392977  0.484981  0.750568  1
  O  O34  1  0.098686  0.530939  0.762994  1
  O  O35  1  0.110031  0.715094  0.109580  1
  O  O36  1  0.891060  0.280857  0.890605  1
  O  O37  1  0.601263  0.382511  0.943338  1
  O  O38  1  0.600421  0.535892  0.249926  1
  O  O39  1  0.900323  0.473990  0.240012  1
  O  O40  1  0.404053  0.818795  0.392183  1
  O  O41  1  0.101155  0.865580  0.433239  1
  O  O42  1  0.605936  0.713920  0.608871  1
  O  O43  1  0.896810  0.636689  0.568523  1
  O  O44  1  0.393922  0.952830  0.724357  1
  O  O45  1  0.889777  0.951845  0.223865  1
  O  O46  1  0.595892  0.847928  0.940940  1
  O  O47  1  0.898949  0.800665  0.900041  1
