# generated using pymatgen
data_Sr3La7Mn7(FeO10)3
_symmetry_space_group_name_H-M   'P 1'
_cell_length_a   5.54072834
_cell_length_b   27.70866018
_cell_length_c   9.56814468
_cell_angle_alpha   30.28452102
_cell_angle_beta   55.39325289
_cell_angle_gamma   60.68491227
_symmetry_Int_Tables_number   1
_chemical_formula_structural   Sr3La7Mn7(FeO10)3
_chemical_formula_sum   'Sr3 La7 Mn7 Fe3 O30'
_cell_volume   609.71920298
_cell_formula_units_Z   1
loop_
 _symmetry_equiv_pos_site_id
 _symmetry_equiv_pos_as_xyz
  1  'x, y, z'
loop_
 _atom_site_type_symbol
 _atom_site_label
 _atom_site_symmetry_multiplicity
 _atom_site_fract_x
 _atom_site_fract_y
 _atom_site_fract_z
 _atom_site_occupancy
  Sr  Sr0  1  0.251137  0.003039  0.242686  1
  Sr  Sr1  1  0.250641  0.201046  0.247823  1
  Sr  Sr2  1  0.251688  0.397091  0.256903  1
  La  La3  1  0.751568  0.003850  0.740422  1
  La  La4  1  0.245850  0.597709  0.257925  1
  La  La5  1  0.751320  0.199970  0.750680  1
  La  La6  1  0.252943  0.801016  0.247397  1
  La  La7  1  0.749578  0.396036  0.760819  1
  La  La8  1  0.752267  0.598153  0.755521  1
  La  La9  1  0.749256  0.804070  0.740645  1
  Mn  Mn10  1  0.999718  0.000927  0.998519  1
  Mn  Mn11  1  0.002928  0.200574  0.997664  1
  Mn  Mn12  1  0.000029  0.398693  0.003716  1
  Mn  Mn13  1  0.502504  0.001276  0.496539  1
  Mn  Mn14  1  0.000591  0.599869  0.000905  1
  Mn  Mn15  1  0.500669  0.199929  0.500590  1
  Mn  Mn16  1  0.501733  0.399422  0.501075  1
  Fe  Fe17  1  0.998982  0.801672  0.996410  1
  Fe  Fe18  1  0.496857  0.598984  0.505314  1
  Fe  Fe19  1  0.500650  0.801686  0.497167  1
  O  O20  1  0.195265  0.086507  0.314164  1
  O  O21  1  0.750910  0.023560  0.191415  1
  O  O22  1  0.187464  0.291031  0.302357  1
  O  O23  1  0.700891  0.107328  0.256762  1
  O  O24  1  0.306640  0.085465  0.756096  1
  O  O25  1  0.250020  0.183049  0.791905  1
  O  O26  1  0.750257  0.222154  0.195446  1
  O  O27  1  0.182399  0.493908  0.303339  1
  O  O28  1  0.708934  0.311840  0.241683  1
  O  O29  1  0.307500  0.289177  0.747600  1
  O  O30  1  0.801340  0.106307  0.710240  1
  O  O31  1  0.247725  0.384557  0.789244  1
  O  O32  1  0.752491  0.425402  0.186246  1
  O  O33  1  0.188155  0.687934  0.312314  1
  O  O34  1  0.692352  0.515837  0.242824  1
  O  O35  1  0.308996  0.490623  0.737774  1
  O  O36  1  0.796015  0.309587  0.706618  1
  O  O37  1  0.240429  0.580177  0.806303  1
  O  O38  1  0.758951  0.626712  0.179426  1
  O  O39  1  0.188321  0.886241  0.311266  1
  O  O40  1  0.690002  0.710192  0.256551  1
  O  O41  1  0.308879  0.686539  0.753030  1
  O  O42  1  0.806646  0.511181  0.694468  1
  O  O43  1  0.252111  0.774797  0.813081  1
  O  O44  1  0.746640  0.825020  0.189574  1
  O  O45  1  0.708990  0.908042  0.255366  1
  O  O46  1  0.309973  0.887733  0.756161  1
  O  O47  1  0.812381  0.709287  0.695865  1
  O  O48  1  0.249127  0.975408  0.812047  1
  O  O49  1  0.789933  0.908972  0.704406  1
