# generated using pymatgen
data_V3O5F
_symmetry_space_group_name_H-M   'P 1'
_cell_length_a   4.58448198
_cell_length_b   7.65269160
_cell_length_c   5.50301375
_cell_angle_alpha   92.91477254
_cell_angle_beta   91.35576459
_cell_angle_gamma   89.07980531
_symmetry_Int_Tables_number   1
_chemical_formula_structural   V3O5F
_chemical_formula_sum   'V6 O10 F2'
_cell_volume   192.74058780
_cell_formula_units_Z   2
loop_
 _symmetry_equiv_pos_site_id
 _symmetry_equiv_pos_as_xyz
  1  'x, y, z'
loop_
 _atom_site_type_symbol
 _atom_site_label
 _atom_site_symmetry_multiplicity
 _atom_site_fract_x
 _atom_site_fract_y
 _atom_site_fract_z
 _atom_site_occupancy
  V  V0  1  0.500000  0.666667  0.166667  1
  V  V1  1  0.491513  0.994185  0.506244  1
  V  V2  1  0.508487  0.339148  0.827089  1
  V  V3  1  0.000000  0.666667  0.666667  1
  V  V4  1  0.982046  0.316481  0.335581  1
  V  V5  1  0.017954  0.016852  0.997752  1
  O  O6  1  0.797527  0.428638  0.633332  1
  O  O7  1  0.797974  0.099233  0.295950  1
  O  O8  1  0.701854  0.096848  0.797480  1
  O  O9  1  0.688144  0.768936  0.467077  1
  O  O10  1  0.707758  0.434138  0.136645  1
  O  O11  1  0.311856  0.564397  0.866256  1
  O  O12  1  0.298146  0.236485  0.535853  1
  O  O13  1  0.292242  0.899195  0.196688  1
  O  O14  1  0.202026  0.234100  0.037383  1
  O  O15  1  0.202473  0.904695  0.700001  1
  F  F16  1  0.809012  0.774898  0.969870  1
  F  F17  1  0.190988  0.558435  0.363464  1
