# generated using pymatgen
data_SmBiO4
_symmetry_space_group_name_H-M   'P 1'
_cell_length_a   5.65611609
_cell_length_b   5.35300582
_cell_length_c   6.78490262
_cell_angle_alpha   69.57927108
_cell_angle_beta   67.97132751
_cell_angle_gamma   96.12631660
_symmetry_Int_Tables_number   1
_chemical_formula_structural   SmBiO4
_chemical_formula_sum   'Sm2 Bi2 O8'
_cell_volume   171.65983710
_cell_formula_units_Z   2
loop_
 _symmetry_equiv_pos_site_id
 _symmetry_equiv_pos_as_xyz
  1  'x, y, z'
loop_
 _atom_site_type_symbol
 _atom_site_label
 _atom_site_symmetry_multiplicity
 _atom_site_fract_x
 _atom_site_fract_y
 _atom_site_fract_z
 _atom_site_occupancy
  Sm  Sm0  1  0.365802  0.117206  0.771379  1
  Sm  Sm1  1  0.638912  0.889615  0.225625  1
  Bi  Bi2  1  0.101862  0.353543  0.298807  1
  Bi  Bi3  1  0.901229  0.653465  0.699182  1
  O  O4  1  0.615350  0.281753  0.933539  1
  O  O5  1  0.271659  0.039776  0.444812  1
  O  O6  1  0.783216  0.518095  0.445432  1
  O  O7  1  0.049550  0.218518  0.062961  1
  O  O8  1  0.954394  0.791454  0.933015  1
  O  O9  1  0.216859  0.486137  0.551882  1
  O  O10  1  0.731981  0.965937  0.552178  1
  O  O11  1  0.389607  0.724358  0.063169  1
