# generated using pymatgen
data_V3O5F
_symmetry_space_group_name_H-M   'P 1'
_cell_length_a   7.26460576
_cell_length_b   5.51122992
_cell_length_c   5.51122992
_cell_angle_alpha   70.80986139
_cell_angle_beta   72.03566153
_cell_angle_gamma   72.03566153
_symmetry_Int_Tables_number   1
_chemical_formula_structural   V3O5F
_chemical_formula_sum   'V6 O10 F2'
_cell_volume   192.89612302
_cell_formula_units_Z   2
loop_
 _symmetry_equiv_pos_site_id
 _symmetry_equiv_pos_as_xyz
  1  'x, y, z'
loop_
 _atom_site_type_symbol
 _atom_site_label
 _atom_site_symmetry_multiplicity
 _atom_site_fract_x
 _atom_site_fract_y
 _atom_site_fract_z
 _atom_site_occupancy
  V  V0  1  0.844020  0.669203  0.669203  1
  V  V1  1  0.667718  0.350238  0.350238  1
  V  V2  1  0.332282  0.649762  0.649762  1
  V  V3  1  0.155980  0.330797  0.330797  1
  V  V4  1  0.500000  0.000000  0.000000  1
  V  V5  1  0.000000  0.000000  0.000000  1
  O  O6  1  0.670606  0.037402  0.631039  1
  O  O7  1  0.329394  0.368961  0.962598  1
  O  O8  1  0.967762  0.234608  0.234608  1
  O  O9  1  0.628219  0.570035  0.570035  1
  O  O10  1  0.032238  0.765392  0.765392  1
  O  O11  1  0.371781  0.429965  0.429965  1
  O  O12  1  0.000000  0.306804  0.693196  1
  O  O13  1  0.670606  0.631039  0.037402  1
  O  O14  1  0.329394  0.962598  0.368961  1
  O  O15  1  0.000000  0.693196  0.306804  1
  F  F16  1  0.302337  0.890639  0.890639  1
  F  F17  1  0.697663  0.109361  0.109361  1
