# generated using pymatgen
data_V6O5F19
_symmetry_space_group_name_H-M   'P 1'
_cell_length_a   5.53023015
_cell_length_b   5.31654862
_cell_length_c   14.90890500
_cell_angle_alpha   89.83123373
_cell_angle_beta   100.35277181
_cell_angle_gamma   90.91469356
_symmetry_Int_Tables_number   1
_chemical_formula_structural   V6O5F19
_chemical_formula_sum   'V6 O5 F19'
_cell_volume   431.15643295
_cell_formula_units_Z   1
loop_
 _symmetry_equiv_pos_site_id
 _symmetry_equiv_pos_as_xyz
  1  'x, y, z'
loop_
 _atom_site_type_symbol
 _atom_site_label
 _atom_site_symmetry_multiplicity
 _atom_site_fract_x
 _atom_site_fract_y
 _atom_site_fract_z
 _atom_site_occupancy
  V  V0  1  0.040289  0.965939  0.003625  1
  V  V1  1  0.110517  0.479598  0.331420  1
  V  V2  1  0.313694  0.995394  0.666710  1
  V  V3  1  0.529867  0.458229  0.996263  1
  V  V4  1  0.605821  0.026547  0.330365  1
  V  V5  1  0.789312  0.478285  0.664457  1
  O  O6  1  0.362464  0.207097  0.308761  1
  O  O7  1  0.542187  0.295777  0.644827  1
  O  O8  1  0.699958  0.226151  0.979399  1
  O  O9  1  0.280361  0.790817  0.021019  1
  O  O10  1  0.863476  0.293400  0.309974  1
  F  F11  1  0.019549  0.205113  0.642705  1
  F  F12  1  0.213518  0.276712  0.973686  1
  F  F13  1  0.138843  0.707610  0.689505  1
  F  F14  1  0.042356  0.096471  0.113243  1
  F  F15  1  0.236284  0.412472  0.446564  1
  F  F16  1  0.384130  0.091737  0.782022  1
  F  F17  1  0.144418  0.581738  0.221061  1
  F  F18  1  0.305392  0.931288  0.550002  1
  F  F19  1  0.455805  0.598056  0.886774  1
  F  F20  1  0.474910  0.727020  0.357892  1
  F  F21  1  0.629884  0.777498  0.690494  1
  F  F22  1  0.526102  0.437347  0.114881  1
  F  F23  1  0.731389  0.086351  0.446311  1
  F  F24  1  0.900362  0.426606  0.781737  1
  F  F25  1  0.646014  0.923907  0.221100  1
  F  F26  1  0.808087  0.587637  0.553642  1
  F  F27  1  0.928471  0.931422  0.885176  1
  F  F28  1  0.797484  0.713413  0.026781  1
  F  F29  1  0.979056  0.770368  0.359602  1
