# generated using pymatgen
data_DyFeH8C6(N3O2)2
_symmetry_space_group_name_H-M   'P 1'
_cell_length_a   7.41468064
_cell_length_b   7.41468064
_cell_length_c   13.60830904
_cell_angle_alpha   90.00000000
_cell_angle_beta   90.00000000
_cell_angle_gamma   60.20208824
_symmetry_Int_Tables_number   1
_chemical_formula_structural   DyFeH8C6(N3O2)2
_chemical_formula_sum   'Dy2 Fe2 H16 C12 N12 O8'
_cell_volume   649.23284715
_cell_formula_units_Z   2
loop_
 _symmetry_equiv_pos_site_id
 _symmetry_equiv_pos_as_xyz
  1  'x, y, z'
loop_
 _atom_site_type_symbol
 _atom_site_label
 _atom_site_symmetry_multiplicity
 _atom_site_fract_x
 _atom_site_fract_y
 _atom_site_fract_z
 _atom_site_occupancy
  Dy  Dy0  1  0.177980  0.177980  0.250000  1
  Dy  Dy1  1  0.822020  0.822020  0.750000  1
  Fe  Fe2  1  0.500000  0.500000  0.000000  1
  Fe  Fe3  1  0.500000  0.500000  0.500000  1
  H  H4  1  0.985817  0.630408  0.191342  1
  H  H5  1  0.369592  0.014183  0.808658  1
  H  H6  1  0.985817  0.630408  0.308658  1
  H  H7  1  0.369592  0.014183  0.691342  1
  H  H8  1  0.014183  0.369592  0.808658  1
  H  H9  1  0.630408  0.985817  0.191342  1
  H  H10  1  0.014183  0.369592  0.691342  1
  H  H11  1  0.630408  0.985817  0.308658  1
  H  H12  1  0.813047  0.813047  0.036849  1
  H  H13  1  0.186953  0.186953  0.963151  1
  H  H14  1  0.813047  0.813047  0.463151  1
  H  H15  1  0.186953  0.186953  0.536849  1
  H  H16  1  0.920188  0.920188  0.093120  1
  H  H17  1  0.079812  0.079812  0.906880  1
  H  H18  1  0.920188  0.920188  0.406880  1
  H  H19  1  0.079812  0.079812  0.593120  1
  C  C20  1  0.264777  0.640821  0.911303  1
  C  C21  1  0.359179  0.735223  0.088697  1
  C  C22  1  0.264777  0.640821  0.588697  1
  C  C23  1  0.359179  0.735223  0.411303  1
  C  C24  1  0.735223  0.359179  0.088697  1
  C  C25  1  0.640821  0.264777  0.911303  1
  C  C26  1  0.735223  0.359179  0.411303  1
  C  C27  1  0.640821  0.264777  0.588697  1
  C  C28  1  0.362910  0.362910  0.058270  1
  C  C29  1  0.637090  0.637090  0.941730  1
  C  C30  1  0.362910  0.362910  0.441730  1
  C  C31  1  0.637090  0.637090  0.558270  1
  N  N32  1  0.879074  0.274576  0.140880  1
  N  N33  1  0.725424  0.120926  0.859120  1
  N  N34  1  0.879074  0.274576  0.359120  1
  N  N35  1  0.725424  0.120926  0.640880  1
  N  N36  1  0.120926  0.725424  0.859120  1
  N  N37  1  0.274576  0.879074  0.140880  1
  N  N38  1  0.120926  0.725424  0.640880  1
  N  N39  1  0.274576  0.879074  0.359120  1
  N  N40  1  0.281040  0.281040  0.096421  1
  N  N41  1  0.718960  0.718960  0.903579  1
  N  N42  1  0.281040  0.281040  0.403579  1
  N  N43  1  0.718960  0.718960  0.596421  1
  O  O44  1  0.044296  0.540677  0.250000  1
  O  O45  1  0.459323  0.955704  0.750000  1
  O  O46  1  0.955704  0.459323  0.750000  1
  O  O47  1  0.540677  0.044296  0.250000  1
  O  O48  1  0.844505  0.844505  0.102764  1
  O  O49  1  0.155495  0.155495  0.897236  1
  O  O50  1  0.844505  0.844505  0.397236  1
  O  O51  1  0.155495  0.155495  0.602764  1
