# generated using pymatgen
data_H6Os5Pt(CO)16
_symmetry_space_group_name_H-M   'P 1'
_cell_length_a   11.94416262
_cell_length_b   15.68952454
_cell_length_c   16.48673103
_cell_angle_alpha   90.00000000
_cell_angle_beta   109.75208006
_cell_angle_gamma   90.00000000
_symmetry_Int_Tables_number   1
_chemical_formula_structural   H6Os5Pt(CO)16
_chemical_formula_sum   'H24 Os20 Pt4 C64 O64'
_cell_volume   2907.80469535
_cell_formula_units_Z   4
loop_
 _symmetry_equiv_pos_site_id
 _symmetry_equiv_pos_as_xyz
  1  'x, y, z'
loop_
 _atom_site_type_symbol
 _atom_site_label
 _atom_site_symmetry_multiplicity
 _atom_site_fract_x
 _atom_site_fract_y
 _atom_site_fract_z
 _atom_site_occupancy
  H  H0  1  0.176216  0.699830  0.249069  1
  H  H1  1  0.676216  0.800170  0.749069  1
  H  H2  1  0.823784  0.300170  0.750931  1
  H  H3  1  0.323784  0.199830  0.250931  1
  H  H4  1  0.222841  0.560505  0.335608  1
  H  H5  1  0.722841  0.939495  0.835608  1
  H  H6  1  0.777159  0.439495  0.664392  1
  H  H7  1  0.277159  0.060505  0.164392  1
  H  H8  1  0.140700  0.561746  0.163774  1
  H  H9  1  0.640700  0.938254  0.663774  1
  H  H10  1  0.859300  0.438254  0.836226  1
  H  H11  1  0.359300  0.061746  0.336226  1
  H  H12  1  0.846114  0.704948  0.277091  1
  H  H13  1  0.346114  0.795052  0.777091  1
  H  H14  1  0.153886  0.295052  0.722909  1
  H  H15  1  0.653886  0.204948  0.222909  1
  H  H16  1  0.884704  0.575756  0.353492  1
  H  H17  1  0.384704  0.924244  0.853492  1
  H  H18  1  0.115296  0.424244  0.646508  1
  H  H19  1  0.615296  0.075756  0.146508  1
  H  H20  1  0.826433  0.551366  0.165556  1
  H  H21  1  0.326433  0.948634  0.665556  1
  H  H22  1  0.173567  0.448634  0.834444  1
  H  H23  1  0.673567  0.051366  0.334444  1
  Os  Os24  1  0.054465  0.661346  0.155556  1
  Os  Os25  1  0.554465  0.838654  0.655556  1
  Os  Os26  1  0.945535  0.338654  0.844444  1
  Os  Os27  1  0.445535  0.161346  0.344444  1
  Os  Os28  1  0.154267  0.660953  0.346090  1
  Os  Os29  1  0.654267  0.839047  0.846090  1
  Os  Os30  1  0.845733  0.339047  0.653910  1
  Os  Os31  1  0.345733  0.160953  0.153910  1
  Os  Os32  1  0.105501  0.502907  0.248271  1
  Os  Os33  1  0.605501  0.997093  0.748271  1
  Os  Os34  1  0.894499  0.497093  0.751729  1
  Os  Os35  1  0.394499  0.002907  0.251729  1
  Os  Os36  1  0.763377  0.648720  0.333771  1
  Os  Os37  1  0.263377  0.851280  0.833771  1
  Os  Os38  1  0.236623  0.351280  0.666229  1
  Os  Os39  1  0.736623  0.148720  0.166229  1
  Os  Os40  1  0.679399  0.550222  0.173563  1
  Os  Os41  1  0.179399  0.949778  0.673563  1
  Os  Os42  1  0.320601  0.449779  0.826437  1
  Os  Os43  1  0.820601  0.050222  0.326437  1
  Pt  Pt44  1  0.927059  0.608619  0.257090  1
  Pt  Pt45  1  0.427059  0.891381  0.757090  1
  Pt  Pt46  1  0.072941  0.391381  0.742910  1
  Pt  Pt47  1  0.572941  0.108619  0.242910  1
  C  C48  1  0.935736  0.619289  0.054469  1
  C  C49  1  0.435736  0.880711  0.554469  1
  C  C50  1  0.064264  0.380711  0.945531  1
  C  C51  1  0.564264  0.119289  0.445531  1
  C  C52  1  0.153437  0.706096  0.094825  1
  C  C53  1  0.653437  0.793904  0.594824  1
  C  C54  1  0.846563  0.293904  0.905176  1
  C  C55  1  0.346563  0.206096  0.405176  1
  C  C56  1  0.972240  0.767511  0.145936  1
  C  C57  1  0.472240  0.732489  0.645936  1
  C  C58  1  0.027760  0.232489  0.854064  1
  C  C59  1  0.527760  0.267511  0.354064  1
  C  C60  1  0.318170  0.693263  0.396890  1
  C  C61  1  0.818170  0.806737  0.896890  1
  C  C62  1  0.681830  0.306737  0.603110  1
  C  C63  1  0.181830  0.193263  0.103110  1
  C  C64  1  0.090423  0.768697  0.361948  1
  C  C65  1  0.590423  0.731303  0.861948  1
  C  C66  1  0.909577  0.231303  0.638052  1
  C  C67  1  0.409577  0.268697  0.138052  1
  C  C68  1  0.136983  0.615405  0.449041  1
  C  C69  1  0.636983  0.884595  0.949041  1
  C  C70  1  0.863017  0.384595  0.550959  1
  C  C71  1  0.363017  0.115405  0.050959  1
  C  C72  1  0.994402  0.441210  0.157209  1
  C  C73  1  0.494402  0.058790  0.657209  1
  C  C74  1  0.005598  0.558790  0.842791  1
  C  C75  1  0.505598  0.941210  0.342791  1
  C  C76  1  0.073284  0.438703  0.336999  1
  C  C77  1  0.573284  0.061297  0.836999  1
  C  C78  1  0.926716  0.561297  0.663001  1
  C  C79  1  0.426716  0.938703  0.163001  1
  C  C80  1  0.238460  0.434912  0.248913  1
  C  C81  1  0.738460  0.065088  0.748913  1
  C  C82  1  0.761540  0.565088  0.751087  1
  C  C83  1  0.261540  0.934912  0.251087  1
  C  C84  1  0.690253  0.578123  0.396714  1
  C  C85  1  0.190253  0.921877  0.896714  1
  C  C86  1  0.309747  0.421877  0.603286  1
  C  C87  1  0.809747  0.078123  0.103286  1
  C  C88  1  0.851932  0.714952  0.430640  1
  C  C89  1  0.351932  0.785048  0.930640  1
  C  C90  1  0.148068  0.285048  0.569360  1
  C  C91  1  0.648068  0.214952  0.069360  1
  C  C92  1  0.627163  0.721682  0.293789  1
  C  C93  1  0.127163  0.778318  0.793789  1
  C  C94  1  0.372837  0.278318  0.706211  1
  C  C95  1  0.872837  0.221682  0.206211  1
  C  C96  1  0.647096  0.487564  0.067954  1
  C  C97  1  0.147096  0.012436  0.567954  1
  C  C98  1  0.352904  0.512436  0.932046  1
  C  C99  1  0.852904  0.987564  0.432046  1
  C  C100  1  0.733126  0.451106  0.248785  1
  C  C101  1  0.233126  0.048894  0.748785  1
  C  C102  1  0.266874  0.548894  0.751215  1
  C  C103  1  0.766874  0.951106  0.251215  1
  C  C104  1  0.524893  0.553310  0.187007  1
  C  C105  1  0.024893  0.946690  0.687007  1
  C  C106  1  0.475107  0.446690  0.812993  1
  C  C107  1  0.975107  0.053310  0.312993  1
  C  C108  1  0.664725  0.662315  0.119120  1
  C  C109  1  0.164725  0.837685  0.619120  1
  C  C110  1  0.335275  0.337685  0.880880  1
  C  C111  1  0.835275  0.162315  0.380880  1
  O  O112  1  0.862721  0.593508  0.993087  1
  O  O113  1  0.362721  0.906492  0.493087  1
  O  O114  1  0.137279  0.406492  0.006913  1
  O  O115  1  0.637279  0.093508  0.506913  1
  O  O116  1  0.209753  0.737659  0.057921  1
  O  O117  1  0.709753  0.762341  0.557921  1
  O  O118  1  0.790247  0.262341  0.942079  1
  O  O119  1  0.290247  0.237659  0.442079  1
  O  O120  1  0.920577  0.831185  0.138041  1
  O  O121  1  0.420577  0.668815  0.638041  1
  O  O122  1  0.079423  0.168815  0.861959  1
  O  O123  1  0.579423  0.331185  0.361959  1
  O  O124  1  0.417232  0.713375  0.427602  1
  O  O125  1  0.917232  0.786625  0.927602  1
  O  O126  1  0.582768  0.286625  0.572398  1
  O  O127  1  0.082768  0.213375  0.072398  1
  O  O128  1  0.052423  0.834138  0.372736  1
  O  O129  1  0.552423  0.665862  0.872736  1
  O  O130  1  0.947577  0.165862  0.627264  1
  O  O131  1  0.447577  0.334138  0.127264  1
  O  O132  1  0.125111  0.585706  0.509922  1
  O  O133  1  0.625111  0.914294  0.009922  1
  O  O134  1  0.874889  0.414294  0.490078  1
  O  O135  1  0.374889  0.085706  0.990078  1
  O  O136  1  0.926120  0.405565  0.100044  1
  O  O137  1  0.426120  0.094435  0.600044  1
  O  O138  1  0.073880  0.594435  0.899956  1
  O  O139  1  0.573880  0.905565  0.399956  1
  O  O140  1  0.054409  0.400883  0.391231  1
  O  O141  1  0.554409  0.099117  0.891231  1
  O  O142  1  0.945591  0.599117  0.608769  1
  O  O143  1  0.445591  0.900883  0.108769  1
  O  O144  1  0.318230  0.391982  0.249879  1
  O  O145  1  0.818230  0.108018  0.749879  1
  O  O146  1  0.681770  0.608018  0.750121  1
  O  O147  1  0.181770  0.891982  0.250121  1
  O  O148  1  0.647748  0.536249  0.436971  1
  O  O149  1  0.147748  0.963751  0.936971  1
  O  O150  1  0.352252  0.463751  0.563029  1
  O  O151  1  0.852252  0.036249  0.063029  1
  O  O152  1  0.905046  0.756872  0.488989  1
  O  O153  1  0.405046  0.743128  0.988989  1
  O  O154  1  0.094954  0.243128  0.511011  1
  O  O155  1  0.594954  0.256872  0.011011  1
  O  O156  1  0.541251  0.763329  0.268510  1
  O  O157  1  0.041251  0.736671  0.768510  1
  O  O158  1  0.458749  0.236671  0.731490  1
  O  O159  1  0.958749  0.263329  0.231490  1
  O  O160  1  0.629460  0.450518  0.003803  1
  O  O161  1  0.129460  0.049482  0.503803  1
  O  O162  1  0.370540  0.549482  0.996197  1
  O  O163  1  0.870540  0.950518  0.496197  1
  O  O164  1  0.768028  0.391743  0.291370  1
  O  O165  1  0.268028  0.108257  0.791370  1
  O  O166  1  0.231972  0.608257  0.708630  1
  O  O167  1  0.731972  0.891743  0.208630  1
  O  O168  1  0.431738  0.555159  0.194596  1
  O  O169  1  0.931738  0.944841  0.694596  1
  O  O170  1  0.568262  0.444841  0.805404  1
  O  O171  1  0.068262  0.055159  0.305404  1
  O  O172  1  0.661557  0.727702  0.085937  1
  O  O173  1  0.161557  0.772298  0.585937  1
  O  O174  1  0.338443  0.272298  0.914063  1
  O  O175  1  0.838443  0.227702  0.414063  1
