# generated using pymatgen
data_Na2Cr4O13
_symmetry_space_group_name_H-M   'P 1'
_cell_length_a   7.69739645
_cell_length_b   20.01054312
_cell_length_c   8.45343566
_cell_angle_alpha   90.00000000
_cell_angle_beta   106.47764876
_cell_angle_gamma   90.00000000
_symmetry_Int_Tables_number   1
_chemical_formula_structural   Na2Cr4O13
_chemical_formula_sum   'Na8 Cr16 O52'
_cell_volume   1248.59932597
_cell_formula_units_Z   4
loop_
 _symmetry_equiv_pos_site_id
 _symmetry_equiv_pos_as_xyz
  1  'x, y, z'
loop_
 _atom_site_type_symbol
 _atom_site_label
 _atom_site_symmetry_multiplicity
 _atom_site_fract_x
 _atom_site_fract_y
 _atom_site_fract_z
 _atom_site_occupancy
  Na  Na0  1  0.198359  0.897630  0.593251  1
  Na  Na1  1  0.301641  0.397630  0.906749  1
  Na  Na2  1  0.101976  0.760215  0.986784  1
  Na  Na3  1  0.398024  0.260215  0.513216  1
  Na  Na4  1  0.601976  0.739785  0.486784  1
  Na  Na5  1  0.898024  0.239785  0.013216  1
  Na  Na6  1  0.698359  0.602370  0.093251  1
  Na  Na7  1  0.801641  0.102370  0.406749  1
  Cr  Cr8  1  0.066518  0.727311  0.454781  1
  Cr  Cr9  1  0.241073  0.107180  0.800203  1
  Cr  Cr10  1  0.143899  0.446715  0.362238  1
  Cr  Cr11  1  0.258927  0.607180  0.699797  1
  Cr  Cr12  1  0.240304  0.079184  0.308691  1
  Cr  Cr13  1  0.259696  0.579184  0.191309  1
  Cr  Cr14  1  0.566518  0.772689  0.954781  1
  Cr  Cr15  1  0.356101  0.946715  0.137762  1
  Cr  Cr16  1  0.643899  0.053285  0.862238  1
  Cr  Cr17  1  0.433482  0.227311  0.045219  1
  Cr  Cr18  1  0.740304  0.420816  0.808691  1
  Cr  Cr19  1  0.759696  0.920816  0.691309  1
  Cr  Cr20  1  0.741073  0.392820  0.300203  1
  Cr  Cr21  1  0.856101  0.553285  0.637762  1
  Cr  Cr22  1  0.758927  0.892820  0.199797  1
  Cr  Cr23  1  0.933482  0.272689  0.545219  1
  O  O24  1  0.046711  0.072463  0.764033  1
  O  O25  1  0.996372  0.754100  0.608033  1
  O  O26  1  0.105741  0.297476  0.694178  1
  O  O27  1  0.093231  0.543662  0.667945  1
  O  O28  1  0.266120  0.911495  0.962530  1
  O  O29  1  0.279882  0.156472  0.974638  1
  O  O30  1  0.248715  0.654396  0.850984  1
  O  O31  1  0.076666  0.131204  0.227781  1
  O  O32  1  0.251285  0.154396  0.649016  1
  O  O33  1  0.068465  0.618153  0.111950  1
  O  O34  1  0.220118  0.656472  0.525362  1
  O  O35  1  0.187836  0.030591  0.443030  1
  O  O36  1  0.233880  0.411495  0.537470  1
  O  O37  1  0.185836  0.783661  0.392021  1
  O  O38  1  0.172636  0.400639  0.217418  1
  O  O39  1  0.230038  0.525535  0.357838  1
  O  O40  1  0.406769  0.043662  0.832055  1
  O  O41  1  0.394259  0.797476  0.805822  1
  O  O42  1  0.503628  0.254100  0.891967  1
  O  O43  1  0.453289  0.572463  0.735967  1
  O  O44  1  0.269962  0.025535  0.142162  1
  O  O45  1  0.327364  0.900639  0.282582  1
  O  O46  1  0.314164  0.283661  0.107979  1
  O  O47  1  0.312164  0.530591  0.056970  1
  O  O48  1  0.431535  0.118153  0.388050  1
  O  O49  1  0.423334  0.631204  0.272219  1
  O  O50  1  0.576666  0.368796  0.727781  1
  O  O51  1  0.568465  0.881847  0.611950  1
  O  O52  1  0.687836  0.469409  0.943030  1
  O  O53  1  0.685836  0.716339  0.892021  1
  O  O54  1  0.672636  0.099361  0.717418  1
  O  O55  1  0.730038  0.974465  0.857838  1
  O  O56  1  0.546711  0.427537  0.264033  1
  O  O57  1  0.496372  0.745900  0.108033  1
  O  O58  1  0.605741  0.202524  0.194178  1
  O  O59  1  0.593231  0.956338  0.167945  1
  O  O60  1  0.769962  0.474465  0.642162  1
  O  O61  1  0.827364  0.599361  0.782582  1
  O  O62  1  0.814164  0.216339  0.607979  1
  O  O63  1  0.766120  0.588505  0.462530  1
  O  O64  1  0.812164  0.969409  0.556970  1
  O  O65  1  0.779882  0.343528  0.474638  1
  O  O66  1  0.931535  0.381847  0.888050  1
  O  O67  1  0.748715  0.845604  0.350984  1
  O  O68  1  0.923334  0.868796  0.772219  1
  O  O69  1  0.751285  0.345604  0.149016  1
  O  O70  1  0.720118  0.843528  0.025362  1
  O  O71  1  0.733880  0.088505  0.037470  1
  O  O72  1  0.906769  0.456338  0.332054  1
  O  O73  1  0.894259  0.702524  0.305822  1
  O  O74  1  0.003628  0.245900  0.391967  1
  O  O75  1  0.953289  0.927537  0.235967  1
