# generated using pymatgen
data_Na6Bi2As(CO4)4
_symmetry_space_group_name_H-M   'P 1'
_cell_length_a   10.37262663
_cell_length_b   10.37262656
_cell_length_c   10.37262615
_cell_angle_alpha   89.99999819
_cell_angle_beta   59.99999850
_cell_angle_gamma   59.99999982
_symmetry_Int_Tables_number   1
_chemical_formula_structural   Na6Bi2As(CO4)4
_chemical_formula_sum   'Na12 Bi4 As2 C8 O32'
_cell_volume   789.13482834
_cell_formula_units_Z   2
loop_
 _symmetry_equiv_pos_site_id
 _symmetry_equiv_pos_as_xyz
  1  'x, y, z'
loop_
 _atom_site_type_symbol
 _atom_site_label
 _atom_site_symmetry_multiplicity
 _atom_site_fract_x
 _atom_site_fract_y
 _atom_site_fract_z
 _atom_site_occupancy
  Na  Na0  1  0.750000  0.675742  0.925742  1
  Na  Na1  1  0.648516  0.925742  0.675742  1
  Na  Na2  1  0.750000  0.675742  0.324258  1
  Na  Na3  1  0.750000  0.074258  0.925742  1
  Na  Na4  1  0.851484  0.324258  0.074258  1
  Na  Na5  1  0.250000  0.925742  0.675742  1
  Na  Na6  1  0.148516  0.675742  0.925742  1
  Na  Na7  1  0.750000  0.074258  0.324258  1
  Na  Na8  1  0.250000  0.324258  0.675742  1
  Na  Na9  1  0.250000  0.925742  0.074258  1
  Na  Na10  1  0.351484  0.074258  0.324258  1
  Na  Na11  1  0.250000  0.324258  0.074258  1
  Bi  Bi12  1  0.500000  0.500000  0.500000  1
  Bi  Bi13  1  0.500000  0.500000  0.000000  1
  Bi  Bi14  1  0.000000  0.500000  0.500000  1
  Bi  Bi15  1  0.000000  0.000000  0.500000  1
  As  As16  1  0.750000  0.875000  0.125000  1
  As  As17  1  0.250000  0.125000  0.875000  1
  C  C18  1  0.953684  0.273158  0.726842  1
  C  C19  1  0.546316  0.680526  0.726842  1
  C  C20  1  0.953684  0.273158  0.319474  1
  C  C21  1  0.546316  0.273158  0.726842  1
  C  C22  1  0.453684  0.726842  0.273158  1
  C  C23  1  0.046316  0.726842  0.680526  1
  C  C24  1  0.453684  0.319474  0.273158  1
  C  C25  1  0.046316  0.726842  0.273158  1
  O  O26  1  0.925430  0.855653  0.679256  1
  O  O27  1  0.925430  0.718916  0.395314  1
  O  O28  1  0.823603  0.395314  0.855653  1
  O  O29  1  0.676397  0.679256  0.718916  1
  O  O30  1  0.960339  0.144347  0.718916  1
  O  O31  1  0.885893  0.942946  0.057054  1
  O  O32  1  0.960339  0.395314  0.320744  1
  O  O33  1  0.885893  0.671161  0.057054  1
  O  O34  1  0.614107  0.942946  0.328839  1
  O  O35  1  0.425430  0.679256  0.855653  1
  O  O36  1  0.539661  0.679256  0.604686  1
  O  O37  1  0.614107  0.942946  0.057054  1
  O  O38  1  0.539661  0.281084  0.855653  1
  O  O39  1  0.823603  0.281084  0.320744  1
  O  O40  1  0.676397  0.144347  0.604686  1
  O  O41  1  0.574570  0.604686  0.281084  1
  O  O42  1  0.425430  0.395314  0.718916  1
  O  O43  1  0.323603  0.855653  0.395314  1
  O  O44  1  0.176397  0.718916  0.679256  1
  O  O45  1  0.460339  0.718916  0.144347  1
  O  O46  1  0.385893  0.057054  0.942946  1
  O  O47  1  0.460339  0.320744  0.395314  1
  O  O48  1  0.574570  0.320744  0.144347  1
  O  O49  1  0.114107  0.328839  0.942946  1
  O  O50  1  0.385893  0.057054  0.671161  1
  O  O51  1  0.039661  0.604686  0.679256  1
  O  O52  1  0.114107  0.057054  0.942946  1
  O  O53  1  0.039661  0.855653  0.281084  1
  O  O54  1  0.323603  0.320744  0.281084  1
  O  O55  1  0.176397  0.604686  0.144347  1
  O  O56  1  0.074570  0.281084  0.604686  1
  O  O57  1  0.074570  0.144347  0.320744  1
