# generated using pymatgen
data_SmH8(NO5)3
_symmetry_space_group_name_H-M   'P 1'
_cell_length_a   6.80610975
_cell_length_b   8.82664672
_cell_length_c   12.03005027
_cell_angle_alpha   68.70142577
_cell_angle_beta   91.11334083
_cell_angle_gamma   69.58113696
_symmetry_Int_Tables_number   1
_chemical_formula_structural   SmH8(NO5)3
_chemical_formula_sum   'Sm2 H16 N6 O30'
_cell_volume   622.13497443
_cell_formula_units_Z   2
loop_
 _symmetry_equiv_pos_site_id
 _symmetry_equiv_pos_as_xyz
  1  'x, y, z'
loop_
 _atom_site_type_symbol
 _atom_site_label
 _atom_site_symmetry_multiplicity
 _atom_site_fract_x
 _atom_site_fract_y
 _atom_site_fract_z
 _atom_site_occupancy
  Sm  Sm0  1  0.794938  0.598734  0.724070  1
  Sm  Sm1  1  0.205062  0.401266  0.275930  1
  H  H2  1  0.449004  0.366237  0.515263  1
  H  H3  1  0.550996  0.633763  0.484737  1
  H  H4  1  0.215263  0.516269  0.496435  1
  H  H5  1  0.784737  0.483731  0.503565  1
  H  H6  1  0.642177  0.316564  0.728252  1
  H  H7  1  0.357823  0.683436  0.271748  1
  H  H8  1  0.664171  0.293932  0.868990  1
  H  H9  1  0.335829  0.706068  0.131010  1
  H  H10  1  0.295067  0.842544  0.650109  1
  H  H11  1  0.704933  0.157456  0.349891  1
  H  H12  1  0.361028  0.637508  0.727637  1
  H  H13  1  0.638972  0.362492  0.272363  1
  H  H14  1  0.424670  0.348908  0.064096  1
  H  H15  1  0.575330  0.651092  0.935904  1
  H  H16  1  0.213642  0.519288  0.992703  1
  H  H17  1  0.786358  0.480712  0.007297  1
  N  N18  1  0.930110  0.823405  0.826516  1
  N  N19  1  0.069890  0.176595  0.173484  1
  N  N20  1  0.908931  0.832181  0.500481  1
  N  N21  1  0.091069  0.167819  0.499519  1
  N  N22  1  0.178120  0.265785  0.815037  1
  N  N23  1  0.821880  0.734215  0.184963  1
  O  O24  1  0.746423  0.883287  0.766076  1
  O  O25  1  0.253577  0.116713  0.233924  1
  O  O26  1  0.057149  0.668367  0.837678  1
  O  O27  1  0.942851  0.331633  0.162322  1
  O  O28  1  0.987524  0.908800  0.874339  1
  O  O29  1  0.012476  0.091200  0.125661  1
  O  O30  1  0.043232  0.680853  0.573479  1
  O  O31  1  0.956768  0.319147  0.426521  1
  O  O32  1  0.721461  0.881932  0.523186  1
  O  O33  1  0.278539  0.118068  0.476814  1
  O  O34  1  0.961900  0.927234  0.410820  1
  O  O35  1  0.038100  0.072766  0.589180  1
  O  O36  1  0.093201  0.343328  0.702507  1
  O  O37  1  0.906799  0.656672  0.297493  1
  O  O38  1  0.081957  0.338477  0.884432  1
  O  O39  1  0.918043  0.661523  0.115568  1
  O  O40  1  0.341942  0.132642  0.853474  1
  O  O41  1  0.658058  0.867358  0.146526  1
  O  O42  1  0.688256  0.547843  0.545169  1
  O  O43  1  0.311744  0.452157  0.454831  1
  O  O44  1  0.634189  0.380384  0.783721  1
  O  O45  1  0.365811  0.619616  0.216279  1
  O  O46  1  0.414880  0.731729  0.695188  1
  O  O47  1  0.585120  0.268271  0.304812  1
  O  O48  1  0.698223  0.556706  0.926820  1
  O  O49  1  0.301777  0.443294  0.073180  1
  O  O50  1  0.641111  0.262171  0.615196  1
  O  O51  1  0.358889  0.737829  0.384804  1
  O  O52  1  0.654559  0.218829  0.022058  1
  O  O53  1  0.345441  0.781171  0.977942  1
