# generated using pymatgen
data_Ba3(RhO2)14
_symmetry_space_group_name_H-M   'P 1'
_cell_length_a   10.09985018
_cell_length_b   10.77538739
_cell_length_c   10.99471694
_cell_angle_alpha   106.48924038
_cell_angle_beta   98.29345447
_cell_angle_gamma   77.21413532
_symmetry_Int_Tables_number   1
_chemical_formula_structural   Ba3(RhO2)14
_chemical_formula_sum   'Ba6 Rh28 O56'
_cell_volume   1114.64243801
_cell_formula_units_Z   2
loop_
 _symmetry_equiv_pos_site_id
 _symmetry_equiv_pos_as_xyz
  1  'x, y, z'
loop_
 _atom_site_type_symbol
 _atom_site_label
 _atom_site_symmetry_multiplicity
 _atom_site_fract_x
 _atom_site_fract_y
 _atom_site_fract_z
 _atom_site_occupancy
  Ba  Ba0  1  0.505162  0.989667  0.496458  1
  Ba  Ba1  1  0.351980  0.296047  0.646399  1
  Ba  Ba2  1  0.029600  0.940985  0.970734  1
  Ba  Ba3  1  0.197525  0.606837  0.803072  1
  Ba  Ba4  1  0.659618  0.678877  0.339785  1
  Ba  Ba5  1  0.827543  0.344730  0.172123  1
  Rh  Rh6  1  0.095435  0.152400  0.716492  1
  Rh  Rh7  1  0.111631  0.090283  0.385692  1
  Rh  Rh8  1  0.191250  0.277544  0.997953  1
  Rh  Rh9  1  0.319324  0.052784  0.189512  1
  Rh  Rh10  1  0.033270  0.622407  0.474244  1
  Rh  Rh11  1  0.177091  0.337087  0.332210  1
  Rh  Rh12  1  0.048222  0.563520  0.140569  1
  Rh  Rh13  1  0.537819  0.232930  0.953345  1
  Rh  Rh14  1  0.523894  0.293870  0.288668  1
  Rh  Rh15  1  0.238521  0.865965  0.574459  1
  Rh  Rh16  1  0.381585  0.579865  0.431957  1
  Rh  Rh17  1  0.665893  0.008170  0.144904  1
  Rh  Rh18  1  0.397036  0.518856  0.097321  1
  Rh  Rh19  1  0.254946  0.804379  0.242011  1
  Rh  Rh20  1  0.745512  0.195432  0.757165  1
  Rh  Rh21  1  0.602196  0.481335  0.900846  1
  Rh  Rh22  1  0.618622  0.419749  0.568398  1
  Rh  Rh23  1  0.333249  0.991844  0.854189  1
  Rh  Rh24  1  0.761708  0.133315  0.426365  1
  Rh  Rh25  1  0.475558  0.705849  0.710900  1
  Rh  Rh26  1  0.460107  0.766858  0.045536  1
  Rh  Rh27  1  0.952243  0.437418  0.858314  1
  Rh  Rh28  1  0.823873  0.663307  0.668613  1
  Rh  Rh29  1  0.968137  0.377098  0.527253  1
  Rh  Rh30  1  0.680052  0.948627  0.810647  1
  Rh  Rh31  1  0.808921  0.722195  0.002288  1
  Rh  Rh32  1  0.889006  0.908616  0.615604  1
  Rh  Rh33  1  0.904900  0.848295  0.284543  1
  O  O34  1  0.139871  0.102111  0.887251  1
  O  O35  1  0.010439  0.263932  0.345738  1
  O  O36  1  0.095255  0.214013  0.562656  1
  O  O37  1  0.149275  0.330920  0.824257  1
  O  O38  1  0.292262  0.045137  0.680789  1
  O  O39  1  0.004581  0.615393  0.967922  1
  O  O40  1  0.191524  0.215566  0.153457  1
  O  O41  1  0.047577  0.498927  0.294938  1
  O  O42  1  0.282854  0.162064  0.376874  1
  O  O43  1  0.139283  0.448760  0.519559  1
  O  O44  1  0.372638  0.167973  0.952113  1
  O  O45  1  0.230221  0.454938  0.093677  1
  O  O46  1  0.087195  0.740513  0.237414  1
  O  O47  1  0.056216  0.974427  0.620648  1
  O  O48  1  0.342587  0.403162  0.336085  1
  O  O49  1  0.484505  0.117741  0.190744  1
  O  O50  1  0.199761  0.688484  0.479127  1
  O  O51  1  0.574289  0.123650  0.765983  1
  O  O52  1  0.431807  0.409326  0.910415  1
  O  O53  1  0.665619  0.070149  0.989400  1
  O  O54  1  0.421776  0.527147  0.604743  1
  O  O55  1  0.564881  0.240577  0.462068  1
  O  O56  1  0.280057  0.814299  0.746447  1
  O  O57  1  0.291088  0.694827  0.056465  1
  O  O58  1  0.153266  0.980203  0.204748  1
  O  O59  1  0.526041  0.355463  0.132957  1
  O  O60  1  0.382445  0.640594  0.276271  1
  O  O61  1  0.239322  0.927043  0.420059  1
  O  O62  1  0.617821  0.358671  0.722799  1
  O  O63  1  0.474697  0.645120  0.866586  1
  O  O64  1  0.761888  0.071701  0.580201  1
  O  O65  1  0.703877  0.305512  0.938110  1
  O  O66  1  0.846703  0.021782  0.797119  1
  O  O67  1  0.577086  0.471415  0.396410  1
  O  O68  1  0.717272  0.183603  0.255606  1
  O  O69  1  0.435367  0.758567  0.538114  1
  O  O70  1  0.331102  0.930252  0.009900  1
  O  O71  1  0.425336  0.876389  0.232442  1
  O  O72  1  0.566055  0.590887  0.086392  1
  O  O73  1  0.943807  0.025783  0.379531  1
  O  O74  1  0.657382  0.597231  0.663731  1
  O  O75  1  0.800927  0.311288  0.522209  1
  O  O76  1  0.514556  0.882552  0.806772  1
  O  O77  1  0.769948  0.545201  0.905443  1
  O  O78  1  0.913336  0.259931  0.763326  1
  O  O79  1  0.626922  0.830777  0.049181  1
  O  O80  1  0.863310  0.550578  0.483274  1
  O  O81  1  0.717859  0.836954  0.623298  1
  O  O82  1  0.951658  0.501103  0.704878  1
  O  O83  1  0.809565  0.786787  0.847919  1
  O  O84  1  0.998262  0.387035  0.028965  1
  O  O85  1  0.707868  0.954795  0.318601  1
  O  O86  1  0.852562  0.670322  0.174936  1
  O  O87  1  0.905485  0.784612  0.437979  1
  O  O88  1  0.993833  0.735136  0.659584  1
  O  O89  1  0.858881  0.898679  0.113892  1
