# generated using pymatgen
data_Li2CrSi4O11
_symmetry_space_group_name_H-M   'P 1'
_cell_length_a   7.69241621
_cell_length_b   8.44177706
_cell_length_c   8.44177706
_cell_angle_alpha   101.98091576
_cell_angle_beta   117.10457121
_cell_angle_gamma   62.89542879
_symmetry_Int_Tables_number   1
_chemical_formula_structural   Li2CrSi4O11
_chemical_formula_sum   'Li4 Cr2 Si8 O22'
_cell_volume   434.39292157
_cell_formula_units_Z   2
loop_
 _symmetry_equiv_pos_site_id
 _symmetry_equiv_pos_as_xyz
  1  'x, y, z'
loop_
 _atom_site_type_symbol
 _atom_site_label
 _atom_site_symmetry_multiplicity
 _atom_site_fract_x
 _atom_site_fract_y
 _atom_site_fract_z
 _atom_site_occupancy
  Li  Li0  1  0.621338  0.033815  0.276490  1
  Li  Li1  1  0.655152  0.723510  0.033815  1
  Li  Li2  1  0.344848  0.276490  0.966185  1
  Li  Li3  1  0.378662  0.966185  0.723510  1
  Cr  Cr4  1  0.244660  0.000000  0.000000  1
  Cr  Cr5  1  0.755340  0.000000  0.000000  1
  Si  Si6  1  0.177804  0.322057  0.285551  1
  Si  Si7  1  0.785690  0.322057  0.285551  1
  Si  Si8  1  0.892252  0.285551  0.677943  1
  Si  Si9  1  0.500140  0.285551  0.677943  1
  Si  Si10  1  0.107748  0.714449  0.322057  1
  Si  Si11  1  0.499860  0.714449  0.322057  1
  Si  Si12  1  0.214310  0.677943  0.714449  1
  Si  Si13  1  0.822196  0.677943  0.714449  1
  O  O14  1  0.000000  0.000000  0.000000  1
  O  O15  1  0.500000  0.000000  0.000000  1
  O  O16  1  0.214872  0.239233  0.107947  1
  O  O17  1  0.653842  0.239233  0.107947  1
  O  O18  1  0.037416  0.248560  0.323393  1
  O  O19  1  0.410132  0.267332  0.459651  1
  O  O20  1  0.782187  0.267332  0.459651  1
  O  O21  1  0.049519  0.540349  0.267332  1
  O  O22  1  0.677465  0.540349  0.267332  1
  O  O23  1  0.106925  0.107947  0.760767  1
  O  O24  1  0.545894  0.107947  0.760767  1
  O  O25  1  0.285976  0.676607  0.248560  1
  O  O26  1  0.714024  0.323393  0.751440  1
  O  O27  1  0.454106  0.892053  0.239233  1
  O  O28  1  0.893075  0.892053  0.239233  1
  O  O29  1  0.322535  0.459651  0.732668  1
  O  O30  1  0.950481  0.459651  0.732668  1
  O  O31  1  0.217813  0.732668  0.540349  1
  O  O32  1  0.589868  0.732668  0.540349  1
  O  O33  1  0.962584  0.751440  0.676607  1
  O  O34  1  0.346158  0.760767  0.892053  1
  O  O35  1  0.785128  0.760767  0.892053  1
