# generated using pymatgen
data_Mn6O5F7
_symmetry_space_group_name_H-M   'P 1'
_cell_length_a   4.72227545
_cell_length_b   5.72789151
_cell_length_c   15.59270735
_cell_angle_alpha   90.30341012
_cell_angle_beta   88.96354424
_cell_angle_gamma   91.67353509
_symmetry_Int_Tables_number   1
_chemical_formula_structural   Mn6O5F7
_chemical_formula_sum   'Mn12 O10 F14'
_cell_volume   421.50850343
_cell_formula_units_Z   2
loop_
 _symmetry_equiv_pos_site_id
 _symmetry_equiv_pos_as_xyz
  1  'x, y, z'
loop_
 _atom_site_type_symbol
 _atom_site_label
 _atom_site_symmetry_multiplicity
 _atom_site_fract_x
 _atom_site_fract_y
 _atom_site_fract_z
 _atom_site_occupancy
  Mn  Mn0  1  0.049062  0.162329  0.414063  1
  Mn  Mn1  1  0.978579  0.845458  0.249500  1
  Mn  Mn2  1  0.041200  0.159753  0.079428  1
  Mn  Mn3  1  0.986357  0.156110  0.745182  1
  Mn  Mn4  1  0.022365  0.859883  0.578340  1
  Mn  Mn5  1  0.064667  0.833576  0.915742  1
  Mn  Mn6  1  0.493819  0.334856  0.588490  1
  Mn  Mn7  1  0.489654  0.348508  0.922198  1
  Mn  Mn8  1  0.477208  0.350297  0.246635  1
  Mn  Mn9  1  0.511869  0.636290  0.087532  1
  Mn  Mn10  1  0.472743  0.651745  0.424547  1
  Mn  Mn11  1  0.486656  0.655191  0.750334  1
  O  O12  1  0.215879  0.113984  0.300884  1
  O  O13  1  0.213088  0.113755  0.636701  1
  O  O14  1  0.244821  0.115478  0.974230  1
  O  O15  1  0.233190  0.884187  0.473701  1
  O  O16  1  0.219656  0.893042  0.800125  1
  O  O17  1  0.284037  0.379630  0.138558  1
  O  O18  1  0.290075  0.390693  0.480768  1
  O  O19  1  0.309580  0.602167  0.979363  1
  O  O20  1  0.707994  0.615190  0.196299  1
  O  O21  1  0.696119  0.378672  0.696283  1
  F  F22  1  0.236826  0.880555  0.140714  1
  F  F23  1  0.230082  0.611915  0.311827  1
  F  F24  1  0.251989  0.612628  0.642071  1
  F  F25  1  0.239427  0.403313  0.811605  1
  F  F26  1  0.768578  0.380510  0.025152  1
  F  F27  1  0.706767  0.391651  0.357494  1
  F  F28  1  0.749199  0.618431  0.533768  1
  F  F29  1  0.734548  0.613265  0.862894  1
  F  F30  1  0.780558  0.116100  0.183195  1
  F  F31  1  0.777597  0.132672  0.517513  1
  F  F32  1  0.740580  0.882234  0.364655  1
  F  F33  1  0.792890  0.874287  0.029163  1
  F  F34  1  0.749033  0.124872  0.859740  1
  F  F35  1  0.753308  0.876771  0.681305  1
