# generated using pymatgen
data_KMgIn(MoO4)3
_symmetry_space_group_name_H-M   'P 1'
_cell_length_a   9.69491369
_cell_length_b   9.69491337
_cell_length_c   9.94389435
_cell_angle_alpha   61.08542971
_cell_angle_beta   61.08543077
_cell_angle_gamma   60.07717758
_symmetry_Int_Tables_number   1
_chemical_formula_structural   KMgIn(MoO4)3
_chemical_formula_sum   'K2 Mg2 In2 Mo6 O24'
_cell_volume   671.92943769
_cell_formula_units_Z   2
loop_
 _symmetry_equiv_pos_site_id
 _symmetry_equiv_pos_as_xyz
  1  'x, y, z'
loop_
 _atom_site_type_symbol
 _atom_site_label
 _atom_site_symmetry_multiplicity
 _atom_site_fract_x
 _atom_site_fract_y
 _atom_site_fract_z
 _atom_site_occupancy
  K  K0  1  0.500928  0.001021  0.997149  1
  K  K1  1  0.001021  0.500928  0.497149  1
  Mg  Mg2  1  0.142764  0.643967  0.068165  1
  Mg  Mg3  1  0.643967  0.142764  0.568165  1
  In  In4  1  0.355473  0.856988  0.432531  1
  In  In5  1  0.856988  0.355473  0.932531  1
  Mo  Mo6  1  0.034455  0.960918  0.252131  1
  Mo  Mo7  1  0.462883  0.251746  0.251414  1
  Mo  Mo8  1  0.251746  0.462883  0.751414  1
  Mo  Mo9  1  0.752310  0.533147  0.253209  1
  Mo  Mo10  1  0.533147  0.752310  0.753209  1
  Mo  Mo11  1  0.960918  0.034455  0.752131  1
  O  O12  1  0.007263  0.139880  0.074102  1
  O  O13  1  0.139880  0.007263  0.574102  1
  O  O14  1  0.063227  0.777087  0.227076  1
  O  O15  1  0.434859  0.071732  0.269471  1
  O  O16  1  0.280456  0.432823  0.224367  1
  O  O17  1  0.071732  0.434859  0.769471  1
  O  O18  1  0.495875  0.220076  0.427095  1
  O  O19  1  0.642959  0.276580  0.074760  1
  O  O20  1  0.223047  0.935619  0.270682  1
  O  O21  1  0.276580  0.642959  0.574760  1
  O  O22  1  0.220076  0.495875  0.927095  1
  O  O23  1  0.432823  0.280456  0.724367  1
  O  O24  1  0.569509  0.720098  0.274092  1
  O  O25  1  0.779417  0.507965  0.072990  1
  O  O26  1  0.723205  0.354373  0.425537  1
  O  O27  1  0.777087  0.063227  0.727076  1
  O  O28  1  0.354373  0.723205  0.925537  1
  O  O29  1  0.507965  0.779417  0.572990  1
  O  O30  1  0.930866  0.563793  0.229150  1
  O  O31  1  0.720098  0.569509  0.774092  1
  O  O32  1  0.563793  0.930866  0.729150  1
  O  O33  1  0.935619  0.223047  0.770682  1
  O  O34  1  0.856978  0.995711  0.426078  1
  O  O35  1  0.995711  0.856978  0.926078  1
