# generated using pymatgen
data_Li4AlCr3O8
_symmetry_space_group_name_H-M   'P 1'
_cell_length_a   5.11243339
_cell_length_b   5.86745080
_cell_length_c   5.86831559
_cell_angle_alpha   120.00499278
_cell_angle_beta   90.00000016
_cell_angle_gamma   73.32920972
_symmetry_Int_Tables_number   1
_chemical_formula_structural   Li4AlCr3O8
_chemical_formula_sum   'Li4 Al1 Cr3 O8'
_cell_volume   143.83286781
_cell_formula_units_Z   1
loop_
 _symmetry_equiv_pos_site_id
 _symmetry_equiv_pos_as_xyz
  1  'x, y, z'
loop_
 _atom_site_type_symbol
 _atom_site_label
 _atom_site_symmetry_multiplicity
 _atom_site_fract_x
 _atom_site_fract_y
 _atom_site_fract_z
 _atom_site_occupancy
  Li  Li0  1  0.999715  0.999297  0.499648  1
  Li  Li1  1  0.000285  0.000703  0.000352  1
  Li  Li2  1  1.000000  0.500000  0.498812  1
  Li  Li3  1  0.000000  0.500000  0.001188  1
  Al  Al4  1  0.500000  0.500000  0.250000  1
  Cr  Cr5  1  0.500000  0.000000  0.750000  1
  Cr  Cr6  1  0.500000  0.000000  0.250000  1
  Cr  Cr7  1  0.500000  0.500000  0.750000  1
  O  O8  1  0.272760  0.242270  0.621134  1
  O  O9  1  0.721342  0.265274  0.891317  1
  O  O10  1  0.279846  0.251709  0.125854  1
  O  O11  1  0.721342  0.265273  0.373957  1
  O  O12  1  0.278658  0.734726  0.608683  1
  O  O13  1  0.727240  0.757730  0.878866  1
  O  O14  1  0.278658  0.734726  0.126043  1
  O  O15  1  0.720154  0.748291  0.374146  1
