# generated using pymatgen
data_CoOF
_symmetry_space_group_name_H-M   'P 1'
_cell_length_a   4.50899203
_cell_length_b   4.48157740
_cell_length_c   8.99859921
_cell_angle_alpha   90.00232523
_cell_angle_beta   90.01019883
_cell_angle_gamma   89.98802843
_symmetry_Int_Tables_number   1
_chemical_formula_structural   CoOF
_chemical_formula_sum   'Co6 O6 F6'
_cell_volume   181.83825755
_cell_formula_units_Z   6
loop_
 _symmetry_equiv_pos_site_id
 _symmetry_equiv_pos_as_xyz
  1  'x, y, z'
loop_
 _atom_site_type_symbol
 _atom_site_label
 _atom_site_symmetry_multiplicity
 _atom_site_fract_x
 _atom_site_fract_y
 _atom_site_fract_z
 _atom_site_occupancy
  Co  Co0  1  0.974786  0.975158  0.000297  1
  Co  Co1  1  0.974820  0.975140  0.333030  1
  Co  Co2  1  0.034121  0.020772  0.666668  1
  Co  Co3  1  0.534047  0.479153  0.166668  1
  Co  Co4  1  0.474759  0.524931  0.832991  1
  Co  Co5  1  0.474765  0.524920  0.500337  1
  O  O6  1  0.191409  0.823957  0.830400  1
  O  O7  1  0.191413  0.823921  0.502984  1
  O  O8  1  0.308138  0.325656  0.666630  1
  O  O9  1  0.691187  0.675839  0.002872  1
  O  O10  1  0.691199  0.675811  0.330507  1
  O  O11  1  0.807679  0.174716  0.166633  1
  F  F12  1  0.219869  0.769368  0.166662  1
  F  F13  1  0.303048  0.283434  0.325743  1
  F  F14  1  0.302998  0.283513  0.007586  1
  F  F15  1  0.719992  0.730696  0.666675  1
  F  F16  1  0.802902  0.216554  0.825715  1
  F  F17  1  0.802870  0.216462  0.507606  1
