# generated using pymatgen
data_Na3MgPCO7
_symmetry_space_group_name_H-M   'P 1'
_cell_length_a   9.02018654
_cell_length_b   5.30337111
_cell_length_c   6.58475513
_cell_angle_alpha   90.00000000
_cell_angle_beta   90.00000000
_cell_angle_gamma   90.28926044
_symmetry_Int_Tables_number   1
_chemical_formula_structural   Na3MgPCO7
_chemical_formula_sum   'Na6 Mg2 P2 C2 O14'
_cell_volume   314.99352913
_cell_formula_units_Z   2
loop_
 _symmetry_equiv_pos_site_id
 _symmetry_equiv_pos_as_xyz
  1  'x, y, z'
loop_
 _atom_site_type_symbol
 _atom_site_label
 _atom_site_symmetry_multiplicity
 _atom_site_fract_x
 _atom_site_fract_y
 _atom_site_fract_z
 _atom_site_occupancy
  Na  Na0  1  0.004648  0.000522  0.488366  1
  Na  Na1  1  0.167078  0.453060  0.189726  1
  Na  Na2  1  0.488991  0.501240  0.485618  1
  Na  Na3  1  0.511009  0.498760  0.985618  1
  Na  Na4  1  0.832922  0.546940  0.689726  1
  Na  Na5  1  0.995352  0.999478  0.988366  1
  Mg  Mg6  1  0.294080  0.016430  0.744264  1
  Mg  Mg7  1  0.705920  0.983570  0.244264  1
  P  P8  1  0.346871  0.977824  0.240471  1
  P  P9  1  0.653129  0.022176  0.740471  1
  C  C10  1  0.152869  0.490230  0.740632  1
  C  C11  1  0.847131  0.509770  0.240632  1
  O  O12  1  0.047849  0.320409  0.741449  1
  O  O13  1  0.118275  0.730562  0.749681  1
  O  O14  1  0.254008  0.073630  0.054591  1
  O  O15  1  0.256039  0.043033  0.434663  1
  O  O16  1  0.290230  0.421565  0.735111  1
  O  O17  1  0.370183  0.690813  0.223074  1
  O  O18  1  0.498827  0.119725  0.246952  1
  O  O19  1  0.501173  0.880275  0.746952  1
  O  O20  1  0.629817  0.309187  0.723074  1
  O  O21  1  0.709770  0.578435  0.235111  1
  O  O22  1  0.743961  0.956967  0.934663  1
  O  O23  1  0.745992  0.926370  0.554591  1
  O  O24  1  0.881725  0.269438  0.249681  1
  O  O25  1  0.952151  0.679591  0.241449  1
