# generated using pymatgen
data_Sn(PO3)3
_symmetry_space_group_name_H-M   'P 1'
_cell_length_a   8.79166397
_cell_length_b   8.78637511
_cell_length_c   9.34282757
_cell_angle_alpha   90.00000000
_cell_angle_beta   90.00000000
_cell_angle_gamma   90.00000000
_symmetry_Int_Tables_number   1
_chemical_formula_structural   Sn(PO3)3
_chemical_formula_sum   'Sn4 P12 O36'
_cell_volume   721.70406977
_cell_formula_units_Z   4
loop_
 _symmetry_equiv_pos_site_id
 _symmetry_equiv_pos_as_xyz
  1  'x, y, z'
loop_
 _atom_site_type_symbol
 _atom_site_label
 _atom_site_symmetry_multiplicity
 _atom_site_fract_x
 _atom_site_fract_y
 _atom_site_fract_z
 _atom_site_occupancy
  Sn  Sn0  1  0.121081  0.096127  0.142656  1
  Sn  Sn1  1  0.378919  0.903873  0.642656  1
  Sn  Sn2  1  0.621081  0.403873  0.857344  1
  Sn  Sn3  1  0.878919  0.596127  0.357344  1
  P  P4  1  0.055718  0.944025  0.823290  1
  P  P5  1  0.068586  0.716650  0.059690  1
  P  P6  1  0.224064  0.554947  0.556572  1
  P  P7  1  0.275936  0.445053  0.056572  1
  P  P8  1  0.431414  0.283350  0.559690  1
  P  P9  1  0.444282  0.055975  0.323290  1
  P  P10  1  0.555718  0.555975  0.176710  1
  P  P11  1  0.568586  0.783350  0.940310  1
  P  P12  1  0.724064  0.945053  0.443428  1
  P  P13  1  0.775936  0.054947  0.943428  1
  P  P14  1  0.931414  0.216650  0.440310  1
  P  P15  1  0.944282  0.444025  0.676710  1
  O  O16  1  0.022430  0.784272  0.905121  1
  O  O17  1  0.061439  0.122790  0.383418  1
  O  O18  1  0.118253  0.909497  0.677208  1
  O  O19  1  0.127795  0.842109  0.154959  1
  O  O20  1  0.115029  0.509454  0.692056  1
  O  O21  1  0.150122  0.346584  0.114343  1
  O  O22  1  0.129762  0.610243  0.432964  1
  O  O23  1  0.150605  0.050963  0.913737  1
  O  O24  1  0.206935  0.607918  0.011194  1
  O  O25  1  0.293065  0.392082  0.511194  1
  O  O26  1  0.349395  0.949037  0.413737  1
  O  O27  1  0.370238  0.389757  0.932964  1
  O  O28  1  0.349878  0.653416  0.614343  1
  O  O29  1  0.384971  0.490546  0.192056  1
  O  O30  1  0.372205  0.157891  0.654959  1
  O  O31  1  0.381747  0.090503  0.177208  1
  O  O32  1  0.438561  0.877210  0.883418  1
  O  O33  1  0.477570  0.215728  0.405121  1
  O  O34  1  0.522430  0.715728  0.094879  1
  O  O35  1  0.561439  0.377210  0.616582  1
  O  O36  1  0.618253  0.590503  0.322792  1
  O  O37  1  0.627795  0.657891  0.845041  1
  O  O38  1  0.615029  0.990546  0.307944  1
  O  O39  1  0.650122  0.153416  0.885657  1
  O  O40  1  0.629762  0.889757  0.567036  1
  O  O41  1  0.650605  0.449037  0.086263  1
  O  O42  1  0.706935  0.892082  0.988806  1
  O  O43  1  0.793065  0.107918  0.488806  1
  O  O44  1  0.849395  0.550963  0.586263  1
  O  O45  1  0.870238  0.110243  0.067036  1
  O  O46  1  0.849878  0.846584  0.385657  1
  O  O47  1  0.884971  0.009454  0.807944  1
  O  O48  1  0.872205  0.342109  0.345041  1
  O  O49  1  0.881747  0.409497  0.822792  1
  O  O50  1  0.938561  0.622790  0.116582  1
  O  O51  1  0.977570  0.284272  0.594879  1
