# generated using pymatgen
data_Ti17(NO4)6
_symmetry_space_group_name_H-M   'P 1'
_cell_length_a   11.48828208
_cell_length_b   9.66252229
_cell_length_c   10.02793953
_cell_angle_alpha   90.00000000
_cell_angle_beta   90.00000000
_cell_angle_gamma   90.00000000
_symmetry_Int_Tables_number   1
_chemical_formula_structural   Ti17(NO4)6
_chemical_formula_sum   'Ti34 N12 O48'
_cell_volume   1113.15926609
_cell_formula_units_Z   2
loop_
 _symmetry_equiv_pos_site_id
 _symmetry_equiv_pos_as_xyz
  1  'x, y, z'
loop_
 _atom_site_type_symbol
 _atom_site_label
 _atom_site_symmetry_multiplicity
 _atom_site_fract_x
 _atom_site_fract_y
 _atom_site_fract_z
 _atom_site_occupancy
  Ti  Ti0  1  0.000000  0.364050  0.429512  1
  Ti  Ti1  1  0.000000  0.636904  0.942618  1
  Ti  Ti2  1  0.000000  0.364050  0.070488  1
  Ti  Ti3  1  0.000000  0.301820  0.750000  1
  Ti  Ti4  1  0.000000  0.636904  0.557382  1
  Ti  Ti5  1  0.166778  0.137957  0.927849  1
  Ti  Ti6  1  0.162068  0.856435  0.423203  1
  Ti  Ti7  1  0.166778  0.137957  0.572151  1
  Ti  Ti8  1  0.165157  0.195673  0.250000  1
  Ti  Ti9  1  0.162068  0.856435  0.076797  1
  Ti  Ti10  1  0.162076  0.801470  0.750000  1
  Ti  Ti11  1  0.334843  0.304327  0.750000  1
  Ti  Ti12  1  0.333222  0.362043  0.072151  1
  Ti  Ti13  1  0.337932  0.643565  0.576797  1
  Ti  Ti14  1  0.337932  0.643565  0.923203  1
  Ti  Ti15  1  0.333222  0.362043  0.427849  1
  Ti  Ti16  1  0.337924  0.698530  0.250000  1
  Ti  Ti17  1  0.500000  0.135950  0.570488  1
  Ti  Ti18  1  0.500000  0.198180  0.250000  1
  Ti  Ti19  1  0.500000  0.863096  0.057382  1
  Ti  Ti20  1  0.500000  0.863096  0.442618  1
  Ti  Ti21  1  0.500000  0.135950  0.929512  1
  Ti  Ti22  1  0.662068  0.643565  0.576797  1
  Ti  Ti23  1  0.666778  0.362043  0.072151  1
  Ti  Ti24  1  0.666778  0.362043  0.427849  1
  Ti  Ti25  1  0.662076  0.698530  0.250000  1
  Ti  Ti26  1  0.665157  0.304327  0.750000  1
  Ti  Ti27  1  0.662068  0.643565  0.923203  1
  Ti  Ti28  1  0.833222  0.137957  0.572151  1
  Ti  Ti29  1  0.837924  0.801470  0.750000  1
  Ti  Ti30  1  0.837932  0.856435  0.423203  1
  Ti  Ti31  1  0.833222  0.137957  0.927849  1
  Ti  Ti32  1  0.834843  0.195673  0.250000  1
  Ti  Ti33  1  0.837932  0.856435  0.076797  1
  N  N34  1  0.000000  0.266560  0.250000  1
  N  N35  1  0.000000  0.727088  0.750000  1
  N  N36  1  0.167960  0.231152  0.750000  1
  N  N37  1  0.181985  0.779886  0.250000  1
  N  N38  1  0.332040  0.268848  0.250000  1
  N  N39  1  0.318015  0.720114  0.750000  1
  N  N40  1  0.500000  0.233440  0.750000  1
  N  N41  1  0.500000  0.772912  0.250000  1
  N  N42  1  0.667960  0.268848  0.250000  1
  N  N43  1  0.681985  0.720114  0.750000  1
  N  N44  1  0.818015  0.779886  0.250000  1
  N  N45  1  0.832040  0.231152  0.750000  1
  O  O46  1  0.000000  0.183173  0.566130  1
  O  O47  1  0.000000  0.543554  0.389963  1
  O  O48  1  0.000000  0.449653  0.878439  1
  O  O49  1  0.000000  0.824124  0.052498  1
  O  O50  1  0.000000  0.543554  0.110037  1
  O  O51  1  0.000000  0.183173  0.933870  1
  O  O52  1  0.000000  0.449653  0.621561  1
  O  O53  1  0.000000  0.824124  0.447502  1
  O  O54  1  0.166264  0.048312  0.118760  1
  O  O55  1  0.166264  0.048312  0.381240  1
  O  O56  1  0.164869  0.690609  0.561554  1
  O  O57  1  0.166344  0.311614  0.436559  1
  O  O58  1  0.166344  0.311614  0.063441  1
  O  O59  1  0.164869  0.690609  0.938446  1
  O  O60  1  0.168846  0.953258  0.880284  1
  O  O61  1  0.168846  0.953258  0.619716  1
  O  O62  1  0.333656  0.188386  0.563441  1
  O  O63  1  0.333656  0.188386  0.936559  1
  O  O64  1  0.333736  0.451688  0.881240  1
  O  O65  1  0.331154  0.546742  0.119716  1
  O  O66  1  0.333736  0.451688  0.618760  1
  O  O67  1  0.335131  0.809391  0.061554  1
  O  O68  1  0.331154  0.546742  0.380284  1
  O  O69  1  0.335131  0.809391  0.438446  1
  O  O70  1  0.500000  0.316827  0.433870  1
  O  O71  1  0.500000  0.316827  0.066130  1
  O  O72  1  0.500000  0.675876  0.552498  1
  O  O73  1  0.500000  0.956446  0.610037  1
  O  O74  1  0.500000  0.050347  0.121561  1
  O  O75  1  0.500000  0.050347  0.378439  1
  O  O76  1  0.500000  0.675876  0.947502  1
  O  O77  1  0.500000  0.956446  0.889963  1
  O  O78  1  0.666344  0.188386  0.563441  1
  O  O79  1  0.666264  0.451688  0.618760  1
  O  O80  1  0.668846  0.546742  0.380284  1
  O  O81  1  0.668846  0.546742  0.119716  1
  O  O82  1  0.664869  0.809391  0.438446  1
  O  O83  1  0.664869  0.809391  0.061554  1
  O  O84  1  0.666344  0.188386  0.936559  1
  O  O85  1  0.666264  0.451688  0.881240  1
  O  O86  1  0.835131  0.690609  0.561554  1
  O  O87  1  0.835131  0.690609  0.938446  1
  O  O88  1  0.831154  0.953258  0.619716  1
  O  O89  1  0.831154  0.953258  0.880284  1
  O  O90  1  0.833736  0.048312  0.118760  1
  O  O91  1  0.833736  0.048312  0.381240  1
  O  O92  1  0.833656  0.311614  0.436559  1
  O  O93  1  0.833656  0.311614  0.063441  1
