# generated using pymatgen
data_Co3O5F
_symmetry_space_group_name_H-M   'P 1'
_cell_length_a   4.51660621
_cell_length_b   13.53765731
_cell_length_c   2.88795874
_cell_angle_alpha   90.00001208
_cell_angle_beta   89.99999905
_cell_angle_gamma   90.07431823
_symmetry_Int_Tables_number   1
_chemical_formula_structural   Co3O5F
_chemical_formula_sum   'Co6 O10 F2'
_cell_volume   176.58197178
_cell_formula_units_Z   2
loop_
 _symmetry_equiv_pos_site_id
 _symmetry_equiv_pos_as_xyz
  1  'x, y, z'
loop_
 _atom_site_type_symbol
 _atom_site_label
 _atom_site_symmetry_multiplicity
 _atom_site_fract_x
 _atom_site_fract_y
 _atom_site_fract_z
 _atom_site_occupancy
  Co  Co0  1  0.970596  0.000446  -0.000000  1
  Co  Co1  1  0.027387  0.341517  0.000000  1
  Co  Co2  1  0.034863  0.658033  0.000000  1
  Co  Co3  1  0.466573  0.157352  0.500000  1
  Co  Co4  1  0.529745  0.500060  0.500000  1
  Co  Co5  1  0.471399  0.842550  0.500000  1
  O  O6  1  0.194288  0.270669  0.500000  1
  O  O7  1  0.156421  0.938945  0.500000  1
  O  O8  1  0.235289  0.596139  0.500000  1
  O  O9  1  0.304502  0.771229  0.000000  1
  O  O10  1  0.265444  0.096565  -0.000000  1
  O  O11  1  0.343656  0.438043  -0.000000  1
  O  O12  1  0.719791  0.562512  -0.000000  1
  O  O13  1  0.670160  0.901347  -0.000000  1
  O  O14  1  0.781375  0.063039  0.500000  1
  O  O15  1  0.828107  0.400604  0.500000  1
  F  F16  1  0.688301  0.230695  1.000000  1
  F  F17  1  0.812101  0.730257  0.500000  1
