# generated using pymatgen
data_Ti(SO4)2
_symmetry_space_group_name_H-M   'P 1'
_cell_length_a   8.88581882
_cell_length_b   8.88581875
_cell_length_c   8.88581886
_cell_angle_alpha   56.11035203
_cell_angle_beta   56.11035634
_cell_angle_gamma   56.11035596
_symmetry_Int_Tables_number   1
_chemical_formula_structural   Ti(SO4)2
_chemical_formula_sum   'Ti3 S6 O24'
_cell_volume   451.42645310
_cell_formula_units_Z   3
loop_
 _symmetry_equiv_pos_site_id
 _symmetry_equiv_pos_as_xyz
  1  'x, y, z'
loop_
 _atom_site_type_symbol
 _atom_site_label
 _atom_site_symmetry_multiplicity
 _atom_site_fract_x
 _atom_site_fract_y
 _atom_site_fract_z
 _atom_site_occupancy
  Ti  Ti0  1  0.147290  0.147290  0.147290  1
  Ti  Ti1  1  0.644258  0.644258  0.644258  1
  Ti  Ti2  1  0.850688  0.850688  0.850688  1
  S  S3  1  0.046595  0.747849  0.458549  1
  S  S4  1  0.458549  0.046595  0.747849  1
  S  S5  1  0.747849  0.458549  0.046595  1
  S  S6  1  0.254931  0.533926  0.964705  1
  S  S7  1  0.533926  0.964705  0.254931  1
  S  S8  1  0.964705  0.254931  0.533926  1
  O  O9  1  0.116324  0.283210  0.517892  1
  O  O10  1  0.283210  0.517892  0.116324  1
  O  O11  1  0.012632  0.961584  0.326688  1
  O  O12  1  0.517892  0.116324  0.283210  1
  O  O13  1  0.013903  0.730534  0.652711  1
  O  O14  1  0.234345  0.623942  0.378691  1
  O  O15  1  0.378691  0.234345  0.623942  1
  O  O16  1  0.326688  0.012632  0.961584  1
  O  O17  1  0.623942  0.378691  0.234345  1
  O  O18  1  0.055722  0.679332  0.956601  1
  O  O19  1  0.273274  0.346119  0.981062  1
  O  O20  1  0.346119  0.981062  0.273274  1
  O  O21  1  0.652711  0.013903  0.730534  1
  O  O22  1  0.730534  0.652711  0.013903  1
  O  O23  1  0.961584  0.326688  0.012632  1
  O  O24  1  0.398278  0.603944  0.765533  1
  O  O25  1  0.679332  0.956601  0.055722  1
  O  O26  1  0.603944  0.765533  0.398278  1
  O  O27  1  0.765533  0.398278  0.603944  1
  O  O28  1  0.981062  0.273274  0.346119  1
  O  O29  1  0.491682  0.880913  0.711256  1
  O  O30  1  0.956601  0.055722  0.679332  1
  O  O31  1  0.711256  0.491682  0.880913  1
  O  O32  1  0.880913  0.711256  0.491682  1
