# generated using pymatgen
data_Li5Nb2Ni5O12
_symmetry_space_group_name_H-M   'P 1'
_cell_length_a   5.24169847
_cell_length_b   5.24169853
_cell_length_c   10.03261891
_cell_angle_alpha   84.28762908
_cell_angle_beta   95.71236851
_cell_angle_gamma   58.55082488
_symmetry_Int_Tables_number   1
_chemical_formula_structural   Li5Nb2Ni5O12
_chemical_formula_sum   'Li5 Nb2 Ni5 O12'
_cell_volume   230.23530520
_cell_formula_units_Z   1
loop_
 _symmetry_equiv_pos_site_id
 _symmetry_equiv_pos_as_xyz
  1  'x, y, z'
loop_
 _atom_site_type_symbol
 _atom_site_label
 _atom_site_symmetry_multiplicity
 _atom_site_fract_x
 _atom_site_fract_y
 _atom_site_fract_z
 _atom_site_occupancy
  Li  Li0  1  0.182162  0.681549  0.504673  1
  Li  Li1  1  0.316715  0.825547  0.994643  1
  Li  Li2  1  0.681549  0.182162  0.995327  1
  Li  Li3  1  0.825547  0.316715  0.505357  1
  Li  Li4  1  0.921612  0.921612  0.750000  1
  Nb  Nb5  1  0.253478  0.253478  0.750000  1
  Nb  Nb6  1  0.747322  0.747322  0.250000  1
  Ni  Ni7  1  0.077979  0.077979  0.250000  1
  Ni  Ni8  1  0.996130  0.506862  0.996997  1
  Ni  Ni9  1  0.506862  0.996130  0.503003  1
  Ni  Ni10  1  0.417129  0.417129  0.250000  1
  Ni  Ni11  1  0.582664  0.582664  0.750000  1
  O  O12  1  0.970781  0.221548  0.870842  1
  O  O13  1  0.221548  0.970781  0.629158  1
  O  O14  1  0.121480  0.373859  0.367763  1
  O  O15  1  0.373859  0.121480  0.132237  1
  O  O16  1  0.291341  0.527307  0.869129  1
  O  O17  1  0.527307  0.291341  0.630871  1
  O  O18  1  0.461691  0.707390  0.373302  1
  O  O19  1  0.707390  0.461691  0.126698  1
  O  O20  1  0.613643  0.880312  0.869623  1
  O  O21  1  0.880312  0.613643  0.630377  1
  O  O22  1  0.788261  0.033239  0.374083  1
  O  O23  1  0.033239  0.788261  0.125917  1
