# generated using pymatgen
data_NaH2BrO5
_symmetry_space_group_name_H-M   'P 1'
_cell_length_a   8.99167156
_cell_length_b   8.99167156
_cell_length_c   12.76253018
_cell_angle_alpha   70.94962482
_cell_angle_beta   109.05037518
_cell_angle_gamma   143.51435920
_symmetry_Int_Tables_number   1
_chemical_formula_structural   NaH2BrO5
_chemical_formula_sum   'Na4 H8 Br4 O20'
_cell_volume   576.18913886
_cell_formula_units_Z   4
loop_
 _symmetry_equiv_pos_site_id
 _symmetry_equiv_pos_as_xyz
  1  'x, y, z'
loop_
 _atom_site_type_symbol
 _atom_site_label
 _atom_site_symmetry_multiplicity
 _atom_site_fract_x
 _atom_site_fract_y
 _atom_site_fract_z
 _atom_site_occupancy
  Na  Na0  1  0.000000  0.500000  0.000000  1
  Na  Na1  1  0.500000  0.000000  0.500000  1
  Na  Na2  1  0.600828  0.600828  0.750000  1
  Na  Na3  1  0.399172  0.399172  0.250000  1
  H  H4  1  0.507696  0.665804  0.409350  1
  H  H5  1  0.665804  0.507696  0.090650  1
  H  H6  1  0.492304  0.334196  0.590650  1
  H  H7  1  0.334196  0.492304  0.909350  1
  H  H8  1  0.923953  0.234672  0.526340  1
  H  H9  1  0.234672  0.923953  0.973660  1
  H  H10  1  0.076047  0.765328  0.473660  1
  H  H11  1  0.765328  0.076047  0.026340  1
  Br  Br12  1  0.145106  0.901290  0.685148  1
  Br  Br13  1  0.901290  0.145106  0.814852  1
  Br  Br14  1  0.854894  0.098710  0.314852  1
  Br  Br15  1  0.098710  0.854894  0.185148  1
  O  O16  1  0.235540  0.894802  0.905126  1
  O  O17  1  0.894802  0.235540  0.594874  1
  O  O18  1  0.764460  0.105198  0.094874  1
  O  O19  1  0.105198  0.764460  0.405126  1
  O  O20  1  0.231853  0.837863  0.628536  1
  O  O21  1  0.837863  0.231853  0.871464  1
  O  O22  1  0.768147  0.162137  0.371464  1
  O  O23  1  0.162137  0.768147  0.128536  1
  O  O24  1  0.886218  0.779403  0.604927  1
  O  O25  1  0.779403  0.886218  0.895073  1
  O  O26  1  0.113782  0.220597  0.395073  1
  O  O27  1  0.220597  0.113782  0.104927  1
  O  O28  1  0.393315  0.273683  0.645859  1
  O  O29  1  0.273683  0.393315  0.854141  1
  O  O30  1  0.606685  0.726317  0.354141  1
  O  O31  1  0.726317  0.606685  0.145859  1
  O  O32  1  0.710214  0.968319  0.645271  1
  O  O33  1  0.968319  0.710214  0.854729  1
  O  O34  1  0.289786  0.031681  0.354729  1
  O  O35  1  0.031681  0.289786  0.145271  1
