# generated using pymatgen
data_VOF
_symmetry_space_group_name_H-M   'P 1'
_cell_length_a   4.74585599
_cell_length_b   18.93661869
_cell_length_c   3.10187854
_cell_angle_alpha   90.00000000
_cell_angle_beta   90.00000000
_cell_angle_gamma   91.26688945
_symmetry_Int_Tables_number   1
_chemical_formula_structural   VOF
_chemical_formula_sum   'V8 O8 F8'
_cell_volume   278.69912386
_cell_formula_units_Z   8
loop_
 _symmetry_equiv_pos_site_id
 _symmetry_equiv_pos_as_xyz
  1  'x, y, z'
loop_
 _atom_site_type_symbol
 _atom_site_label
 _atom_site_symmetry_multiplicity
 _atom_site_fract_x
 _atom_site_fract_y
 _atom_site_fract_z
 _atom_site_occupancy
  V  V0  1  0.089482  0.249398  0.000000  1
  V  V1  1  0.973260  0.000275  0.000000  1
  V  V2  1  0.014179  0.500127  0.000000  1
  V  V3  1  0.958721  0.750153  0.000000  1
  V  V4  1  0.523101  0.125051  0.500000  1
  V  V5  1  0.409973  0.874793  0.500000  1
  V  V6  1  0.544443  0.375048  0.500000  1
  V  V7  1  0.486271  0.625087  0.500000  1
  O  O8  1  0.246633  0.199183  0.500000  1
  O  O9  1  0.162179  0.951700  0.500000  1
  O  O10  1  0.246567  0.824013  0.000000  1
  O  O11  1  0.297298  0.575208  0.000000  1
  O  O12  1  0.348537  0.326813  0.000000  1
  O  O13  1  0.731505  0.425135  0.000000  1
  O  O14  1  0.675674  0.675196  0.000000  1
  O  O15  1  0.793193  0.050461  0.500000  1
  F  F16  1  0.220334  0.451512  0.500000  1
  F  F17  1  0.165801  0.701472  0.500000  1
  F  F18  1  0.308508  0.076777  0.000000  1
  F  F19  1  0.734951  0.175630  0.000000  1
  F  F20  1  0.658122  0.921213  0.000000  1
  F  F21  1  0.847603  0.296016  0.500000  1
  F  F22  1  0.808084  0.549024  0.500000  1
  F  F23  1  0.755579  0.800709  0.500000  1
