# generated using pymatgen
data_Li4Mn(TeO4)3
_symmetry_space_group_name_H-M   'P 1'
_cell_length_a   5.48608014
_cell_length_b   11.00189624
_cell_length_c   9.72215660
_cell_angle_alpha   28.20689534
_cell_angle_beta   51.61165191
_cell_angle_gamma   56.80642746
_symmetry_Int_Tables_number   1
_chemical_formula_structural   Li4Mn(TeO4)3
_chemical_formula_sum   'Li4 Mn1 Te3 O12'
_cell_volume   217.39740878
_cell_formula_units_Z   1
loop_
 _symmetry_equiv_pos_site_id
 _symmetry_equiv_pos_as_xyz
  1  'x, y, z'
loop_
 _atom_site_type_symbol
 _atom_site_label
 _atom_site_symmetry_multiplicity
 _atom_site_fract_x
 _atom_site_fract_y
 _atom_site_fract_z
 _atom_site_occupancy
  Li  Li0  1  0.285968  0.007069  0.216462  1
  Li  Li1  1  0.215810  0.495621  0.275244  1
  Li  Li2  1  0.747769  0.993540  0.778781  1
  Li  Li3  1  0.756936  0.502356  0.722678  1
  Mn  Mn4  1  0.973983  0.998436  0.965625  1
  Te  Te5  1  0.460589  0.997825  0.464536  1
  Te  Te6  1  0.462570  0.502358  0.459408  1
  Te  Te7  1  0.956436  0.500464  0.963749  1
  O  O8  1  0.209566  0.127272  0.563609  1
  O  O9  1  0.846767  0.195557  0.184005  1
  O  O10  1  0.705186  0.360755  0.338276  1
  O  O11  1  0.175034  0.634554  0.586814  1
  O  O12  1  0.589808  0.195257  0.810993  1
  O  O13  1  0.820057  0.690296  0.204853  1
  O  O14  1  0.338047  0.307545  0.071144  1
  O  O15  1  0.659311  0.873572  0.359066  1
  O  O16  1  0.105036  0.335267  0.673249  1
  O  O17  1  0.572090  0.671846  0.852521  1
  O  O18  1  0.353240  0.792428  0.096997  1
  O  O19  1  0.063399  0.817982  0.709593  1
