# generated using pymatgen
data_Ca5Gd3Ti5Mn3O24
_symmetry_space_group_name_H-M   'P 1'
_cell_length_a   5.41523894
_cell_length_b   5.64092231
_cell_length_c   15.29679772
_cell_angle_alpha   90.12263731
_cell_angle_beta   89.90719033
_cell_angle_gamma   89.14574312
_symmetry_Int_Tables_number   1
_chemical_formula_structural   Ca5Gd3Ti5Mn3O24
_chemical_formula_sum   'Ca5 Gd3 Ti5 Mn3 O24'
_cell_volume   467.21675173
_cell_formula_units_Z   1
loop_
 _symmetry_equiv_pos_site_id
 _symmetry_equiv_pos_as_xyz
  1  'x, y, z'
loop_
 _atom_site_type_symbol
 _atom_site_label
 _atom_site_symmetry_multiplicity
 _atom_site_fract_x
 _atom_site_fract_y
 _atom_site_fract_z
 _atom_site_occupancy
  Ca  Ca0  1  0.013407  0.950474  0.376014  1
  Ca  Ca1  1  0.013653  0.942597  0.872780  1
  Ca  Ca2  1  0.494298  0.448035  0.376786  1
  Ca  Ca3  1  0.509896  0.547057  0.128047  1
  Ca  Ca4  1  0.992802  0.043024  0.128236  1
  Gd  Gd5  1  0.486599  0.432814  0.871539  1
  Gd  Gd6  1  0.513062  0.568878  0.625111  1
  Gd  Gd7  1  0.980296  0.068549  0.625084  1
  Ti  Ti8  1  0.989559  0.481114  0.000075  1
  Ti  Ti9  1  0.018102  0.500320  0.251532  1
  Ti  Ti10  1  0.006666  0.502607  0.497264  1
  Ti  Ti11  1  0.516633  0.008875  0.249672  1
  Ti  Ti12  1  0.503627  0.975114  0.999338  1
  Mn  Mn13  1  0.001617  0.504931  0.750424  1
  Mn  Mn14  1  0.497327  -0.000241  0.749819  1
  Mn  Mn15  1  0.495460  0.004886  0.498826  1
  O  O16  1  0.079126  0.476052  0.124582  1
  O  O17  1  0.099402  0.473886  0.624588  1
  O  O18  1  0.192949  0.202162  0.478292  1
  O  O19  1  0.210876  0.217958  0.975257  1
  O  O20  1  0.202457  0.209643  0.271220  1
  O  O21  1  0.214067  0.186011  0.775508  1
  O  O22  1  0.289460  0.684728  0.478702  1
  O  O23  1  0.284340  0.702518  0.270571  1
  O  O24  1  0.296465  0.679271  0.772804  1
  O  O25  1  0.303661  0.708657  0.975559  1
  O  O26  1  0.416269  0.978279  0.124382  1
  O  O27  1  0.394042  0.974964  0.621230  1
  O  O28  1  0.580202  0.024406  0.374728  1
  O  O29  1  0.593107  0.029331  0.878288  1
  O  O30  1  0.708699  0.299947  0.020277  1
  O  O31  1  0.704054  0.282130  0.228017  1
  O  O32  1  0.710729  0.320606  0.726163  1
  O  O33  1  0.713850  0.312786  0.528951  1
  O  O34  1  0.782897  0.787220  0.228062  1
  O  O35  1  0.784646  0.818020  0.720787  1
  O  O36  1  0.794241  0.795734  0.023423  1
  O  O37  1  0.795194  0.800058  0.526233  1
  O  O38  1  0.912333  0.526443  0.374378  1
  O  O39  1  0.903929  0.530156  0.877454  1
