# generated using pymatgen
data_Li4Ni3Sn5O16
_symmetry_space_group_name_H-M   'P 1'
_cell_length_a   6.11055798
_cell_length_b   6.13266886
_cell_length_c   9.81038864
_cell_angle_alpha   90.67320502
_cell_angle_beta   89.25859096
_cell_angle_gamma   120.77090515
_symmetry_Int_Tables_number   1
_chemical_formula_structural   Li4Ni3Sn5O16
_chemical_formula_sum   'Li4 Ni3 Sn5 O16'
_cell_volume   315.84701237
_cell_formula_units_Z   1
loop_
 _symmetry_equiv_pos_site_id
 _symmetry_equiv_pos_as_xyz
  1  'x, y, z'
loop_
 _atom_site_type_symbol
 _atom_site_label
 _atom_site_symmetry_multiplicity
 _atom_site_fract_x
 _atom_site_fract_y
 _atom_site_fract_z
 _atom_site_occupancy
  Li  Li0  1  0.341885  0.667260  0.892311  1
  Li  Li1  1  0.959529  0.977712  0.987905  1
  Li  Li2  1  0.980023  0.989297  0.497646  1
  Li  Li3  1  0.665925  0.336281  0.404135  1
  Ni  Ni4  1  0.660809  0.831046  0.216045  1
  Ni  Ni5  1  0.832124  0.660968  0.712582  1
  Ni  Ni6  1  0.832307  0.172213  0.715198  1
  Sn  Sn7  1  0.173400  0.833613  0.215211  1
  Sn  Sn8  1  0.342215  0.673309  0.494543  1
  Sn  Sn9  1  0.171142  0.339666  0.213760  1
  Sn  Sn10  1  0.338945  0.170628  0.714271  1
  Sn  Sn11  1  0.685698  0.342867  0.985632  1
  O  O12  1  0.160775  0.840814  0.594000  1
  O  O13  1  0.029315  0.515007  0.345395  1
  O  O14  1  0.334230  0.667249  0.100173  1
  O  O15  1  0.999139  0.000437  0.312406  1
  O  O16  1  0.987216  0.977107  0.805070  1
  O  O17  1  0.151384  0.320417  0.599790  1
  O  O18  1  0.482845  0.969530  0.345926  1
  O  O19  1  0.479489  0.514164  0.346790  1
  O  O20  1  0.327000  0.162000  0.091053  1
  O  O21  1  0.674722  0.842118  0.604939  1
  O  O22  1  0.521268  0.482651  0.844719  1
  O  O23  1  0.533128  0.037848  0.837452  1
  O  O24  1  0.679240  0.355259  0.609287  1
  O  O25  1  0.843190  0.674811  0.095974  1
  O  O26  1  0.971285  0.479392  0.831205  1
  O  O27  1  0.841773  0.166631  0.094422  1
