# generated using pymatgen
data_Li3Bi(PO4)2
_symmetry_space_group_name_H-M   'P 1'
_cell_length_a   5.09676412
_cell_length_b   19.03047192
_cell_length_c   6.61572229
_cell_angle_alpha   90.00000000
_cell_angle_beta   90.96843342
_cell_angle_gamma   90.00000000
_symmetry_Int_Tables_number   1
_chemical_formula_structural   Li3Bi(PO4)2
_chemical_formula_sum   'Li12 Bi4 P8 O32'
_cell_volume   641.59256067
_cell_formula_units_Z   4
loop_
 _symmetry_equiv_pos_site_id
 _symmetry_equiv_pos_as_xyz
  1  'x, y, z'
loop_
 _atom_site_type_symbol
 _atom_site_label
 _atom_site_symmetry_multiplicity
 _atom_site_fract_x
 _atom_site_fract_y
 _atom_site_fract_z
 _atom_site_occupancy
  Li  Li0  1  0.201597  0.701640  0.826504  1
  Li  Li1  1  0.229045  0.879636  0.497586  1
  Li  Li2  1  0.269797  0.045996  0.315586  1
  Li  Li3  1  0.270955  0.379636  0.002414  1
  Li  Li4  1  0.230203  0.545996  0.184414  1
  Li  Li5  1  0.298403  0.201640  0.673496  1
  Li  Li6  1  0.701597  0.798360  0.326504  1
  Li  Li7  1  0.769797  0.454004  0.815586  1
  Li  Li8  1  0.729045  0.620364  0.997586  1
  Li  Li9  1  0.730203  0.954004  0.684414  1
  Li  Li10  1  0.770955  0.120364  0.502414  1
  Li  Li11  1  0.798403  0.298360  0.173496  1
  Bi  Bi12  1  0.198353  0.878365  0.014286  1
  Bi  Bi13  1  0.301647  0.378365  0.485714  1
  Bi  Bi14  1  0.698353  0.621635  0.514286  1
  Bi  Bi15  1  0.801647  0.121635  0.985714  1
  P  P16  1  0.189681  0.715605  0.289497  1
  P  P17  1  0.213030  0.534379  0.748418  1
  P  P18  1  0.286970  0.034379  0.751582  1
  P  P19  1  0.310319  0.215605  0.210503  1
  P  P20  1  0.689681  0.784395  0.789497  1
  P  P21  1  0.713030  0.965621  0.248418  1
  P  P22  1  0.786970  0.465621  0.251582  1
  P  P23  1  0.810319  0.284395  0.710503  1
  O  O24  1  0.004380  0.204809  0.201255  1
  O  O25  1  0.073442  0.689001  0.493113  1
  O  O26  1  0.084157  0.446036  0.220315  1
  O  O27  1  0.069657  0.676717  0.108026  1
  O  O28  1  0.204946  0.053747  0.970020  1
  O  O29  1  0.121217  0.072107  0.590924  1
  O  O30  1  0.124091  0.796660  0.281435  1
  O  O31  1  0.228464  0.452135  0.773903  1
  O  O32  1  0.271536  0.952135  0.726097  1
  O  O33  1  0.375909  0.296660  0.218565  1
  O  O34  1  0.378783  0.572107  0.909076  1
  O  O35  1  0.295054  0.553747  0.529980  1
  O  O36  1  0.430343  0.176717  0.391974  1
  O  O37  1  0.415843  0.946036  0.279685  1
  O  O38  1  0.426558  0.189001  0.006887  1
  O  O39  1  0.495620  0.704809  0.298745  1
  O  O40  1  0.504380  0.295191  0.701255  1
  O  O41  1  0.573442  0.810999  0.993113  1
  O  O42  1  0.584157  0.053964  0.720315  1
  O  O43  1  0.569657  0.823283  0.608026  1
  O  O44  1  0.704946  0.446253  0.470020  1
  O  O45  1  0.621217  0.427893  0.090924  1
  O  O46  1  0.624091  0.703340  0.781435  1
  O  O47  1  0.728464  0.047865  0.273903  1
  O  O48  1  0.771536  0.547865  0.226097  1
  O  O49  1  0.875909  0.203340  0.718565  1
  O  O50  1  0.878783  0.927893  0.409076  1
  O  O51  1  0.795054  0.946253  0.029980  1
  O  O52  1  0.930343  0.323283  0.891974  1
  O  O53  1  0.915843  0.553964  0.779685  1
  O  O54  1  0.926558  0.310999  0.506887  1
  O  O55  1  0.995620  0.795191  0.798745  1
