# generated using pymatgen
data_Dy2P4O13
_symmetry_space_group_name_H-M   'P 1'
_cell_length_a   8.85384018
_cell_length_b   9.71825864
_cell_length_c   14.13157450
_cell_angle_alpha   90.00000000
_cell_angle_beta   105.81582039
_cell_angle_gamma   90.00000000
_symmetry_Int_Tables_number   1
_chemical_formula_structural   Dy2P4O13
_chemical_formula_sum   'Dy8 P16 O52'
_cell_volume   1169.90394905
_cell_formula_units_Z   4
loop_
 _symmetry_equiv_pos_site_id
 _symmetry_equiv_pos_as_xyz
  1  'x, y, z'
loop_
 _atom_site_type_symbol
 _atom_site_label
 _atom_site_symmetry_multiplicity
 _atom_site_fract_x
 _atom_site_fract_y
 _atom_site_fract_z
 _atom_site_occupancy
  Dy  Dy0  1  0.283583  0.000733  0.993206  1
  Dy  Dy1  1  0.214211  0.005651  0.512497  1
  Dy  Dy2  1  0.283583  0.499267  0.493206  1
  Dy  Dy3  1  0.214211  0.494349  0.012497  1
  Dy  Dy4  1  0.785789  0.505651  0.987503  1
  Dy  Dy5  1  0.716417  0.500733  0.506794  1
  Dy  Dy6  1  0.785789  0.994349  0.487503  1
  Dy  Dy7  1  0.716417  0.999267  0.006794  1
  P  P8  1  0.029006  0.278828  0.594999  1
  P  P9  1  0.109868  0.244936  0.813018  1
  P  P10  1  0.234244  0.733399  0.686683  1
  P  P11  1  0.029006  0.221172  0.094999  1
  P  P12  1  0.109868  0.255064  0.313018  1
  P  P13  1  0.457765  0.720171  0.902831  1
  P  P14  1  0.234244  0.766601  0.186683  1
  P  P15  1  0.542235  0.220171  0.597169  1
  P  P16  1  0.457765  0.779829  0.402831  1
  P  P17  1  0.765756  0.233399  0.813317  1
  P  P18  1  0.542235  0.279829  0.097169  1
  P  P19  1  0.890132  0.744936  0.686982  1
  P  P20  1  0.970994  0.778828  0.905001  1
  P  P21  1  0.765756  0.266601  0.313317  1
  P  P22  1  0.890132  0.755064  0.186982  1
  P  P23  1  0.970994  0.721172  0.405001  1
  O  O24  1  0.071228  0.694650  0.710910  1
  O  O25  1  0.125394  0.845713  0.904543  1
  O  O26  1  0.011596  0.126735  0.560243  1
  O  O27  1  0.135518  0.375660  0.871769  1
  O  O28  1  0.135790  0.275476  0.707954  1
  O  O29  1  0.122127  0.360315  0.538713  1
  O  O30  1  0.215359  0.125787  0.855707  1
  O  O31  1  0.071228  0.805350  0.210910  1
  O  O32  1  0.125394  0.654287  0.404543  1
  O  O33  1  0.011596  0.373265  0.060243  1
  O  O34  1  0.365808  0.632795  0.956900  1
  O  O35  1  0.226243  0.876276  0.644503  1
  O  O36  1  0.135518  0.124340  0.371769  1
  O  O37  1  0.135790  0.224524  0.207954  1
  O  O38  1  0.274150  0.619011  0.626126  1
  O  O39  1  0.359820  0.732738  0.789607  1
  O  O40  1  0.122127  0.139685  0.038713  1
  O  O41  1  0.386992  0.154478  0.597801  1
  O  O42  1  0.479896  0.871371  0.942106  1
  O  O43  1  0.215359  0.374213  0.355707  1
  O  O44  1  0.365808  0.867205  0.456900  1
  O  O45  1  0.226243  0.623724  0.144503  1
  O  O46  1  0.274150  0.880989  0.126126  1
  O  O47  1  0.359820  0.767262  0.289607  1
  O  O48  1  0.520104  0.371371  0.557894  1
  O  O49  1  0.613008  0.654478  0.902199  1
  O  O50  1  0.386992  0.345522  0.097801  1
  O  O51  1  0.479896  0.628629  0.442106  1
  O  O52  1  0.640180  0.232738  0.710393  1
  O  O53  1  0.725850  0.119011  0.873874  1
  O  O54  1  0.773757  0.376276  0.855497  1
  O  O55  1  0.634192  0.132795  0.543100  1
  O  O56  1  0.784641  0.625787  0.644293  1
  O  O57  1  0.520104  0.128629  0.057894  1
  O  O58  1  0.613008  0.845522  0.402199  1
  O  O59  1  0.877873  0.860315  0.961287  1
  O  O60  1  0.640180  0.267262  0.210393  1
  O  O61  1  0.725850  0.380989  0.373874  1
  O  O62  1  0.864210  0.775476  0.792046  1
  O  O63  1  0.864482  0.875660  0.628231  1
  O  O64  1  0.773757  0.123724  0.355497  1
  O  O65  1  0.634192  0.367205  0.043100  1
  O  O66  1  0.988404  0.626735  0.939757  1
  O  O67  1  0.874606  0.345713  0.595457  1
  O  O68  1  0.928772  0.194650  0.789090  1
  O  O69  1  0.784641  0.874213  0.144293  1
  O  O70  1  0.877873  0.639685  0.461287  1
  O  O71  1  0.864210  0.724524  0.292046  1
  O  O72  1  0.864482  0.624340  0.128231  1
  O  O73  1  0.988404  0.873265  0.439757  1
  O  O74  1  0.874606  0.154287  0.095457  1
  O  O75  1  0.928772  0.305350  0.289090  1
