# generated using pymatgen
data_Li4MnF7
_symmetry_space_group_name_H-M   'P 1'
_cell_length_a   7.49359580
_cell_length_b   7.57216440
_cell_length_c   5.70130647
_cell_angle_alpha   97.31024178
_cell_angle_beta   69.53204096
_cell_angle_gamma   124.27157281
_symmetry_Int_Tables_number   1
_chemical_formula_structural   Li4MnF7
_chemical_formula_sum   'Li8 Mn2 F14'
_cell_volume   249.44570360
_cell_formula_units_Z   2
loop_
 _symmetry_equiv_pos_site_id
 _symmetry_equiv_pos_as_xyz
  1  'x, y, z'
loop_
 _atom_site_type_symbol
 _atom_site_label
 _atom_site_symmetry_multiplicity
 _atom_site_fract_x
 _atom_site_fract_y
 _atom_site_fract_z
 _atom_site_occupancy
  Li  Li0  1  0.148064  0.455430  0.832113  1
  Li  Li1  1  0.100032  0.724330  0.466192  1
  Li  Li2  1  0.655602  0.468944  0.845956  1
  Li  Li3  1  0.562350  0.710639  0.483510  1
  Li  Li4  1  0.437650  0.289361  0.516490  1
  Li  Li5  1  0.344398  0.531056  0.154044  1
  Li  Li6  1  0.899968  0.275670  0.533808  1
  Li  Li7  1  0.851936  0.544570  0.167887  1
  Mn  Mn8  1  0.000000  0.000000  0.000000  1
  Mn  Mn9  1  0.500000  0.000000  0.000000  1
  F  F10  1  0.951003  0.758155  0.817285  1
  F  F11  1  0.638642  0.884205  0.099556  1
  F  F12  1  0.627600  0.974824  0.660092  1
  F  F13  1  0.456238  0.522264  0.775020  1
  F  F14  1  0.221050  0.566954  0.507734  1
  F  F15  1  0.091125  0.162011  0.708180  1
  F  F16  1  0.806185  0.324197  0.922656  1
  F  F17  1  0.193815  0.675803  0.077344  1
  F  F18  1  0.908875  0.837989  0.291820  1
  F  F19  1  0.778950  0.433046  0.492266  1
  F  F20  1  0.543762  0.477736  0.224980  1
  F  F21  1  0.372400  0.025176  0.339908  1
  F  F22  1  0.361358  0.115795  0.900444  1
  F  F23  1  0.048997  0.241845  0.182715  1
