# generated using pymatgen
data_Na3MnAsCO7
_symmetry_space_group_name_H-M   'P 1'
_cell_length_a   9.19992020
_cell_length_b   7.01630265
_cell_length_c   5.26693237
_cell_angle_alpha   90.00000000
_cell_angle_beta   89.72080289
_cell_angle_gamma   90.00000000
_symmetry_Int_Tables_number   1
_chemical_formula_structural   Na3MnAsCO7
_chemical_formula_sum   'Na6 Mn2 As2 C2 O14'
_cell_volume   339.97341682
_cell_formula_units_Z   2
loop_
 _symmetry_equiv_pos_site_id
 _symmetry_equiv_pos_as_xyz
  1  'x, y, z'
loop_
 _atom_site_type_symbol
 _atom_site_label
 _atom_site_symmetry_multiplicity
 _atom_site_fract_x
 _atom_site_fract_y
 _atom_site_fract_z
 _atom_site_occupancy
  Na  Na0  1  0.079329  0.250000  0.760115  1
  Na  Na1  1  0.254360  0.002881  0.246436  1
  Na  Na2  1  0.254360  0.497119  0.246436  1
  Na  Na3  1  0.745640  0.502881  0.753564  1
  Na  Na4  1  0.745640  0.997119  0.753564  1
  Na  Na5  1  0.920671  0.750000  0.239885  1
  Mn  Mn6  1  0.352629  0.750000  0.777517  1
  Mn  Mn7  1  0.647371  0.250000  0.222483  1
  As  As8  1  0.412788  0.250000  0.702185  1
  As  As9  1  0.587212  0.750000  0.297815  1
  C  C10  1  0.058240  0.750000  0.734463  1
  C  C11  1  0.941760  0.250000  0.265537  1
  O  O12  1  0.081895  0.250000  0.287968  1
  O  O13  1  0.118422  0.750000  0.958448  1
  O  O14  1  0.141831  0.750000  0.532886  1
  O  O15  1  0.308190  0.056440  0.788846  1
  O  O16  1  0.308190  0.443560  0.788846  1
  O  O17  1  0.432019  0.250000  0.374478  1
  O  O18  1  0.414864  0.750000  0.173808  1
  O  O19  1  0.585136  0.250000  0.826192  1
  O  O20  1  0.567981  0.750000  0.625522  1
  O  O21  1  0.691810  0.556440  0.211154  1
  O  O22  1  0.691810  0.943560  0.211154  1
  O  O23  1  0.858169  0.250000  0.467114  1
  O  O24  1  0.881578  0.250000  0.041552  1
  O  O25  1  0.918105  0.750000  0.712032  1
