# generated using pymatgen
data_TmSeO3
_symmetry_space_group_name_H-M   'P 1'
_cell_length_a   5.91727163
_cell_length_b   12.41658617
_cell_length_c   8.73391669
_cell_angle_alpha   90.00000000
_cell_angle_beta   106.01474696
_cell_angle_gamma   90.00000000
_symmetry_Int_Tables_number   1
_chemical_formula_structural   TmSeO3
_chemical_formula_sum   'Tm8 Se8 O24'
_cell_volume   616.79710540
_cell_formula_units_Z   8
loop_
 _symmetry_equiv_pos_site_id
 _symmetry_equiv_pos_as_xyz
  1  'x, y, z'
loop_
 _atom_site_type_symbol
 _atom_site_label
 _atom_site_symmetry_multiplicity
 _atom_site_fract_x
 _atom_site_fract_y
 _atom_site_fract_z
 _atom_site_occupancy
  Tm  Tm0  1  0.241076  0.440500  0.914493  1
  Tm  Tm1  1  0.241076  0.059500  0.414493  1
  Tm  Tm2  1  0.363699  0.756276  0.856350  1
  Tm  Tm3  1  0.363699  0.743724  0.356350  1
  Tm  Tm4  1  0.636301  0.256276  0.643650  1
  Tm  Tm5  1  0.636301  0.243724  0.143650  1
  Tm  Tm6  1  0.758924  0.940500  0.585507  1
  Tm  Tm7  1  0.758924  0.559500  0.085507  1
  Se  Se8  1  0.046016  0.160250  0.004300  1
  Se  Se9  1  0.046016  0.339750  0.504300  1
  Se  Se10  1  0.370952  0.014588  0.825278  1
  Se  Se11  1  0.370952  0.485412  0.325278  1
  Se  Se12  1  0.629048  0.514588  0.674722  1
  Se  Se13  1  0.629048  0.985412  0.174722  1
  Se  Se14  1  0.953984  0.660250  0.495700  1
  Se  Se15  1  0.953984  0.839750  0.995700  1
  O  O16  1  0.987474  0.827201  0.805847  1
  O  O17  1  0.987474  0.672799  0.305847  1
  O  O18  1  0.130310  0.017887  0.645765  1
  O  O19  1  0.218109  0.727964  0.587362  1
  O  O20  1  0.252220  0.241347  0.501436  1
  O  O21  1  0.130310  0.482113  0.145765  1
  O  O22  1  0.405886  0.593989  0.919078  1
  O  O23  1  0.218109  0.772036  0.087362  1
  O  O24  1  0.252220  0.258653  0.001436  1
  O  O25  1  0.449360  0.405549  0.717310  1
  O  O26  1  0.405886  0.906011  0.419078  1
  O  O27  1  0.550640  0.905549  0.782690  1
  O  O28  1  0.449360  0.094451  0.217310  1
  O  O29  1  0.594114  0.093989  0.580922  1
  O  O30  1  0.550640  0.594451  0.282690  1
  O  O31  1  0.747780  0.741347  0.998564  1
  O  O32  1  0.781891  0.227964  0.912638  1
  O  O33  1  0.594114  0.406011  0.080922  1
  O  O34  1  0.869690  0.517887  0.854235  1
  O  O35  1  0.747780  0.758653  0.498564  1
  O  O36  1  0.781891  0.272036  0.412638  1
  O  O37  1  0.869690  0.982113  0.354235  1
  O  O38  1  0.012526  0.327201  0.694153  1
  O  O39  1  0.012526  0.172799  0.194153  1
