# generated using pymatgen
data_LiMnOF2
_symmetry_space_group_name_H-M   'P 1'
_cell_length_a   5.23015591
_cell_length_b   9.93301676
_cell_length_c   5.14592748
_cell_angle_alpha   107.07216356
_cell_angle_beta   61.80717192
_cell_angle_gamma   91.16829290
_symmetry_Int_Tables_number   1
_chemical_formula_structural   LiMnOF2
_chemical_formula_sum   'Li4 Mn4 O4 F8'
_cell_volume   223.00690695
_cell_formula_units_Z   4
loop_
 _symmetry_equiv_pos_site_id
 _symmetry_equiv_pos_as_xyz
  1  'x, y, z'
loop_
 _atom_site_type_symbol
 _atom_site_label
 _atom_site_symmetry_multiplicity
 _atom_site_fract_x
 _atom_site_fract_y
 _atom_site_fract_z
 _atom_site_occupancy
  Li  Li0  1  0.476904  0.706026  0.103742  1
  Li  Li1  1  0.084956  0.794670  0.856723  1
  Li  Li2  1  0.915044  0.205330  0.143277  1
  Li  Li3  1  0.523096  0.293974  0.896258  1
  Mn  Mn4  1  0.337409  0.016202  0.317071  1
  Mn  Mn5  1  0.159379  0.485576  0.645254  1
  Mn  Mn6  1  0.662591  0.983798  0.682929  1
  Mn  Mn7  1  0.840621  0.514424  0.354746  1
  O  O8  1  0.139391  0.382683  0.286157  1
  O  O9  1  0.599169  0.114975  0.062105  1
  O  O10  1  0.400831  0.885025  0.937895  1
  O  O11  1  0.860609  0.617317  0.713843  1
  F  F12  1  0.152363  0.617342  0.025273  1
  F  F13  1  0.101131  0.882637  0.534625  1
  F  F14  1  0.492118  0.624668  0.424994  1
  F  F15  1  0.298656  0.128403  0.723282  1
  F  F16  1  0.701344  0.871597  0.276718  1
  F  F17  1  0.507882  0.375332  0.575006  1
  F  F18  1  0.898869  0.117363  0.465375  1
  F  F19  1  0.847637  0.382658  0.974727  1
