# generated using pymatgen
data_LiMnOF2
_symmetry_space_group_name_H-M   'P 1'
_cell_length_a   4.98819394
_cell_length_b   8.50842128
_cell_length_c   5.22071871
_cell_angle_alpha   90.00000000
_cell_angle_beta   90.00000000
_cell_angle_gamma   90.00000000
_symmetry_Int_Tables_number   1
_chemical_formula_structural   LiMnOF2
_chemical_formula_sum   'Li4 Mn4 O4 F8'
_cell_volume   221.57594478
_cell_formula_units_Z   4
loop_
 _symmetry_equiv_pos_site_id
 _symmetry_equiv_pos_as_xyz
  1  'x, y, z'
loop_
 _atom_site_type_symbol
 _atom_site_label
 _atom_site_symmetry_multiplicity
 _atom_site_fract_x
 _atom_site_fract_y
 _atom_site_fract_z
 _atom_site_occupancy
  Li  Li0  1  0.000000  0.211444  0.750000  1
  Li  Li1  1  0.000000  0.825224  0.250000  1
  Li  Li2  1  0.500000  0.711444  0.250000  1
  Li  Li3  1  0.500000  0.325224  0.750000  1
  Mn  Mn4  1  0.000000  0.573095  0.750000  1
  Mn  Mn5  1  0.000000  0.405942  0.250000  1
  Mn  Mn6  1  0.500000  0.073095  0.250000  1
  Mn  Mn7  1  0.500000  0.905942  0.750000  1
  O  O8  1  0.181389  0.412225  0.567896  1
  O  O9  1  0.318611  0.912225  0.067896  1
  O  O10  1  0.681389  0.912225  0.432104  1
  O  O11  1  0.818611  0.412225  0.932104  1
  F  F12  1  0.230224  0.585225  0.098321  1
  F  F13  1  0.228476  0.744698  0.584562  1
  F  F14  1  0.271524  0.244698  0.084562  1
  F  F15  1  0.269776  0.085225  0.598321  1
  F  F16  1  0.730224  0.085225  0.901679  1
  F  F17  1  0.728476  0.244698  0.415438  1
  F  F18  1  0.771524  0.744698  0.915438  1
  F  F19  1  0.769776  0.585225  0.401679  1
