# generated using pymatgen
data_Li9Fe4(BO3)8
_symmetry_space_group_name_H-M   'P 1'
_cell_length_a   8.30033498
_cell_length_b   8.26558839
_cell_length_c   8.88062092
_cell_angle_alpha   68.33524626
_cell_angle_beta   67.78116459
_cell_angle_gamma   74.82267546
_symmetry_Int_Tables_number   1
_chemical_formula_structural   Li9Fe4(BO3)8
_chemical_formula_sum   'Li9 Fe4 B8 O24'
_cell_volume   518.87497200
_cell_formula_units_Z   1
loop_
 _symmetry_equiv_pos_site_id
 _symmetry_equiv_pos_as_xyz
  1  'x, y, z'
loop_
 _atom_site_type_symbol
 _atom_site_label
 _atom_site_symmetry_multiplicity
 _atom_site_fract_x
 _atom_site_fract_y
 _atom_site_fract_z
 _atom_site_occupancy
  Li  Li0  1  0.994502  0.332257  0.732729  1
  Li  Li1  1  0.683742  0.513028  0.912470  1
  Li  Li2  1  0.822678  0.008499  0.079050  1
  Li  Li3  1  0.508536  0.841263  0.394724  1
  Li  Li4  1  0.510903  0.118840  0.507093  1
  Li  Li5  1  0.197557  0.001176  0.915599  1
  Li  Li6  1  0.332881  0.504929  0.078159  1
  Li  Li7  1  0.011855  0.682517  0.277778  1
  Li  Li8  1  0.015314  0.339573  0.386419  1
  Fe  Fe9  1  0.661765  0.508604  0.274825  1
  Fe  Fe10  1  0.160927  0.008220  0.272956  1
  Fe  Fe11  1  0.835804  0.988880  0.723709  1
  Fe  Fe12  1  0.335075  0.488096  0.721778  1
  B  B13  1  0.799465  0.950954  0.422260  1
  B  B14  1  0.707230  0.537596  0.564432  1
  B  B15  1  0.954063  0.285497  0.087010  1
  B  B16  1  0.553925  0.214841  0.909267  1
  B  B17  1  0.455539  0.784545  0.095442  1
  B  B18  1  0.290060  0.447721  0.433313  1
  B  B19  1  0.053813  0.715651  0.919173  1
  B  B20  1  0.196141  0.049396  0.570086  1
  O  O21  1  0.955347  0.768401  0.809176  1
  O  O22  1  0.974899  0.872469  0.377185  1
  O  O23  1  0.728677  0.010421  0.565257  1
  O  O24  1  0.785104  0.488449  0.683650  1
  O  O25  1  0.803521  0.516328  0.400620  1
  O  O26  1  0.494319  0.683887  0.992887  1
  O  O27  1  0.688855  0.076138  0.907970  1
  O  O28  1  0.694508  0.974170  0.329119  1
  O  O29  1  0.813762  0.423797  0.092386  1
  O  O30  1  0.529990  0.612708  0.585283  1
  O  O31  1  0.451935  0.260653  0.804189  1
  O  O32  1  0.543787  0.741899  0.213461  1
  O  O33  1  0.470135  0.377846  0.397451  1
  O  O34  1  0.275524  0.987798  0.428541  1
  O  O35  1  0.191752  0.576852  0.905914  1
  O  O36  1  0.515586  0.316299  0.012728  1
  O  O37  1  0.204734  0.472093  0.594218  1
  O  O38  1  0.289972  0.035757  0.669174  1
  O  O39  1  0.320827  0.925602  0.091895  1
  O  O40  1  0.996734  0.197712  0.971401  1
  O  O41  1  0.200875  0.483195  0.322473  1
  O  O42  1  0.021184  0.136297  0.599924  1
  O  O43  1  0.020222  0.799646  0.036178  1
  O  O44  1  0.040807  0.239427  0.208509  1
