# generated using pymatgen
data_Li3Nb4FeO12
_symmetry_space_group_name_H-M   'P 1'
_cell_length_a   5.64047125
_cell_length_b   11.24174723
_cell_length_c   9.93807167
_cell_angle_alpha   27.84448597
_cell_angle_beta   50.35073143
_cell_angle_gamma   55.65769769
_symmetry_Int_Tables_number   1
_chemical_formula_structural   Li3Nb4FeO12
_chemical_formula_sum   'Li3 Nb4 Fe1 O12'
_cell_volume   226.62471292
_cell_formula_units_Z   1
loop_
 _symmetry_equiv_pos_site_id
 _symmetry_equiv_pos_as_xyz
  1  'x, y, z'
loop_
 _atom_site_type_symbol
 _atom_site_label
 _atom_site_symmetry_multiplicity
 _atom_site_fract_x
 _atom_site_fract_y
 _atom_site_fract_z
 _atom_site_occupancy
  Li  Li0  1  0.280935  0.499435  0.285792  1
  Li  Li1  1  0.783051  0.000066  0.786552  1
  Li  Li2  1  0.785185  0.499218  0.783337  1
  Nb  Nb3  1  0.014843  0.003788  0.988783  1
  Nb  Nb4  1  0.984052  0.497540  0.005993  1
  Nb  Nb5  1  0.494118  0.997399  0.502501  1
  Nb  Nb6  1  0.506548  0.503187  0.491266  1
  Fe  Fe7  1  0.296752  0.000634  0.286560  1
  O  O8  1  0.358656  0.306837  0.111244  1
  O  O9  1  0.224275  0.123951  0.614717  1
  O  O10  1  0.110718  0.319209  0.724383  1
  O  O11  1  0.865175  0.193413  0.222583  1
  O  O12  1  0.363747  0.802634  0.115235  1
  O  O13  1  0.722441  0.372539  0.367576  1
  O  O14  1  0.225601  0.629991  0.607081  1
  O  O15  1  0.603388  0.177855  0.869964  1
  O  O16  1  0.111403  0.822686  0.718532  1
  O  O17  1  0.860547  0.692597  0.224993  1
  O  O18  1  0.725197  0.875655  0.359050  1
  O  O19  1  0.612968  0.681367  0.863459  1
