# generated using pymatgen
data_Li6MnO4F
_symmetry_space_group_name_H-M   'P 1'
_cell_length_a   5.02295201
_cell_length_b   5.24376753
_cell_length_c   9.51179839
_cell_angle_alpha   90.00000000
_cell_angle_beta   90.00000000
_cell_angle_gamma   63.92018981
_symmetry_Int_Tables_number   1
_chemical_formula_structural   Li6MnO4F
_chemical_formula_sum   'Li12 Mn2 O8 F2'
_cell_volume   225.02444889
_cell_formula_units_Z   2
loop_
 _symmetry_equiv_pos_site_id
 _symmetry_equiv_pos_as_xyz
  1  'x, y, z'
loop_
 _atom_site_type_symbol
 _atom_site_label
 _atom_site_symmetry_multiplicity
 _atom_site_fract_x
 _atom_site_fract_y
 _atom_site_fract_z
 _atom_site_occupancy
  Li  Li0  1  0.553385  0.595398  0.747561  1
  Li  Li1  1  0.815516  0.624173  0.242125  1
  Li  Li2  1  0.267049  0.522599  0.001023  1
  Li  Li3  1  0.217594  0.552756  0.504175  1
  Li  Li4  1  0.782406  0.447244  0.004175  1
  Li  Li5  1  0.732951  0.477401  0.501023  1
  Li  Li6  1  0.446615  0.404602  0.247561  1
  Li  Li7  1  0.184484  0.375827  0.742125  1
  Li  Li8  1  0.734557  0.982557  0.448667  1
  Li  Li9  1  0.671230  0.001997  0.061341  1
  Li  Li10  1  0.265443  0.017443  0.948667  1
  Li  Li11  1  0.328770  0.998003  0.561341  1
  Mn  Mn12  1  0.793277  0.007916  0.740320  1
  Mn  Mn13  1  0.206723  0.992084  0.240320  1
  O  O14  1  0.403084  0.729624  0.390311  1
  O  O15  1  0.457620  0.721960  0.100646  1
  O  O16  1  0.859140  0.701493  0.613927  1
  O  O17  1  0.140860  0.298507  0.113927  1
  O  O18  1  0.542380  0.278040  0.600646  1
  O  O19  1  0.596916  0.270376  0.890311  1
  O  O20  1  0.788675  0.019879  0.253216  1
  O  O21  1  0.211325  0.980121  0.753216  1
  F  F22  1  0.908714  0.674694  0.896687  1
  F  F23  1  0.091286  0.325306  0.396687  1
