# generated using pymatgen
data_Li4Mn3Fe2Cu3O16
_symmetry_space_group_name_H-M   'P 1'
_cell_length_a   5.83178393
_cell_length_b   5.78893443
_cell_length_c   9.47805190
_cell_angle_alpha   90.02267294
_cell_angle_beta   88.93117415
_cell_angle_gamma   119.69509921
_symmetry_Int_Tables_number   1
_chemical_formula_structural   Li4Mn3Fe2Cu3O16
_chemical_formula_sum   'Li4 Mn3 Fe2 Cu3 O16'
_cell_volume   277.89313222
_cell_formula_units_Z   1
loop_
 _symmetry_equiv_pos_site_id
 _symmetry_equiv_pos_as_xyz
  1  'x, y, z'
loop_
 _atom_site_type_symbol
 _atom_site_label
 _atom_site_symmetry_multiplicity
 _atom_site_fract_x
 _atom_site_fract_y
 _atom_site_fract_z
 _atom_site_occupancy
  Li  Li0  1  0.331273  0.665527  0.895017  1
  Li  Li1  1  0.990949  0.995233  0.997880  1
  Li  Li2  1  0.013404  0.006743  0.492930  1
  Li  Li3  1  0.674088  0.337067  0.395623  1
  Mn  Mn4  1  0.653249  0.826642  0.215412  1
  Mn  Mn5  1  0.834267  0.663334  0.714937  1
  Mn  Mn6  1  0.834280  0.171006  0.714887  1
  Fe  Fe7  1  0.336253  0.668380  0.491695  1
  Fe  Fe8  1  0.654269  0.327155  0.992094  1
  Cu  Cu9  1  0.165865  0.827561  0.212887  1
  Cu  Cu10  1  0.165671  0.338281  0.213029  1
  Cu  Cu11  1  0.341216  0.170684  0.713380  1
  O  O12  1  0.158886  0.831887  0.598852  1
  O  O13  1  0.041889  0.520912  0.337573  1
  O  O14  1  0.339002  0.669242  0.109393  1
  O  O15  1  0.988429  0.994577  0.305085  1
  O  O16  1  0.993884  0.997003  0.809632  1
  O  O17  1  0.158916  0.327189  0.598853  1
  O  O18  1  0.494419  0.967462  0.341135  1
  O  O19  1  0.493224  0.526161  0.340808  1
  O  O20  1  0.313441  0.156821  0.098368  1
  O  O21  1  0.684533  0.842213  0.603573  1
  O  O22  1  0.528666  0.491308  0.837954  1
  O  O23  1  0.528602  0.037204  0.837912  1
  O  O24  1  0.684017  0.342001  0.608592  1
  O  O25  1  0.814998  0.666108  0.098505  1
  O  O26  1  0.966248  0.483136  0.833072  1
  O  O27  1  0.816060  0.149459  0.098763  1
