# generated using pymatgen
data_BH2NCl2
_symmetry_space_group_name_H-M   'P 1'
_cell_length_a   10.45749130
_cell_length_b   12.25276989
_cell_length_c   8.28242573
_cell_angle_alpha   90.00000000
_cell_angle_beta   90.00000000
_cell_angle_gamma   90.00000000
_symmetry_Int_Tables_number   1
_chemical_formula_structural   BH2NCl2
_chemical_formula_sum   'B12 H24 N12 Cl24'
_cell_volume   1061.25399850
_cell_formula_units_Z   12
loop_
 _symmetry_equiv_pos_site_id
 _symmetry_equiv_pos_as_xyz
  1  'x, y, z'
loop_
 _atom_site_type_symbol
 _atom_site_label
 _atom_site_symmetry_multiplicity
 _atom_site_fract_x
 _atom_site_fract_y
 _atom_site_fract_z
 _atom_site_occupancy
  B  B0  1  0.539141  0.250000  0.793362  1
  B  B1  1  0.039141  0.250000  0.706638  1
  B  B2  1  0.460859  0.750000  0.206638  1
  B  B3  1  0.960859  0.750000  0.293362  1
  B  B4  1  0.666495  0.137594  0.033148  1
  B  B5  1  0.166495  0.362406  0.466852  1
  B  B6  1  0.333505  0.637594  0.966852  1
  B  B7  1  0.833505  0.862406  0.533148  1
  B  B8  1  0.333505  0.862406  0.966852  1
  B  B9  1  0.833505  0.637594  0.533148  1
  B  B10  1  0.666495  0.362406  0.033148  1
  B  B11  1  0.166495  0.137594  0.466852  1
  H  H12  1  0.824077  0.250000  0.023490  1
  H  H13  1  0.324077  0.250000  0.476510  1
  H  H14  1  0.175923  0.750000  0.976510  1
  H  H15  1  0.675923  0.750000  0.523490  1
  H  H16  1  0.752705  0.250000  0.198731  1
  H  H17  1  0.252705  0.250000  0.301269  1
  H  H18  1  0.247295  0.750000  0.801269  1
  H  H19  1  0.747295  0.750000  0.698731  1
  H  H20  1  0.688847  0.131894  0.776249  1
  H  H21  1  0.188847  0.368106  0.723751  1
  H  H22  1  0.311153  0.631894  0.223751  1
  H  H23  1  0.811153  0.868106  0.276249  1
  H  H24  1  0.311153  0.868106  0.223751  1
  H  H25  1  0.811153  0.631894  0.276249  1
  H  H26  1  0.688847  0.368106  0.776249  1
  H  H27  1  0.188847  0.131894  0.723751  1
  H  H28  1  0.554401  0.078378  0.836376  1
  H  H29  1  0.054401  0.421622  0.663624  1
  H  H30  1  0.445599  0.578378  0.163624  1
  H  H31  1  0.945599  0.921622  0.336377  1
  H  H32  1  0.445599  0.921622  0.163624  1
  H  H33  1  0.945599  0.578378  0.336377  1
  H  H34  1  0.554401  0.421622  0.836376  1
  H  H35  1  0.054401  0.078378  0.663624  1
  N  N36  1  0.734006  0.250000  0.076933  1
  N  N37  1  0.234006  0.250000  0.423067  1
  N  N38  1  0.265994  0.750000  0.923067  1
  N  N39  1  0.765994  0.750000  0.576933  1
  N  N40  1  0.613165  0.145344  0.853982  1
  N  N41  1  0.113165  0.354656  0.646018  1
  N  N42  1  0.386835  0.645344  0.146018  1
  N  N43  1  0.886835  0.854656  0.353982  1
  N  N44  1  0.386835  0.854656  0.146018  1
  N  N45  1  0.886835  0.645344  0.353982  1
  N  N46  1  0.613165  0.354656  0.853982  1
  N  N47  1  0.113165  0.145344  0.646018  1
  Cl  Cl48  1  0.537746  0.106842  0.178078  1
  Cl  Cl49  1  0.037746  0.393158  0.321922  1
  Cl  Cl50  1  0.462254  0.606842  0.821922  1
  Cl  Cl51  1  0.962254  0.893158  0.678078  1
  Cl  Cl52  1  0.462254  0.893158  0.821922  1
  Cl  Cl53  1  0.962254  0.606842  0.678078  1
  Cl  Cl54  1  0.537746  0.393158  0.178078  1
  Cl  Cl55  1  0.037746  0.106842  0.321922  1
  Cl  Cl56  1  0.789561  0.029008  0.034347  1
  Cl  Cl57  1  0.289561  0.470992  0.465653  1
  Cl  Cl58  1  0.210439  0.529008  0.965653  1
  Cl  Cl59  1  0.710439  0.970992  0.534347  1
  Cl  Cl60  1  0.210439  0.970992  0.965653  1
  Cl  Cl61  1  0.710439  0.529008  0.534347  1
  Cl  Cl62  1  0.789561  0.470992  0.034347  1
  Cl  Cl63  1  0.289561  0.029008  0.465653  1
  Cl  Cl64  1  0.372770  0.250000  0.868113  1
  Cl  Cl65  1  0.872770  0.250000  0.631887  1
  Cl  Cl66  1  0.627230  0.750000  0.131887  1
  Cl  Cl67  1  0.127230  0.750000  0.368113  1
  Cl  Cl68  1  0.542329  0.250000  0.568591  1
  Cl  Cl69  1  0.042329  0.250000  0.931409  1
  Cl  Cl70  1  0.457671  0.750000  0.431409  1
  Cl  Cl71  1  0.957671  0.750000  0.068591  1
