# generated using pymatgen
data_AlVO3
_symmetry_space_group_name_H-M   'P 1'
_cell_length_a   5.83720962
_cell_length_b   5.87980737
_cell_length_c   13.21916053
_cell_angle_alpha   102.83368220
_cell_angle_beta   102.80558915
_cell_angle_gamma   90.05662944
_symmetry_Int_Tables_number   1
_chemical_formula_structural   AlVO3
_chemical_formula_sum   'Al8 V8 O24'
_cell_volume   430.76472852
_cell_formula_units_Z   8
loop_
 _symmetry_equiv_pos_site_id
 _symmetry_equiv_pos_as_xyz
  1  'x, y, z'
loop_
 _atom_site_type_symbol
 _atom_site_label
 _atom_site_symmetry_multiplicity
 _atom_site_fract_x
 _atom_site_fract_y
 _atom_site_fract_z
 _atom_site_occupancy
  Al  Al0  1  0.999525  0.003813  0.007588  1
  Al  Al1  1  0.778509  0.540523  0.079320  1
  Al  Al2  1  0.296857  0.540339  0.079018  1
  Al  Al3  1  0.664573  0.660770  0.322838  1
  Al  Al4  1  0.955057  0.207205  0.415616  1
  Al  Al5  1  0.251861  0.753340  0.507858  1
  Al  Al6  1  0.621011  0.877790  0.755603  1
  Al  Al7  1  0.904706  0.415103  0.830083  1
  V  V8  1  0.124008  0.369433  0.250733  1
  V  V9  1  0.125201  0.880876  0.251230  1
  V  V10  1  0.456081  0.206851  0.414959  1
  V  V11  1  0.787293  0.047133  0.581455  1
  V  V12  1  0.787361  0.534188  0.581146  1
  V  V13  1  0.130209  0.877954  0.755584  1
  V  V14  1  0.457215  0.209336  0.918512  1
  V  V15  1  0.457097  0.709582  0.918314  1
  O  O16  1  0.533059  0.329277  0.071107  1
  O  O17  1  0.533353  0.743884  0.070932  1
  O  O18  1  0.039062  0.311980  0.083858  1
  O  O19  1  0.038998  0.770418  0.083376  1
  O  O20  1  0.365739  0.620372  0.238326  1
  O  O21  1  0.874458  0.618672  0.237624  1
  O  O22  1  0.353790  0.129896  0.259603  1
  O  O23  1  0.915061  0.134076  0.271956  1
  O  O24  1  0.203776  0.963610  0.422226  1
  O  O25  1  0.198961  0.460457  0.420549  1
  O  O26  1  0.710099  0.451039  0.409146  1
  O  O27  1  0.714103  0.954461  0.410431  1
  O  O28  1  0.557847  0.285422  0.569676  1
  O  O29  1  0.998111  0.280376  0.559931  1
  O  O30  1  0.036467  0.794748  0.589442  1
  O  O31  1  0.548615  0.796466  0.593919  1
  O  O32  1  0.857651  0.635704  0.749823  1
  O  O33  1  0.857624  0.114444  0.749720  1
  O  O34  1  0.393313  0.095909  0.764351  1
  O  O35  1  0.392947  0.668456  0.764321  1
  O  O36  1  0.715516  0.958237  0.915954  1
  O  O37  1  0.206526  0.960744  0.920875  1
  O  O38  1  0.711418  0.460981  0.921695  1
  O  O39  1  0.195968  0.459705  0.919374  1
