# generated using pymatgen
data_Li6Ni11(OF12)2
_symmetry_space_group_name_H-M   'P 1'
_cell_length_a   7.96501493
_cell_length_b   8.61896882
_cell_length_c   7.97203127
_cell_angle_alpha   106.25872854
_cell_angle_beta   86.48578143
_cell_angle_gamma   106.56191323
_symmetry_Int_Tables_number   1
_chemical_formula_structural   Li6Ni11(OF12)2
_chemical_formula_sum   'Li6 Ni11 O2 F24'
_cell_volume   503.49501716
_cell_formula_units_Z   1
loop_
 _symmetry_equiv_pos_site_id
 _symmetry_equiv_pos_as_xyz
  1  'x, y, z'
loop_
 _atom_site_type_symbol
 _atom_site_label
 _atom_site_symmetry_multiplicity
 _atom_site_fract_x
 _atom_site_fract_y
 _atom_site_fract_z
 _atom_site_occupancy
  Li  Li0  1  0.111601  0.247662  0.419744  1
  Li  Li1  1  0.204069  0.453509  0.060107  1
  Li  Li2  1  0.712799  0.897903  0.338067  1
  Li  Li3  1  0.283188  0.108885  0.662296  1
  Li  Li4  1  0.800808  0.558332  0.957307  1
  Li  Li5  1  0.889838  0.736429  0.563193  1
  Ni  Ni6  1  0.133624  0.854247  0.257730  1
  Ni  Ni7  1  0.221855  0.747526  0.841506  1
  Ni  Ni8  1  0.004240  0.998178  0.009389  1
  Ni  Ni9  1  0.309386  0.704441  0.476200  1
  Ni  Ni10  1  0.451967  0.529543  0.700585  1
  Ni  Ni11  1  0.369952  0.118577  0.090930  1
  Ni  Ni12  1  0.606231  0.872934  0.899127  1
  Ni  Ni13  1  0.540919  0.476912  0.299905  1
  Ni  Ni14  1  0.700920  0.308709  0.541306  1
  Ni  Ni15  1  0.783922  0.245067  0.152350  1
  Ni  Ni16  1  0.866397  0.158945  0.751875  1
  O  O17  1  0.152660  0.073459  0.217393  1
  O  O18  1  0.436570  0.755783  0.704485  1
  F  F19  1  0.006707  0.754038  0.998984  1
  F  F20  1  0.083800  0.678121  0.619397  1
  F  F21  1  0.084813  0.174200  0.625847  1
  F  F22  1  0.160514  0.625228  0.250485  1
  F  F23  1  0.239700  0.522584  0.857218  1
  F  F24  1  0.294667  0.931254  0.467121  1
  F  F25  1  0.389924  0.881219  0.064152  1
  F  F26  1  0.321579  0.449598  0.454588  1
  F  F27  1  0.226621  0.007148  0.859704  1
  F  F28  1  0.381199  0.353241  0.092229  1
  F  F29  1  0.478270  0.298817  0.671787  1
  F  F30  1  0.523019  0.704297  0.321760  1
  F  F31  1  0.626112  0.647384  0.906167  1
  F  F32  1  0.767815  0.991996  0.130529  1
  F  F33  1  0.558224  0.232133  0.294573  1
  F  F34  1  0.680405  0.541374  0.532051  1
  F  F35  1  0.634944  0.127263  0.925665  1
  F  F36  1  0.848797  0.920074  0.777898  1
  F  F37  1  0.709334  0.078801  0.540616  1
  F  F38  1  0.754146  0.467116  0.151623  1
  F  F39  1  0.843283  0.386490  0.763165  1
  F  F40  1  0.903346  0.823231  0.373254  1
  F  F41  1  0.907024  0.317412  0.379924  1
  F  F42  1  0.994814  0.239941  0.997769  1
