# generated using pymatgen
data_Li4Mn(TeO4)3
_symmetry_space_group_name_H-M   'P 1'
_cell_length_a   5.19466499
_cell_length_b   5.02964836
_cell_length_c   8.71366101
_cell_angle_alpha   90.00000000
_cell_angle_beta   90.00000000
_cell_angle_gamma   92.60484924
_symmetry_Int_Tables_number   1
_chemical_formula_structural   Li4Mn(TeO4)3
_chemical_formula_sum   'Li4 Mn1 Te3 O12'
_cell_volume   227.42952893
_cell_formula_units_Z   1
loop_
 _symmetry_equiv_pos_site_id
 _symmetry_equiv_pos_as_xyz
  1  'x, y, z'
loop_
 _atom_site_type_symbol
 _atom_site_label
 _atom_site_symmetry_multiplicity
 _atom_site_fract_x
 _atom_site_fract_y
 _atom_site_fract_z
 _atom_site_occupancy
  Li  Li0  1  0.000000  0.000000  0.702046  1
  Li  Li1  1  0.000000  0.500000  0.843488  1
  Li  Li2  1  0.500000  0.000000  0.298684  1
  Li  Li3  1  0.500000  0.500000  0.188250  1
  Mn  Mn4  1  0.000000  0.000000  0.101207  1
  Te  Te5  1  0.500000  0.500000  0.600882  1
  Te  Te6  1  0.000000  0.500000  0.396593  1
  Te  Te7  1  0.500000  0.000000  0.926380  1
  O  O8  1  0.152548  0.258032  0.251064  1
  O  O9  1  0.145913  0.287020  0.564129  1
  O  O10  1  0.189011  0.208961  0.940658  1
  O  O11  1  0.331016  0.699599  0.415752  1
  O  O12  1  0.315488  0.807199  0.094416  1
  O  O13  1  0.321682  0.779799  0.775757  1
  O  O14  1  0.678318  0.220201  0.775757  1
  O  O15  1  0.684512  0.192801  0.094416  1
  O  O16  1  0.668984  0.300401  0.415752  1
  O  O17  1  0.810989  0.791038  0.940658  1
  O  O18  1  0.854087  0.712980  0.564129  1
  O  O19  1  0.847452  0.741968  0.251064  1
