# generated using pymatgen
data_LiMn(PO3)3
_symmetry_space_group_name_H-M   'P 1'
_cell_length_a   9.85807998
_cell_length_b   9.60382162
_cell_length_c   9.55095754
_cell_angle_alpha   109.87710396
_cell_angle_beta   104.49234000
_cell_angle_gamma   108.70033300
_symmetry_Int_Tables_number   1
_chemical_formula_structural   LiMn(PO3)3
_chemical_formula_sum   'Li4 Mn4 P12 O36'
_cell_volume   737.06062425
_cell_formula_units_Z   4
loop_
 _symmetry_equiv_pos_site_id
 _symmetry_equiv_pos_as_xyz
  1  'x, y, z'
loop_
 _atom_site_type_symbol
 _atom_site_label
 _atom_site_symmetry_multiplicity
 _atom_site_fract_x
 _atom_site_fract_y
 _atom_site_fract_z
 _atom_site_occupancy
  Li  Li0  1  0.252684  0.227834  0.770076  1
  Li  Li1  1  0.209653  0.312592  0.067993  1
  Li  Li2  1  0.790347  0.687408  0.932007  1
  Li  Li3  1  0.747316  0.772166  0.229924  1
  Mn  Mn4  1  0.506971  0.928470  0.328083  1
  Mn  Mn5  1  0.297422  0.176459  0.374206  1
  Mn  Mn6  1  0.702578  0.823541  0.625794  1
  Mn  Mn7  1  0.493029  0.071530  0.671917  1
  P  P8  1  0.087492  0.917996  0.806662  1
  P  P9  1  0.107126  0.853162  0.482918  1
  P  P10  1  0.352042  0.603202  0.987150  1
  P  P11  1  0.158452  0.786231  0.044052  1
  P  P12  1  0.288478  0.658771  0.421258  1
  P  P13  1  0.403808  0.567192  0.675331  1
  P  P14  1  0.596192  0.432808  0.324669  1
  P  P15  1  0.711522  0.341230  0.578742  1
  P  P16  1  0.841548  0.213769  0.955948  1
  P  P17  1  0.647958  0.396798  0.012850  1
  P  P18  1  0.892874  0.146838  0.517082  1
  P  P19  1  0.912508  0.082004  0.193338  1
  O  O20  1  0.997739  0.269303  0.953546  1
  O  O21  1  0.098789  0.823354  0.636598  1
  O  O22  1  0.163593  0.830685  0.897398  1
  O  O23  1  0.201949  0.633714  0.991448  1
  O  O24  1  0.143140  0.701113  0.392990  1
  O  O25  1  0.044174  0.172055  0.623650  1
  O  O26  1  0.196379  0.097636  0.887448  1
  O  O27  1  0.317002  0.431686  0.959750  1
  O  O28  1  0.365534  0.626683  0.831740  1
  O  O29  1  0.285386  0.612421  0.567056  1
  O  O30  1  0.296198  0.930851  0.202368  1
  O  O31  1  0.082728  0.138256  0.220872  1
  O  O32  1  0.264413  0.521847  0.272968  1
  O  O33  1  0.440780  0.824034  0.492266  1
  O  O34  1  0.350921  0.383474  0.598016  1
  O  O35  1  0.254045  0.014736  0.542499  1
  O  O36  1  0.568781  0.682606  0.715475  1
  O  O37  1  0.505086  0.256591  0.864700  1
  O  O38  1  0.494914  0.743409  0.135300  1
  O  O39  1  0.431219  0.317394  0.284525  1
  O  O40  1  0.745955  0.985263  0.457501  1
  O  O41  1  0.649079  0.616526  0.401984  1
  O  O42  1  0.559220  0.175966  0.507734  1
  O  O43  1  0.735587  0.478153  0.727032  1
  O  O44  1  0.917272  0.861744  0.779128  1
  O  O45  1  0.703802  0.069149  0.797632  1
  O  O46  1  0.714614  0.387579  0.432944  1
  O  O47  1  0.634466  0.373317  0.168260  1
  O  O48  1  0.682998  0.568314  0.040250  1
  O  O49  1  0.803621  0.902364  0.112552  1
  O  O50  1  0.955826  0.827945  0.376350  1
  O  O51  1  0.856860  0.298887  0.607010  1
  O  O52  1  0.798051  0.366286  0.008552  1
  O  O53  1  0.836407  0.169315  0.102602  1
  O  O54  1  0.901211  0.176646  0.363402  1
  O  O55  1  0.002261  0.730697  0.046454  1
