# generated using pymatgen
data_Na4Cr2As(CO4)4
_symmetry_space_group_name_H-M   'P 1'
_cell_length_a   9.96208564
_cell_length_b   9.82297666
_cell_length_c   9.96208534
_cell_angle_alpha   60.75998342
_cell_angle_beta   92.10342171
_cell_angle_gamma   60.75998396
_symmetry_Int_Tables_number   1
_chemical_formula_structural   Na4Cr2As(CO4)4
_chemical_formula_sum   'Na8 Cr4 As2 C8 O32'
_cell_volume   692.03851369
_cell_formula_units_Z   2
loop_
 _symmetry_equiv_pos_site_id
 _symmetry_equiv_pos_as_xyz
  1  'x, y, z'
loop_
 _atom_site_type_symbol
 _atom_site_label
 _atom_site_symmetry_multiplicity
 _atom_site_fract_x
 _atom_site_fract_y
 _atom_site_fract_z
 _atom_site_occupancy
  Na  Na0  1  0.088551  0.822897  0.838551  1
  Na  Na1  1  0.088446  0.250000  0.838446  1
  Na  Na2  1  0.338446  0.750000  0.588446  1
  Na  Na3  1  0.338551  0.322897  0.588551  1
  Na  Na4  1  0.661449  0.677103  0.411449  1
  Na  Na5  1  0.661554  0.250000  0.411554  1
  Na  Na6  1  0.911554  0.750000  0.161554  1
  Na  Na7  1  0.911449  0.177103  0.161449  1
  Cr  Cr8  1  0.000000  0.500000  0.000000  1
  Cr  Cr9  1  0.500000  0.000000  0.500000  1
  Cr  Cr10  1  0.500000  0.500000  0.000000  1
  Cr  Cr11  1  0.500000  0.000000  0.000000  1
  As  As12  1  0.125000  0.750000  0.375000  1
  As  As13  1  0.875000  0.250000  0.625000  1
  C  C14  1  0.365042  0.924205  0.782989  1
  C  C15  1  0.282989  0.424205  0.865042  1
  C  C16  1  0.710753  0.924205  0.792806  1
  C  C17  1  0.707194  0.575795  0.789247  1
  C  C18  1  0.292806  0.424205  0.210753  1
  C  C19  1  0.289247  0.075795  0.207194  1
  C  C20  1  0.717011  0.575795  0.134958  1
  C  C21  1  0.634958  0.075795  0.217011  1
  O  O22  1  0.359078  0.786292  0.893157  1
  O  O23  1  0.060078  0.897912  0.439572  1
  O  O24  1  0.367529  0.950004  0.643223  1
  O  O25  1  0.143223  0.450004  0.867529  1
  O  O26  1  0.682466  0.950004  0.906773  1
  O  O27  1  0.309656  0.544283  0.859171  1
  O  O28  1  0.042010  0.897912  0.162516  1
  O  O29  1  0.060428  0.602088  0.439922  1
  O  O30  1  0.403454  0.955717  0.353939  1
  O  O31  1  0.593227  0.549996  0.817534  1
  O  O32  1  0.393157  0.286292  0.859078  1
  O  O33  1  0.337484  0.602088  0.457990  1
  O  O34  1  0.854630  0.786292  0.820550  1
  O  O35  1  0.679450  0.713708  0.645370  1
  O  O36  1  0.359171  0.044283  0.809656  1
  O  O37  1  0.146061  0.544283  0.096546  1
  O  O38  1  0.853939  0.455717  0.903454  1
  O  O39  1  0.640829  0.955717  0.190344  1
  O  O40  1  0.320550  0.286292  0.354630  1
  O  O41  1  0.145370  0.213708  0.179450  1
  O  O42  1  0.662516  0.397912  0.542010  1
  O  O43  1  0.606843  0.713708  0.140922  1
  O  O44  1  0.406773  0.450004  0.182466  1
  O  O45  1  0.596546  0.044283  0.646061  1
  O  O46  1  0.939572  0.397912  0.560078  1
  O  O47  1  0.957990  0.102088  0.837484  1
  O  O48  1  0.690344  0.455717  0.140829  1
  O  O49  1  0.317534  0.049996  0.093227  1
  O  O50  1  0.856777  0.549996  0.132471  1
  O  O51  1  0.632471  0.049996  0.356777  1
  O  O52  1  0.939922  0.102088  0.560428  1
  O  O53  1  0.640922  0.213708  0.106843  1
