# generated using pymatgen
data_LiCo2OF3
_symmetry_space_group_name_H-M   'P 1'
_cell_length_a   5.19325660
_cell_length_b   10.29134671
_cell_length_c   5.99905186
_cell_angle_alpha   90.12749357
_cell_angle_beta   90.01111136
_cell_angle_gamma   89.88373959
_symmetry_Int_Tables_number   1
_chemical_formula_structural   LiCo2OF3
_chemical_formula_sum   'Li4 Co8 O4 F12'
_cell_volume   320.62149199
_cell_formula_units_Z   4
loop_
 _symmetry_equiv_pos_site_id
 _symmetry_equiv_pos_as_xyz
  1  'x, y, z'
loop_
 _atom_site_type_symbol
 _atom_site_label
 _atom_site_symmetry_multiplicity
 _atom_site_fract_x
 _atom_site_fract_y
 _atom_site_fract_z
 _atom_site_occupancy
  Li  Li0  1  0.024992  0.589651  0.249990  1
  Li  Li1  1  0.474752  0.089803  0.250066  1
  Li  Li2  1  0.525271  0.910459  0.749981  1
  Li  Li3  1  0.975017  0.410193  0.750049  1
  Co  Co4  1  -0.000231  0.999968  0.000265  1
  Co  Co5  1  -0.000151  0.000115  0.499653  1
  Co  Co6  1  0.997653  0.744843  0.749576  1
  Co  Co7  1  0.502015  0.244579  0.749603  1
  Co  Co8  1  0.499912  0.500100  0.500049  1
  Co  Co9  1  0.500131  0.499987  0.999934  1
  Co  Co10  1  0.498057  0.755306  0.250609  1
  Co  Co11  1  0.002285  0.255166  0.250822  1
  O  O12  1  0.168227  0.915601  0.749675  1
  O  O13  1  0.332202  0.415821  0.749702  1
  O  O14  1  0.667573  0.584036  0.250234  1
  O  O15  1  0.832470  0.084321  0.250181  1
  F  F16  1  0.208524  0.424945  0.250988  1
  F  F17  1  0.229059  0.666411  0.011656  1
  F  F18  1  0.227713  0.667369  0.488088  1
  F  F19  1  0.271701  0.166858  0.011961  1
  F  F20  1  0.272311  0.166980  0.488842  1
  F  F21  1  0.290915  0.925230  0.250327  1
  F  F22  1  0.709113  0.074787  0.749597  1
  F  F23  1  0.728178  0.833135  0.988113  1
  F  F24  1  0.727886  0.832786  0.511860  1
  F  F25  1  0.772290  0.332701  0.511592  1
  F  F26  1  0.770492  0.333634  0.987632  1
  F  F27  1  0.791645  0.575216  0.748954  1
