# generated using pymatgen
data_Li3CoPCO7
_symmetry_space_group_name_H-M   'P 1'
_cell_length_a   8.56552547
_cell_length_b   4.90606300
_cell_length_c   6.37238142
_cell_angle_alpha   90.00000000
_cell_angle_beta   90.00000000
_cell_angle_gamma   84.68904230
_symmetry_Int_Tables_number   1
_chemical_formula_structural   Li3CoPCO7
_chemical_formula_sum   'Li6 Co2 P2 C2 O14'
_cell_volume   266.63702873
_cell_formula_units_Z   2
loop_
 _symmetry_equiv_pos_site_id
 _symmetry_equiv_pos_as_xyz
  1  'x, y, z'
loop_
 _atom_site_type_symbol
 _atom_site_label
 _atom_site_symmetry_multiplicity
 _atom_site_fract_x
 _atom_site_fract_y
 _atom_site_fract_z
 _atom_site_occupancy
  Li  Li0  1  0.106673  0.773266  0.263248  1
  Li  Li1  1  0.285517  0.236913  0.485618  1
  Li  Li2  1  0.355172  0.776417  0.742776  1
  Li  Li3  1  0.644828  0.223583  0.242776  1
  Li  Li4  1  0.714483  0.763087  0.985618  1
  Li  Li5  1  0.893327  0.226734  0.763248  1
  Co  Co6  1  0.262305  0.255540  0.004208  1
  Co  Co7  1  0.737695  0.744460  0.504208  1
  P  P8  1  0.409276  0.722257  0.247859  1
  P  P9  1  0.590724  0.277743  0.747859  1
  C  C10  1  0.040754  0.703168  0.758736  1
  C  C11  1  0.959246  0.296832  0.258736  1
  O  O12  1  0.067015  0.955163  0.757720  1
  O  O13  1  0.104208  0.367141  0.240821  1
  O  O14  1  0.153638  0.507845  0.773764  1
  O  O15  1  0.314868  0.844940  0.054700  1
  O  O16  1  0.309053  0.821338  0.439314  1
  O  O17  1  0.421912  0.191669  0.751003  1
  O  O18  1  0.417218  0.402130  0.230231  1
  O  O19  1  0.582782  0.597870  0.730231  1
  O  O20  1  0.578088  0.808331  0.251003  1
  O  O21  1  0.690947  0.178662  0.939314  1
  O  O22  1  0.685132  0.155060  0.554700  1
  O  O23  1  0.846362  0.492155  0.273764  1
  O  O24  1  0.895792  0.632859  0.740821  1
  O  O25  1  0.932985  0.044837  0.257720  1
