# generated using pymatgen
data_Li3VOF5
_symmetry_space_group_name_H-M   'P 1'
_cell_length_a   9.84363910
_cell_length_b   8.61268690
_cell_length_c   5.04903561
_cell_angle_alpha   90.12384385
_cell_angle_beta   90.16846103
_cell_angle_gamma   90.17877538
_symmetry_Int_Tables_number   1
_chemical_formula_structural   Li3VOF5
_chemical_formula_sum   'Li12 V4 O4 F20'
_cell_volume   428.05321307
_cell_formula_units_Z   4
loop_
 _symmetry_equiv_pos_site_id
 _symmetry_equiv_pos_as_xyz
  1  'x, y, z'
loop_
 _atom_site_type_symbol
 _atom_site_label
 _atom_site_symmetry_multiplicity
 _atom_site_fract_x
 _atom_site_fract_y
 _atom_site_fract_z
 _atom_site_occupancy
  Li  Li0  1  0.109110  0.459321  0.487036  1
  Li  Li1  1  0.128067  0.853925  0.012148  1
  Li  Li2  1  0.149195  0.044540  0.492780  1
  Li  Li3  1  0.348374  0.544513  0.007742  1
  Li  Li4  1  0.372619  0.350359  0.500494  1
  Li  Li5  1  0.391552  0.959835  0.002199  1
  Li  Li6  1  0.605750  0.043823  0.499908  1
  Li  Li7  1  0.625408  0.648985  0.006264  1
  Li  Li8  1  0.648135  0.451209  0.505477  1
  Li  Li9  1  0.853692  0.952946  0.002652  1
  Li  Li10  1  0.872115  0.150161  0.513461  1
  Li  Li11  1  0.894417  0.545851  0.996189  1
  V  V12  1  0.107120  0.240464  0.970547  1
  V  V13  1  0.382540  0.740441  0.524360  1
  V  V14  1  0.618110  0.259656  0.024275  1
  V  V15  1  0.872261  0.760329  0.500086  1
  O  O16  1  0.013673  0.094965  0.832689  1
  O  O17  1  0.031213  0.399548  0.855330  1
  O  O18  1  0.476184  0.742678  0.800346  1
  O  O19  1  0.525256  0.257319  0.301258  1
  F  F20  1  0.024839  0.242463  0.316481  1
  F  F21  1  0.227943  0.065551  0.146976  1
  F  F22  1  0.242122  0.231459  0.698361  1
  F  F23  1  0.246895  0.380143  0.183427  1
  F  F24  1  0.249266  0.887595  0.677955  1
  F  F25  1  0.264276  0.733351  0.194300  1
  F  F26  1  0.272082  0.558608  0.641437  1
  F  F27  1  0.474875  0.909456  0.339824  1
  F  F28  1  0.490319  0.587571  0.317389  1
  F  F29  1  0.510210  0.411701  0.817266  1
  F  F30  1  0.526014  0.090046  0.839247  1
  F  F31  1  0.728814  0.441025  0.143802  1
  F  F32  1  0.735846  0.266618  0.694770  1
  F  F33  1  0.751874  0.112822  0.179455  1
  F  F34  1  0.750768  0.610547  0.683967  1
  F  F35  1  0.759865  0.769253  0.178635  1
  F  F36  1  0.773332  0.941479  0.647029  1
  F  F37  1  0.974946  0.589357  0.343528  1
  F  F38  1  0.979468  0.754447  0.829187  1
  F  F39  1  0.991456  0.915636  0.320566  1
