# generated using pymatgen
data_GeWO4
_symmetry_space_group_name_H-M   'P 1'
_cell_length_a   12.66102182
_cell_length_b   7.12084641
_cell_length_c   7.67560886
_cell_angle_alpha   90.00000000
_cell_angle_beta   90.16454160
_cell_angle_gamma   90.00000000
_symmetry_Int_Tables_number   1
_chemical_formula_structural   GeWO4
_chemical_formula_sum   'Ge8 W8 O32'
_cell_volume   692.00848622
_cell_formula_units_Z   8
loop_
 _symmetry_equiv_pos_site_id
 _symmetry_equiv_pos_as_xyz
  1  'x, y, z'
loop_
 _atom_site_type_symbol
 _atom_site_label
 _atom_site_symmetry_multiplicity
 _atom_site_fract_x
 _atom_site_fract_y
 _atom_site_fract_z
 _atom_site_occupancy
  Ge  Ge0  1  0.189585  0.963265  0.590295  1
  Ge  Ge1  1  0.131250  0.758439  0.154059  1
  Ge  Ge2  1  0.368750  0.258439  0.345941  1
  Ge  Ge3  1  0.310415  0.463265  0.909705  1
  Ge  Ge4  1  0.689585  0.536735  0.090295  1
  Ge  Ge5  1  0.631250  0.741561  0.654059  1
  Ge  Ge6  1  0.868750  0.241561  0.845941  1
  Ge  Ge7  1  0.810415  0.036735  0.409705  1
  W  W8  1  0.078086  0.173017  0.080883  1
  W  W9  1  0.082003  0.447383  0.646821  1
  W  W10  1  0.417997  0.947383  0.853179  1
  W  W11  1  0.421914  0.673017  0.419117  1
  W  W12  1  0.578086  0.326983  0.580883  1
  W  W13  1  0.582003  0.052617  0.146821  1
  W  W14  1  0.917997  0.552617  0.353179  1
  W  W15  1  0.921914  0.826983  0.919117  1
  O  O16  1  0.020969  0.361985  0.209322  1
  O  O17  1  0.027020  0.275875  0.832987  1
  O  O18  1  0.065572  0.625107  0.461763  1
  O  O19  1  0.081712  0.919149  0.947234  1
  O  O20  1  0.122843  0.011037  0.261967  1
  O  O21  1  0.160784  0.271412  0.541385  1
  O  O22  1  0.188885  0.557036  0.779067  1
  O  O23  1  0.205100  0.282177  0.026746  1
  O  O24  1  0.294900  0.782177  0.473254  1
  O  O25  1  0.311115  0.057036  0.720933  1
  O  O26  1  0.339216  0.771412  0.958615  1
  O  O27  1  0.377157  0.511037  0.238033  1
  O  O28  1  0.418287  0.419149  0.552766  1
  O  O29  1  0.472980  0.775875  0.667013  1
  O  O30  1  0.434428  0.125107  0.038237  1
  O  O31  1  0.479031  0.861985  0.290678  1
  O  O32  1  0.520969  0.138015  0.709322  1
  O  O33  1  0.565572  0.874893  0.961763  1
  O  O34  1  0.527020  0.224125  0.332987  1
  O  O35  1  0.581712  0.580851  0.447234  1
  O  O36  1  0.622843  0.488963  0.761967  1
  O  O37  1  0.660784  0.228588  0.041385  1
  O  O38  1  0.688885  0.942964  0.279067  1
  O  O39  1  0.705100  0.217823  0.526746  1
  O  O40  1  0.794900  0.717823  0.973254  1
  O  O41  1  0.811115  0.442964  0.220933  1
  O  O42  1  0.839216  0.728588  0.458615  1
  O  O43  1  0.877157  0.988963  0.738033  1
  O  O44  1  0.918288  0.080851  0.052766  1
  O  O45  1  0.934428  0.374893  0.538237  1
  O  O46  1  0.972980  0.724125  0.167013  1
  O  O47  1  0.979031  0.638015  0.790678  1
