# generated using pymatgen
data_Na3NiO2
_symmetry_space_group_name_H-M   'P 1'
_cell_length_a   10.82070877
_cell_length_b   6.30710588
_cell_length_c   5.54067241
_cell_angle_alpha   89.99992787
_cell_angle_beta   89.97441841
_cell_angle_gamma   90.00011552
_symmetry_Int_Tables_number   1
_chemical_formula_structural   Na3NiO2
_chemical_formula_sum   'Na12 Ni4 O8'
_cell_volume   378.13620411
_cell_formula_units_Z   4
loop_
 _symmetry_equiv_pos_site_id
 _symmetry_equiv_pos_as_xyz
  1  'x, y, z'
loop_
 _atom_site_type_symbol
 _atom_site_label
 _atom_site_symmetry_multiplicity
 _atom_site_fract_x
 _atom_site_fract_y
 _atom_site_fract_z
 _atom_site_occupancy
  Na  Na0  1  0.087990  0.250001  0.222196  1
  Na  Na1  1  0.141735  0.502896  0.638245  1
  Na  Na2  1  0.141736  0.997104  0.638243  1
  Na  Na3  1  0.358232  0.497464  0.138194  1
  Na  Na4  1  0.358232  0.002537  0.138195  1
  Na  Na5  1  0.412121  0.749999  0.722208  1
  Na  Na6  1  0.587950  0.250001  0.277812  1
  Na  Na7  1  0.641746  0.997087  0.861749  1
  Na  Na8  1  0.641744  0.502913  0.861747  1
  Na  Na9  1  0.858226  0.497413  0.361799  1
  Na  Na10  1  0.858225  0.002587  0.361802  1
  Na  Na11  1  0.912037  0.750000  0.777757  1
  Ni  Ni12  1  0.114667  0.750002  0.149826  1
  Ni  Ni13  1  0.385314  0.250000  0.649890  1
  Ni  Ni14  1  0.614658  0.750001  0.350081  1
  Ni  Ni15  1  0.885366  0.249998  0.850092  1
  O  O16  1  0.016097  0.749999  0.406765  1
  O  O17  1  0.225091  0.750000  0.909114  1
  O  O18  1  0.274922  0.249999  0.409238  1
  O  O19  1  0.483864  0.249999  0.906548  1
  O  O20  1  0.516148  0.749999  0.093500  1
  O  O21  1  0.725096  0.749999  0.590814  1
  O  O22  1  0.774894  0.250001  0.090890  1
  O  O23  1  0.983908  0.250000  0.593294  1
