# generated using pymatgen
data_KAl(SO4)2
_symmetry_space_group_name_H-M   'P 1'
_cell_length_a   5.01751907
_cell_length_b   5.01751907
_cell_length_c   7.89858346
_cell_angle_alpha   90.00000000
_cell_angle_beta   90.00000000
_cell_angle_gamma   120.00000004
_symmetry_Int_Tables_number   1
_chemical_formula_structural   KAl(SO4)2
_chemical_formula_sum   'K1 Al1 S2 O8'
_cell_volume   172.20981764
_cell_formula_units_Z   1
loop_
 _symmetry_equiv_pos_site_id
 _symmetry_equiv_pos_as_xyz
  1  'x, y, z'
loop_
 _atom_site_type_symbol
 _atom_site_label
 _atom_site_symmetry_multiplicity
 _atom_site_fract_x
 _atom_site_fract_y
 _atom_site_fract_z
 _atom_site_occupancy
  O  O0  1  0.344909  0.174631  0.644980  1
  O  O1  1  0.825369  0.170277  0.644980  1
  O  O2  1  0.829723  0.655091  0.644980  1
  O  O3  1  0.170277  0.825369  0.355020  1
  O  O4  1  0.333333  0.666667  0.107496  1
  O  O5  1  0.666667  0.333333  0.892504  1
  O  O6  1  0.174631  0.344909  0.355020  1
  O  O7  1  0.655091  0.829723  0.355020  1
  Al  Al8  1  0.000000  0.000000  0.500000  1
  S  S9  1  0.666667  0.333333  0.708180  1
  S  S10  1  0.333333  0.666667  0.291820  1
  K  K11  1  0.000000  0.000000  0.000000  1
