# generated using pymatgen
data_LiFePCO7
_symmetry_space_group_name_H-M   'P 1'
_cell_length_a   8.39358942
_cell_length_b   5.15334740
_cell_length_c   19.40322823
_cell_angle_alpha   90.07466739
_cell_angle_beta   89.76289882
_cell_angle_gamma   84.97315413
_symmetry_Int_Tables_number   1
_chemical_formula_structural   LiFePCO7
_chemical_formula_sum   'Li6 Fe6 P6 C6 O42'
_cell_volume   836.05179433
_cell_formula_units_Z   6
loop_
 _symmetry_equiv_pos_site_id
 _symmetry_equiv_pos_as_xyz
  1  'x, y, z'
loop_
 _atom_site_type_symbol
 _atom_site_label
 _atom_site_symmetry_multiplicity
 _atom_site_fract_x
 _atom_site_fract_y
 _atom_site_fract_z
 _atom_site_occupancy
  Li  Li0  1  0.107905  0.769221  0.083549  1
  Li  Li1  1  0.108389  0.768835  0.417564  1
  Li  Li2  1  0.281061  0.244913  0.818630  1
  Li  Li3  1  0.891380  0.226146  0.917384  1
  Li  Li4  1  0.891351  0.230899  0.250173  1
  Li  Li5  1  0.891389  0.232287  0.585242  1
  Fe  Fe6  1  0.336124  0.802423  0.918962  1
  Fe  Fe7  1  0.331997  0.803244  0.250599  1
  Fe  Fe8  1  0.331503  0.805652  0.584105  1
  Fe  Fe9  1  0.666677  0.195347  0.084077  1
  Fe  Fe10  1  0.666497  0.199708  0.749453  1
  Fe  Fe11  1  0.667536  0.196489  0.416554  1
  P  P12  1  0.424003  0.732608  0.750548  1
  P  P13  1  0.422867  0.726616  0.084085  1
  P  P14  1  0.422685  0.727925  0.416891  1
  P  P15  1  0.576470  0.272183  0.250159  1
  P  P16  1  0.574951  0.275915  0.582024  1
  P  P17  1  0.579408  0.275485  0.916779  1
  C  C18  1  0.042404  0.707763  0.250264  1
  C  C19  1  0.043608  0.708627  0.584459  1
  C  C20  1  0.045929  0.705333  0.912940  1
  C  C21  1  0.957099  0.291939  0.082865  1
  C  C22  1  0.957331  0.291875  0.416517  1
  C  C23  1  0.956209  0.285567  0.752435  1
  O  O24  1  0.073017  0.950038  0.250466  1
  O  O25  1  0.075172  0.950350  0.583426  1
  O  O26  1  0.075119  0.947794  0.916665  1
  O  O27  1  0.092652  0.378892  0.082596  1
  O  O28  1  0.093005  0.377269  0.416776  1
  O  O29  1  0.099023  0.334512  0.758690  1
  O  O30  1  0.168778  0.539286  0.584700  1
  O  O31  1  0.168354  0.539223  0.250589  1
  O  O32  1  0.173902  0.538525  0.908966  1
  O  O33  1  0.312168  0.794788  0.021238  1
  O  O34  1  0.308660  0.795731  0.145633  1
  O  O35  1  0.310323  0.794945  0.354929  1
  O  O36  1  0.309460  0.794913  0.478914  1
  O  O37  1  0.318645  0.833217  0.812691  1
  O  O38  1  0.321727  0.793465  0.686529  1
  O  O39  1  0.421331  0.139427  0.912175  1
  O  O40  1  0.424764  0.125278  0.250356  1
  O  O41  1  0.423358  0.129195  0.581445  1
  O  O42  1  0.478107  0.432435  0.083884  1
  O  O43  1  0.479546  0.433972  0.416682  1
  O  O44  1  0.467344  0.431569  0.758855  1
  O  O45  1  0.520290  0.566172  0.250021  1
  O  O46  1  0.520051  0.569808  0.579780  1
  O  O47  1  0.525997  0.570993  0.917753  1
  O  O48  1  0.574935  0.872509  0.084361  1
  O  O49  1  0.580955  0.868331  0.748654  1
  O  O50  1  0.574817  0.874680  0.416548  1
  O  O51  1  0.689647  0.204473  0.187980  1
  O  O52  1  0.689445  0.205342  0.312024  1
  O  O53  1  0.690885  0.204326  0.521115  1
  O  O54  1  0.682789  0.217801  0.645721  1
  O  O55  1  0.692026  0.208690  0.854788  1
  O  O56  1  0.685558  0.196273  0.979369  1
  O  O57  1  0.830446  0.459006  0.082641  1
  O  O58  1  0.838703  0.466356  0.749140  1
  O  O59  1  0.831382  0.460053  0.416541  1
  O  O60  1  0.910319  0.618299  0.914975  1
  O  O61  1  0.906431  0.622400  0.249753  1
  O  O62  1  0.907408  0.625018  0.583859  1
  O  O63  1  0.927452  0.049406  0.083313  1
  O  O64  1  0.908708  0.052972  0.749017  1
  O  O65  1  0.926713  0.049749  0.416192  1
