# generated using pymatgen
data_Li3Cr(PO4)2
_symmetry_space_group_name_H-M   'P 1'
_cell_length_a   5.13303181
_cell_length_b   12.48346903
_cell_length_c   17.96316941
_cell_angle_alpha   90.00000000
_cell_angle_beta   90.00000000
_cell_angle_gamma   90.00000000
_symmetry_Int_Tables_number   1
_chemical_formula_structural   Li3Cr(PO4)2
_chemical_formula_sum   'Li24 Cr8 P16 O64'
_cell_volume   1151.04475319
_cell_formula_units_Z   8
loop_
 _symmetry_equiv_pos_site_id
 _symmetry_equiv_pos_as_xyz
  1  'x, y, z'
loop_
 _atom_site_type_symbol
 _atom_site_label
 _atom_site_symmetry_multiplicity
 _atom_site_fract_x
 _atom_site_fract_y
 _atom_site_fract_z
 _atom_site_occupancy
  Li  Li0  1  0.096069  0.351100  0.240203  1
  Li  Li1  1  0.096069  0.148900  0.740203  1
  Li  Li2  1  0.092396  0.461583  0.058303  1
  Li  Li3  1  0.092396  0.038417  0.558303  1
  Li  Li4  1  0.037648  0.711738  0.429398  1
  Li  Li5  1  0.037648  0.788262  0.929398  1
  Li  Li6  1  0.475643  0.039252  0.809075  1
  Li  Li7  1  0.475643  0.460748  0.309075  1
  Li  Li8  1  0.386270  0.705715  0.675725  1
  Li  Li9  1  0.386270  0.794285  0.175725  1
  Li  Li10  1  0.421586  0.605730  0.494854  1
  Li  Li11  1  0.421586  0.894270  0.994854  1
  Li  Li12  1  0.578414  0.105730  0.494854  1
  Li  Li13  1  0.578414  0.394270  0.994854  1
  Li  Li14  1  0.613730  0.294285  0.175725  1
  Li  Li15  1  0.613730  0.205715  0.675725  1
  Li  Li16  1  0.524357  0.539252  0.809075  1
  Li  Li17  1  0.524357  0.960748  0.309075  1
  Li  Li18  1  0.962352  0.288262  0.929398  1
  Li  Li19  1  0.962352  0.211738  0.429398  1
  Li  Li20  1  0.907604  0.961583  0.058303  1
  Li  Li21  1  0.907604  0.538417  0.558303  1
  Li  Li22  1  0.903931  0.851100  0.240203  1
  Li  Li23  1  0.903931  0.648900  0.740203  1
  Cr  Cr24  1  0.056774  0.080619  0.244340  1
  Cr  Cr25  1  0.056774  0.419381  0.744340  1
  Cr  Cr26  1  0.465802  0.166837  0.984132  1
  Cr  Cr27  1  0.465802  0.333163  0.484133  1
  Cr  Cr28  1  0.534198  0.666837  0.984132  1
  Cr  Cr29  1  0.534198  0.833163  0.484133  1
  Cr  Cr30  1  0.943226  0.580619  0.244340  1
  Cr  Cr31  1  0.943226  0.919381  0.744340  1
  P  P32  1  0.991460  0.717336  0.078603  1
  P  P33  1  0.991460  0.782664  0.578603  1
  P  P34  1  0.030220  0.959680  0.407323  1
  P  P35  1  0.030220  0.540320  0.907323  1
  P  P36  1  0.451463  0.710390  0.321538  1
  P  P37  1  0.451463  0.789610  0.821538  1
  P  P38  1  0.486690  0.537914  0.151052  1
  P  P39  1  0.486690  0.962086  0.651052  1
  P  P40  1  0.513310  0.037914  0.151052  1
  P  P41  1  0.513310  0.462086  0.651052  1
  P  P42  1  0.548537  0.210390  0.321538  1
  P  P43  1  0.548537  0.289610  0.821538  1
  P  P44  1  0.969780  0.040320  0.907323  1
  P  P45  1  0.969780  0.459680  0.407323  1
  P  P46  1  0.008540  0.217336  0.078603  1
  P  P47  1  0.008540  0.282664  0.578603  1
  O  O48  1  0.021891  0.471616  0.321264  1
  O  O49  1  0.021891  0.028384  0.821264  1
  O  O50  1  0.016021  0.761721  0.158251  1
  O  O51  1  0.016021  0.738279  0.658251  1
  O  O52  1  0.048083  0.098082  0.074337  1
  O  O53  1  0.048083  0.401918  0.574337  1
  O  O54  1  0.060967  0.557471  0.451572  1
  O  O55  1  0.060967  0.942529  0.951572  1
  O  O56  1  0.132942  0.358732  0.425621  1
  O  O57  1  0.132942  0.141268  0.925621  1
  O  O58  1  0.159208  0.690729  0.301404  1
  O  O59  1  0.159208  0.809271  0.801404  1
  O  O60  1  0.236290  0.277257  0.036144  1
  O  O61  1  0.236290  0.222743  0.536144  1
  O  O62  1  0.233762  0.499382  0.193185  1
  O  O63  1  0.233762  0.000618  0.693185  1
  O  O64  1  0.244170  0.751028  0.034035  1
  O  O65  1  0.244170  0.748972  0.534035  1
  O  O66  1  0.289451  0.526943  0.691187  1
  O  O67  1  0.289451  0.973057  0.191187  1
  O  O68  1  0.326925  0.561252  0.919819  1
  O  O69  1  0.326925  0.938748  0.419819  1
  O  O70  1  0.377548  0.110518  0.306934  1
  O  O71  1  0.377548  0.389482  0.806934  1
  O  O72  1  0.446431  0.190286  0.781168  1
  O  O73  1  0.446431  0.309714  0.281168  1
  O  O74  1  0.465448  0.996481  0.567935  1
  O  O75  1  0.465448  0.503519  0.067935  1
  O  O76  1  0.451781  0.721816  0.408595  1
  O  O77  1  0.451781  0.778184  0.908595  1
  O  O78  1  0.469379  0.156377  0.160745  1
  O  O79  1  0.469379  0.343623  0.660745  1
  O  O80  1  0.530621  0.656377  0.160745  1
  O  O81  1  0.530621  0.843623  0.660745  1
  O  O82  1  0.548219  0.278184  0.908595  1
  O  O83  1  0.548219  0.221816  0.408595  1
  O  O84  1  0.534552  0.496481  0.567935  1
  O  O85  1  0.534552  0.003519  0.067935  1
  O  O86  1  0.553569  0.690286  0.781168  1
  O  O87  1  0.553569  0.809714  0.281168  1
  O  O88  1  0.622452  0.610518  0.306934  1
  O  O89  1  0.622452  0.889482  0.806934  1
  O  O90  1  0.673075  0.061252  0.919819  1
  O  O91  1  0.673075  0.438748  0.419819  1
  O  O92  1  0.710549  0.473057  0.191187  1
  O  O93  1  0.710549  0.026943  0.691187  1
  O  O94  1  0.755830  0.248972  0.534035  1
  O  O95  1  0.755830  0.251028  0.034035  1
  O  O96  1  0.766238  0.500618  0.693185  1
  O  O97  1  0.766238  0.999382  0.193185  1
  O  O98  1  0.763710  0.777257  0.036144  1
  O  O99  1  0.763710  0.722743  0.536144  1
  O  O100  1  0.840792  0.190729  0.301404  1
  O  O101  1  0.840792  0.309271  0.801404  1
  O  O102  1  0.867058  0.641268  0.925621  1
  O  O103  1  0.867058  0.858732  0.425621  1
  O  O104  1  0.939033  0.442529  0.951572  1
  O  O105  1  0.939033  0.057471  0.451572  1
  O  O106  1  0.951917  0.598082  0.074337  1
  O  O107  1  0.951917  0.901918  0.574337  1
  O  O108  1  0.983979  0.261721  0.158251  1
  O  O109  1  0.983979  0.238279  0.658251  1
  O  O110  1  0.978109  0.528384  0.821264  1
  O  O111  1  0.978109  0.971616  0.321264  1
