# generated using pymatgen
data_Li3Ti2CoO6
_symmetry_space_group_name_H-M   'P 1'
_cell_length_a   15.77001208
_cell_length_b   10.11366356
_cell_length_c   10.11366360
_cell_angle_alpha   16.88318945
_cell_angle_beta   16.10835878
_cell_angle_gamma   16.10835595
_symmetry_Int_Tables_number   1
_chemical_formula_structural   Li3Ti2CoO6
_chemical_formula_sum   'Li3 Ti2 Co1 O6'
_cell_volume   111.50215107
_cell_formula_units_Z   1
loop_
 _symmetry_equiv_pos_site_id
 _symmetry_equiv_pos_as_xyz
  1  'x, y, z'
loop_
 _atom_site_type_symbol
 _atom_site_label
 _atom_site_symmetry_multiplicity
 _atom_site_fract_x
 _atom_site_fract_y
 _atom_site_fract_z
 _atom_site_occupancy
  Li  Li0  1  0.166667  0.500000  0.500000  1
  Li  Li1  1  0.514025  0.490594  0.490594  1
  Li  Li2  1  0.819308  0.509406  0.509406  1
  Ti  Ti3  1  0.048307  0.965408  0.965408  1
  Ti  Ti4  1  0.285026  0.034592  0.034592  1
  Co  Co5  1  0.666667  0.000000  0.000000  1
  O  O6  1  0.217969  0.276475  0.276475  1
  O  O7  1  0.563638  0.275046  0.275046  1
  O  O8  1  0.115364  0.723525  0.723525  1
  O  O9  1  0.938763  0.232872  0.232872  1
  O  O10  1  0.394570  0.767128  0.767128  1
  O  O11  1  0.769695  0.724954  0.724954  1
