# generated using pymatgen
data_Sb9PO25
_symmetry_space_group_name_H-M   'P 1'
_cell_length_a   3.96101008
_cell_length_b   11.11361883
_cell_length_c   11.11361883
_cell_angle_alpha   91.81985316
_cell_angle_beta   100.26523454
_cell_angle_gamma   79.73476546
_symmetry_Int_Tables_number   1
_chemical_formula_structural   Sb9PO25
_chemical_formula_sum   'Sb9 P1 O25'
_cell_volume   473.69769141
_cell_formula_units_Z   1
loop_
 _symmetry_equiv_pos_site_id
 _symmetry_equiv_pos_as_xyz
  1  'x, y, z'
loop_
 _atom_site_type_symbol
 _atom_site_label
 _atom_site_symmetry_multiplicity
 _atom_site_fract_x
 _atom_site_fract_y
 _atom_site_fract_z
 _atom_site_occupancy
  Sb  Sb0  1  0.000000  0.000000  0.000000  1
  Sb  Sb1  1  0.120588  0.118331  0.325701  1
  Sb  Sb2  1  0.859255  0.447801  0.206625  1
  Sb  Sb3  1  0.692944  0.206625  0.552199  1
  Sb  Sb4  1  0.205114  0.674299  0.118331  1
  Sb  Sb5  1  0.761082  0.325701  0.881669  1
  Sb  Sb6  1  0.347370  0.793375  0.447801  1
  Sb  Sb7  1  0.100432  0.552199  0.793375  1
  Sb  Sb8  1  0.913217  0.881669  0.674299  1
  P  P9  1  0.750000  0.500000  0.500000  1
  O  O10  1  0.500000  0.000000  0.000000  1
  O  O11  1  0.072568  0.026882  0.179934  1
  O  O12  1  0.782791  0.415218  0.034190  1
  O  O13  1  0.627319  0.151066  0.369553  1
  O  O14  1  0.008662  0.281140  0.251328  1
  O  O15  1  0.801990  0.034190  0.584782  1
  O  O16  1  0.171454  0.203940  0.503893  1
  O  O17  1  0.332440  0.496107  0.203940  1
  O  O18  1  0.742234  0.630447  0.151066  1
  O  O19  1  0.578290  0.383671  0.487177  1
  O  O20  1  0.107366  0.820066  0.026882  1
  O  O21  1  0.908886  0.512823  0.383671  1
  O  O22  1  0.710198  0.251328  0.718860  1
  O  O23  1  0.242667  0.748672  0.281140  1
  O  O24  1  0.038039  0.487177  0.616329  1
  O  O25  1  0.900549  0.179934  0.973118  1
  O  O26  1  0.474785  0.616329  0.512823  1
  O  O27  1  0.221616  0.369553  0.848934  1
  O  O28  1  0.624606  0.503893  0.796060  1
  O  O29  1  0.871500  0.796060  0.496107  1
  O  O30  1  0.251399  0.965810  0.415218  1
  O  O31  1  0.038474  0.718860  0.748672  1
  O  O32  1  0.408832  0.848934  0.630447  1
  O  O33  1  0.163819  0.584782  0.965810  1
  O  O34  1  0.919517  0.973118  0.820066  1
