# generated using pymatgen
data_Fe3Ni2Te(PO4)6
_symmetry_space_group_name_H-M   'P 1'
_cell_length_a   8.52810813
_cell_length_b   8.52810838
_cell_length_c   8.52810866
_cell_angle_alpha   61.13950055
_cell_angle_beta   61.13950923
_cell_angle_gamma   61.13950543
_symmetry_Int_Tables_number   1
_chemical_formula_structural   Fe3Ni2Te(PO4)6
_chemical_formula_sum   'Fe3 Ni2 Te1 P6 O24'
_cell_volume   449.82055825
_cell_formula_units_Z   1
loop_
 _symmetry_equiv_pos_site_id
 _symmetry_equiv_pos_as_xyz
  1  'x, y, z'
loop_
 _atom_site_type_symbol
 _atom_site_label
 _atom_site_symmetry_multiplicity
 _atom_site_fract_x
 _atom_site_fract_y
 _atom_site_fract_z
 _atom_site_occupancy
  Fe  Fe0  1  0.144871  0.144871  0.144871  1
  Fe  Fe1  1  0.355171  0.355171  0.355171  1
  Fe  Fe2  1  0.643495  0.643495  0.643495  1
  Ni  Ni3  1  0.005346  0.005346  0.005346  1
  Ni  Ni4  1  0.499161  0.499161  0.499161  1
  Te  Te5  1  0.855974  0.855974  0.855974  1
  P  P6  1  0.256037  0.538948  0.952851  1
  P  P7  1  0.538948  0.952851  0.256037  1
  P  P8  1  0.952851  0.256037  0.538948  1
  P  P9  1  0.051339  0.745975  0.445558  1
  P  P10  1  0.445558  0.051339  0.745975  1
  P  P11  1  0.745975  0.445558  0.051339  1
  O  O12  1  0.108956  0.318659  0.503786  1
  O  O13  1  0.318659  0.503786  0.108956  1
  O  O14  1  0.060671  0.908622  0.253973  1
  O  O15  1  0.503786  0.108956  0.318659  1
  O  O16  1  0.024735  0.814304  0.601410  1
  O  O17  1  0.246762  0.589729  0.434626  1
  O  O18  1  0.253973  0.060671  0.908622  1
  O  O19  1  0.434626  0.246762  0.589729  1
  O  O20  1  0.178808  0.390653  0.995449  1
  O  O21  1  0.589729  0.434626  0.246762  1
  O  O22  1  0.091887  0.743629  0.943602  1
  O  O23  1  0.390653  0.995449  0.178808  1
  O  O24  1  0.601410  0.024735  0.814304  1
  O  O25  1  0.908622  0.253973  0.060671  1
  O  O26  1  0.407917  0.560272  0.754292  1
  O  O27  1  0.814304  0.601410  0.024735  1
  O  O28  1  0.560272  0.754292  0.407917  1
  O  O29  1  0.743629  0.943602  0.091887  1
  O  O30  1  0.754292  0.407917  0.560272  1
  O  O31  1  0.995449  0.178808  0.390653  1
  O  O32  1  0.501190  0.888289  0.683053  1
  O  O33  1  0.943602  0.091887  0.743629  1
  O  O34  1  0.683053  0.501190  0.888289  1
  O  O35  1  0.888289  0.683053  0.501190  1
