# generated using pymatgen
data_Li3V3(BO5)2
_symmetry_space_group_name_H-M   'P 1'
_cell_length_a   9.42226404
_cell_length_b   12.00100624
_cell_length_c   3.01176979
_cell_angle_alpha   90.14451262
_cell_angle_beta   90.00694888
_cell_angle_gamma   89.99192007
_symmetry_Int_Tables_number   1
_chemical_formula_structural   Li3V3(BO5)2
_chemical_formula_sum   'Li6 V6 B4 O20'
_cell_volume   340.55974836
_cell_formula_units_Z   2
loop_
 _symmetry_equiv_pos_site_id
 _symmetry_equiv_pos_as_xyz
  1  'x, y, z'
loop_
 _atom_site_type_symbol
 _atom_site_label
 _atom_site_symmetry_multiplicity
 _atom_site_fract_x
 _atom_site_fract_y
 _atom_site_fract_z
 _atom_site_occupancy
  Li  Li0  1  0.000351  0.000128  0.999832  1
  Li  Li1  1  0.993275  0.277289  0.998372  1
  Li  Li2  1  0.506297  0.777621  0.998273  1
  Li  Li3  1  0.500124  0.499968  0.000064  1
  Li  Li4  1  0.493425  0.222461  0.001710  1
  Li  Li5  1  0.006750  0.722592  0.001704  1
  V  V6  1  0.999930  0.499974  0.500065  1
  V  V7  1  0.233982  0.114643  0.524539  1
  V  V8  1  0.266207  0.614560  0.524444  1
  V  V9  1  0.500028  -0.000001  0.500288  1
  V  V10  1  0.733731  0.385368  0.475574  1
  V  V11  1  0.766209  0.885400  0.474165  1
  B  B12  1  0.235634  0.861833  0.495735  1
  B  B13  1  0.264438  0.361707  0.495785  1
  B  B14  1  0.735485  0.638304  0.504354  1
  B  B15  1  0.764310  0.138173  0.504331  1
  O  O16  1  0.122259  0.145833  0.993933  1
  O  O17  1  0.121288  0.569084  0.006966  1
  O  O18  1  0.116792  0.362897  0.495812  1
  O  O19  1  0.164849  0.759943  0.502302  1
  O  O20  1  0.155894  0.959253  0.488512  1
  O  O21  1  0.344200  0.459226  0.488914  1
  O  O22  1  0.335252  0.259997  0.502360  1
  O  O23  1  0.383208  0.862946  0.495971  1
  O  O24  1  0.378728  0.069107  0.007418  1
  O  O25  1  0.377790  0.645768  0.994003  1
  O  O26  1  0.622143  0.354155  0.005942  1
  O  O27  1  0.621283  0.930944  0.993066  1
  O  O28  1  0.616744  0.137076  0.504256  1
  O  O29  1  0.664750  0.740062  0.497747  1
  O  O30  1  0.655740  0.540757  0.511217  1
  O  O31  1  0.844085  0.040775  0.511564  1
  O  O32  1  0.835112  0.240039  0.497682  1
  O  O33  1  0.883140  0.637056  0.504217  1
  O  O34  1  0.878630  0.430848  0.993123  1
  O  O35  1  0.877936  0.854215  0.005759  1
