# generated using pymatgen
data_Na2Fe2O5
_symmetry_space_group_name_H-M   'P 1'
_cell_length_a   5.53526501
_cell_length_b   14.55295330
_cell_length_c   5.42084932
_cell_angle_alpha   89.99888418
_cell_angle_beta   89.99982135
_cell_angle_gamma   89.99940808
_symmetry_Int_Tables_number   1
_chemical_formula_structural   Na2Fe2O5
_chemical_formula_sum   'Na8 Fe8 O20'
_cell_volume   436.67355276
_cell_formula_units_Z   4
loop_
 _symmetry_equiv_pos_site_id
 _symmetry_equiv_pos_as_xyz
  1  'x, y, z'
loop_
 _atom_site_type_symbol
 _atom_site_label
 _atom_site_symmetry_multiplicity
 _atom_site_fract_x
 _atom_site_fract_y
 _atom_site_fract_z
 _atom_site_occupancy
  Na  Na0  1  0.022387  0.107720  0.484756  1
  Na  Na1  1  0.022357  0.392282  0.484744  1
  Na  Na2  1  0.477603  0.107718  0.984758  1
  Na  Na3  1  0.477611  0.392283  0.984776  1
  Na  Na4  1  0.522383  0.607718  0.015219  1
  Na  Na5  1  0.522422  0.892283  0.015228  1
  Na  Na6  1  0.977642  0.607718  0.515250  1
  Na  Na7  1  0.977585  0.892280  0.515245  1
  Fe  Fe8  1  -0.000002  0.000007  0.999994  1
  Fe  Fe9  1  -0.000001  0.499994  -0.000001  1
  Fe  Fe10  1  0.070182  0.749990  0.048525  1
  Fe  Fe11  1  0.429847  0.749962  0.548518  1
  Fe  Fe12  1  0.500005  0.000009  0.499991  1
  Fe  Fe13  1  0.499996  0.499994  0.499994  1
  Fe  Fe14  1  0.570171  0.250024  0.451489  1
  Fe  Fe15  1  0.929819  0.250003  0.951494  1
  O  O16  1  0.055695  0.138659  0.015777  1
  O  O17  1  0.055678  0.361373  0.015770  1
  O  O18  1  0.131244  0.749986  0.387766  1
  O  O19  1  0.242085  0.511755  0.254540  1
  O  O20  1  0.242095  0.988238  0.254536  1
  O  O21  1  0.257894  0.511756  0.754549  1
  O  O22  1  0.257908  0.988240  0.754534  1
  O  O23  1  0.368774  0.749987  0.887756  1
  O  O24  1  0.444312  0.138656  0.515772  1
  O  O25  1  0.444362  0.361380  0.515741  1
  O  O26  1  0.555638  0.638614  0.484250  1
  O  O27  1  0.555700  0.861362  0.484214  1
  O  O28  1  0.631248  0.250014  0.112282  1
  O  O29  1  0.742096  0.011778  0.245454  1
  O  O30  1  0.742101  0.488227  0.245438  1
  O  O31  1  0.757905  0.488227  0.745457  1
  O  O32  1  0.757907  0.011775  0.745462  1
  O  O33  1  0.868732  0.250013  0.612281  1
  O  O34  1  0.944319  0.638623  0.984225  1
  O  O35  1  0.944300  0.861350  0.984219  1
