# generated using pymatgen
data_La3Ce4O12
_symmetry_space_group_name_H-M   'P 1'
_cell_length_a   3.85410641
_cell_length_b   14.47207069
_cell_length_c   5.63139828
_cell_angle_alpha   101.66652680
_cell_angle_beta   90.00000000
_cell_angle_gamma   82.34795564
_symmetry_Int_Tables_number   1
_chemical_formula_structural   La3Ce4O12
_chemical_formula_sum   'La3 Ce4 O12'
_cell_volume   304.75631608
_cell_formula_units_Z   1
loop_
 _symmetry_equiv_pos_site_id
 _symmetry_equiv_pos_as_xyz
  1  'x, y, z'
loop_
 _atom_site_type_symbol
 _atom_site_label
 _atom_site_symmetry_multiplicity
 _atom_site_fract_x
 _atom_site_fract_y
 _atom_site_fract_z
 _atom_site_occupancy
  La  La0  1  0.571429  0.857143  0.428571  1
  La  La1  1  0.998479  0.003041  0.048383  1
  La  La2  1  0.144378  0.711245  0.808760  1
  Ce  Ce3  1  0.723124  0.553751  0.289482  1
  Ce  Ce4  1  0.857316  0.285367  0.142311  1
  Ce  Ce5  1  0.419733  0.160535  0.567660  1
  Ce  Ce6  1  0.285541  0.428919  0.714832  1
  O  O7  1  0.207346  0.585309  0.049252  1
  O  O8  1  0.084635  0.830728  0.163964  1
  O  O9  1  0.921632  0.156736  0.331399  1
  O  O10  1  0.787908  0.424183  0.467110  1
  O  O11  1  0.221225  0.557550  0.525744  1
  O  O12  1  0.646115  0.707769  0.571357  1
  O  O13  1  0.496742  0.006516  0.285786  1
  O  O14  1  0.058222  0.883557  0.693179  1
  O  O15  1  0.354949  0.290103  0.390032  1
  O  O16  1  0.785421  0.429157  0.969654  1
  O  O17  1  0.357436  0.285129  0.887489  1
  O  O18  1  0.935511  0.128977  0.807891  1
