# generated using pymatgen
data_Al2Si2H4O9
_symmetry_space_group_name_H-M   'P 1'
_cell_length_a   5.22145871
_cell_length_b   5.22145871
_cell_length_c   14.65751877
_cell_angle_alpha   86.89834444
_cell_angle_beta   93.10165556
_cell_angle_gamma   60.01853854
_symmetry_Int_Tables_number   1
_chemical_formula_structural   Al2Si2H4O9
_chemical_formula_sum   'Al4 Si4 H8 O18'
_cell_volume   344.11167324
_cell_formula_units_Z   2
loop_
 _symmetry_equiv_pos_site_id
 _symmetry_equiv_pos_as_xyz
  1  'x, y, z'
loop_
 _atom_site_type_symbol
 _atom_site_label
 _atom_site_symmetry_multiplicity
 _atom_site_fract_x
 _atom_site_fract_y
 _atom_site_fract_z
 _atom_site_occupancy
  Al  Al0  1  0.660369  0.828423  0.732159  1
  Al  Al1  1  0.171577  0.339631  0.232159  1
  Al  Al2  1  0.001222  0.160109  0.727428  1
  Al  Al3  1  0.839891  0.998778  0.227428  1
  Si  Si4  1  0.611185  0.585785  0.540145  1
  Si  Si5  1  0.414215  0.388815  0.040145  1
  Si  Si6  1  0.924900  0.928252  0.539378  1
  Si  Si7  1  0.071748  0.075100  0.039378  1
  H  H8  1  0.315498  0.318412  0.653913  1
  H  H9  1  0.681588  0.684502  0.153913  1
  H  H10  1  0.036022  0.441116  0.857580  1
  H  H11  1  0.558884  0.963978  0.357580  1
  H  H12  1  0.349737  0.748834  0.851292  1
  H  H13  1  0.251166  0.650263  0.351292  1
  H  H14  1  0.704474  0.139572  0.855414  1
  H  H15  1  0.860428  0.295526  0.355414  1
  O  O16  1  0.719179  0.803962  0.492490  1
  O  O17  1  0.196038  0.280821  0.992490  1
  O  O18  1  0.785011  0.270644  0.492539  1
  O  O19  1  0.729356  0.214989  0.992539  1
  O  O20  1  0.258414  0.728774  0.506065  1
  O  O21  1  0.271226  0.741586  0.006065  1
  O  O22  1  0.690445  0.527198  0.650206  1
  O  O23  1  0.472802  0.309555  0.150206  1
  O  O24  1  0.921629  0.911935  0.649695  1
  O  O25  1  0.088065  0.078371  0.149695  1
  O  O26  1  0.313814  0.132793  0.656113  1
  O  O27  1  0.867207  0.686186  0.156113  1
  O  O28  1  0.965678  0.475152  0.792757  1
  O  O29  1  0.524848  0.034322  0.292757  1
  O  O30  1  0.347196  0.863150  0.797027  1
  O  O31  1  0.136850  0.652804  0.297027  1
  O  O32  1  0.739596  0.091059  0.792668  1
  O  O33  1  0.908941  0.260404  0.292668  1
