# generated using pymatgen
data_Li3Ni(BO3)2
_symmetry_space_group_name_H-M   'P 1'
_cell_length_a   5.24363003
_cell_length_b   8.82893462
_cell_length_c   9.30953848
_cell_angle_alpha   90.00000000
_cell_angle_beta   92.34856462
_cell_angle_gamma   90.00000000
_symmetry_Int_Tables_number   1
_chemical_formula_structural   Li3Ni(BO3)2
_chemical_formula_sum   'Li12 Ni4 B8 O24'
_cell_volume   430.62926672
_cell_formula_units_Z   4
loop_
 _symmetry_equiv_pos_site_id
 _symmetry_equiv_pos_as_xyz
  1  'x, y, z'
loop_
 _atom_site_type_symbol
 _atom_site_label
 _atom_site_symmetry_multiplicity
 _atom_site_fract_x
 _atom_site_fract_y
 _atom_site_fract_z
 _atom_site_occupancy
  Li  Li0  1  0.155087  0.978791  0.658967  1
  Li  Li1  1  0.167537  0.659746  0.623305  1
  Li  Li2  1  0.177358  0.991385  0.110152  1
  Li  Li3  1  0.332463  0.159746  0.876695  1
  Li  Li4  1  0.322642  0.491385  0.389848  1
  Li  Li5  1  0.344913  0.478791  0.841033  1
  Li  Li6  1  0.655087  0.521209  0.158967  1
  Li  Li7  1  0.677358  0.508615  0.610152  1
  Li  Li8  1  0.667537  0.840254  0.123305  1
  Li  Li9  1  0.822642  0.008615  0.889848  1
  Li  Li10  1  0.832463  0.340254  0.376695  1
  Li  Li11  1  0.844913  0.021209  0.341033  1
  Ni  Ni12  1  0.142811  0.311059  0.125014  1
  Ni  Ni13  1  0.357189  0.811059  0.374986  1
  Ni  Ni14  1  0.642811  0.188941  0.625014  1
  Ni  Ni15  1  0.857189  0.688941  0.874986  1
  B  B16  1  0.174590  0.318742  0.620165  1
  B  B17  1  0.163267  0.656889  0.130738  1
  B  B18  1  0.325410  0.818742  0.879835  1
  B  B19  1  0.336733  0.156889  0.369262  1
  B  B20  1  0.663267  0.843111  0.630738  1
  B  B21  1  0.674590  0.181258  0.120165  1
  B  B22  1  0.836733  0.343111  0.869262  1
  B  B23  1  0.825410  0.681258  0.379835  1
  O  O24  1  0.090546  0.326138  0.921424  1
  O  O25  1  0.085929  0.673454  0.407022  1
  O  O26  1  0.183911  0.948448  0.883621  1
  O  O27  1  0.215511  0.022198  0.354834  1
  O  O28  1  0.203489  0.289671  0.326722  1
  O  O29  1  0.216757  0.677971  0.848765  1
  O  O30  1  0.283243  0.177971  0.651235  1
  O  O31  1  0.296511  0.789671  0.173278  1
  O  O32  1  0.284489  0.522198  0.145166  1
  O  O33  1  0.316089  0.448448  0.616379  1
  O  O34  1  0.409454  0.826138  0.578576  1
  O  O35  1  0.414071  0.173454  0.092978  1
  O  O36  1  0.585929  0.826546  0.907022  1
  O  O37  1  0.590546  0.173862  0.421424  1
  O  O38  1  0.683911  0.551552  0.383621  1
  O  O39  1  0.715511  0.477802  0.854834  1
  O  O40  1  0.703489  0.210329  0.826722  1
  O  O41  1  0.716757  0.822029  0.348765  1
  O  O42  1  0.783243  0.322029  0.151235  1
  O  O43  1  0.796511  0.710329  0.673278  1
  O  O44  1  0.784489  0.977802  0.645166  1
  O  O45  1  0.816089  0.051552  0.116379  1
  O  O46  1  0.914071  0.326546  0.592978  1
  O  O47  1  0.909454  0.673862  0.078576  1
