# generated using pymatgen
data_Mn8O13F3
_symmetry_space_group_name_H-M   'P 1'
_cell_length_a   7.06395754
_cell_length_b   7.13021594
_cell_length_c   4.99142638
_cell_angle_alpha   89.78267290
_cell_angle_beta   89.86432158
_cell_angle_gamma   101.53322203
_symmetry_Int_Tables_number   1
_chemical_formula_structural   Mn8O13F3
_chemical_formula_sum   'Mn8 O13 F3'
_cell_volume   246.32670393
_cell_formula_units_Z   1
loop_
 _symmetry_equiv_pos_site_id
 _symmetry_equiv_pos_as_xyz
  1  'x, y, z'
loop_
 _atom_site_type_symbol
 _atom_site_label
 _atom_site_symmetry_multiplicity
 _atom_site_fract_x
 _atom_site_fract_y
 _atom_site_fract_z
 _atom_site_occupancy
  Mn  Mn0  1  0.429337  0.066262  0.274910  1
  Mn  Mn1  1  0.079208  0.415186  0.742809  1
  Mn  Mn2  1  0.930795  0.077015  0.244876  1
  Mn  Mn3  1  0.578940  0.432628  0.731145  1
  Mn  Mn4  1  0.420350  0.585443  0.247811  1
  Mn  Mn5  1  0.088347  0.931150  0.764510  1
  Mn  Mn6  1  0.564871  0.927264  0.772782  1
  Mn  Mn7  1  0.920144  0.566604  0.224997  1
  O  O8  1  0.058108  0.170531  0.920917  1
  O  O9  1  0.172730  0.062726  0.430717  1
  O  O10  1  0.671376  0.059166  0.093392  1
  O  O11  1  0.169777  0.559362  0.063227  1
  O  O12  1  0.561242  0.170638  0.592122  1
  O  O13  1  0.328941  0.440706  0.569730  1
  O  O14  1  0.558865  0.670816  0.918424  1
  O  O15  1  0.672702  0.560086  0.404094  1
  O  O16  1  0.332327  0.938027  0.947577  1
  O  O17  1  0.437106  0.833660  0.445399  1
  O  O18  1  0.939853  0.329015  0.410688  1
  O  O19  1  0.829385  0.442098  0.902213  1
  O  O20  1  0.940289  0.829937  0.076113  1
  F  F21  1  0.057289  0.680216  0.562721  1
  F  F22  1  0.439548  0.314938  0.074129  1
  F  F23  1  0.818473  0.936526  0.584694  1
