# generated using pymatgen
data_Li2AlCoO4
_symmetry_space_group_name_H-M   'P 1'
_cell_length_a   6.19974319
_cell_length_b   11.03989403
_cell_length_c   5.18502317
_cell_angle_alpha   90.00257499
_cell_angle_beta   89.99996860
_cell_angle_gamma   89.99995567
_symmetry_Int_Tables_number   1
_chemical_formula_structural   Li2AlCoO4
_chemical_formula_sum   'Li8 Al4 Co4 O16'
_cell_volume   354.88635878
_cell_formula_units_Z   4
loop_
 _symmetry_equiv_pos_site_id
 _symmetry_equiv_pos_as_xyz
  1  'x, y, z'
loop_
 _atom_site_type_symbol
 _atom_site_label
 _atom_site_symmetry_multiplicity
 _atom_site_fract_x
 _atom_site_fract_y
 _atom_site_fract_z
 _atom_site_occupancy
  Li  Li0  1  0.989823  0.330913  0.194998  1
  Li  Li1  1  0.989830  0.830885  0.304983  1
  Li  Li2  1  0.510177  0.330914  0.194998  1
  Li  Li3  1  0.510171  0.830885  0.304987  1
  Li  Li4  1  0.489877  0.169103  0.694950  1
  Li  Li5  1  0.489878  0.669084  0.805084  1
  Li  Li6  1  0.010123  0.669083  0.805086  1
  Li  Li7  1  0.010123  0.169102  0.694950  1
  Al  Al8  1  0.250000  0.078984  0.182160  1
  Al  Al9  1  0.249999  0.578963  0.317856  1
  Al  Al10  1  0.750003  0.421040  0.682170  1
  Al  Al11  1  0.749999  0.921034  0.817818  1
  Co  Co12  1  0.250000  0.418652  0.820810  1
  Co  Co13  1  0.249998  0.918659  0.679169  1
  Co  Co14  1  0.750000  0.081343  0.320781  1
  Co  Co15  1  0.749999  0.581346  0.179242  1
  O  O16  1  0.014572  0.158900  0.283934  1
  O  O17  1  0.014583  0.658884  0.216058  1
  O  O18  1  0.250001  0.071806  0.839098  1
  O  O19  1  0.250000  0.431249  0.186406  1
  O  O20  1  0.250000  0.931256  0.313591  1
  O  O21  1  0.250000  0.571806  0.660911  1
  O  O22  1  0.485428  0.158900  0.283934  1
  O  O23  1  0.485416  0.658885  0.216059  1
  O  O24  1  0.514571  0.841103  0.716057  1
  O  O25  1  0.514582  0.341122  0.783923  1
  O  O26  1  0.750001  0.068746  0.686395  1
  O  O27  1  0.750001  0.428193  0.339104  1
  O  O28  1  0.750000  0.568760  0.813622  1
  O  O29  1  0.750000  0.928178  0.160887  1
  O  O30  1  0.985419  0.341120  0.783923  1
  O  O31  1  0.985428  0.841102  0.716057  1
