# generated using pymatgen
data_LiTiP2O7
_symmetry_space_group_name_H-M   'P 1'
_cell_length_a   6.37747397
_cell_length_b   6.38900146
_cell_length_c   13.21855003
_cell_angle_alpha   78.66479779
_cell_angle_beta   78.28969527
_cell_angle_gamma   100.28073027
_symmetry_Int_Tables_number   1
_chemical_formula_structural   LiTiP2O7
_chemical_formula_sum   'Li4 Ti4 P8 O28'
_cell_volume   503.54919779
_cell_formula_units_Z   4
loop_
 _symmetry_equiv_pos_site_id
 _symmetry_equiv_pos_as_xyz
  1  'x, y, z'
loop_
 _atom_site_type_symbol
 _atom_site_label
 _atom_site_symmetry_multiplicity
 _atom_site_fract_x
 _atom_site_fract_y
 _atom_site_fract_z
 _atom_site_occupancy
  Li  Li0  1  0.384442  0.970960  0.376495  1
  Li  Li1  1  0.152990  0.226682  0.877519  1
  Li  Li2  1  0.850418  0.768944  0.121346  1
  Li  Li3  1  0.608999  0.036468  0.626342  1
  Ti  Ti4  1  0.229941  0.591481  0.645036  1
  Ti  Ti5  1  0.736041  0.878113  0.856213  1
  Ti  Ti6  1  0.262899  0.124645  0.141973  1
  Ti  Ti7  1  0.769145  0.405052  0.356478  1
  P  P8  1  0.225021  0.753798  0.865679  1
  P  P9  1  0.345341  0.668168  0.073577  1
  P  P10  1  0.243268  0.422005  0.425901  1
  P  P11  1  0.879888  0.906480  0.366483  1
  P  P12  1  0.121968  0.093593  0.634482  1
  P  P13  1  0.758212  0.581198  0.573917  1
  P  P14  1  0.654732  0.335143  0.926044  1
  P  P15  1  0.774683  0.248589  0.132156  1
  O  O16  1  0.046525  0.883658  0.886913  1
  O  O17  1  0.208778  0.811965  0.125514  1
  O  O18  1  0.270580  0.934846  0.613461  1
  O  O19  1  0.449879  0.911143  0.813673  1
  O  O20  1  0.087539  0.467030  0.354476  1
  O  O21  1  0.171601  0.572788  0.807898  1
  O  O22  1  0.231450  0.614080  0.980092  1
  O  O23  1  0.306842  0.613040  0.476317  1
  O  O24  1  0.587241  0.784660  0.023650  1
  O  O25  1  0.319175  0.441479  0.144964  1
  O  O26  1  0.096917  0.213663  0.519772  1
  O  O27  1  0.560253  0.662315  0.625999  1
  O  O28  1  0.880945  0.985629  0.692913  1
  O  O29  1  0.227567  0.264844  0.686514  1
  O  O30  1  0.772168  0.731180  0.317443  1
  O  O31  1  0.119260  0.016015  0.306000  1
  O  O32  1  0.439210  0.339374  0.372378  1
  O  O33  1  0.908445  0.790537  0.481424  1
  O  O34  1  0.677763  0.561481  0.854505  1
  O  O35  1  0.412733  0.217738  0.974939  1
  O  O36  1  0.695469  0.389904  0.523450  1
  O  O37  1  0.767160  0.395165  0.019146  1
  O  O38  1  0.826088  0.424590  0.193129  1
  O  O39  1  0.911370  0.534336  0.646476  1
  O  O40  1  0.549944  0.090395  0.181786  1
  O  O41  1  0.731089  0.065282  0.386919  1
  O  O42  1  0.792088  0.191021  0.874727  1
  O  O43  1  0.955143  0.122447  0.107857  1
