# generated using pymatgen
data_Li2Mn(PO3)4
_symmetry_space_group_name_H-M   'P 1'
_cell_length_a   7.49057222
_cell_length_b   11.14232918
_cell_length_c   13.33729993
_cell_angle_alpha   90.00000000
_cell_angle_beta   72.70954930
_cell_angle_gamma   90.00000000
_symmetry_Int_Tables_number   1
_chemical_formula_structural   Li2Mn(PO3)4
_chemical_formula_sum   'Li8 Mn4 P16 O48'
_cell_volume   1062.85988373
_cell_formula_units_Z   4
loop_
 _symmetry_equiv_pos_site_id
 _symmetry_equiv_pos_as_xyz
  1  'x, y, z'
loop_
 _atom_site_type_symbol
 _atom_site_label
 _atom_site_symmetry_multiplicity
 _atom_site_fract_x
 _atom_site_fract_y
 _atom_site_fract_z
 _atom_site_occupancy
  Li  Li0  1  0.109166  0.096971  0.262342  1
  Li  Li1  1  0.390834  0.596971  0.237658  1
  Li  Li2  1  0.193791  0.943083  0.469427  1
  Li  Li3  1  0.306209  0.443083  0.030573  1
  Li  Li4  1  0.693791  0.556917  0.969427  1
  Li  Li5  1  0.806209  0.056917  0.530573  1
  Li  Li6  1  0.609166  0.403029  0.762342  1
  Li  Li7  1  0.890834  0.903029  0.737658  1
  Mn  Mn8  1  0.302635  0.259598  0.667704  1
  Mn  Mn9  1  0.197365  0.759598  0.832296  1
  Mn  Mn10  1  0.802635  0.240402  0.167704  1
  Mn  Mn11  1  0.697365  0.740402  0.332296  1
  P  P12  1  0.955377  0.724980  0.081609  1
  P  P13  1  0.070522  0.383789  0.298234  1
  P  P14  1  0.378008  0.745297  0.024109  1
  P  P15  1  0.121992  0.245297  0.475891  1
  P  P16  1  0.044623  0.275020  0.918390  1
  P  P17  1  0.429478  0.883789  0.201766  1
  P  P18  1  0.185571  0.044647  0.823548  1
  P  P19  1  0.314429  0.544647  0.676452  1
  P  P20  1  0.544623  0.224980  0.418390  1
  P  P21  1  0.455377  0.775020  0.581610  1
  P  P22  1  0.685571  0.455353  0.323548  1
  P  P23  1  0.814429  0.955353  0.176452  1
  P  P24  1  0.570522  0.116211  0.798234  1
  P  P25  1  0.878008  0.754703  0.524109  1
  P  P26  1  0.621992  0.254703  0.975891  1
  P  P27  1  0.929478  0.616211  0.701766  1
  O  O28  1  0.161122  0.758110  0.088299  1
  O  O29  1  0.043060  0.353077  0.421422  1
  O  O30  1  0.244624  0.452274  0.246231  1
  O  O31  1  0.054972  0.123228  0.448130  1
  O  O32  1  0.085210  0.274517  0.589418  1
  O  O33  1  0.445028  0.623228  0.051870  1
  O  O34  1  0.966072  0.731551  0.753065  1
  O  O35  1  0.098758  0.522555  0.684048  1
  O  O36  1  0.255376  0.952274  0.253769  1
  O  O37  1  0.143768  0.340233  0.820266  1
  O  O38  1  0.967015  0.669131  0.976228  1
  O  O39  1  0.456940  0.853077  0.078578  1
  O  O40  1  0.338878  0.258110  0.411701  1
  O  O41  1  0.076994  0.931578  0.861773  1
  O  O42  1  0.130097  0.142005  0.917807  1
  O  O43  1  0.172169  0.095584  0.722080  1
  O  O44  1  0.327831  0.595584  0.777920  1
  O  O45  1  0.585210  0.225483  0.089418  1
  O  O46  1  0.369903  0.642005  0.582193  1
  O  O47  1  0.423006  0.431578  0.638227  1
  O  O48  1  0.466072  0.768449  0.253065  1
  O  O49  1  0.598758  0.977445  0.184048  1
  O  O50  1  0.532985  0.169131  0.523772  1
  O  O51  1  0.356232  0.840233  0.679734  1
  O  O52  1  0.643768  0.159767  0.320266  1
  O  O53  1  0.467015  0.830869  0.476228  1
  O  O54  1  0.401242  0.022555  0.815952  1
  O  O55  1  0.533928  0.231551  0.746935  1
  O  O56  1  0.576994  0.568422  0.361773  1
  O  O57  1  0.630097  0.357995  0.417807  1
  O  O58  1  0.414790  0.774517  0.910582  1
  O  O59  1  0.672169  0.404416  0.222080  1
  O  O60  1  0.827831  0.904416  0.277920  1
  O  O61  1  0.869903  0.857995  0.082193  1
  O  O62  1  0.923006  0.068422  0.138227  1
  O  O63  1  0.661122  0.741890  0.588299  1
  O  O64  1  0.543060  0.146923  0.921422  1
  O  O65  1  0.032985  0.330869  0.023772  1
  O  O66  1  0.856232  0.659767  0.179734  1
  O  O67  1  0.744624  0.047726  0.746231  1
  O  O68  1  0.901242  0.477445  0.315952  1
  O  O69  1  0.033928  0.268449  0.246935  1
  O  O70  1  0.554972  0.376772  0.948130  1
  O  O71  1  0.914790  0.725483  0.410582  1
  O  O72  1  0.945028  0.876772  0.551870  1
  O  O73  1  0.755376  0.547726  0.753769  1
  O  O74  1  0.956940  0.646923  0.578578  1
  O  O75  1  0.838878  0.241890  0.911701  1
