# generated using pymatgen
data_Li3Ni2(CO3)4
_symmetry_space_group_name_H-M   'P 1'
_cell_length_a   6.88485478
_cell_length_b   9.47496392
_cell_length_c   8.37218844
_cell_angle_alpha   90.00000000
_cell_angle_beta   70.06498334
_cell_angle_gamma   90.00000000
_symmetry_Int_Tables_number   1
_chemical_formula_structural   Li3Ni2(CO3)4
_chemical_formula_sum   'Li6 Ni4 C8 O24'
_cell_volume   513.42394962
_cell_formula_units_Z   2
loop_
 _symmetry_equiv_pos_site_id
 _symmetry_equiv_pos_as_xyz
  1  'x, y, z'
loop_
 _atom_site_type_symbol
 _atom_site_label
 _atom_site_symmetry_multiplicity
 _atom_site_fract_x
 _atom_site_fract_y
 _atom_site_fract_z
 _atom_site_occupancy
  Li  Li0  1  0.051130  0.195173  0.081526  1
  Li  Li1  1  0.002184  0.886100  0.348990  1
  Li  Li2  1  0.497816  0.386100  0.151010  1
  Li  Li3  1  0.448870  0.695173  0.418475  1
  Li  Li4  1  0.503436  0.613865  0.847587  1
  Li  Li5  1  0.996564  0.113865  0.652413  1
  Ni  Ni6  1  0.040268  0.385462  0.450833  1
  Ni  Ni7  1  0.459732  0.885462  0.049167  1
  Ni  Ni8  1  0.537836  0.116170  0.949587  1
  Ni  Ni9  1  0.962164  0.616170  0.550413  1
  C  C10  1  0.243801  0.606044  0.224017  1
  C  C11  1  0.256199  0.106044  0.275983  1
  C  C12  1  0.267342  0.490266  0.644081  1
  C  C13  1  0.232657  0.990266  0.855919  1
  C  C14  1  0.770923  0.004499  0.137912  1
  C  C15  1  0.729077  0.504499  0.362088  1
  C  C16  1  0.742262  0.892422  0.729375  1
  C  C17  1  0.757738  0.392422  0.770625  1
  O  O18  1  0.128420  0.154260  0.411143  1
  O  O19  1  0.215596  0.471155  0.244882  1
  O  O20  1  0.149034  0.694119  0.347108  1
  O  O21  1  0.350966  0.194119  0.152892  1
  O  O22  1  0.284404  0.971155  0.255118  1
  O  O23  1  0.371580  0.654260  0.088857  1
  O  O24  1  0.119607  0.982333  0.767211  1
  O  O25  1  0.190387  0.615710  0.625250  1
  O  O26  1  0.231403  0.380918  0.565012  1
  O  O27  1  0.268597  0.880918  0.934988  1
  O  O28  1  0.309613  0.115710  0.874750  1
  O  O29  1  0.594740  0.517641  0.290501  1
  O  O30  1  0.380393  0.482333  0.732789  1
  O  O31  1  0.664902  0.889558  0.151697  1
  O  O32  1  0.748029  0.113391  0.048483  1
  O  O33  1  0.751971  0.613391  0.451517  1
  O  O34  1  0.835098  0.389558  0.348303  1
  O  O35  1  0.905260  0.017642  0.209499  1
  O  O36  1  0.631724  0.344928  0.908968  1
  O  O37  1  0.712377  0.028423  0.746335  1
  O  O38  1  0.645302  0.806369  0.850126  1
  O  O39  1  0.854698  0.306369  0.649874  1
  O  O40  1  0.787623  0.528423  0.753665  1
  O  O41  1  0.868276  0.844928  0.591032  1
