# generated using pymatgen
data_Li2V(CO3)2
_symmetry_space_group_name_H-M   'P 1'
_cell_length_a   9.01279747
_cell_length_b   9.01832785
_cell_length_c   9.01298134
_cell_angle_alpha   113.68453134
_cell_angle_beta   108.09384127
_cell_angle_gamma   106.69956215
_symmetry_Int_Tables_number   1
_chemical_formula_structural   Li2V(CO3)2
_chemical_formula_sum   'Li8 V4 C8 O24'
_cell_volume   561.70626570
_cell_formula_units_Z   4
loop_
 _symmetry_equiv_pos_site_id
 _symmetry_equiv_pos_as_xyz
  1  'x, y, z'
loop_
 _atom_site_type_symbol
 _atom_site_label
 _atom_site_symmetry_multiplicity
 _atom_site_fract_x
 _atom_site_fract_y
 _atom_site_fract_z
 _atom_site_occupancy
  Li  Li0  1  0.874304  0.625006  0.999307  1
  Li  Li1  1  0.816533  0.125008  0.441533  1
  Li  Li2  1  0.719211  0.133828  0.845245  1
  Li  Li3  1  0.678094  0.551904  0.377002  1
  Li  Li4  1  0.211421  0.116170  0.335378  1
  Li  Li5  1  0.179427  0.625012  0.304429  1
  Li  Li6  1  0.325091  0.698100  0.876191  1
  Li  Li7  1  0.124699  0.125000  0.749704  1
  V  V8  1  0.966666  0.841429  0.375839  1
  V  V9  1  0.034422  0.408564  0.875236  1
  V  V10  1  0.526960  0.125001  0.151967  1
  V  V11  1  0.470293  0.624996  0.595296  1
  C  C12  1  0.827806  0.407998  0.143307  1
  C  C13  1  0.737731  0.430939  0.595595  1
  C  C14  1  0.664674  0.819082  0.056809  1
  C  C15  1  0.759977  0.935427  0.604004  1
  C  C16  1  0.335096  0.393103  0.153977  1
  C  C17  1  0.235329  0.842044  0.169837  1
  C  C18  1  0.168575  0.314533  0.574530  1
  C  C19  1  0.260832  0.856869  0.691974  1
  O  O20  1  0.927888  0.430717  0.066041  1
  O  O21  1  0.712506  0.241825  0.074902  1
  O  O22  1  0.852360  0.113291  0.676315  1
  O  O23  1  0.847701  0.550048  0.279899  1
  O  O24  1  0.792611  0.782407  0.115545  1
  O  O25  1  0.723923  0.298941  0.451370  1
  O  O26  1  0.833160  0.467606  0.760213  1
  O  O27  1  0.778188  0.820185  0.479089  1
  O  O28  1  0.662961  0.529551  0.579071  1
  O  O29  1  0.451379  0.336392  0.174218  1
  O  O30  1  0.652462  0.951095  0.175000  1
  O  O31  1  0.333050  0.008181  0.220661  1
  O  O32  1  0.653018  0.887052  0.663165  1
  O  O33  1  0.344638  0.522852  0.296441  1
  O  O34  1  0.549533  0.720504  0.883411  1
  O  O35  1  0.276129  0.362928  0.515959  1
  O  O36  1  0.229860  0.699949  0.047668  1
  O  O37  1  0.273569  0.727128  0.571791  1
  O  O38  1  0.063033  0.136675  0.489042  1
  O  O39  1  0.208734  0.322533  0.988336  1
  O  O40  1  0.135354  0.819318  0.247197  1
  O  O41  1  0.158919  0.429775  0.707995  1
  O  O42  1  0.337752  0.913588  0.864978  1
  O  O43  1  0.165773  0.927448  0.636179  1
