# generated using pymatgen
data_LaTiNO2
_symmetry_space_group_name_H-M   'P 1'
_cell_length_a   5.56376655
_cell_length_b   8.06911916
_cell_length_c   5.57518365
_cell_angle_alpha   90.08900800
_cell_angle_beta   90.00000000
_cell_angle_gamma   90.00000000
_symmetry_Int_Tables_number   1
_chemical_formula_structural   LaTiNO2
_chemical_formula_sum   'La4 Ti4 N4 O8'
_cell_volume   250.29586904
_cell_formula_units_Z   4
loop_
 _symmetry_equiv_pos_site_id
 _symmetry_equiv_pos_as_xyz
  1  'x, y, z'
loop_
 _atom_site_type_symbol
 _atom_site_label
 _atom_site_symmetry_multiplicity
 _atom_site_fract_x
 _atom_site_fract_y
 _atom_site_fract_z
 _atom_site_occupancy
  La  La0  1  0.493520  0.242026  0.001483  1
  La  La1  1  0.495568  0.757673  0.994618  1
  La  La2  1  0.993520  0.757974  0.498517  1
  La  La3  1  0.995568  0.242327  0.505382  1
  Ti  Ti4  1  0.492654  0.002543  0.485423  1
  Ti  Ti5  1  0.496330  0.485025  0.502613  1
  Ti  Ti6  1  0.992654  0.997457  0.014577  1
  Ti  Ti7  1  0.996330  0.514975  0.997387  1
  N  N8  1  0.703706  0.999951  0.198860  1
  N  N9  1  0.499252  0.253285  0.508434  1
  N  N10  1  0.203706  0.000049  0.301140  1
  N  N11  1  0.999252  0.746715  0.991566  1
  O  O12  1  0.803500  0.499050  0.304688  1
  O  O13  1  0.820560  0.999828  0.689860  1
  O  O14  1  0.690796  0.498455  0.808720  1
  O  O15  1  0.504056  0.749224  0.518968  1
  O  O16  1  0.303500  0.500950  0.195312  1
  O  O17  1  0.320560  0.000172  0.810140  1
  O  O18  1  0.190796  0.501545  0.691280  1
  O  O19  1  0.004056  0.250776  0.981032  1
