# generated using pymatgen
data_K2TiSi3(HO5)2
_symmetry_space_group_name_H-M   'P 1'
_cell_length_a   7.22189568
_cell_length_b   10.02585651
_cell_length_c   13.09708337
_cell_angle_alpha   90.00000000
_cell_angle_beta   90.00000000
_cell_angle_gamma   90.00000000
_symmetry_Int_Tables_number   1
_chemical_formula_structural   K2TiSi3(HO5)2
_chemical_formula_sum   'K8 Ti4 Si12 H8 O40'
_cell_volume   948.30335601
_cell_formula_units_Z   4
loop_
 _symmetry_equiv_pos_site_id
 _symmetry_equiv_pos_as_xyz
  1  'x, y, z'
loop_
 _atom_site_type_symbol
 _atom_site_label
 _atom_site_symmetry_multiplicity
 _atom_site_fract_x
 _atom_site_fract_y
 _atom_site_fract_z
 _atom_site_occupancy
  K  K0  1  0.151090  0.793376  0.635743  1
  K  K1  1  0.204653  0.933130  0.921022  1
  K  K2  1  0.295347  0.066870  0.421022  1
  K  K3  1  0.348910  0.206624  0.135743  1
  K  K4  1  0.651090  0.706624  0.364257  1
  K  K5  1  0.704653  0.566870  0.078978  1
  K  K6  1  0.795347  0.433130  0.578978  1
  K  K7  1  0.848910  0.293376  0.864257  1
  Ti  Ti8  1  0.241055  0.454047  0.711439  1
  Ti  Ti9  1  0.258945  0.545953  0.211439  1
  Ti  Ti10  1  0.741055  0.045953  0.288561  1
  Ti  Ti11  1  0.758945  0.954047  0.788561  1
  Si  Si12  1  0.006950  0.820863  0.173839  1
  Si  Si13  1  0.081534  0.142573  0.668357  1
  Si  Si14  1  0.231492  0.537854  0.953195  1
  Si  Si15  1  0.268508  0.462146  0.453195  1
  Si  Si16  1  0.418466  0.857427  0.168357  1
  Si  Si17  1  0.493050  0.179137  0.673839  1
  Si  Si18  1  0.506950  0.679137  0.826161  1
  Si  Si19  1  0.581534  0.357427  0.331643  1
  Si  Si20  1  0.731492  0.962146  0.046805  1
  Si  Si21  1  0.768508  0.037854  0.546805  1
  Si  Si22  1  0.918466  0.642573  0.831643  1
  Si  Si23  1  0.993050  0.320863  0.326161  1
  H  H24  1  0.022215  0.848452  0.393559  1
  H  H25  1  0.160631  0.727944  0.407993  1
  H  H26  1  0.339369  0.272056  0.907993  1
  H  H27  1  0.477785  0.151548  0.893559  1
  H  H28  1  0.522215  0.651548  0.606441  1
  H  H29  1  0.660631  0.772056  0.592007  1
  H  H30  1  0.839369  0.227944  0.092007  1
  H  H31  1  0.977785  0.348452  0.106441  1
  O  O32  1  0.010719  0.559515  0.738276  1
  O  O33  1  0.019612  0.600760  0.941081  1
  O  O34  1  0.049518  0.663260  0.191045  1
  O  O35  1  0.071565  0.302044  0.689380  1
  O  O36  1  0.101856  0.385269  0.229410  1
  O  O37  1  0.123186  0.336898  0.429385  1
  O  O38  1  0.126099  0.816515  0.436941  1
  O  O39  1  0.200710  0.904446  0.149840  1
  O  O40  1  0.229116  0.514223  0.567873  1
  O  O41  1  0.243790  0.576220  0.364727  1
  O  O42  1  0.256210  0.423780  0.864727  1
  O  O43  1  0.270884  0.485777  0.067873  1
  O  O44  1  0.299290  0.095554  0.649840  1
  O  O45  1  0.373901  0.183485  0.936941  1
  O  O46  1  0.376814  0.663102  0.929385  1
  O  O47  1  0.398144  0.614731  0.729410  1
  O  O48  1  0.428435  0.697956  0.189380  1
  O  O49  1  0.450482  0.336740  0.691045  1
  O  O50  1  0.480388  0.399240  0.441081  1
  O  O51  1  0.489281  0.440485  0.238276  1
  O  O52  1  0.510719  0.940485  0.261724  1
  O  O53  1  0.519612  0.899240  0.058919  1
  O  O54  1  0.549518  0.836740  0.808955  1
  O  O55  1  0.571565  0.197956  0.310620  1
  O  O56  1  0.601856  0.114731  0.770590  1
  O  O57  1  0.623186  0.163102  0.570615  1
  O  O58  1  0.626099  0.683485  0.563059  1
  O  O59  1  0.700710  0.595554  0.850160  1
  O  O60  1  0.729116  0.985777  0.432127  1
  O  O61  1  0.743790  0.923780  0.635273  1
  O  O62  1  0.756210  0.076220  0.135273  1
  O  O63  1  0.770884  0.014223  0.932127  1
  O  O64  1  0.799290  0.404446  0.350160  1
  O  O65  1  0.873901  0.316515  0.063059  1
  O  O66  1  0.876814  0.836898  0.070615  1
  O  O67  1  0.898144  0.885269  0.270590  1
  O  O68  1  0.928435  0.802044  0.810620  1
  O  O69  1  0.950482  0.163260  0.308955  1
  O  O70  1  0.980388  0.100760  0.558919  1
  O  O71  1  0.989281  0.059515  0.761724  1
