# generated using pymatgen
data_Li3V4FeO8
_symmetry_space_group_name_H-M   'P 1'
_cell_length_a   10.49508168
_cell_length_b   10.49508121
_cell_length_c   14.82073608
_cell_angle_alpha   19.41819097
_cell_angle_beta   19.41819360
_cell_angle_gamma   33.41837338
_symmetry_Int_Tables_number   1
_chemical_formula_structural   Li3V4FeO8
_chemical_formula_sum   'Li3 V4 Fe1 O8'
_cell_volume   156.69874054
_cell_formula_units_Z   1
loop_
 _symmetry_equiv_pos_site_id
 _symmetry_equiv_pos_as_xyz
  1  'x, y, z'
loop_
 _atom_site_type_symbol
 _atom_site_label
 _atom_site_symmetry_multiplicity
 _atom_site_fract_x
 _atom_site_fract_y
 _atom_site_fract_z
 _atom_site_occupancy
  Li  Li0  1  0.000000  0.500000  0.500000  1
  Li  Li1  1  0.500000  0.000000  0.500000  1
  Li  Li2  1  0.500000  0.500000  0.500000  1
  V  V3  1  0.000000  0.000000  0.500000  1
  V  V4  1  0.000000  0.000000  0.000000  1
  V  V5  1  0.000000  0.500000  0.000000  1
  V  V6  1  0.500000  0.000000  0.000000  1
  Fe  Fe7  1  0.500000  0.500000  0.000000  1
  O  O8  1  0.010276  0.010276  0.244581  1
  O  O9  1  0.976120  0.471450  0.284000  1
  O  O10  1  0.471450  0.976120  0.284000  1
  O  O11  1  0.989724  0.989724  0.755419  1
  O  O12  1  0.528192  0.528192  0.213740  1
  O  O13  1  0.023880  0.528550  0.716000  1
  O  O14  1  0.528550  0.023880  0.716000  1
  O  O15  1  0.471808  0.471808  0.786260  1
