# generated using pymatgen
data_NiH20S2(NO7)2
_symmetry_space_group_name_H-M   'P 1'
_cell_length_a   6.52803470
_cell_length_b   9.06634242
_cell_length_c   12.67032944
_cell_angle_alpha   90.00000000
_cell_angle_beta   90.00000000
_cell_angle_gamma   71.34620119
_symmetry_Int_Tables_number   1
_chemical_formula_structural   NiH20S2(NO7)2
_chemical_formula_sum   'Ni2 H40 S4 N4 O28'
_cell_volume   710.50519774
_cell_formula_units_Z   2
loop_
 _symmetry_equiv_pos_site_id
 _symmetry_equiv_pos_as_xyz
  1  'x, y, z'
loop_
 _atom_site_type_symbol
 _atom_site_label
 _atom_site_symmetry_multiplicity
 _atom_site_fract_x
 _atom_site_fract_y
 _atom_site_fract_z
 _atom_site_occupancy
  Ni  Ni0  1  0.000000  0.000000  0.000000  1
  Ni  Ni1  1  0.000000  0.500000  0.500000  1
  H  H2  1  0.069136  0.230067  0.399143  1
  H  H3  1  0.024386  0.361795  0.310410  1
  H  H4  1  0.088556  0.243862  0.629040  1
  H  H5  1  0.312676  0.103962  0.055957  1
  H  H6  1  0.069136  0.730067  0.100857  1
  H  H7  1  0.024386  0.861795  0.189590  1
  H  H8  1  0.212224  0.433119  0.832318  1
  H  H9  1  0.088556  0.743862  0.870960  1
  H  H10  1  0.308569  0.269131  0.590715  1
  H  H11  1  0.361895  0.322619  0.930257  1
  H  H12  1  0.343330  0.507703  0.545442  1
  H  H13  1  0.419189  0.264467  0.801896  1
  H  H14  1  0.312676  0.603962  0.444043  1
  H  H15  1  0.527838  0.077842  0.347072  1
  H  H16  1  0.212224  0.933119  0.667682  1
  H  H17  1  0.472162  0.422158  0.847072  1
  H  H18  1  0.308569  0.769131  0.909285  1
  H  H19  1  0.580811  0.235533  0.301896  1
  H  H20  1  0.656670  0.992297  0.045442  1
  H  H21  1  0.361895  0.822619  0.569743  1
  H  H22  1  0.638105  0.177381  0.430257  1
  H  H23  1  0.343330  0.007703  0.954558  1
  H  H24  1  0.419189  0.764467  0.698104  1
  H  H25  1  0.691431  0.230869  0.090715  1
  H  H26  1  0.527838  0.577842  0.152928  1
  H  H27  1  0.787776  0.066881  0.332318  1
  H  H28  1  0.472162  0.922158  0.652928  1
  H  H29  1  0.687324  0.396038  0.555957  1
  H  H30  1  0.580811  0.735533  0.198104  1
  H  H31  1  0.656670  0.492297  0.454558  1
  H  H32  1  0.638105  0.677381  0.069743  1
  H  H33  1  0.691431  0.730869  0.409285  1
  H  H34  1  0.911444  0.256138  0.129040  1
  H  H35  1  0.787776  0.566881  0.167682  1
  H  H36  1  0.975614  0.138205  0.810410  1
  H  H37  1  0.930864  0.269933  0.899143  1
  H  H38  1  0.687324  0.896038  0.944043  1
  H  H39  1  0.911444  0.756138  0.370960  1
  H  H40  1  0.975614  0.638205  0.689590  1
  H  H41  1  0.930864  0.769933  0.600857  1
  S  S42  1  0.260760  0.405234  0.138631  1
  S  S43  1  0.260760  0.905234  0.361369  1
  S  S44  1  0.739240  0.094766  0.638631  1
  S  S45  1  0.739240  0.594766  0.861369  1
  N  N46  1  0.364884  0.359834  0.852380  1
  N  N47  1  0.635116  0.140166  0.352380  1
  N  N48  1  0.364884  0.859834  0.647620  1
  N  N49  1  0.635116  0.640166  0.147620  1
  O  O50  1  0.013436  0.158858  0.883708  1
  O  O51  1  0.053000  0.386521  0.178882  1
  O  O52  1  0.214044  0.048065  0.426274  1
  O  O53  1  0.156863  0.323126  0.609630  1
  O  O54  1  0.013436  0.658858  0.616292  1
  O  O55  1  0.053000  0.886521  0.321118  1
  O  O56  1  0.214044  0.548065  0.073726  1
  O  O57  1  0.373123  0.267468  0.068992  1
  O  O58  1  0.303833  0.502485  0.471403  1
  O  O59  1  0.156863  0.823126  0.890370  1
  O  O60  1  0.406515  0.409599  0.227343  1
  O  O61  1  0.593485  0.090401  0.727343  1
  O  O62  1  0.696167  0.997515  0.971403  1
  O  O63  1  0.373123  0.767468  0.431008  1
  O  O64  1  0.626877  0.232532  0.568992  1
  O  O65  1  0.303833  0.002485  0.028597  1
  O  O66  1  0.406515  0.909599  0.272657  1
  O  O67  1  0.593485  0.590401  0.772657  1
  O  O68  1  0.843137  0.176874  0.109630  1
  O  O69  1  0.696167  0.497515  0.528597  1
  O  O70  1  0.626877  0.732532  0.931008  1
  O  O71  1  0.785956  0.451935  0.926274  1
  O  O72  1  0.947000  0.113479  0.678882  1
  O  O73  1  0.986564  0.341142  0.383708  1
  O  O74  1  0.843137  0.676874  0.390370  1
  O  O75  1  0.785956  0.951935  0.573726  1
  O  O76  1  0.947000  0.613479  0.821118  1
  O  O77  1  0.986564  0.841142  0.116292  1
