# generated using pymatgen
data_Li12Nb14ZnO42
_symmetry_space_group_name_H-M   'P 1'
_cell_length_a   9.27631914
_cell_length_b   9.06114347
_cell_length_c   9.89582118
_cell_angle_alpha   81.21982791
_cell_angle_beta   103.60445957
_cell_angle_gamma   80.64092038
_symmetry_Int_Tables_number   1
_chemical_formula_structural   Li12Nb14ZnO42
_chemical_formula_sum   'Li12 Nb14 Zn1 O42'
_cell_volume   781.72162229
_cell_formula_units_Z   1
loop_
 _symmetry_equiv_pos_site_id
 _symmetry_equiv_pos_as_xyz
  1  'x, y, z'
loop_
 _atom_site_type_symbol
 _atom_site_label
 _atom_site_symmetry_multiplicity
 _atom_site_fract_x
 _atom_site_fract_y
 _atom_site_fract_z
 _atom_site_occupancy
  Li  Li0  1  0.048791  0.684260  0.854940  1
  Li  Li1  1  0.191263  0.395963  0.425240  1
  Li  Li2  1  0.406999  0.471224  0.783745  1
  Li  Li3  1  0.262136  0.754065  0.210326  1
  Li  Li4  1  0.476012  0.825803  0.568861  1
  Li  Li5  1  0.548571  0.182445  0.353536  1
  Li  Li6  1  0.693277  0.895879  0.926307  1
  Li  Li7  1  0.765233  0.253601  0.712255  1
  Li  Li8  1  0.619967  0.540584  0.138534  1
  Li  Li9  1  0.834261  0.612336  0.496726  1
  Li  Li10  1  0.905385  0.969271  0.282177  1
  Li  Li11  1  0.975406  0.325080  0.068867  1
  Nb  Nb12  1  0.078613  0.355871  0.792401  1
  Nb  Nb13  1  0.142555  0.708013  0.572707  1
  Nb  Nb14  1  0.215972  0.071197  0.355023  1
  Nb  Nb15  1  0.357886  0.787004  0.930388  1
  Nb  Nb16  1  0.431707  0.144990  0.718551  1
  Nb  Nb17  1  0.287867  0.426436  0.143553  1
  Nb  Nb18  1  0.500926  0.501369  0.499344  1
  Nb  Nb19  1  0.715061  0.570488  0.856680  1
  Nb  Nb20  1  0.570664  0.858079  0.282690  1
  Nb  Nb21  1  0.638735  0.211732  0.068122  1
  Nb  Nb22  1  0.779986  0.929672  0.642193  1
  Nb  Nb23  1  0.853444  0.289885  0.425588  1
  Nb  Nb24  1  0.928527  0.643732  0.212940  1
  Nb  Nb25  1  0.000358  0.002037  -0.000405  1
  Zn  Zn26  1  0.117448  0.040308  0.640523  1
  O  O27  1  0.089133  0.167480  0.950671  1
  O  O28  1  0.026817  0.555617  0.669428  1
  O  O29  1  0.130486  0.460244  0.969467  1
  O  O30  1  0.137266  0.834173  0.973988  1
  O  O31  1  0.281411  0.303506  0.788255  1
  O  O32  1  0.168873  0.269495  0.240101  1
  O  O33  1  0.272973  0.172334  0.543796  1
  O  O34  1  0.137810  0.583868  0.224427  1
  O  O35  1  0.273220  0.674854  0.792581  1
  O  O36  1  0.130687  0.959381  0.221172  1
  O  O37  1  0.281558  0.546219  0.544611  1
  O  O38  1  0.239489  0.875912  0.527039  1
  O  O39  1  0.308023  0.981535  0.803466  1
  O  O40  1  0.424993  0.011822  0.367862  1
  O  O41  1  0.563847  0.099999  0.930142  1
  O  O42  1  0.416641  0.388603  0.364384  1
  O  O43  1  0.528339  0.304524  0.667713  1
  O  O44  1  0.597855  0.411357  0.953878  1
  O  O45  1  0.430065  0.266611  0.121817  1
  O  O46  1  0.565823  0.727919  0.937909  1
  O  O47  1  0.383448  0.590096  0.096144  1
  O  O48  1  0.455480  0.697895  0.383580  1
  O  O49  1  0.558054  0.602533  0.684270  1
  O  O50  1  0.418508  0.879508  0.115448  1
  O  O51  1  0.566753  0.976540  0.687498  1
  O  O52  1  0.670340  0.020058  0.239856  1
  O  O53  1  0.741142  0.126515  0.525806  1
  O  O54  1  0.844869  0.031052  0.827487  1
  O  O55  1  0.711481  0.439831  0.510686  1
  O  O56  1  0.702957  0.319063  0.255175  1
  O  O57  1  0.702763  0.816238  0.506821  1
  O  O58  1  0.850405  0.406277  0.828851  1
  O  O59  1  0.813058  0.733227  0.811225  1
  O  O60  1  0.710327  0.689855  0.260610  1
  O  O61  1  0.850527  0.154452  0.082715  1
  O  O62  1  0.991167  0.242277  0.652151  1
  O  O63  1  0.844577  0.531237  0.077202  1
  O  O64  1  0.995377  0.118350  0.405686  1
  O  O65  1  0.956537  0.447623  0.383434  1
  O  O66  1  0.995332  0.873351  0.653694  1
  O  O67  1  0.883086  0.840885  0.097080  1
  O  O68  1  0.988180  0.745227  0.399801  1
