# generated using pymatgen
data_LiFeF4
_symmetry_space_group_name_H-M   'P 1'
_cell_length_a   9.76480609
_cell_length_b   8.44636205
_cell_length_c   6.98886595
_cell_angle_alpha   101.37478563
_cell_angle_beta   107.23370065
_cell_angle_gamma   96.77227254
_symmetry_Int_Tables_number   1
_chemical_formula_structural   LiFeF4
_chemical_formula_sum   'Li6 Fe6 F24'
_cell_volume   530.06919042
_cell_formula_units_Z   6
loop_
 _symmetry_equiv_pos_site_id
 _symmetry_equiv_pos_as_xyz
  1  'x, y, z'
loop_
 _atom_site_type_symbol
 _atom_site_label
 _atom_site_symmetry_multiplicity
 _atom_site_fract_x
 _atom_site_fract_y
 _atom_site_fract_z
 _atom_site_occupancy
  Li  Li0  1  0.008238  0.807976  0.961211  1
  Li  Li1  1  0.218646  0.385502  0.467592  1
  Li  Li2  1  0.411357  0.197094  0.750749  1
  Li  Li3  1  0.588643  0.802906  0.249251  1
  Li  Li4  1  0.781354  0.614497  0.532408  1
  Li  Li5  1  0.991762  0.192024  0.038789  1
  Fe  Fe6  1  0.124892  0.796719  0.523866  1
  Fe  Fe7  1  0.258470  0.496102  0.005888  1
  Fe  Fe8  1  0.342851  0.099028  0.196821  1
  Fe  Fe9  1  0.657149  0.900972  0.803179  1
  Fe  Fe10  1  0.741530  0.503898  0.994112  1
  Fe  Fe11  1  0.875108  0.203281  0.476134  1
  F  F12  1  0.143503  0.649200  0.947584  1
  F  F13  1  0.037181  0.805571  0.255585  1
  F  F14  1  0.024749  0.233575  0.363970  1
  F  F15  1  0.258454  0.986696  0.663934  1
  F  F16  1  0.216182  0.616877  0.519493  1
  F  F17  1  0.256635  0.366896  0.757195  1
  F  F18  1  0.180574  0.364454  0.150038  1
  F  F19  1  0.146870  0.020064  0.041906  1
  F  F20  1  0.351886  0.231535  0.448946  1
  F  F21  1  0.429487  0.927019  0.260492  1
  F  F22  1  0.564184  0.788716  0.943917  1
  F  F23  1  0.441132  0.596189  0.176706  1
  F  F24  1  0.558868  0.403811  0.823294  1
  F  F25  1  0.435816  0.211284  0.056083  1
  F  F26  1  0.570513  0.072981  0.739508  1
  F  F27  1  0.648114  0.768465  0.551054  1
  F  F28  1  0.853130  0.979936  0.958094  1
  F  F29  1  0.819426  0.635546  0.849962  1
  F  F30  1  0.743365  0.633104  0.242805  1
  F  F31  1  0.783818  0.383123  0.480507  1
  F  F32  1  0.741546  0.013304  0.336066  1
  F  F33  1  0.975251  0.766425  0.636030  1
  F  F34  1  0.962819  0.194429  0.744415  1
  F  F35  1  0.856497  0.350800  0.052416  1
