# generated using pymatgen
data_Sn2(SO4)3
_symmetry_space_group_name_H-M   'P 1'
_cell_length_a   8.72457698
_cell_length_b   12.63207720
_cell_length_c   9.28731516
_cell_angle_alpha   90.00000000
_cell_angle_beta   90.00000000
_cell_angle_gamma   90.35115127
_symmetry_Int_Tables_number   1
_chemical_formula_structural   Sn2(SO4)3
_chemical_formula_sum   'Sn8 S12 O48'
_cell_volume   1023.53141532
_cell_formula_units_Z   4
loop_
 _symmetry_equiv_pos_site_id
 _symmetry_equiv_pos_as_xyz
  1  'x, y, z'
loop_
 _atom_site_type_symbol
 _atom_site_label
 _atom_site_symmetry_multiplicity
 _atom_site_fract_x
 _atom_site_fract_y
 _atom_site_fract_z
 _atom_site_occupancy
  Sn  Sn0  1  0.253677  0.890596  0.034254  1
  Sn  Sn1  1  0.246323  0.609404  0.534254  1
  Sn  Sn2  1  0.256253  0.381438  0.971543  1
  Sn  Sn3  1  0.243747  0.118562  0.471543  1
  Sn  Sn4  1  0.756253  0.881438  0.528457  1
  Sn  Sn5  1  0.743747  0.618562  0.028457  1
  Sn  Sn6  1  0.753677  0.390596  0.465746  1
  Sn  Sn7  1  0.746323  0.109404  0.965746  1
  S  S8  1  0.047686  0.486125  0.265440  1
  S  S9  1  0.113843  0.825924  0.363882  1
  S  S10  1  0.100244  0.139179  0.101484  1
  S  S11  1  0.386157  0.674076  0.863882  1
  S  S12  1  0.399756  0.360821  0.601484  1
  S  S13  1  0.452314  0.013875  0.765440  1
  S  S14  1  0.547686  0.986125  0.234560  1
  S  S15  1  0.600244  0.639179  0.398516  1
  S  S16  1  0.613843  0.325924  0.136118  1
  S  S17  1  0.899756  0.860821  0.898516  1
  S  S18  1  0.886157  0.174076  0.636118  1
  S  S19  1  0.952314  0.513875  0.734560  1
  O  O20  1  0.032650  0.458841  0.850180  1
  O  O21  1  0.060036  0.909800  0.903821  1
  O  O22  1  0.054995  0.599004  0.668697  1
  O  O23  1  0.039435  0.216411  0.609132  1
  O  O24  1  0.085409  0.567945  0.379308  1
  O  O25  1  0.151410  0.808617  0.204570  1
  O  O26  1  0.132325  0.937298  0.401687  1
  O  O27  1  0.116793  0.216565  0.984689  1
  O  O28  1  0.125852  0.183616  0.244497  1
  O  O29  1  0.187362  0.432670  0.218660  1
  O  O30  1  0.232594  0.762881  0.449554  1
  O  O31  1  0.267406  0.737119  0.949554  1
  O  O32  1  0.214108  0.050356  0.079261  1
  O  O33  1  0.285892  0.449644  0.579261  1
  O  O34  1  0.312638  0.067330  0.718660  1
  O  O35  1  0.374148  0.316384  0.744497  1
  O  O36  1  0.367675  0.562702  0.901687  1
  O  O37  1  0.383207  0.283435  0.484689  1
  O  O38  1  0.348590  0.691383  0.704570  1
  O  O39  1  0.414591  0.932055  0.879309  1
  O  O40  1  0.445005  0.900996  0.168697  1
  O  O41  1  0.439964  0.590200  0.403821  1
  O  O42  1  0.460565  0.283589  0.109132  1
  O  O43  1  0.467350  0.041159  0.350180  1
  O  O44  1  0.532650  0.958841  0.649820  1
  O  O45  1  0.539435  0.716411  0.890868  1
  O  O46  1  0.560036  0.409800  0.596179  1
  O  O47  1  0.554995  0.099004  0.831303  1
  O  O48  1  0.585409  0.067945  0.120691  1
  O  O49  1  0.651410  0.308617  0.295430  1
  O  O50  1  0.616793  0.716565  0.515311  1
  O  O51  1  0.632325  0.437298  0.098313  1
  O  O52  1  0.625852  0.683616  0.255503  1
  O  O53  1  0.687362  0.932670  0.281340  1
  O  O54  1  0.714108  0.550356  0.420739  1
  O  O55  1  0.785892  0.949644  0.920739  1
  O  O56  1  0.732594  0.262881  0.050446  1
  O  O57  1  0.767406  0.237119  0.550446  1
  O  O58  1  0.812638  0.567330  0.781340  1
  O  O59  1  0.874148  0.816384  0.755503  1
  O  O60  1  0.883207  0.783435  0.015311  1
  O  O61  1  0.867675  0.062702  0.598313  1
  O  O62  1  0.848590  0.191383  0.795430  1
  O  O63  1  0.914591  0.432055  0.620691  1
  O  O64  1  0.960565  0.783589  0.390868  1
  O  O65  1  0.945005  0.400996  0.331303  1
  O  O66  1  0.939964  0.090200  0.096179  1
  O  O67  1  0.967350  0.541159  0.149820  1
