# generated using pymatgen
data_ZnSeO4
_symmetry_space_group_name_H-M   'P 1'
_cell_length_a   7.20527656
_cell_length_b   5.80977647
_cell_length_c   7.09942853
_cell_angle_alpha   90.00000000
_cell_angle_beta   90.00000000
_cell_angle_gamma   90.00000000
_symmetry_Int_Tables_number   1
_chemical_formula_structural   ZnSeO4
_chemical_formula_sum   'Zn4 Se4 O16'
_cell_volume   297.18950582
_cell_formula_units_Z   4
loop_
 _symmetry_equiv_pos_site_id
 _symmetry_equiv_pos_as_xyz
  1  'x, y, z'
loop_
 _atom_site_type_symbol
 _atom_site_label
 _atom_site_symmetry_multiplicity
 _atom_site_fract_x
 _atom_site_fract_y
 _atom_site_fract_z
 _atom_site_occupancy
  Zn  Zn0  1  0.187825  0.250000  0.222740  1
  Zn  Zn1  1  0.312175  0.750000  0.722740  1
  Zn  Zn2  1  0.687825  0.250000  0.277260  1
  Zn  Zn3  1  0.812175  0.750000  0.777260  1
  Se  Se4  1  0.003063  0.250000  0.647502  1
  Se  Se5  1  0.496937  0.750000  0.147502  1
  Se  Se6  1  0.503063  0.250000  0.852498  1
  Se  Se7  1  0.996937  0.750000  0.352498  1
  O  O8  1  0.014186  0.008996  0.779554  1
  O  O9  1  0.014186  0.491004  0.779554  1
  O  O10  1  0.200213  0.750000  0.466864  1
  O  O11  1  0.193327  0.250000  0.509946  1
  O  O12  1  0.306673  0.750000  0.009946  1
  O  O13  1  0.299787  0.250000  0.966864  1
  O  O14  1  0.485814  0.991004  0.279554  1
  O  O15  1  0.485814  0.508996  0.279554  1
  O  O16  1  0.514186  0.008996  0.720446  1
  O  O17  1  0.514186  0.491004  0.720446  1
  O  O18  1  0.700213  0.750000  0.033136  1
  O  O19  1  0.693327  0.250000  0.990054  1
  O  O20  1  0.806673  0.750000  0.490054  1
  O  O21  1  0.799787  0.250000  0.533136  1
  O  O22  1  0.985814  0.508996  0.220446  1
  O  O23  1  0.985814  0.991004  0.220446  1
