# generated using pymatgen
data_Na9(WO3)13
_symmetry_space_group_name_H-M   'P 1'
_cell_length_a   11.75967747
_cell_length_b   13.00275729
_cell_length_c   5.54417936
_cell_angle_alpha   89.99786270
_cell_angle_beta   76.37055425
_cell_angle_gamma   72.44713025
_symmetry_Int_Tables_number   1
_chemical_formula_structural   Na9(WO3)13
_chemical_formula_sum   'Na9 W13 O39'
_cell_volume   783.20618351
_cell_formula_units_Z   1
loop_
 _symmetry_equiv_pos_site_id
 _symmetry_equiv_pos_as_xyz
  1  'x, y, z'
loop_
 _atom_site_type_symbol
 _atom_site_label
 _atom_site_symmetry_multiplicity
 _atom_site_fract_x
 _atom_site_fract_y
 _atom_site_fract_z
 _atom_site_occupancy
  Na  Na0  1  0.772094  0.152368  0.619942  1
  Na  Na1  1  0.149507  0.233393  0.926050  1
  Na  Na2  1  0.535615  0.310607  0.234522  1
  Na  Na3  1  0.388630  0.075043  0.308546  1
  Na  Na4  1  0.461568  0.689151  0.770348  1
  Na  Na5  1  0.845118  0.772394  0.071204  1
  Na  Na6  1  0.694664  0.536533  0.158757  1
  Na  Na7  1  0.077641  0.610872  0.460891  1
  Na  Na8  1  0.231893  0.846090  0.385786  1
  W  W9  1  0.848875  0.267781  0.075722  1
  W  W10  1  0.616968  0.421807  0.691143  1
  W  W11  1  0.921952  0.886597  0.538705  1
  W  W12  1  0.461581  0.192085  0.769588  1
  W  W13  1  0.693414  0.037297  0.153604  1
  W  W14  1  0.770267  0.653724  0.613602  1
  W  W15  1  0.384053  0.575342  0.307407  1
  W  W16  1  0.229635  0.347318  0.384446  1
  W  W17  1  0.076057  0.115608  0.462815  1
  W  W18  1  0.152520  0.731028  0.923177  1
  W  W19  1  0.307562  0.961478  0.846766  1
  W  W20  1  0.540045  0.808452  0.229146  1
  W  W21  1  0.000895  0.498053  0.998204  1
  O  O22  1  0.963495  0.191189  0.770888  1
  O  O23  1  0.730820  0.344550  0.884365  1
  O  O24  1  0.961589  0.191957  0.271137  1
  O  O25  1  0.575589  0.117447  0.966514  1
  O  O26  1  0.883956  0.577846  0.808925  1
  O  O27  1  0.383079  0.077746  0.809968  1
  O  O28  1  0.576752  0.116466  0.460656  1
  O  O29  1  0.767712  0.154758  0.114180  1
  O  O30  1  0.806869  0.961471  0.845926  1
  O  O31  1  0.542146  0.305157  0.727805  1
  O  O32  1  0.654631  0.728931  0.923529  1
  O  O33  1  0.728927  0.345390  0.381029  1
  O  O34  1  0.689812  0.539977  0.652151  1
  O  O35  1  0.924338  0.383486  0.037749  1
  O  O36  1  0.884114  0.578375  0.303922  1
  O  O37  1  0.848494  0.767654  0.575877  1
  O  O38  1  0.655242  0.729133  0.418374  1
  O  O39  1  0.501667  0.499914  0.497636  1
  O  O40  1  0.195130  0.038992  0.651006  1
  O  O41  1  0.346773  0.266939  0.573858  1
  O  O42  1  0.807577  0.961793  0.346172  1
  O  O43  1  0.346927  0.268045  0.078322  1
  O  O44  1  0.000035  0.000205  0.500661  1
  O  O45  1  0.195584  0.038709  0.156299  1
  O  O46  1  0.155746  0.229737  0.421674  1
  O  O47  1  0.074194  0.617012  0.961162  1
  O  O48  1  0.268734  0.656894  0.610909  1
  O  O49  1  0.307818  0.461613  0.347120  1
  O  O50  1  0.115230  0.423673  0.690345  1
  O  O51  1  0.503062  0.498560  0.002047  1
  O  O52  1  0.463438  0.690904  0.266402  1
  O  O53  1  0.421335  0.883741  0.536133  1
  O  O54  1  0.615498  0.922847  0.191750  1
  O  O55  1  0.232001  0.845135  0.884142  1
  O  O56  1  0.037792  0.806125  0.729306  1
  O  O57  1  0.269526  0.655156  0.115583  1
  O  O58  1  0.116167  0.423510  0.190357  1
  O  O59  1  0.421645  0.883048  0.040655  1
  O  O60  1  0.038342  0.805599  0.233037  1
