# generated using pymatgen
data_LiNiPO4
_symmetry_space_group_name_H-M   'P 1'
_cell_length_a   5.00599120
_cell_length_b   9.14311844
_cell_length_c   8.11732314
_cell_angle_alpha   90.00000000
_cell_angle_beta   90.00000000
_cell_angle_gamma   89.11208516
_symmetry_Int_Tables_number   1
_chemical_formula_structural   LiNiPO4
_chemical_formula_sum   'Li4 Ni4 P4 O16'
_cell_volume   371.48827460
_cell_formula_units_Z   4
loop_
 _symmetry_equiv_pos_site_id
 _symmetry_equiv_pos_as_xyz
  1  'x, y, z'
loop_
 _atom_site_type_symbol
 _atom_site_label
 _atom_site_symmetry_multiplicity
 _atom_site_fract_x
 _atom_site_fract_y
 _atom_site_fract_z
 _atom_site_occupancy
  Li  Li0  1  0.323888  0.622463  0.044781  1
  Li  Li1  1  0.176112  0.877537  0.544781  1
  Li  Li2  1  0.823888  0.122463  0.455219  1
  Li  Li3  1  0.676112  0.377537  0.955219  1
  Ni  Ni4  1  0.252778  0.415753  0.328233  1
  Ni  Ni5  1  0.247222  0.084247  0.828233  1
  Ni  Ni6  1  0.752778  0.915753  0.171767  1
  Ni  Ni7  1  0.747222  0.584247  0.671767  1
  P  P8  1  0.244888  0.074627  0.251615  1
  P  P9  1  0.255112  0.425373  0.751615  1
  P  P10  1  0.744888  0.574627  0.248385  1
  P  P11  1  0.755112  0.925373  0.748385  1
  O  O12  1  0.036888  0.551866  0.187301  1
  O  O13  1  0.067898  0.948241  0.322734  1
  O  O14  1  0.116680  0.216634  0.322762  1
  O  O15  1  0.264055  0.429432  0.563978  1
  O  O16  1  0.235945  0.070568  0.063978  1
  O  O17  1  0.383320  0.283366  0.822762  1
  O  O18  1  0.432102  0.551759  0.822734  1
  O  O19  1  0.463112  0.948134  0.687301  1
  O  O20  1  0.536888  0.051866  0.312699  1
  O  O21  1  0.567898  0.448241  0.177266  1
  O  O22  1  0.616680  0.716634  0.177238  1
  O  O23  1  0.764055  0.929432  0.936022  1
  O  O24  1  0.735945  0.570568  0.436022  1
  O  O25  1  0.883320  0.783366  0.677238  1
  O  O26  1  0.932102  0.051759  0.677266  1
  O  O27  1  0.963112  0.448134  0.812699  1
