# generated using pymatgen
data_Mn3Cr2Ni(PO4)6
_symmetry_space_group_name_H-M   'P 1'
_cell_length_a   8.40484993
_cell_length_b   8.40485053
_cell_length_c   8.40485036
_cell_angle_alpha   61.64954691
_cell_angle_beta   61.64954344
_cell_angle_gamma   61.64954191
_symmetry_Int_Tables_number   1
_chemical_formula_structural   Mn3Cr2Ni(PO4)6
_chemical_formula_sum   'Mn3 Cr2 Ni1 P6 O24'
_cell_volume   435.36059356
_cell_formula_units_Z   1
loop_
 _symmetry_equiv_pos_site_id
 _symmetry_equiv_pos_as_xyz
  1  'x, y, z'
loop_
 _atom_site_type_symbol
 _atom_site_label
 _atom_site_symmetry_multiplicity
 _atom_site_fract_x
 _atom_site_fract_y
 _atom_site_fract_z
 _atom_site_occupancy
  Mn  Mn0  1  0.143902  0.143902  0.143902  1
  Mn  Mn1  1  0.356409  0.356409  0.356409  1
  Mn  Mn2  1  0.644820  0.644820  0.644820  1
  Cr  Cr3  1  0.998714  0.998714  0.998714  1
  Cr  Cr4  1  0.500243  0.500243  0.500243  1
  Ni  Ni5  1  0.856597  0.856597  0.856597  1
  P  P6  1  0.046413  0.750445  0.452492  1
  P  P7  1  0.452492  0.046413  0.750445  1
  P  P8  1  0.750445  0.452492  0.046413  1
  P  P9  1  0.249498  0.547507  0.954958  1
  P  P10  1  0.547507  0.954958  0.249498  1
  P  P11  1  0.954958  0.249498  0.547507  1
  O  O12  1  0.113549  0.321830  0.503720  1
  O  O13  1  0.321830  0.503720  0.113549  1
  O  O14  1  0.065911  0.901383  0.245645  1
  O  O15  1  0.503720  0.113549  0.321830  1
  O  O16  1  0.015690  0.817928  0.603801  1
  O  O17  1  0.252022  0.588087  0.436837  1
  O  O18  1  0.245645  0.065911  0.901383  1
  O  O19  1  0.436837  0.252022  0.588087  1
  O  O20  1  0.180853  0.393121  0.989295  1
  O  O21  1  0.588087  0.436837  0.252022  1
  O  O22  1  0.098648  0.750554  0.939753  1
  O  O23  1  0.393121  0.989295  0.180853  1
  O  O24  1  0.603801  0.015690  0.817928  1
  O  O25  1  0.901383  0.245645  0.065911  1
  O  O26  1  0.408681  0.559232  0.751881  1
  O  O27  1  0.817928  0.603801  0.015690  1
  O  O28  1  0.559232  0.751881  0.408681  1
  O  O29  1  0.750554  0.939753  0.098648  1
  O  O30  1  0.751881  0.408681  0.559232  1
  O  O31  1  0.989295  0.180853  0.393121  1
  O  O32  1  0.487043  0.891810  0.680725  1
  O  O33  1  0.939753  0.098648  0.750554  1
  O  O34  1  0.680725  0.487043  0.891810  1
  O  O35  1  0.891810  0.680725  0.487043  1
