# generated using pymatgen
data_MnFeH14O7F5
_symmetry_space_group_name_H-M   'P 1'
_cell_length_a   9.14223513
_cell_length_b   9.14223513
_cell_length_c   13.42187741
_cell_angle_alpha   81.83824120
_cell_angle_beta   98.16175880
_cell_angle_gamma   79.27262496
_symmetry_Int_Tables_number   1
_chemical_formula_structural   MnFeH14O7F5
_chemical_formula_sum   'Mn4 Fe4 H56 O28 F20'
_cell_volume   1074.55982430
_cell_formula_units_Z   4
loop_
 _symmetry_equiv_pos_site_id
 _symmetry_equiv_pos_as_xyz
  1  'x, y, z'
loop_
 _atom_site_type_symbol
 _atom_site_label
 _atom_site_symmetry_multiplicity
 _atom_site_fract_x
 _atom_site_fract_y
 _atom_site_fract_z
 _atom_site_occupancy
  Mn  Mn0  1  0.999798  0.999798  0.750000  1
  Mn  Mn1  1  0.000202  0.000202  0.250000  1
  Mn  Mn2  1  0.495775  0.495775  0.750000  1
  Mn  Mn3  1  0.504225  0.504225  0.250000  1
  Fe  Fe4  1  0.000000  0.500000  0.500000  1
  Fe  Fe5  1  0.500000  0.000000  0.000000  1
  Fe  Fe6  1  0.000000  0.500000  0.000000  1
  Fe  Fe7  1  0.500000  0.000000  0.500000  1
  H  H8  1  0.938895  0.732272  0.605196  1
  H  H9  1  0.732272  0.938895  0.894804  1
  H  H10  1  0.061105  0.267728  0.394804  1
  H  H11  1  0.267728  0.061105  0.105196  1
  H  H12  1  0.830824  0.796985  0.500507  1
  H  H13  1  0.796985  0.830824  0.999493  1
  H  H14  1  0.169176  0.203015  0.499493  1
  H  H15  1  0.203015  0.169176  0.000507  1
  H  H16  1  0.808142  0.075051  0.558101  1
  H  H17  1  0.075051  0.808142  0.941899  1
  H  H18  1  0.191858  0.924949  0.441899  1
  H  H19  1  0.924949  0.191858  0.058101  1
  H  H20  1  0.850477  0.228806  0.589853  1
  H  H21  1  0.228806  0.850477  0.910147  1
  H  H22  1  0.149523  0.771194  0.410147  1
  H  H23  1  0.771194  0.149523  0.089853  1
  H  H24  1  0.193290  0.757916  0.695172  1
  H  H25  1  0.757916  0.193290  0.804828  1
  H  H26  1  0.806710  0.242084  0.304828  1
  H  H27  1  0.242084  0.806710  0.195172  1
  H  H28  1  0.191289  0.901575  0.611513  1
  H  H29  1  0.901575  0.191289  0.888487  1
  H  H30  1  0.808711  0.098425  0.388487  1
  H  H31  1  0.098425  0.808711  0.111513  1
  H  H32  1  0.252954  0.129449  0.792278  1
  H  H33  1  0.129449  0.252954  0.707722  1
  H  H34  1  0.747046  0.870551  0.207722  1
  H  H35  1  0.870551  0.747046  0.292278  1
  H  H36  1  0.872986  0.746195  0.793124  1
  H  H37  1  0.746195  0.872986  0.706876  1
  H  H38  1  0.127014  0.253805  0.206876  1
  H  H39  1  0.253805  0.127014  0.293124  1
  H  H40  1  0.664561  0.470324  0.950476  1
  H  H41  1  0.470324  0.664561  0.549524  1
  H  H42  1  0.335439  0.529676  0.049524  1
  H  H43  1  0.529676  0.335439  0.450476  1
  H  H44  1  0.569456  0.340601  0.947836  1
  H  H45  1  0.340601  0.569456  0.552164  1
  H  H46  1  0.430544  0.659399  0.052164  1
  H  H47  1  0.659399  0.430544  0.447836  1
  H  H48  1  0.495637  0.194768  0.770769  1
  H  H49  1  0.194768  0.495637  0.729231  1
  H  H50  1  0.504363  0.805232  0.229231  1
  H  H51  1  0.805232  0.504363  0.270769  1
  H  H52  1  0.521461  0.238647  0.654551  1
  H  H53  1  0.238647  0.521461  0.845449  1
  H  H54  1  0.478539  0.761353  0.345449  1
  H  H55  1  0.761353  0.478539  0.154551  1
  H  H56  1  0.770001  0.523502  0.740790  1
  H  H57  1  0.523502  0.770001  0.759210  1
  H  H58  1  0.229999  0.476498  0.259210  1
  H  H59  1  0.476498  0.229999  0.240790  1
  H  H60  1  0.733553  0.514394  0.687376  1
  H  H61  1  0.514394  0.733553  0.812624  1
  H  H62  1  0.266447  0.485606  0.312624  1
  H  H63  1  0.485606  0.266447  0.187376  1
  O  O64  1  0.872255  0.118195  0.607712  1
  O  O65  1  0.118195  0.872255  0.892288  1
  O  O66  1  0.127745  0.881805  0.392288  1
  O  O67  1  0.881805  0.127745  0.107712  1
  O  O68  1  0.150815  0.150815  0.750000  1
  O  O69  1  0.849185  0.849185  0.250000  1
  O  O70  1  0.849519  0.849519  0.750000  1
  O  O71  1  0.150481  0.150481  0.250000  1
  O  O72  1  0.128155  0.848763  0.653045  1
  O  O73  1  0.848763  0.128155  0.846955  1
  O  O74  1  0.871845  0.151237  0.346955  1
  O  O75  1  0.151237  0.871845  0.153045  1
  O  O76  1  0.586495  0.433375  0.905907  1
  O  O77  1  0.433375  0.586495  0.594093  1
  O  O78  1  0.413505  0.566625  0.094093  1
  O  O79  1  0.566625  0.413505  0.405907  1
  O  O80  1  0.540880  0.263199  0.725189  1
  O  O81  1  0.263199  0.540880  0.774811  1
  O  O82  1  0.459120  0.736801  0.274811  1
  O  O83  1  0.736801  0.459120  0.225189  1
  O  O84  1  0.910332  0.325865  0.740508  1
  O  O85  1  0.325865  0.910332  0.759492  1
  O  O86  1  0.089668  0.674135  0.259492  1
  O  O87  1  0.674135  0.089668  0.240508  1
  O  O88  1  0.903249  0.705068  0.539993  1
  O  O89  1  0.705068  0.903249  0.960007  1
  O  O90  1  0.096751  0.294932  0.460007  1
  O  O91  1  0.294932  0.096751  0.039993  1
  F  F92  1  0.896336  0.576009  0.358916  1
  F  F93  1  0.576009  0.896336  0.141084  1
  F  F94  1  0.103664  0.423991  0.641084  1
  F  F95  1  0.423991  0.103664  0.858916  1
  F  F96  1  0.179905  0.576522  0.477101  1
  F  F97  1  0.576522  0.179905  0.022899  1
  F  F98  1  0.820095  0.423478  0.522899  1
  F  F99  1  0.423478  0.820095  0.977101  1
  F  F100  1  0.084918  0.414027  0.139870  1
  F  F101  1  0.414027  0.084918  0.360130  1
  F  F102  1  0.915082  0.585973  0.860130  1
  F  F103  1  0.585973  0.915082  0.639870  1
  F  F104  1  0.794093  0.507074  0.033870  1
  F  F105  1  0.507074  0.794093  0.466130  1
  F  F106  1  0.205907  0.492926  0.966130  1
  F  F107  1  0.492926  0.205907  0.533870  1
  F  F108  1  0.010706  0.283639  0.974752  1
  F  F109  1  0.283639  0.010706  0.525248  1
  F  F110  1  0.989294  0.716361  0.025248  1
  F  F111  1  0.716361  0.989294  0.474752  1
