# generated using pymatgen
data_LiFeF4
_symmetry_space_group_name_H-M   'P 1'
_cell_length_a   6.30283202
_cell_length_b   9.66833185
_cell_length_c   5.10937776
_cell_angle_alpha   90.00000000
_cell_angle_beta   91.24836543
_cell_angle_gamma   90.00000000
_symmetry_Int_Tables_number   1
_chemical_formula_structural   LiFeF4
_chemical_formula_sum   'Li4 Fe4 F16'
_cell_volume   311.28070527
_cell_formula_units_Z   4
loop_
 _symmetry_equiv_pos_site_id
 _symmetry_equiv_pos_as_xyz
  1  'x, y, z'
loop_
 _atom_site_type_symbol
 _atom_site_label
 _atom_site_symmetry_multiplicity
 _atom_site_fract_x
 _atom_site_fract_y
 _atom_site_fract_z
 _atom_site_occupancy
  Li  Li0  1  0.238841  0.685747  0.016556  1
  Li  Li1  1  0.261159  0.185747  0.483444  1
  Li  Li2  1  0.738841  0.814253  0.516556  1
  Li  Li3  1  0.761159  0.314253  0.983444  1
  Fe  Fe4  1  0.000000  0.500000  0.500000  1
  Fe  Fe5  1  0.000000  0.000000  0.000000  1
  Fe  Fe6  1  0.500000  0.500000  0.500000  1
  Fe  Fe7  1  0.500000  0.000000  0.000000  1
  F  F8  1  0.011234  0.616671  0.208078  1
  F  F9  1  0.026431  0.118066  0.288768  1
  F  F10  1  0.251666  0.602337  0.668597  1
  F  F11  1  0.251533  0.883846  0.124566  1
  F  F12  1  0.248334  0.102337  0.831403  1
  F  F13  1  0.248467  0.383846  0.375434  1
  F  F14  1  0.473569  0.618066  0.211232  1
  F  F15  1  0.488766  0.116671  0.291922  1
  F  F16  1  0.511234  0.883329  0.708078  1
  F  F17  1  0.526431  0.381934  0.788768  1
  F  F18  1  0.751533  0.616154  0.624566  1
  F  F19  1  0.751666  0.897663  0.168597  1
  F  F20  1  0.748467  0.116154  0.875434  1
  F  F21  1  0.748334  0.397663  0.331403  1
  F  F22  1  0.973569  0.881934  0.711232  1
  F  F23  1  0.988766  0.383329  0.791922  1
