# generated using pymatgen
data_CrSb2H12(C2O)4
_symmetry_space_group_name_H-M   'P 1'
_cell_length_a   8.80034979
_cell_length_b   8.80034979
_cell_length_c   10.33900332
_cell_angle_alpha   69.41717624
_cell_angle_beta   110.58282376
_cell_angle_gamma   98.29362763
_symmetry_Int_Tables_number   1
_chemical_formula_structural   CrSb2H12(C2O)4
_chemical_formula_sum   'Cr2 Sb4 H24 C16 O8'
_cell_volume   701.55660160
_cell_formula_units_Z   2
loop_
 _symmetry_equiv_pos_site_id
 _symmetry_equiv_pos_as_xyz
  1  'x, y, z'
loop_
 _atom_site_type_symbol
 _atom_site_label
 _atom_site_symmetry_multiplicity
 _atom_site_fract_x
 _atom_site_fract_y
 _atom_site_fract_z
 _atom_site_occupancy
  Cr  Cr0  1  0.788621  0.211379  0.191267  1
  Cr  Cr1  1  0.211379  0.788621  0.808733  1
  Sb  Sb2  1  0.102016  0.222361  0.342966  1
  Sb  Sb3  1  0.777639  0.897984  0.342966  1
  Sb  Sb4  1  0.897984  0.777639  0.657034  1
  Sb  Sb5  1  0.222361  0.102016  0.657034  1
  H  H6  1  0.153134  0.545918  0.211538  1
  H  H7  1  0.454082  0.846866  0.211538  1
  H  H8  1  0.846866  0.454082  0.788462  1
  H  H9  1  0.545918  0.153134  0.788462  1
  H  H10  1  0.345692  0.451380  0.313994  1
  H  H11  1  0.548620  0.654308  0.313994  1
  H  H12  1  0.654308  0.548620  0.686006  1
  H  H13  1  0.451380  0.345692  0.686006  1
  H  H14  1  0.231029  0.501835  0.405385  1
  H  H15  1  0.498165  0.768971  0.405385  1
  H  H16  1  0.768971  0.498165  0.594615  1
  H  H17  1  0.501835  0.231029  0.594615  1
  H  H18  1  0.255127  0.137296  0.190956  1
  H  H19  1  0.862704  0.744873  0.190956  1
  H  H20  1  0.744873  0.862704  0.809044  1
  H  H21  1  0.137296  0.255127  0.809044  1
  H  H22  1  0.247207  0.965528  0.346189  1
  H  H23  1  0.034472  0.752793  0.346189  1
  H  H24  1  0.752793  0.034472  0.653811  1
  H  H25  1  0.965528  0.247207  0.653811  1
  H  H26  1  0.396358  0.124449  0.368273  1
  H  H27  1  0.875551  0.603642  0.368273  1
  H  H28  1  0.603642  0.875551  0.631727  1
  H  H29  1  0.124449  0.396358  0.631727  1
  C  C30  1  0.847539  0.152461  0.055495  1
  C  C31  1  0.152461  0.847539  0.944505  1
  C  C32  1  0.804823  0.427271  0.083061  1
  C  C33  1  0.572729  0.195177  0.083061  1
  C  C34  1  0.195177  0.572729  0.916939  1
  C  C35  1  0.427271  0.804823  0.916939  1
  C  C36  1  0.727461  0.272539  0.323196  1
  C  C37  1  0.272539  0.727461  0.676804  1
  C  C38  1  0.223174  0.460032  0.315097  1
  C  C39  1  0.539968  0.776826  0.315097  1
  C  C40  1  0.776826  0.539968  0.684903  1
  C  C41  1  0.460032  0.223174  0.684903  1
  C  C42  1  0.271522  0.096560  0.307998  1
  C  C43  1  0.903440  0.728478  0.307998  1
  C  C44  1  0.728478  0.903440  0.692002  1
  C  C45  1  0.096560  0.271522  0.692002  1
  O  O46  1  0.876678  0.123322  0.964776  1
  O  O47  1  0.123322  0.876678  0.035224  1
  O  O48  1  0.815396  0.563882  0.012843  1
  O  O49  1  0.436118  0.184604  0.012843  1
  O  O50  1  0.184604  0.436118  0.987157  1
  O  O51  1  0.563882  0.815396  0.987157  1
  O  O52  1  0.683792  0.316208  0.399538  1
  O  O53  1  0.316208  0.683792  0.600462  1
