# generated using pymatgen
data_V2OF5
_symmetry_space_group_name_H-M   'P 1'
_cell_length_a   5.25263181
_cell_length_b   13.49807293
_cell_length_c   5.25263181
_cell_angle_alpha   89.99999614
_cell_angle_beta   120.00001149
_cell_angle_gamma   90.00000386
_symmetry_Int_Tables_number   1
_chemical_formula_structural   V2OF5
_chemical_formula_sum   'V6 O3 F15'
_cell_volume   322.51971767
_cell_formula_units_Z   3
loop_
 _symmetry_equiv_pos_site_id
 _symmetry_equiv_pos_as_xyz
  1  'x, y, z'
loop_
 _atom_site_type_symbol
 _atom_site_label
 _atom_site_symmetry_multiplicity
 _atom_site_fract_x
 _atom_site_fract_y
 _atom_site_fract_z
 _atom_site_occupancy
  V  V0  1  0.990162  0.495757  0.976414  1
  V  V1  1  0.976414  0.004243  0.990162  1
  V  V2  1  0.652919  0.829090  0.343172  1
  V  V3  1  0.343172  0.670910  0.652919  1
  V  V4  1  0.680414  0.337577  0.356919  1
  V  V5  1  0.356919  0.162423  0.680414  1
  O  O6  1  0.557073  0.750000  0.557073  1
  O  O7  1  0.776260  0.416667  0.666667  1
  O  O8  1  0.666667  0.083333  0.776260  1
  F  F9  1  0.980955  0.747033  0.390205  1
  F  F10  1  0.390205  0.752967  0.980955  1
  F  F11  1  0.352379  0.419634  0.075917  1
  F  F12  1  0.075917  0.080366  0.352379  1
  F  F13  1  0.325651  0.922191  0.253728  1
  F  F14  1  0.253728  0.577809  0.325651  1
  F  F15  1  0.594744  0.255524  0.007683  1
  F  F16  1  0.007683  0.244476  0.594744  1
  F  F17  1  0.738589  0.911143  0.079605  1
  F  F18  1  0.079605  0.588857  0.738589  1
  F  F19  1  0.407515  0.250000  0.407515  1
  F  F20  1  0.943128  0.413700  0.257416  1
  F  F21  1  0.257416  0.086300  0.943128  1
  F  F22  1  0.925818  0.916667  0.666667  1
  F  F23  1  0.666667  0.583333  0.925818  1
