# generated using pymatgen
data_Cr7Ni20Mo3
_symmetry_space_group_name_H-M   'P 1'
_cell_length_a   6.23265412
_cell_length_b   11.64311791
_cell_length_c   15.27450401
_cell_angle_alpha   70.29754638
_cell_angle_beta   89.50201545
_cell_angle_gamma   89.58041823
_symmetry_Int_Tables_number   1
_chemical_formula_structural   Cr7Ni20Mo3
_chemical_formula_sum   'Cr21 Ni60 Mo9'
_cell_volume   1043.49022364
_cell_formula_units_Z   3
loop_
 _symmetry_equiv_pos_site_id
 _symmetry_equiv_pos_as_xyz
  1  'x, y, z'
loop_
 _atom_site_type_symbol
 _atom_site_label
 _atom_site_symmetry_multiplicity
 _atom_site_fract_x
 _atom_site_fract_y
 _atom_site_fract_z
 _atom_site_occupancy
  Cr  Cr0  1  0.335515  0.931546  0.433365  1
  Cr  Cr1  1  0.005717  0.797680  0.297259  1
  Cr  Cr2  1  0.334321  0.733472  0.233123  1
  Cr  Cr3  1  0.999554  0.601251  0.099122  1
  Cr  Cr4  1  0.668890  0.667268  0.165775  1
  Cr  Cr5  1  0.332458  0.534346  0.031940  1
  Cr  Cr6  1  -0.000165  0.798859  0.801819  1
  Cr  Cr7  1  0.672851  0.864037  0.866316  1
  Cr  Cr8  1  0.336092  0.731072  0.733716  1
  Cr  Cr9  1  0.658709  0.666798  0.669927  1
  Cr  Cr10  1  0.338424  0.532241  0.532472  1
  Cr  Cr11  1  0.992043  0.403665  0.400887  1
  Cr  Cr12  1  0.665301  0.467953  0.466776  1
  Cr  Cr13  1  0.340804  0.131910  0.130540  1
  Cr  Cr14  1  0.996513  0.000211  0.001136  1
  Cr  Cr15  1  0.667270  0.066493  0.065406  1
  Cr  Cr16  1  0.999490  0.400447  0.900475  1
  Cr  Cr17  1  0.664944  0.467740  0.965752  1
  Cr  Cr18  1  0.333866  0.333726  0.833847  1
  Cr  Cr19  1  0.660094  0.268879  0.769166  1
  Cr  Cr20  1  0.331536  0.133549  0.634294  1
  Ni  Ni21  1  0.329819  0.731356  0.400703  1
  Ni  Ni22  1  0.003192  0.600136  0.266218  1
  Ni  Ni23  1  0.667028  0.664804  0.332927  1
  Ni  Ni24  1  0.335996  0.535782  0.198614  1
  Ni  Ni25  1  0.998080  0.402637  0.064494  1
  Ni  Ni26  1  0.666315  0.469958  0.130946  1
  Ni  Ni27  1  0.331455  0.333263  0.999366  1
  Ni  Ni28  1  0.332124  0.731265  0.898704  1
  Ni  Ni29  1  0.000415  0.600258  0.769483  1
  Ni  Ni30  1  0.666216  0.665829  0.834044  1
  Ni  Ni31  1  0.336059  0.533188  0.701318  1
  Ni  Ni32  1  0.998626  0.401656  0.564617  1
  Ni  Ni33  1  0.663823  0.465763  0.634673  1
  Ni  Ni34  1  0.333530  0.334287  0.502397  1
  Ni  Ni35  1  0.998329  0.200517  0.367499  1
  Ni  Ni36  1  0.670070  0.270402  0.435073  1
  Ni  Ni37  1  0.333705  0.128345  0.301217  1
  Ni  Ni38  1  -0.001214  0.996902  0.164953  1
  Ni  Ni39  1  0.663815  0.065136  0.230042  1
  Ni  Ni40  1  0.334289  0.933005  0.101417  1
  Ni  Ni41  1  0.997527  0.797802  0.967451  1
  Ni  Ni42  1  0.670822  0.865935  0.033936  1
  Ni  Ni43  1  0.001823  0.198899  0.868689  1
  Ni  Ni44  1  0.666990  0.266744  0.932780  1
  Ni  Ni45  1  0.335740  0.135066  0.800030  1
  Ni  Ni46  1  0.002383  0.996862  0.669920  1
  Ni  Ni47  1  0.661937  0.064843  0.737101  1
  Ni  Ni48  1  0.334813  0.929228  0.602200  1
  Ni  Ni49  1  0.003567  0.797708  0.465557  1
  Ni  Ni50  1  0.666291  0.861470  0.536393  1
  Ni  Ni51  1  0.335616  0.733865  0.566771  1
  Ni  Ni52  1  0.997665  0.600063  0.431079  1
  Ni  Ni53  1  0.662648  0.663450  0.500933  1
  Ni  Ni54  1  0.333216  0.536193  0.367659  1
  Ni  Ni55  1  -0.000934  0.406063  0.230946  1
  Ni  Ni56  1  0.669603  0.471445  0.299749  1
  Ni  Ni57  1  0.333292  0.336672  0.162556  1
  Ni  Ni58  1  0.334599  0.732095  0.067189  1
  Ni  Ni59  1  0.999183  0.601415  0.932893  1
  Ni  Ni60  1  0.665198  0.668377  0.998573  1
  Ni  Ni61  1  0.333129  0.533485  0.865912  1
  Ni  Ni62  1  -0.000118  0.400029  0.735915  1
  Ni  Ni63  1  0.667327  0.467966  0.799866  1
  Ni  Ni64  1  0.333332  0.336482  0.666696  1
  Ni  Ni65  1  0.003784  0.203486  0.531960  1
  Ni  Ni66  1  0.662575  0.270567  0.600730  1
  Ni  Ni67  1  0.335242  0.133233  0.467101  1
  Ni  Ni68  1  0.001839  0.998114  0.331514  1
  Ni  Ni69  1  0.664437  0.066368  0.399776  1
  Ni  Ni70  1  0.329738  0.933031  0.265164  1
  Ni  Ni71  1  0.003022  0.799698  0.132278  1
  Ni  Ni72  1  0.667660  0.865996  0.197399  1
  Ni  Ni73  1  0.999037  0.199957  0.031076  1
  Ni  Ni74  1  0.663345  0.268224  0.095512  1
  Ni  Ni75  1  0.334243  0.135424  0.966883  1
  Ni  Ni76  1  0.996780  0.997589  0.834841  1
  Ni  Ni77  1  0.670598  0.068432  0.900623  1
  Ni  Ni78  1  0.332583  0.932365  0.765273  1
  Ni  Ni79  1  -0.000176  0.798088  0.636969  1
  Ni  Ni80  1  0.667512  0.863265  0.703206  1
  Mo  Mo81  1  0.664884  0.865469  0.366326  1
  Mo  Mo82  1  0.335216  0.932676  0.933367  1
  Mo  Mo83  1  0.000230  0.599338  0.600857  1
  Mo  Mo84  1  0.324435  0.336626  0.334595  1
  Mo  Mo85  1  0.007987  0.199123  0.196821  1
  Mo  Mo86  1  0.665709  0.268279  0.265198  1
  Mo  Mo87  1  0.998509  0.200295  0.700743  1
  Mo  Mo88  1  0.007681  0.996794  0.499246  1
  Mo  Mo89  1  0.661582  0.067775  0.569927  1
