# generated using pymatgen
data_Li3Cu3(PO4)2
_symmetry_space_group_name_H-M   'P 1'
_cell_length_a   6.19075005
_cell_length_b   5.44751571
_cell_length_c   10.20976235
_cell_angle_alpha   90.48365622
_cell_angle_beta   90.19430552
_cell_angle_gamma   89.13631346
_symmetry_Int_Tables_number   1
_chemical_formula_structural   Li3Cu3(PO4)2
_chemical_formula_sum   'Li6 Cu6 P4 O16'
_cell_volume   344.26293146
_cell_formula_units_Z   2
loop_
 _symmetry_equiv_pos_site_id
 _symmetry_equiv_pos_as_xyz
  1  'x, y, z'
loop_
 _atom_site_type_symbol
 _atom_site_label
 _atom_site_symmetry_multiplicity
 _atom_site_fract_x
 _atom_site_fract_y
 _atom_site_fract_z
 _atom_site_occupancy
  Li  Li0  1  0.000980  0.155492  0.745284  1
  Li  Li1  1  0.998822  0.151444  0.249148  1
  Li  Li2  1  0.245510  0.330894  0.497659  1
  Li  Li3  1  0.248323  0.673119  0.250100  1
  Li  Li4  1  0.257146  0.673791  0.743301  1
  Li  Li5  1  0.501635  0.846208  0.495049  1
  Cu  Cu6  1  0.267799  0.344112  0.011825  1
  Cu  Cu7  1  0.503556  0.783535  0.001293  1
  Cu  Cu8  1  0.728824  0.660863  0.739408  1
  Cu  Cu9  1  0.744097  0.652928  0.238487  1
  Cu  Cu10  1  0.766325  0.348579  0.495774  1
  Cu  Cu11  1  0.731067  0.346257  0.007120  1
  P  P12  1  0.005623  0.838480  0.995978  1
  P  P13  1  0.008812  0.829566  0.498691  1
  P  P14  1  0.491952  0.169596  0.258577  1
  P  P15  1  0.494112  0.174817  0.743135  1
  O  O16  1  0.010450  0.832505  0.651238  1
  O  O17  1  0.013346  0.097063  0.444466  1
  O  O18  1  0.009927  0.835533  0.148249  1
  O  O19  1  0.000389  0.103716  0.941430  1
  O  O20  1  0.209537  0.684647  0.446029  1
  O  O21  1  0.206126  0.696156  0.938318  1
  O  O22  1  0.287294  0.315274  0.210398  1
  O  O23  1  0.293235  0.319413  0.691324  1
  O  O24  1  0.493248  0.165662  0.895516  1
  O  O25  1  0.490445  0.907410  0.686725  1
  O  O26  1  0.493681  0.175017  0.410307  1
  O  O27  1  0.483718  0.898795  0.208838  1
  O  O28  1  0.710297  0.297533  0.698936  1
  O  O29  1  0.705620  0.287290  0.207360  1
  O  O30  1  0.794585  0.707555  0.448280  1
  O  O31  1  0.803519  0.696747  0.944346  1
