# generated using pymatgen
data_LiVF4
_symmetry_space_group_name_H-M   'P 1'
_cell_length_a   9.07304352
_cell_length_b   6.40092568
_cell_length_c   5.43671353
_cell_angle_alpha   90.00000000
_cell_angle_beta   90.00000000
_cell_angle_gamma   90.00000000
_symmetry_Int_Tables_number   1
_chemical_formula_structural   LiVF4
_chemical_formula_sum   'Li4 V4 F16'
_cell_volume   315.74190768
_cell_formula_units_Z   4
loop_
 _symmetry_equiv_pos_site_id
 _symmetry_equiv_pos_as_xyz
  1  'x, y, z'
loop_
 _atom_site_type_symbol
 _atom_site_label
 _atom_site_symmetry_multiplicity
 _atom_site_fract_x
 _atom_site_fract_y
 _atom_site_fract_z
 _atom_site_occupancy
  Li  Li0  1  0.158697  0.218604  0.742290  1
  Li  Li1  1  0.341303  0.781396  0.242290  1
  Li  Li2  1  0.658697  0.281396  0.257710  1
  Li  Li3  1  0.841303  0.718604  0.757710  1
  V  V4  1  0.992081  0.482248  0.263115  1
  V  V5  1  0.507919  0.517752  0.763115  1
  V  V6  1  0.492081  0.017752  0.736885  1
  V  V7  1  0.007919  0.982248  0.236885  1
  F  F8  1  0.056605  0.450140  0.593390  1
  F  F9  1  0.130516  0.707405  0.161527  1
  F  F10  1  0.105781  0.258730  0.092229  1
  F  F11  1  0.156276  0.016156  0.480911  1
  F  F12  1  0.343724  0.983844  0.980911  1
  F  F13  1  0.394219  0.741270  0.592229  1
  F  F14  1  0.369484  0.292595  0.661527  1
  F  F15  1  0.443395  0.549860  0.093390  1
  F  F16  1  0.556605  0.049860  0.406610  1
  F  F17  1  0.630516  0.792595  0.838473  1
  F  F18  1  0.605781  0.241270  0.907771  1
  F  F19  1  0.656276  0.483844  0.519089  1
  F  F20  1  0.843724  0.516156  0.019089  1
  F  F21  1  0.894219  0.758730  0.407771  1
  F  F22  1  0.869484  0.207405  0.338473  1
  F  F23  1  0.943395  0.950140  0.906610  1
