# generated using pymatgen
data_Li4Ti3Fe3(CuO8)2
_symmetry_space_group_name_H-M   'P 1'
_cell_length_a   5.93756065
_cell_length_b   5.90061606
_cell_length_c   9.61446644
_cell_angle_alpha   89.98279189
_cell_angle_beta   90.83865155
_cell_angle_gamma   119.74574665
_symmetry_Int_Tables_number   1
_chemical_formula_structural   Li4Ti3Fe3(CuO8)2
_chemical_formula_sum   'Li4 Ti3 Fe3 Cu2 O16'
_cell_volume   292.42044093
_cell_formula_units_Z   1
loop_
 _symmetry_equiv_pos_site_id
 _symmetry_equiv_pos_as_xyz
  1  'x, y, z'
loop_
 _atom_site_type_symbol
 _atom_site_label
 _atom_site_symmetry_multiplicity
 _atom_site_fract_x
 _atom_site_fract_y
 _atom_site_fract_z
 _atom_site_occupancy
  Li  Li0  1  0.335065  0.665924  0.896016  1
  Li  Li1  1  0.993478  0.998056  0.994941  1
  Li  Li2  1  0.997590  0.998224  0.495739  1
  Li  Li3  1  0.665402  0.332529  0.397031  1
  Ti  Ti4  1  0.168414  0.829321  0.211432  1
  Ti  Ti5  1  0.173117  0.338236  0.213137  1
  Ti  Ti6  1  0.342083  0.173519  0.713585  1
  Fe  Fe7  1  0.663004  0.833130  0.212252  1
  Fe  Fe8  1  0.833129  0.662955  0.711462  1
  Fe  Fe9  1  0.830558  0.168455  0.711888  1
  Cu  Cu10  1  0.334321  0.669398  0.486696  1
  Cu  Cu11  1  0.674493  0.335729  0.985472  1
  O  O12  1  0.171271  0.839663  0.602831  1
  O  O13  1  0.037299  0.519938  0.334515  1
  O  O14  1  0.321618  0.660109  0.102269  1
  O  O15  1  0.005008  0.002777  0.310285  1
  O  O16  1  0.005451  0.001099  0.808899  1
  O  O17  1  0.169864  0.332184  0.603211  1
  O  O18  1  0.472876  0.958358  0.339755  1
  O  O19  1  0.473151  0.515742  0.340110  1
  O  O20  1  0.326835  0.163009  0.106321  1
  O  O21  1  0.671984  0.836437  0.601737  1
  O  O22  1  0.516441  0.474049  0.841456  1
  O  O23  1  0.518489  0.040771  0.840337  1
  O  O24  1  0.657695  0.330383  0.601908  1
  O  O25  1  0.840759  0.672312  0.102614  1
  O  O26  1  0.960145  0.479238  0.838493  1
  O  O27  1  0.840462  0.168757  0.103446  1
