# generated using pymatgen
data_Li3NiPCO7
_symmetry_space_group_name_H-M   'P 1'
_cell_length_a   9.41178100
_cell_length_b   9.74443653
_cell_length_c   6.32910818
_cell_angle_alpha   90.00000000
_cell_angle_beta   90.00000000
_cell_angle_gamma   63.96928615
_symmetry_Int_Tables_number   1
_chemical_formula_structural   Li3NiPCO7
_chemical_formula_sum   'Li12 Ni4 P4 C4 O28'
_cell_volume   521.57603110
_cell_formula_units_Z   4
loop_
 _symmetry_equiv_pos_site_id
 _symmetry_equiv_pos_as_xyz
  1  'x, y, z'
loop_
 _atom_site_type_symbol
 _atom_site_label
 _atom_site_symmetry_multiplicity
 _atom_site_fract_x
 _atom_site_fract_y
 _atom_site_fract_z
 _atom_site_occupancy
  Li  Li0  1  0.900054  0.433042  0.750036  1
  Li  Li1  1  0.900054  0.933042  0.749964  1
  Li  Li2  1  0.721814  0.258560  0.990742  1
  Li  Li3  1  0.721814  0.758560  0.509258  1
  Li  Li4  1  0.652394  0.063726  0.248494  1
  Li  Li5  1  0.652394  0.563726  0.251506  1
  Li  Li6  1  0.347606  0.436274  0.751506  1
  Li  Li7  1  0.347606  0.936274  0.748494  1
  Li  Li8  1  0.278186  0.241440  0.009258  1
  Li  Li9  1  0.278186  0.741440  0.490742  1
  Li  Li10  1  0.099946  0.066958  0.249964  1
  Li  Li11  1  0.099946  0.566958  0.250036  1
  Ni  Ni12  1  0.725728  0.262437  0.509419  1
  Ni  Ni13  1  0.725728  0.762437  0.990581  1
  Ni  Ni14  1  0.274272  0.237563  0.490581  1
  Ni  Ni15  1  0.274272  0.737563  0.009419  1
  P  P16  1  0.590914  0.065072  0.752162  1
  P  P17  1  0.590914  0.565072  0.747838  1
  P  P18  1  0.409086  0.434928  0.247838  1
  P  P19  1  0.409086  0.934928  0.252162  1
  C  C20  1  0.961147  0.371549  0.259780  1
  C  C21  1  0.961147  0.871549  0.240220  1
  C  C22  1  0.038853  0.128451  0.740220  1
  C  C23  1  0.038853  0.628451  0.759780  1
  O  O24  1  0.930939  0.011920  0.251400  1
  O  O25  1  0.930939  0.511920  0.248600  1
  O  O26  1  0.890079  0.235043  0.735013  1
  O  O27  1  0.850710  0.326498  0.260478  1
  O  O28  1  0.890079  0.735043  0.764987  1
  O  O29  1  0.850710  0.826498  0.239522  1
  O  O30  1  0.684279  0.074378  0.945640  1
  O  O31  1  0.691475  0.070370  0.558977  1
  O  O32  1  0.691475  0.570370  0.941023  1
  O  O33  1  0.684279  0.574378  0.554360  1
  O  O34  1  0.579561  0.305235  0.259020  1
  O  O35  1  0.580786  0.409009  0.744216  1
  O  O36  1  0.579561  0.805235  0.240980  1
  O  O37  1  0.580786  0.909009  0.755784  1
  O  O38  1  0.419214  0.090991  0.255784  1
  O  O39  1  0.420439  0.194765  0.740980  1
  O  O40  1  0.419214  0.590991  0.244216  1
  O  O41  1  0.420439  0.694765  0.759020  1
  O  O42  1  0.315721  0.425622  0.054360  1
  O  O43  1  0.308525  0.429630  0.441023  1
  O  O44  1  0.308525  0.929630  0.058977  1
  O  O45  1  0.315721  0.925622  0.445640  1
  O  O46  1  0.149290  0.173502  0.739522  1
  O  O47  1  0.109921  0.264957  0.264987  1
  O  O48  1  0.149290  0.673502  0.760478  1
  O  O49  1  0.109921  0.764957  0.235013  1
  O  O50  1  0.069061  0.488080  0.748600  1
  O  O51  1  0.069061  0.988080  0.751400  1
