# generated using pymatgen
data_Li4Cr3FeO8
_symmetry_space_group_name_H-M   'P 1'
_cell_length_a   5.13517617
_cell_length_b   5.91113166
_cell_length_c   10.66352488
_cell_angle_alpha   106.16692899
_cell_angle_beta   85.36656422
_cell_angle_gamma   73.31212275
_symmetry_Int_Tables_number   1
_chemical_formula_structural   Li4Cr3FeO8
_chemical_formula_sum   'Li8 Cr6 Fe2 O16'
_cell_volume   293.21394592
_cell_formula_units_Z   2
loop_
 _symmetry_equiv_pos_site_id
 _symmetry_equiv_pos_as_xyz
  1  'x, y, z'
loop_
 _atom_site_type_symbol
 _atom_site_label
 _atom_site_symmetry_multiplicity
 _atom_site_fract_x
 _atom_site_fract_y
 _atom_site_fract_z
 _atom_site_occupancy
  Li  Li0  1  0.999389  0.124559  0.750473  1
  Li  Li1  1  0.000194  0.000527  0.999542  1
  Li  Li2  1  0.000186  0.249875  0.500157  1
  Li  Li3  1  0.999061  0.375490  0.250725  1
  Li  Li4  1  0.997226  0.625566  0.748964  1
  Li  Li5  1  0.003119  0.498718  0.000423  1
  Li  Li6  1  0.001299  0.749602  0.499615  1
  Li  Li7  1  0.999695  0.875388  0.250451  1
  Cr  Cr8  1  0.500155  0.312199  0.374768  1
  Cr  Cr9  1  0.499750  0.563656  0.875576  1
  Cr  Cr10  1  0.499301  0.435771  0.123626  1
  Cr  Cr11  1  0.500731  0.688472  0.625972  1
  Cr  Cr12  1  0.500134  0.812126  0.374197  1
  Cr  Cr13  1  0.499730  0.938328  0.123538  1
  Fe  Fe14  1  0.499708  0.063047  0.875354  1
  Fe  Fe15  1  0.500410  0.186226  0.627128  1
  O  O16  1  0.275138  0.086376  0.309918  1
  O  O17  1  0.727232  0.037116  0.438419  1
  O  O18  1  0.274518  0.334775  0.813596  1
  O  O19  1  0.720036  0.285003  0.937958  1
  O  O20  1  0.725243  0.163723  0.188722  1
  O  O21  1  0.275736  0.209428  0.058145  1
  O  O22  1  0.273620  0.462916  0.560862  1
  O  O23  1  0.727086  0.414171  0.690442  1
  O  O24  1  0.275333  0.585273  0.309494  1
  O  O25  1  0.724696  0.538971  0.439428  1
  O  O26  1  0.280038  0.840764  0.812046  1
  O  O27  1  0.722303  0.793476  0.938674  1
  O  O28  1  0.274372  0.711942  0.060380  1
  O  O29  1  0.273567  0.960427  0.560641  1
  O  O30  1  0.724922  0.662680  0.188168  1
  O  O31  1  0.726070  0.913406  0.692600  1
