# generated using pymatgen
data_NaLi5Mn2P2(CO7)2
_symmetry_space_group_name_H-M   'P 1'
_cell_length_a   8.65647415
_cell_length_b   6.63461209
_cell_length_c   9.98593457
_cell_angle_alpha   89.91887070
_cell_angle_beta   88.44984888
_cell_angle_gamma   90.44380987
_symmetry_Int_Tables_number   1
_chemical_formula_structural   NaLi5Mn2P2(CO7)2
_chemical_formula_sum   'Na2 Li10 Mn4 P4 C4 O28'
_cell_volume   573.28782274
_cell_formula_units_Z   2
loop_
 _symmetry_equiv_pos_site_id
 _symmetry_equiv_pos_as_xyz
  1  'x, y, z'
loop_
 _atom_site_type_symbol
 _atom_site_label
 _atom_site_symmetry_multiplicity
 _atom_site_fract_x
 _atom_site_fract_y
 _atom_site_fract_z
 _atom_site_occupancy
  Na  Na0  1  0.084129  0.253239  0.876883  1
  Na  Na1  1  0.250245  0.997934  0.125897  1
  Li  Li2  1  0.080237  0.256909  0.377160  1
  Li  Li3  1  0.263332  0.020140  0.615185  1
  Li  Li4  1  0.264749  0.478470  0.613720  1
  Li  Li5  1  0.266488  0.482436  0.118333  1
  Li  Li6  1  0.735151  0.520045  0.884444  1
  Li  Li7  1  0.734759  0.980176  0.885164  1
  Li  Li8  1  0.738311  0.515676  0.383082  1
  Li  Li9  1  0.739401  0.984661  0.382900  1
  Li  Li10  1  0.916054  0.749472  0.624775  1
  Li  Li11  1  0.914152  0.741935  0.125384  1
  Mn  Mn12  1  0.358216  0.746721  0.884704  1
  Mn  Mn13  1  0.356177  0.748874  0.390098  1
  Mn  Mn14  1  0.647748  0.250470  0.611952  1
  Mn  Mn15  1  0.643594  0.249473  0.112417  1
  P  P16  1  0.413644  0.249782  0.849514  1
  P  P17  1  0.407255  0.254441  0.354357  1
  P  P18  1  0.594726  0.750291  0.646364  1
  P  P19  1  0.594711  0.745431  0.147184  1
  C  C20  1  0.042318  0.749385  0.865172  1
  C  C21  1  0.041910  0.747999  0.367001  1
  C  C22  1  0.957988  0.250086  0.628567  1
  C  C23  1  0.946962  0.258408  0.140955  1
  O  O24  1  0.106940  0.248111  0.644356  1
  O  O25  1  0.095144  0.275838  0.157162  1
  O  O26  1  0.088780  0.750444  0.987765  1
  O  O27  1  0.089043  0.749592  0.488836  1
  O  O28  1  0.142124  0.746480  0.765738  1
  O  O29  1  0.141396  0.744115  0.267158  1
  O  O30  1  0.322422  0.060979  0.898468  1
  O  O31  1  0.321235  0.432412  0.905160  1
  O  O32  1  0.311877  0.065067  0.399697  1
  O  O33  1  0.311836  0.434311  0.410803  1
  O  O34  1  0.416345  0.254562  0.692596  1
  O  O35  1  0.423644  0.750438  0.600831  1
  O  O36  1  0.415997  0.267162  0.198136  1
  O  O37  1  0.426658  0.732764  0.097419  1
  O  O38  1  0.584300  0.251332  0.895432  1
  O  O39  1  0.588949  0.749623  0.803254  1
  O  O40  1  0.576322  0.251233  0.402881  1
  O  O41  1  0.585517  0.748945  0.304054  1
  O  O42  1  0.688729  0.566832  0.593874  1
  O  O43  1  0.689005  0.935251  0.593358  1
  O  O44  1  0.696004  0.566269  0.097549  1
  O  O45  1  0.684239  0.933945  0.093603  1
  O  O46  1  0.863868  0.250348  0.732025  1
  O  O47  1  0.854810  0.247493  0.245914  1
  O  O48  1  0.903510  0.252029  0.508740  1
  O  O49  1  0.889245  0.251016  0.022827  1
  O  O50  1  0.895132  0.750817  0.839838  1
  O  O51  1  0.894675  0.750137  0.341313  1
