# generated using pymatgen
data_Li4Ni5SnO12
_symmetry_space_group_name_H-M   'P 1'
_cell_length_a   5.12134163
_cell_length_b   5.04482460
_cell_length_c   10.04394207
_cell_angle_alpha   89.49962831
_cell_angle_beta   88.24413576
_cell_angle_gamma   59.48913554
_symmetry_Int_Tables_number   1
_chemical_formula_structural   Li4Ni5SnO12
_chemical_formula_sum   'Li4 Ni5 Sn1 O12'
_cell_volume   223.45407909
_cell_formula_units_Z   1
loop_
 _symmetry_equiv_pos_site_id
 _symmetry_equiv_pos_as_xyz
  1  'x, y, z'
loop_
 _atom_site_type_symbol
 _atom_site_label
 _atom_site_symmetry_multiplicity
 _atom_site_fract_x
 _atom_site_fract_y
 _atom_site_fract_z
 _atom_site_occupancy
  Li  Li0  1  0.154068  0.501693  0.747662  1
  Li  Li1  1  0.346908  0.498150  0.253445  1
  Li  Li2  1  0.655293  0.504598  0.746487  1
  Li  Li3  1  0.846852  0.500448  0.252340  1
  Ni  Ni4  1  0.162203  0.673509  0.499965  1
  Ni  Ni5  1  0.665790  0.670236  0.000649  1
  Ni  Ni6  1  0.338381  0.325089  -0.000007  1
  Ni  Ni7  1  0.833808  0.330315  0.499546  1
  Ni  Ni8  1  0.497897  0.001989  0.499897  1
  Sn  Sn9  1  0.001870  0.997987  0.000207  1
  O  O10  1  0.030012  0.637454  0.112307  1
  O  O11  1  0.337293  0.633918  0.888430  1
  O  O12  1  0.144584  0.361307  0.398663  1
  O  O13  1  0.505541  0.639355  0.398885  1
  O  O14  1  0.490751  0.365051  0.600776  1
  O  O15  1  0.135995  0.004314  0.596865  1
  O  O16  1  0.852168  0.642082  0.601046  1
  O  O17  1  0.667129  0.361618  0.112344  1
  O  O18  1  0.350889  0.000449  0.102454  1
  O  O19  1  0.974429  0.358659  0.888332  1
  O  O20  1  0.653160  0.994552  0.898030  1
  O  O21  1  0.859469  0.999574  0.402706  1
