# generated using pymatgen
data_Li2CoOF3
_symmetry_space_group_name_H-M   'P 1'
_cell_length_a   5.81268243
_cell_length_b   5.96093668
_cell_length_c   5.87163762
_cell_angle_alpha   120.44127442
_cell_angle_beta   90.00000000
_cell_angle_gamma   60.81937026
_symmetry_Int_Tables_number   1
_chemical_formula_structural   Li2CoOF3
_chemical_formula_sum   'Li4 Co2 O2 F6'
_cell_volume   144.65917135
_cell_formula_units_Z   2
loop_
 _symmetry_equiv_pos_site_id
 _symmetry_equiv_pos_as_xyz
  1  'x, y, z'
loop_
 _atom_site_type_symbol
 _atom_site_label
 _atom_site_symmetry_multiplicity
 _atom_site_fract_x
 _atom_site_fract_y
 _atom_site_fract_z
 _atom_site_occupancy
  Li  Li0  1  0.381195  0.737609  0.843804  1
  Li  Li1  1  0.000000  0.500000  0.500000  1
  Li  Li2  1  0.000000  0.500000  0.000000  1
  Li  Li3  1  0.618805  0.262391  0.156196  1
  Co  Co4  1  0.500000  0.000000  0.500000  1
  Co  Co5  1  0.000000  0.000000  0.500000  1
  O  O6  1  0.749285  0.001429  0.310142  1
  O  O7  1  0.250715  0.998571  0.689858  1
  F  F8  1  0.759854  0.980292  0.750322  1
  F  F9  1  0.218359  0.536056  0.268901  1
  F  F10  1  0.745584  0.536056  0.268901  1
  F  F11  1  0.254416  0.463944  0.731099  1
  F  F12  1  0.781641  0.463944  0.731099  1
  F  F13  1  0.240146  0.019708  0.249678  1
