# generated using pymatgen
data_Ba6YI15
_symmetry_space_group_name_H-M   'P 1'
_cell_length_a   26.43888820
_cell_length_b   13.30549267
_cell_length_c   17.88502166
_cell_angle_alpha   90.00000000
_cell_angle_beta   114.64286128
_cell_angle_gamma   90.00000000
_symmetry_Int_Tables_number   1
_chemical_formula_structural   Ba6YI15
_chemical_formula_sum   'Ba24 Y4 I60'
_cell_volume   5718.62217112
_cell_formula_units_Z   4
loop_
 _symmetry_equiv_pos_site_id
 _symmetry_equiv_pos_as_xyz
  1  'x, y, z'
loop_
 _atom_site_type_symbol
 _atom_site_label
 _atom_site_symmetry_multiplicity
 _atom_site_fract_x
 _atom_site_fract_y
 _atom_site_fract_z
 _atom_site_occupancy
  Ba  Ba0  1  0.114741  0.626791  0.870553  1
  Ba  Ba1  1  0.117918  0.122438  0.878810  1
  Ba  Ba2  1  0.049327  0.874846  0.444590  1
  Ba  Ba3  1  0.032755  0.375523  0.424795  1
  Ba  Ba4  1  0.090666  0.380073  0.097567  1
  Ba  Ba5  1  0.086069  0.868466  0.102462  1
  Ba  Ba6  1  0.413931  0.368466  0.897538  1
  Ba  Ba7  1  0.409334  0.880073  0.902433  1
  Ba  Ba8  1  0.467245  0.875523  0.575205  1
  Ba  Ba9  1  0.450673  0.374846  0.555410  1
  Ba  Ba10  1  0.382082  0.622438  0.121190  1
  Ba  Ba11  1  0.385259  0.126791  0.129447  1
  Ba  Ba12  1  0.614741  0.873209  0.870553  1
  Ba  Ba13  1  0.617918  0.377562  0.878810  1
  Ba  Ba14  1  0.549327  0.625154  0.444590  1
  Ba  Ba15  1  0.532755  0.124477  0.424795  1
  Ba  Ba16  1  0.590666  0.119927  0.097567  1
  Ba  Ba17  1  0.586069  0.631534  0.102462  1
  Ba  Ba18  1  0.913931  0.131534  0.897538  1
  Ba  Ba19  1  0.909334  0.619927  0.902433  1
  Ba  Ba20  1  0.967245  0.624477  0.575205  1
  Ba  Ba21  1  0.950673  0.125154  0.555410  1
  Ba  Ba22  1  0.882082  0.877562  0.121190  1
  Ba  Ba23  1  0.885259  0.373209  0.129447  1
  Y  Y24  1  0.216730  0.125959  0.632003  1
  Y  Y25  1  0.283270  0.625959  0.367997  1
  Y  Y26  1  0.716730  0.374041  0.632003  1
  Y  Y27  1  0.783270  0.874041  0.367997  1
  I  I28  1  0.997374  0.632295  0.404100  1
  I  I29  1  0.115753  0.874983  0.932710  1
  I  I30  1  0.114246  0.373894  0.922431  1
  I  I31  1  0.003529  0.117737  0.411671  1
  I  I32  1  0.029763  0.368304  0.231683  1
  I  I33  1  0.025149  0.883774  0.239328  1
  I  I34  1  0.127048  0.119451  0.687680  1
  I  I35  1  0.109499  0.634229  0.679576  1
  I  I36  1  0.253356  0.126071  0.989831  1
  I  I37  1  0.180986  0.966612  0.502264  1
  I  I38  1  0.170696  0.288770  0.507526  1
  I  I39  1  0.056664  0.625208  0.032126  1
  I  I40  1  0.063421  0.123761  0.037012  1
  I  I41  1  0.206345  0.465958  0.261322  1
  I  I42  1  0.197539  0.779763  0.272126  1
  I  I43  1  0.302461  0.279763  0.727874  1
  I  I44  1  0.293655  0.965958  0.738678  1
  I  I45  1  0.436579  0.623761  0.962988  1
  I  I46  1  0.443336  0.125208  0.967874  1
  I  I47  1  0.329304  0.788770  0.492474  1
  I  I48  1  0.319014  0.466612  0.497736  1
  I  I49  1  0.246644  0.626071  0.010169  1
  I  I50  1  0.390501  0.134229  0.320424  1
  I  I51  1  0.372952  0.619451  0.312320  1
  I  I52  1  0.474851  0.383774  0.760672  1
  I  I53  1  0.470237  0.868304  0.768317  1
  I  I54  1  0.496471  0.617737  0.588329  1
  I  I55  1  0.385754  0.873894  0.077569  1
  I  I56  1  0.384247  0.374983  0.067290  1
  I  I57  1  0.502626  0.132295  0.595900  1
  I  I58  1  0.497374  0.867705  0.404100  1
  I  I59  1  0.615753  0.625017  0.932710  1
  I  I60  1  0.614246  0.126106  0.922431  1
  I  I61  1  0.503529  0.382263  0.411671  1
  I  I62  1  0.529763  0.131696  0.231683  1
  I  I63  1  0.525149  0.616226  0.239328  1
  I  I64  1  0.627048  0.380549  0.687680  1
  I  I65  1  0.609499  0.865771  0.679576  1
  I  I66  1  0.753356  0.373929  0.989831  1
  I  I67  1  0.680986  0.533388  0.502264  1
  I  I68  1  0.670696  0.211230  0.507526  1
  I  I69  1  0.556664  0.874792  0.032126  1
  I  I70  1  0.563421  0.376239  0.037012  1
  I  I71  1  0.706345  0.034042  0.261322  1
  I  I72  1  0.697539  0.720237  0.272126  1
  I  I73  1  0.802461  0.220237  0.727874  1
  I  I74  1  0.793655  0.534042  0.738678  1
  I  I75  1  0.936579  0.876239  0.962988  1
  I  I76  1  0.943336  0.374792  0.967874  1
  I  I77  1  0.829304  0.711230  0.492474  1
  I  I78  1  0.819014  0.033388  0.497736  1
  I  I79  1  0.746644  0.873929  0.010169  1
  I  I80  1  0.890501  0.365771  0.320424  1
  I  I81  1  0.872952  0.880549  0.312320  1
  I  I82  1  0.974851  0.116226  0.760672  1
  I  I83  1  0.970237  0.631696  0.768317  1
  I  I84  1  0.996471  0.882263  0.588329  1
  I  I85  1  0.885754  0.626106  0.077569  1
  I  I86  1  0.884247  0.125017  0.067290  1
  I  I87  1  0.002626  0.367705  0.595900  1
