# generated using pymatgen
data_Li3Mn(BO3)2
_symmetry_space_group_name_H-M   'P 1'
_cell_length_a   5.88133351
_cell_length_b   8.05764671
_cell_length_c   9.89626806
_cell_angle_alpha   90.00000000
_cell_angle_beta   85.19432661
_cell_angle_gamma   90.00000000
_symmetry_Int_Tables_number   1
_chemical_formula_structural   Li3Mn(BO3)2
_chemical_formula_sum   'Li12 Mn4 B8 O24'
_cell_volume   467.33257826
_cell_formula_units_Z   4
loop_
 _symmetry_equiv_pos_site_id
 _symmetry_equiv_pos_as_xyz
  1  'x, y, z'
loop_
 _atom_site_type_symbol
 _atom_site_label
 _atom_site_symmetry_multiplicity
 _atom_site_fract_x
 _atom_site_fract_y
 _atom_site_fract_z
 _atom_site_occupancy
  Li  Li0  1  0.984439  0.775377  0.399106  1
  Li  Li1  1  0.033903  0.718014  0.910586  1
  Li  Li2  1  0.133599  0.938627  0.130395  1
  Li  Li3  1  0.366401  0.438627  0.369605  1
  Li  Li4  1  0.515561  0.275377  0.100894  1
  Li  Li5  1  0.533903  0.781986  0.410586  1
  Li  Li6  1  0.466097  0.218014  0.589414  1
  Li  Li7  1  0.484439  0.724623  0.899106  1
  Li  Li8  1  0.633599  0.561373  0.630395  1
  Li  Li9  1  0.866401  0.061373  0.869605  1
  Li  Li10  1  0.966097  0.281986  0.089414  1
  Li  Li11  1  0.015561  0.224623  0.600894  1
  Mn  Mn12  1  0.259359  0.889038  0.653095  1
  Mn  Mn13  1  0.240641  0.389038  0.846905  1
  Mn  Mn14  1  0.759359  0.610962  0.153095  1
  Mn  Mn15  1  0.740641  0.110963  0.346905  1
  B  B16  1  0.246088  0.612736  0.138734  1
  B  B17  1  0.203758  0.560343  0.607953  1
  B  B18  1  0.253912  0.112736  0.361266  1
  B  B19  1  0.296242  0.060343  0.892047  1
  B  B20  1  0.703758  0.939657  0.107953  1
  B  B21  1  0.746088  0.887264  0.638734  1
  B  B22  1  0.796242  0.439657  0.392047  1
  B  B23  1  0.753912  0.387264  0.861266  1
  O  O24  1  0.061944  0.707409  0.196923  1
  O  O25  1  0.073106  0.084116  0.282881  1
  O  O26  1  0.240771  0.558035  0.008726  1
  O  O27  1  0.217804  0.704757  0.527738  1
  O  O28  1  0.156621  0.585568  0.746714  1
  O  O29  1  0.259229  0.058035  0.491274  1
  O  O30  1  0.256430  0.408587  0.556251  1
  O  O31  1  0.243570  0.908587  0.943749  1
  O  O32  1  0.343379  0.085568  0.753286  1
  O  O33  1  0.282196  0.204757  0.972262  1
  O  O34  1  0.426894  0.584116  0.217119  1
  O  O35  1  0.438056  0.207409  0.303077  1
  O  O36  1  0.561944  0.792591  0.696923  1
  O  O37  1  0.573106  0.415884  0.782881  1
  O  O38  1  0.717804  0.795243  0.027738  1
  O  O39  1  0.656621  0.914432  0.246714  1
  O  O40  1  0.756430  0.091413  0.056251  1
  O  O41  1  0.743570  0.591413  0.443749  1
  O  O42  1  0.740771  0.941965  0.508726  1
  O  O43  1  0.843379  0.414432  0.253286  1
  O  O44  1  0.782196  0.295243  0.472262  1
  O  O45  1  0.759229  0.441965  0.991274  1
  O  O46  1  0.926894  0.915884  0.717119  1
  O  O47  1  0.938056  0.292591  0.803077  1
