# generated using pymatgen
data_Li2Co4OF8
_symmetry_space_group_name_H-M   'P 1'
_cell_length_a   5.30641001
_cell_length_b   9.10239163
_cell_length_c   14.37946253
_cell_angle_alpha   90.05738607
_cell_angle_beta   90.13500210
_cell_angle_gamma   90.38324355
_symmetry_Int_Tables_number   1
_chemical_formula_structural   Li2Co4OF8
_chemical_formula_sum   'Li8 Co16 O4 F32'
_cell_volume   694.52491201
_cell_formula_units_Z   4
loop_
 _symmetry_equiv_pos_site_id
 _symmetry_equiv_pos_as_xyz
  1  'x, y, z'
loop_
 _atom_site_type_symbol
 _atom_site_label
 _atom_site_symmetry_multiplicity
 _atom_site_fract_x
 _atom_site_fract_y
 _atom_site_fract_z
 _atom_site_occupancy
  Li  Li0  1  0.993420  0.017449  0.159688  1
  Li  Li1  1  0.010816  0.002345  0.361826  1
  Li  Li2  1  0.486988  0.473257  0.657335  1
  Li  Li3  1  0.486299  0.538388  0.835503  1
  Li  Li4  1  0.476817  0.515943  0.358161  1
  Li  Li5  1  0.515009  0.477490  0.157117  1
  Li  Li6  1  0.997616  0.026655  0.648221  1
  Li  Li7  1  0.993313  0.971122  0.844781  1
  Co  Co8  1  0.022800  0.342266  0.319526  1
  Co  Co9  1  0.019638  0.667092  0.182529  1
  Co  Co10  1  0.994851  0.646282  0.471070  1
  Co  Co11  1  0.990202  0.332310  0.010460  1
  Co  Co12  1  0.490727  0.169502  0.504620  1
  Co  Co13  1  0.493208  0.830619  0.995985  1
  Co  Co14  1  0.496419  0.836983  0.688327  1
  Co  Co15  1  0.490826  0.164199  0.814255  1
  Co  Co16  1  0.482492  0.833340  0.186159  1
  Co  Co17  1  0.485633  0.166711  0.316065  1
  Co  Co18  1  0.483471  0.163625  0.017065  1
  Co  Co19  1  0.491220  0.834840  0.490633  1
  Co  Co20  1  0.023777  0.675238  0.993413  1
  Co  Co21  1  0.031582  0.330588  0.504343  1
  Co  Co22  1  0.009673  0.647260  0.685293  1
  Co  Co23  1  0.010501  0.363841  0.804669  1
  O  O24  1  0.149846  0.481897  0.416685  1
  O  O25  1  0.204984  0.177025  0.410579  1
  O  O26  1  0.203766  0.806187  0.090404  1
  O  O27  1  0.208198  0.506569  0.747415  1
  F  F28  1  0.136971  0.155365  0.763085  1
  F  F29  1  0.142911  0.849093  0.738755  1
  F  F30  1  0.154145  0.831181  0.424330  1
  F  F31  1  0.143523  0.163236  0.076301  1
  F  F32  1  0.168105  0.500386  0.078372  1
  F  F33  1  0.302073  0.999844  0.248296  1
  F  F34  1  0.311663  0.312512  0.916465  1
  F  F35  1  0.327107  0.685129  0.587460  1
  F  F36  1  0.354240  0.990154  0.586405  1
  F  F37  1  0.352361  0.009301  0.915961  1
  F  F38  1  0.343059  0.320849  0.586161  1
  F  F39  1  0.344638  0.672756  0.917963  1
  F  F40  1  0.355414  0.342475  0.246285  1
  F  F41  1  0.361194  0.644713  0.247614  1
  F  F42  1  0.662405  0.662501  0.745821  1
  F  F43  1  0.651021  0.343712  0.759275  1
  F  F44  1  0.649417  0.675608  0.418632  1
  F  F45  1  0.658915  0.331406  0.075559  1
  F  F46  1  0.647901  0.003443  0.416507  1
  F  F47  1  0.644608  0.995317  0.086217  1
  F  F48  1  0.680210  0.332595  0.407699  1
  F  F49  1  0.697206  0.668598  0.086665  1
  F  F50  1  0.685911  0.002081  0.752049  1
  F  F51  1  0.834960  0.497350  0.240279  1
  F  F52  1  0.792190  0.176797  0.915700  1
  F  F53  1  0.798621  0.826097  0.590616  1
  F  F54  1  0.866601  0.490902  0.918390  1
  F  F55  1  0.849857  0.514438  0.582430  1
  F  F56  1  0.832856  0.170332  0.570750  1
  F  F57  1  0.829681  0.832614  0.927769  1
  F  F58  1  0.840823  0.156204  0.263164  1
  F  F59  1  0.835327  0.843987  0.236892  1
