# generated using pymatgen
data_Li2FePCO7
_symmetry_space_group_name_H-M   'P 1'
_cell_length_a   5.07340241
_cell_length_b   12.83393652
_cell_length_c   8.45584857
_cell_angle_alpha   94.48551746
_cell_angle_beta   95.52513926
_cell_angle_gamma   93.64364106
_symmetry_Int_Tables_number   1
_chemical_formula_structural   Li2FePCO7
_chemical_formula_sum   'Li8 Fe4 P4 C4 O28'
_cell_volume   544.93496912
_cell_formula_units_Z   4
loop_
 _symmetry_equiv_pos_site_id
 _symmetry_equiv_pos_as_xyz
  1  'x, y, z'
loop_
 _atom_site_type_symbol
 _atom_site_label
 _atom_site_symmetry_multiplicity
 _atom_site_fract_x
 _atom_site_fract_y
 _atom_site_fract_z
 _atom_site_occupancy
  Li  Li0  1  0.282822  0.513306  0.716598  1
  Li  Li1  1  0.243942  0.697597  0.056029  1
  Li  Li2  1  0.319599  0.019639  0.725814  1
  Li  Li3  1  0.400494  0.287057  0.755306  1
  Li  Li4  1  0.810461  0.893315  0.893146  1
  Li  Li5  1  0.652681  0.303724  0.193716  1
  Li  Li6  1  0.735095  0.570993  0.222844  1
  Li  Li7  1  0.770579  0.077777  0.232584  1
  Fe  Fe8  1  0.225850  0.918076  0.318687  1
  Fe  Fe9  1  0.204038  0.418449  0.313821  1
  Fe  Fe10  1  0.828761  0.672751  0.630449  1
  Fe  Fe11  1  0.849381  0.172340  0.635251  1
  P  P12  1  0.288475  0.673507  0.391000  1
  P  P13  1  0.311596  0.173770  0.399680  1
  P  P14  1  0.766552  0.917248  0.557975  1
  P  P15  1  0.741503  0.417118  0.549369  1
  C  C16  1  0.357124  0.937206  0.038409  1
  C  C17  1  0.278283  0.417444  0.025044  1
  C  C18  1  0.697270  0.653979  0.911031  1
  C  C19  1  0.773984  0.173206  0.924075  1
  O  O20  1  0.108971  0.912602  0.059948  1
  O  O21  1  0.167234  0.701570  0.546701  1
  O  O22  1  0.134614  0.574443  0.297347  1
  O  O23  1  0.046518  0.403539  0.075719  1
  O  O24  1  0.202910  0.206406  0.562129  1
  O  O25  1  0.144040  0.075421  0.320224  1
  O  O26  1  0.268040  0.762665  0.276842  1
  O  O27  1  0.442178  0.938493  0.901453  1
  O  O28  1  0.301278  0.265492  0.292148  1
  O  O29  1  0.322431  0.413546  0.879738  1
  O  O30  1  0.468326  0.939916  0.522959  1
  O  O31  1  0.537802  0.635323  0.779457  1
  O  O32  1  0.445018  0.443648  0.518073  1
  O  O33  1  0.576357  0.155001  0.805893  1
  O  O34  1  0.516445  0.955664  0.169992  1
  O  O35  1  0.586822  0.650940  0.425991  1
  O  O36  1  0.476604  0.435455  0.142606  1
  O  O37  1  0.608200  0.147355  0.431011  1
  O  O38  1  0.612589  0.652906  0.047968  1
  O  O39  1  0.786845  0.828195  0.672370  1
  O  O40  1  0.729037  0.177094  0.068873  1
  O  O41  1  0.751442  0.325295  0.656804  1
  O  O42  1  0.887723  0.888862  0.402440  1
  O  O43  1  0.945461  0.678461  0.889198  1
  O  O44  1  0.909261  0.515390  0.629002  1
  O  O45  1  0.850190  0.384594  0.386927  1
  O  O46  1  0.006150  0.187363  0.873614  1
  O  O47  1  0.920530  0.016417  0.651359  1
