# generated using pymatgen
data_TbBi5O9
_symmetry_space_group_name_H-M   'P 1'
_cell_length_a   3.88842059
_cell_length_b   9.57357512
_cell_length_c   6.88524249
_cell_angle_alpha   84.09288108
_cell_angle_beta   91.37653332
_cell_angle_gamma   101.55957466
_symmetry_Int_Tables_number   1
_chemical_formula_structural   TbBi5O9
_chemical_formula_sum   'Tb1 Bi5 O9'
_cell_volume   249.77693891
_cell_formula_units_Z   1
loop_
 _symmetry_equiv_pos_site_id
 _symmetry_equiv_pos_as_xyz
  1  'x, y, z'
loop_
 _atom_site_type_symbol
 _atom_site_label
 _atom_site_symmetry_multiplicity
 _atom_site_fract_x
 _atom_site_fract_y
 _atom_site_fract_z
 _atom_site_occupancy
  Tb  Tb0  1  0.979293  0.021762  0.988477  1
  Bi  Bi1  1  0.848311  0.659690  0.408224  1
  Bi  Bi2  1  0.471465  0.997292  0.457315  1
  Bi  Bi3  1  0.667771  0.350894  0.112869  1
  Bi  Bi4  1  0.141106  0.321931  0.609707  1
  Bi  Bi5  1  0.339837  0.661147  0.871140  1
  O  O6  1  0.150085  0.523401  0.210850  1
  O  O7  1  0.811896  0.567343  0.745362  1
  O  O8  1  0.634061  0.290385  0.445478  1
  O  O9  1  0.525383  0.107855  0.146579  1
  O  O10  1  0.940775  0.896220  0.303599  1
  O  O11  1  0.408959  0.887225  0.909343  1
  O  O12  1  0.361348  0.739775  0.543892  1
  O  O13  1  0.070776  0.275966  0.936196  1
  O  O14  1  0.044690  0.091424  0.645184  1
