# generated using pymatgen
data_V2Ni3Te3O16
_symmetry_space_group_name_H-M   'P 1'
_cell_length_a   6.08041735
_cell_length_b   6.06236177
_cell_length_c   9.21740632
_cell_angle_alpha   89.99828293
_cell_angle_beta   91.06761725
_cell_angle_gamma   119.90102192
_symmetry_Int_Tables_number   1
_chemical_formula_structural   V2Ni3Te3O16
_chemical_formula_sum   'V2 Ni3 Te3 O16'
_cell_volume   294.47383647
_cell_formula_units_Z   1
loop_
 _symmetry_equiv_pos_site_id
 _symmetry_equiv_pos_as_xyz
  1  'x, y, z'
loop_
 _atom_site_type_symbol
 _atom_site_label
 _atom_site_symmetry_multiplicity
 _atom_site_fract_x
 _atom_site_fract_y
 _atom_site_fract_z
 _atom_site_occupancy
  V  V0  1  0.362712  0.681363  0.504981  1
  V  V1  1  0.720303  0.360153  0.961151  1
  Ni  Ni2  1  0.654501  0.827251  0.207411  1
  Ni  Ni3  1  0.837549  0.668276  0.704668  1
  Ni  Ni4  1  0.837522  0.169279  0.704677  1
  Te  Te5  1  0.155893  0.826869  0.214795  1
  Te  Te6  1  0.155890  0.329028  0.214806  1
  Te  Te7  1  0.338862  0.169447  0.711602  1
  O  O8  1  0.186335  0.839681  0.599945  1
  O  O9  1  0.026513  0.513259  0.339455  1
  O  O10  1  0.301404  0.650708  0.095974  1
  O  O11  1  0.001783  0.000886  0.324544  1
  O  O12  1  0.020260  0.010127  0.806918  1
  O  O13  1  0.186326  0.346690  0.599948  1
  O  O14  1  0.451929  0.947168  0.335227  1
  O  O15  1  0.451921  0.504766  0.335245  1
  O  O16  1  0.315948  0.157998  0.109253  1
  O  O17  1  0.649107  0.824564  0.592093  1
  O  O18  1  0.518318  0.467575  0.848534  1
  O  O19  1  0.518304  0.050757  0.848543  1
  O  O20  1  0.646651  0.323342  0.601954  1
  O  O21  1  0.846769  0.671998  0.103161  1
  O  O22  1  0.968430  0.484225  0.847671  1
  O  O23  1  0.846768  0.174791  0.103163  1
