# generated using pymatgen
data_Li6MnV3(PO4)6
_symmetry_space_group_name_H-M   'P 1'
_cell_length_a   9.89201017
_cell_length_b   9.86197554
_cell_length_c   9.86197529
_cell_angle_alpha   87.57421894
_cell_angle_beta   86.96288106
_cell_angle_gamma   86.96288008
_symmetry_Int_Tables_number   1
_chemical_formula_structural   Li6MnV3(PO4)6
_chemical_formula_sum   'Li12 Mn2 V6 P12 O48'
_cell_volume   958.62826734
_cell_formula_units_Z   2
loop_
 _symmetry_equiv_pos_site_id
 _symmetry_equiv_pos_as_xyz
  1  'x, y, z'
loop_
 _atom_site_type_symbol
 _atom_site_label
 _atom_site_symmetry_multiplicity
 _atom_site_fract_x
 _atom_site_fract_y
 _atom_site_fract_z
 _atom_site_occupancy
  Li  Li0  1  0.005184  0.049157  0.979048  1
  Li  Li1  1  0.061396  0.735947  0.144046  1
  Li  Li2  1  0.137293  0.071728  0.728561  1
  Li  Li3  1  0.231436  0.559680  0.645428  1
  Li  Li4  1  0.268564  0.854572  0.940320  1
  Li  Li5  1  0.362707  0.771439  0.428272  1
  Li  Li6  1  0.438604  0.355954  0.764053  1
  Li  Li7  1  0.494816  0.520952  0.450843  1
  Li  Li8  1  0.641484  0.232779  0.558479  1
  Li  Li9  1  0.767823  0.462424  0.357834  1
  Li  Li10  1  0.732177  0.142166  0.037576  1
  Li  Li11  1  0.858516  0.941521  0.267221  1
  Mn  Mn12  1  0.527500  0.968382  0.743569  1
  Mn  Mn13  1  0.972500  0.756431  0.531618  1
  V  V14  1  0.033229  0.254078  0.471086  1
  V  V15  1  0.250000  0.249919  0.250081  1
  V  V16  1  0.250000  0.463874  0.036126  1
  V  V17  1  0.466771  0.028914  0.245922  1
  V  V18  1  0.750000  0.532003  0.967997  1
  V  V19  1  0.750000  0.751449  0.748551  1
  P  P20  1  0.050928  0.668663  0.859399  1
  P  P21  1  0.148719  0.953933  0.332066  1
  P  P22  1  0.172498  0.550204  0.353105  1
  P  P23  1  0.327502  0.146895  0.949796  1
  P  P24  1  0.351281  0.167934  0.546067  1
  P  P25  1  0.449072  0.640601  0.831337  1
  P  P26  1  0.550185  0.346948  0.176572  1
  P  P27  1  0.642870  0.821944  0.449483  1
  P  P28  1  0.672176  0.847840  0.046748  1
  P  P29  1  0.827824  0.453252  0.652160  1
  P  P30  1  0.857130  0.050517  0.678056  1
  P  P31  1  0.949815  0.323428  0.153052  1
  O  O32  1  0.032867  0.614840  0.397560  1
  O  O33  1  0.056155  0.906311  0.226109  1
  O  O34  1  0.109434  0.329362  0.123361  1
  O  O35  1  0.122466  0.114557  0.331701  1
  O  O36  1  0.090731  0.690352  0.706943  1
  O  O37  1  0.117382  0.891336  0.475355  1
  O  O38  1  0.092068  0.781384  0.949509  1
  O  O39  1  0.115252  0.529885  0.906783  1
  O  O40  1  0.170262  0.389591  0.378623  1
  O  O41  1  0.193098  0.585546  0.198206  1
  O  O42  1  0.197668  0.203019  0.582946  1
  O  O43  1  0.213454  0.060249  0.906434  1
  O  O44  1  0.329738  0.121377  0.110409  1
  O  O45  1  0.286546  0.593566  0.439751  1
  O  O46  1  0.302332  0.917054  0.296981  1
  O  O47  1  0.306902  0.301794  0.914454  1
  O  O48  1  0.377534  0.168299  0.385443  1
  O  O49  1  0.390566  0.376639  0.170638  1
  O  O50  1  0.382618  0.024645  0.608664  1
  O  O51  1  0.384748  0.593217  0.970115  1
  O  O52  1  0.407932  0.550491  0.718616  1
  O  O53  1  0.443845  0.273891  0.593689  1
  O  O54  1  0.409269  0.793057  0.809648  1
  O  O55  1  0.467133  0.102440  0.885160  1
  O  O56  1  0.532193  0.887363  0.110829  1
  O  O57  1  0.581870  0.189185  0.174225  1
  O  O58  1  0.595128  0.410370  0.303102  1
  O  O59  1  0.557608  0.705795  0.414033  1
  O  O60  1  0.617609  0.405785  0.042471  1
  O  O61  1  0.585611  0.960072  0.386302  1
  O  O62  1  0.610532  0.621683  0.836675  1
  O  O63  1  0.623087  0.832551  0.610408  1
  O  O64  1  0.704606  0.092489  0.691006  1
  O  O65  1  0.702682  0.688464  0.072232  1
  O  O66  1  0.717282  0.403366  0.566080  1
  O  O67  1  0.671609  0.876778  0.888237  1
  O  O68  1  0.782718  0.933920  0.096634  1
  O  O69  1  0.797318  0.427768  0.811536  1
  O  O70  1  0.795394  0.808994  0.407511  1
  O  O71  1  0.828391  0.611763  0.623222  1
  O  O72  1  0.882391  0.457529  0.094215  1
  O  O73  1  0.904872  0.196898  0.089630  1
  O  O74  1  0.914389  0.113698  0.539928  1
  O  O75  1  0.918130  0.325775  0.310815  1
  O  O76  1  0.876913  0.889592  0.667449  1
  O  O77  1  0.942392  0.085967  0.794205  1
  O  O78  1  0.889468  0.663325  0.878317  1
  O  O79  1  0.967807  0.389171  0.612637  1
