# generated using pymatgen
data_LiFeF3
_symmetry_space_group_name_H-M   'P 1'
_cell_length_a   7.83895652
_cell_length_b   3.03144087
_cell_length_c   9.99044612
_cell_angle_alpha   90.00760585
_cell_angle_beta   90.01229907
_cell_angle_gamma   89.99719969
_symmetry_Int_Tables_number   1
_chemical_formula_structural   LiFeF3
_chemical_formula_sum   'Li4 Fe4 F12'
_cell_volume   237.40629154
_cell_formula_units_Z   4
loop_
 _symmetry_equiv_pos_site_id
 _symmetry_equiv_pos_as_xyz
  1  'x, y, z'
loop_
 _atom_site_type_symbol
 _atom_site_label
 _atom_site_symmetry_multiplicity
 _atom_site_fract_x
 _atom_site_fract_y
 _atom_site_fract_z
 _atom_site_occupancy
  Li  Li0  1  0.002593  0.749982  0.313978  1
  Li  Li1  1  0.497197  0.250043  0.814033  1
  Li  Li2  1  0.502681  0.749957  0.185977  1
  Li  Li3  1  0.997467  0.250006  0.686003  1
  Fe  Fe4  1  0.190485  0.249940  0.013479  1
  Fe  Fe5  1  0.309517  0.749994  0.513399  1
  Fe  Fe6  1  0.690569  0.250019  0.486605  1
  Fe  Fe7  1  0.809411  0.750056  0.986496  1
  F  F8  1  0.973527  0.250000  0.888967  1
  F  F9  1  0.175314  0.249945  0.412460  1
  F  F10  1  0.149439  0.749986  0.664225  1
  F  F11  1  0.350680  0.249965  0.164239  1
  F  F12  1  0.324661  0.749852  0.912537  1
  F  F13  1  0.526566  0.749980  0.389003  1
  F  F14  1  0.473514  0.250031  0.610990  1
  F  F15  1  0.675287  0.250139  0.087480  1
  F  F16  1  0.649215  0.750030  0.835729  1
  F  F17  1  0.850654  0.250001  0.335827  1
  F  F18  1  0.824800  0.750067  0.587550  1
  F  F19  1  0.026422  0.750005  0.111022  1
