# generated using pymatgen
data_LiMn2OF3
_symmetry_space_group_name_H-M   'P 1'
_cell_length_a   6.30654742
_cell_length_b   6.38275893
_cell_length_c   9.09758199
_cell_angle_alpha   90.00000000
_cell_angle_beta   90.00000000
_cell_angle_gamma   90.00000000
_symmetry_Int_Tables_number   1
_chemical_formula_structural   LiMn2OF3
_chemical_formula_sum   'Li4 Mn8 O4 F12'
_cell_volume   366.20653149
_cell_formula_units_Z   4
loop_
 _symmetry_equiv_pos_site_id
 _symmetry_equiv_pos_as_xyz
  1  'x, y, z'
loop_
 _atom_site_type_symbol
 _atom_site_label
 _atom_site_symmetry_multiplicity
 _atom_site_fract_x
 _atom_site_fract_y
 _atom_site_fract_z
 _atom_site_occupancy
  Li  Li0  1  0.000000  0.966682  0.020018  1
  Li  Li1  1  0.500000  0.033318  0.229982  1
  Li  Li2  1  0.500000  0.533318  0.520018  1
  Li  Li3  1  0.000000  0.466682  0.729982  1
  Mn  Mn4  1  0.250000  0.500000  0.125000  1
  Mn  Mn5  1  0.750000  0.500000  0.125000  1
  Mn  Mn6  1  0.000000  0.255402  0.389983  1
  Mn  Mn7  1  0.000000  0.755402  0.360017  1
  Mn  Mn8  1  0.750000  0.000000  0.625000  1
  Mn  Mn9  1  0.250000  0.000000  0.625000  1
  Mn  Mn10  1  0.500000  0.244598  0.889983  1
  Mn  Mn11  1  0.500000  0.744598  0.860017  1
  O  O12  1  0.000000  0.701796  0.138842  1
  O  O13  1  0.500000  0.298204  0.111158  1
  O  O14  1  0.500000  0.798204  0.638842  1
  O  O15  1  0.000000  0.201796  0.611158  1
  F  F16  1  0.000000  0.237036  0.148554  1
  F  F17  1  0.500000  0.762964  0.101446  1
  F  F18  1  0.244566  0.000439  0.368191  1
  F  F19  1  0.755434  0.000439  0.368191  1
  F  F20  1  0.244566  0.500439  0.381809  1
  F  F21  1  0.755434  0.500439  0.381809  1
  F  F22  1  0.500000  0.262964  0.648554  1
  F  F23  1  0.000000  0.737036  0.601446  1
  F  F24  1  0.744566  0.499561  0.868191  1
  F  F25  1  0.255434  0.499561  0.868191  1
  F  F26  1  0.255434  0.999561  0.881809  1
  F  F27  1  0.744566  0.999561  0.881809  1
