# generated using pymatgen
data_V3O5F3
_symmetry_space_group_name_H-M   'P 1'
_cell_length_a   7.31190121
_cell_length_b   7.31190157
_cell_length_c   5.00073597
_cell_angle_alpha   89.73599020
_cell_angle_beta   90.26400788
_cell_angle_gamma   77.38598019
_symmetry_Int_Tables_number   1
_chemical_formula_structural   V3O5F3
_chemical_formula_sum   'V6 O10 F6'
_cell_volume   260.89862433
_cell_formula_units_Z   2
loop_
 _symmetry_equiv_pos_site_id
 _symmetry_equiv_pos_as_xyz
  1  'x, y, z'
loop_
 _atom_site_type_symbol
 _atom_site_label
 _atom_site_symmetry_multiplicity
 _atom_site_fract_x
 _atom_site_fract_y
 _atom_site_fract_z
 _atom_site_occupancy
  V  V0  1  0.175731  0.686960  0.759873  1
  V  V1  1  0.330012  0.332185  0.262415  1
  V  V2  1  0.313040  0.824269  0.259873  1
  V  V3  1  0.651459  0.160657  0.773370  1
  V  V4  1  0.667815  0.669988  0.762415  1
  V  V5  1  0.839343  0.348541  0.273370  1
  O  O6  1  0.067992  0.321539  0.363139  1
  O  O7  1  0.096953  0.808625  0.041075  1
  O  O8  1  0.191375  0.903047  0.541075  1
  O  O9  1  0.305687  0.562819  0.404764  1
  O  O10  1  0.451987  0.206732  0.577613  1
  O  O11  1  0.437181  0.694313  0.904764  1
  O  O12  1  0.563761  0.290735  0.081591  1
  O  O13  1  0.709265  0.436239  0.581591  1
  O  O14  1  0.678461  0.932008  0.863139  1
  O  O15  1  0.793268  0.548013  0.077613  1
  F  F16  1  0.207789  0.433330  0.917024  1
  F  F17  1  0.323369  0.070864  0.119678  1
  F  F18  1  0.566670  0.792212  0.417024  1
  F  F19  1  0.811376  0.106050  0.456919  1
  F  F20  1  0.893950  0.188624  0.956920  1
  F  F21  1  0.929136  0.676631  0.619678  1
