# generated using pymatgen
data_Na3Cd4P6H10(ClO8)3
_symmetry_space_group_name_H-M   'P 1'
_cell_length_a   9.41197879
_cell_length_b   9.32248351
_cell_length_c   10.45478084
_cell_angle_alpha   77.49459988
_cell_angle_beta   63.99590765
_cell_angle_gamma   64.13257920
_symmetry_Int_Tables_number   1
_chemical_formula_structural   Na3Cd4P6H10(ClO8)3
_chemical_formula_sum   'Na3 Cd4 P6 H10 Cl3 O24'
_cell_volume   741.49753241
_cell_formula_units_Z   1
loop_
 _symmetry_equiv_pos_site_id
 _symmetry_equiv_pos_as_xyz
  1  'x, y, z'
loop_
 _atom_site_type_symbol
 _atom_site_label
 _atom_site_symmetry_multiplicity
 _atom_site_fract_x
 _atom_site_fract_y
 _atom_site_fract_z
 _atom_site_occupancy
  Na  Na0  1  0.208810  0.019617  0.204627  1
  Na  Na1  1  0.201173  0.050025  0.593549  1
  Na  Na2  1  0.777831  0.039832  0.495768  1
  Cd  Cd3  1  0.998004  0.748515  0.900320  1
  Cd  Cd4  1  0.489876  0.232281  0.259290  1
  Cd  Cd5  1  0.713984  0.248956  0.846717  1
  Cd  Cd6  1  0.020168  0.698771  0.242093  1
  P  P7  1  0.993397  0.376827  0.822858  1
  P  P8  1  0.252889  0.180214  0.858036  1
  P  P9  1  0.251970  0.707370  0.378242  1
  P  P10  1  0.369419  0.596417  0.833842  1
  P  P11  1  0.513837  0.727848  0.852968  1
  P  P12  1  0.947788  0.372154  0.409134  1
  H  H13  1  0.436138  0.204737  0.039544  1
  H  H14  1  0.018239  0.432334  0.556519  1
  H  H15  1  0.370391  0.245186  0.753634  1
  H  H16  1  0.514655  0.337736  0.448753  1
  H  H17  1  0.376180  0.623342  0.156611  1
  H  H18  1  0.665488  0.843648  0.120476  1
  H  H19  1  0.283279  0.615080  0.579407  1
  H  H20  1  0.736591  0.547459  0.346271  1
  H  H21  1  0.686721  0.613010  0.795391  1
  H  H22  1  0.659475  0.716999  0.049220  1
  Cl  Cl23  1  0.579889  0.860571  0.408578  1
  Cl  Cl24  1  0.938091  0.943263  0.085599  1
  Cl  Cl25  1  0.891255  0.979182  0.728941  1
  O  O26  1  0.248088  0.180386  0.354212  1
  O  O27  1  0.858742  0.271310  0.512192  1
  O  O28  1  0.256415  0.173895  0.000450  1
  O  O29  1  0.050984  0.327640  0.672863  1
  O  O30  1  0.232568  0.057144  0.803861  1
  O  O31  1  0.228772  0.594638  0.984572  1
  O  O32  1  0.126386  0.278319  0.282423  1
  O  O33  1  0.760309  0.832857  0.415115  1
  O  O34  1  0.282867  0.574164  0.497763  1
  O  O35  1  0.319604  0.578337  0.253493  1
  O  O36  1  0.276594  0.847843  0.443939  1
  O  O37  1  0.543891  0.178302  0.049510  1
  O  O38  1  0.071255  0.811361  0.381182  1
  O  O39  1  0.464444  0.736625  0.013110  1
  O  O40  1  0.516328  0.435351  0.777971  1
  O  O41  1  0.280668  0.682535  0.727700  1
  O  O42  1  0.516951  0.873129  0.755892  1
  O  O43  1  0.393696  0.786672  0.290144  1
  O  O44  1  0.841195  0.340168  0.933866  1
  O  O45  1  0.584902  0.233827  0.405263  1
  O  O46  1  0.982354  0.487067  0.471091  1
  O  O47  1  0.861532  0.491862  0.303624  1
  O  O48  1  0.737602  0.742547  0.071788  1
  O  O49  1  0.013495  0.522648  0.837790  1
