# generated using pymatgen
data_Li5Mn8(BO3)8
_symmetry_space_group_name_H-M   'P 1'
_cell_length_a   5.33516547
_cell_length_b   9.02861753
_cell_length_c   10.39833069
_cell_angle_alpha   90.45816043
_cell_angle_beta   92.27763168
_cell_angle_gamma   90.30036462
_symmetry_Int_Tables_number   1
_chemical_formula_structural   Li5Mn8(BO3)8
_chemical_formula_sum   'Li5 Mn8 B8 O24'
_cell_volume   500.45949192
_cell_formula_units_Z   1
loop_
 _symmetry_equiv_pos_site_id
 _symmetry_equiv_pos_as_xyz
  1  'x, y, z'
loop_
 _atom_site_type_symbol
 _atom_site_label
 _atom_site_symmetry_multiplicity
 _atom_site_fract_x
 _atom_site_fract_y
 _atom_site_fract_z
 _atom_site_occupancy
  Li  Li0  1  0.333444  0.503747  0.413391  1
  Li  Li1  1  0.638079  0.474281  0.666804  1
  Li  Li2  1  0.641594  0.517561  0.166838  1
  Li  Li3  1  0.869872  0.000483  0.919679  1
  Li  Li4  1  0.846991  0.992212  0.417063  1
  Mn  Mn5  1  0.140673  0.695417  0.628088  1
  Mn  Mn6  1  0.150798  0.313485  0.134320  1
  Mn  Mn7  1  0.352084  0.192814  0.873220  1
  Mn  Mn8  1  0.328147  0.839801  0.366954  1
  Mn  Mn9  1  0.664171  0.140332  0.629013  1
  Mn  Mn10  1  0.656289  0.848072  0.124422  1
  Mn  Mn11  1  0.840330  0.651439  0.883330  1
  Mn  Mn12  1  0.840178  0.336152  0.390268  1
  B  B13  1  0.165042  0.345843  0.631271  1
  B  B14  1  0.155609  0.657327  0.130925  1
  B  B15  1  0.341474  0.847331  0.869187  1
  B  B16  1  0.330851  0.168169  0.383874  1
  B  B17  1  0.675103  0.809053  0.618043  1
  B  B18  1  0.681231  0.186873  0.118852  1
  B  B19  1  0.825898  0.310087  0.869847  1
  B  B20  1  0.820209  0.677763  0.375941  1
  O  O21  1  0.064475  0.303114  0.926990  1
  O  O22  1  0.067000  0.678277  0.430622  1
  O  O23  1  0.209222  0.722352  0.815507  1
  O  O24  1  0.219662  0.978197  0.878610  1
  O  O25  1  0.183196  0.045535  0.382172  1
  O  O26  1  0.228959  0.304561  0.344085  1
  O  O27  1  0.288604  0.474995  0.604923  1
  O  O28  1  0.302540  0.228655  0.687964  1
  O  O29  1  0.278270  0.524398  0.137767  1
  O  O30  1  0.287866  0.784402  0.168133  1
  O  O31  1  0.426423  0.806902  0.574721  1
  O  O32  1  0.438234  0.203022  0.065124  1
  O  O33  1  0.591255  0.830114  0.913977  1
  O  O34  1  0.585528  0.162149  0.423388  1
  O  O35  1  0.703072  0.438583  0.852002  1
  O  O36  1  0.709946  0.172136  0.836976  1
  O  O37  1  0.685479  0.548239  0.364314  1
  O  O38  1  0.721114  0.811691  0.332802  1
  O  O39  1  0.782256  0.676172  0.664611  1
  O  O40  1  0.818118  0.932310  0.606379  1
  O  O41  1  0.786775  0.315051  0.176311  1
  O  O42  1  0.807966  0.058420  0.109604  1
  O  O43  1  0.910896  0.325925  0.597783  1
  O  O44  1  0.902189  0.664636  0.089188  1
