# generated using pymatgen
data_Li2Ti2V5O12
_symmetry_space_group_name_H-M   'P 1'
_cell_length_a   5.13714611
_cell_length_b   9.12723376
_cell_length_c   9.92019976
_cell_angle_alpha   90.00000013
_cell_angle_beta   101.26029716
_cell_angle_gamma   89.99999961
_symmetry_Int_Tables_number   1
_chemical_formula_structural   Li2Ti2V5O12
_chemical_formula_sum   'Li4 Ti4 V10 O24'
_cell_volume   456.18385980
_cell_formula_units_Z   2
loop_
 _symmetry_equiv_pos_site_id
 _symmetry_equiv_pos_as_xyz
  1  'x, y, z'
loop_
 _atom_site_type_symbol
 _atom_site_label
 _atom_site_symmetry_multiplicity
 _atom_site_fract_x
 _atom_site_fract_y
 _atom_site_fract_z
 _atom_site_occupancy
  Li  Li0  1  0.493818  0.418228  0.749274  1
  Li  Li1  1  0.738879  0.409660  0.514026  1
  Li  Li2  1  0.006182  0.918228  0.750726  1
  Li  Li3  1  0.761121  0.909660  0.985974  1
  Ti  Ti4  1  0.030630  0.245914  0.761710  1
  Ti  Ti5  1  0.477670  0.248419  0.244060  1
  Ti  Ti6  1  0.022330  0.748419  0.255940  1
  Ti  Ti7  1  0.469370  0.745914  0.738290  1
  V  V8  1  0.989138  0.077833  0.259026  1
  V  V9  1  0.503373  0.071456  0.736808  1
  V  V10  1  0.252553  0.253144  0.508140  1
  V  V11  1  0.740526  0.260785  0.991509  1
  V  V12  1  -0.003212  0.427037  0.256432  1
  V  V13  1  0.996627  0.571456  0.763192  1
  V  V14  1  0.510862  0.577833  0.240974  1
  V  V15  1  0.247447  0.753144  0.991860  1
  V  V16  1  0.759474  0.760785  0.508491  1
  V  V17  1  0.503212  0.927037  0.243568  1
  O  O18  1  0.135642  0.102749  0.636440  1
  O  O19  1  0.363688  0.100167  0.360045  1
  O  O20  1  0.377000  0.237838  0.861401  1
  O  O21  1  0.849478  0.103292  0.866913  1
  O  O22  1  0.636814  0.103502  0.130624  1
  O  O23  1  0.115763  0.248887  0.143112  1
  O  O24  1  0.101893  0.398769  0.638923  1
  O  O25  1  0.604912  0.250986  0.627993  1
  O  O26  1  0.879419  0.254372  0.369636  1
  O  O27  1  0.390072  0.402686  0.365856  1
  O  O28  1  0.622579  0.402618  0.133355  1
  O  O29  1  0.873136  0.399537  0.864818  1
  O  O30  1  0.364358  0.602749  0.863560  1
  O  O31  1  0.136312  0.600167  0.139955  1
  O  O32  1  0.123000  0.737838  0.638599  1
  O  O33  1  0.650522  0.603292  0.633087  1
  O  O34  1  0.384237  0.748887  0.356888  1
  O  O35  1  0.863186  0.603502  0.369376  1
  O  O36  1  0.895088  0.750986  0.872007  1
  O  O37  1  0.109928  0.902686  0.134144  1
  O  O38  1  0.398107  0.898769  0.861077  1
  O  O39  1  0.620581  0.754372  0.130364  1
  O  O40  1  0.626864  0.899537  0.635182  1
  O  O41  1  0.877421  0.902618  0.366645  1
