# generated using pymatgen
data_LuGaO3
_symmetry_space_group_name_H-M   'P 1'
_cell_length_a   6.00022731
_cell_length_b   6.00011225
_cell_length_c   11.67075868
_cell_angle_alpha   89.99950104
_cell_angle_beta   90.00163383
_cell_angle_gamma   120.00046229
_symmetry_Int_Tables_number   1
_chemical_formula_structural   LuGaO3
_chemical_formula_sum   'Lu6 Ga6 O18'
_cell_volume   363.87714278
_cell_formula_units_Z   6
loop_
 _symmetry_equiv_pos_site_id
 _symmetry_equiv_pos_as_xyz
  1  'x, y, z'
loop_
 _atom_site_type_symbol
 _atom_site_label
 _atom_site_symmetry_multiplicity
 _atom_site_fract_x
 _atom_site_fract_y
 _atom_site_fract_z
 _atom_site_occupancy
  Lu  Lu0  1  0.333329  0.666656  0.231963  1
  Lu  Lu1  1  -0.000000  -0.000006  0.272453  1
  Lu  Lu2  1  0.000008  0.000001  0.772450  1
  Lu  Lu3  1  0.333344  0.666674  0.731975  1
  Lu  Lu4  1  0.666659  0.333327  0.731977  1
  Lu  Lu5  1  0.666657  0.333337  0.231973  1
  Ga  Ga6  1  -0.000002  0.665931  0.498689  1
  Ga  Ga7  1  0.999996  0.334061  0.998677  1
  Ga  Ga8  1  0.334064  0.334066  0.498687  1
  Ga  Ga9  1  0.665941  0.665938  0.998680  1
  Ga  Ga10  1  0.334064  0.000007  0.998681  1
  Ga  Ga11  1  0.665917  0.999986  0.498689  1
  O  O12  1  0.000006  0.693829  0.663689  1
  O  O13  1  -0.000002  0.639498  0.335236  1
  O  O14  1  0.000010  0.360514  0.835238  1
  O  O15  1  0.999978  0.306169  0.163706  1
  O  O16  1  0.333332  0.666662  0.020225  1
  O  O17  1  -0.000000  -0.000000  0.473605  1
  O  O18  1  0.999995  0.000004  0.973566  1
  O  O19  1  0.333329  0.666668  0.520204  1
  O  O20  1  0.306164  0.306173  0.663687  1
  O  O21  1  0.360510  0.360505  0.335241  1
  O  O22  1  0.306201  0.000031  0.163706  1
  O  O23  1  0.639483  0.639485  0.835243  1
  O  O24  1  0.693831  0.693811  0.163702  1
  O  O25  1  0.360512  0.000000  0.835238  1
  O  O26  1  0.666668  0.333332  0.520196  1
  O  O27  1  0.666671  0.333332  0.020224  1
  O  O28  1  0.639494  0.000009  0.335243  1
  O  O29  1  0.693820  0.000003  0.663688  1
