# generated using pymatgen
data_Hf2N2O
_symmetry_space_group_name_H-M   'P 1'
_cell_length_a   8.74878841
_cell_length_b   8.76708229
_cell_length_c   8.68941084
_cell_angle_alpha   109.34604815
_cell_angle_beta   109.33947963
_cell_angle_gamma   109.76273384
_symmetry_Int_Tables_number   1
_chemical_formula_structural   Hf2N2O
_chemical_formula_sum   'Hf16 N16 O8'
_cell_volume   512.83777945
_cell_formula_units_Z   8
loop_
 _symmetry_equiv_pos_site_id
 _symmetry_equiv_pos_as_xyz
  1  'x, y, z'
loop_
 _atom_site_type_symbol
 _atom_site_label
 _atom_site_symmetry_multiplicity
 _atom_site_fract_x
 _atom_site_fract_y
 _atom_site_fract_z
 _atom_site_occupancy
  Hf  Hf0  1  0.489894  0.998725  0.988752  1
  Hf  Hf1  1  0.757866  0.293009  0.544888  1
  Hf  Hf2  1  0.209850  0.959227  0.251105  1
  Hf  Hf3  1  0.721963  0.472774  0.248955  1
  Hf  Hf4  1  0.245011  0.212013  0.953730  1
  Hf  Hf5  1  0.026380  0.740629  0.772810  1
  Hf  Hf6  1  0.466969  0.252081  0.721907  1
  Hf  Hf7  1  0.998156  0.508715  0.998271  1
  Hf  Hf8  1  0.011198  0.000119  0.501144  1
  Hf  Hf9  1  0.503883  0.508114  0.513514  1
  Hf  Hf10  1  0.972306  0.258458  0.225418  1
  Hf  Hf11  1  0.532388  0.746877  0.289500  1
  Hf  Hf12  1  0.758665  0.785828  0.042182  1
  Hf  Hf13  1  0.781120  0.031489  0.744959  1
  Hf  Hf14  1  0.285309  0.534650  0.745945  1
  Hf  Hf15  1  0.249412  0.714218  0.462046  1
  N  N16  1  0.509510  0.237140  0.970993  1
  N  N17  1  0.767134  0.536397  0.524870  1
  N  N18  1  0.765637  0.725394  0.258684  1
  N  N19  1  0.239616  0.967695  0.510969  1
  N  N20  1  0.726023  0.256471  0.768209  1
  N  N21  1  0.009597  0.045083  0.270171  1
  N  N22  1  0.956481  0.727915  0.988057  1
  N  N23  1  0.963947  0.507250  0.237627  1
  N  N24  1  0.275131  0.736976  0.222436  1
  N  N25  1  0.541009  0.772319  0.546455  1
  N  N26  1  0.988548  0.957691  0.732184  1
  N  N27  1  0.225429  0.274174  0.741741  1
  N  N28  1  0.547163  0.535626  0.773951  1
  N  N29  1  0.228930  0.454123  0.466112  1
  N  N30  1  0.032551  0.484007  0.757447  1
  N  N31  1  0.265550  0.777803  0.732270  1
  O  O32  1  0.722979  0.993988  0.954013  1
  O  O33  1  0.757003  0.032908  0.484207  1
  O  O34  1  0.739515  0.214623  0.273735  1
  O  O35  1  0.282128  0.014580  0.054084  1
  O  O36  1  0.461826  0.226493  0.448162  1
  O  O37  1  0.046521  0.268823  0.018394  1
  O  O38  1  0.441530  0.463886  0.221771  1
  O  O39  1  0.495876  0.771708  0.038336  1
