# generated using pymatgen
data_Li5Fe5(PO4)6
_symmetry_space_group_name_H-M   'P 1'
_cell_length_a   8.46160110
_cell_length_b   8.80572345
_cell_length_c   8.81901029
_cell_angle_alpha   59.98101924
_cell_angle_beta   59.55177719
_cell_angle_gamma   59.56908423
_symmetry_Int_Tables_number   1
_chemical_formula_structural   Li5Fe5(PO4)6
_chemical_formula_sum   'Li5 Fe5 P6 O24'
_cell_volume   461.46976780
_cell_formula_units_Z   1
loop_
 _symmetry_equiv_pos_site_id
 _symmetry_equiv_pos_as_xyz
  1  'x, y, z'
loop_
 _atom_site_type_symbol
 _atom_site_label
 _atom_site_symmetry_multiplicity
 _atom_site_fract_x
 _atom_site_fract_y
 _atom_site_fract_z
 _atom_site_occupancy
  Li  Li0  1  0.528300  0.159987  0.156830  1
  Li  Li1  1  0.249912  0.860236  0.643106  1
  Li  Li2  1  0.717177  0.146765  0.329850  1
  Li  Li3  1  0.716922  0.809845  0.141109  1
  Li  Li4  1  0.713451  0.334974  0.808761  1
  Fe  Fe5  1  0.999558  0.000765  0.005250  1
  Fe  Fe6  1  0.066340  0.642288  0.645842  1
  Fe  Fe7  1  0.495200  0.496186  0.499890  1
  Fe  Fe8  1  0.433486  0.853555  0.858755  1
  Fe  Fe9  1  0.952944  0.349117  0.345018  1
  P  P10  1  0.257319  0.249394  0.547289  1
  P  P11  1  0.258020  0.947901  0.243703  1
  P  P12  1  0.257771  0.547804  0.947250  1
  P  P13  1  0.753913  0.459247  0.041773  1
  P  P14  1  0.767575  0.038475  0.743263  1
  P  P15  1  0.740173  0.747054  0.462438  1
  O  O16  1  0.074829  0.109985  0.304071  1
  O  O17  1  0.073911  0.508672  0.108656  1
  O  O18  1  0.073280  0.313702  0.502924  1
  O  O19  1  0.226347  0.085463  0.738302  1
  O  O20  1  0.446258  0.189178  0.396795  1
  O  O21  1  0.266811  0.406024  0.576662  1
  O  O22  1  0.227370  0.933274  0.090787  1
  O  O23  1  0.268603  0.757911  0.410823  1
  O  O24  1  0.568444  0.613789  0.004501  1
  O  O25  1  0.270859  0.579375  0.748282  1
  O  O26  1  0.783000  0.267986  0.044488  1
  O  O27  1  0.595405  0.984871  0.798527  1
  O  O28  1  0.447988  0.974674  0.180212  1
  O  O29  1  0.225570  0.749621  0.926767  1
  O  O30  1  0.731134  0.424436  0.245609  1
  O  O31  1  0.445919  0.397114  0.972723  1
  O  O32  1  0.736361  0.240670  0.594459  1
  O  O33  1  0.781669  0.050652  0.907051  1
  O  O34  1  0.728482  0.597073  0.422265  1
  O  O35  1  0.542342  0.807451  0.611907  1
  O  O36  1  0.778318  0.906468  0.272015  1
  O  O37  1  0.905777  0.670770  0.533051  1
  O  O38  1  0.931265  0.515514  0.896203  1
  O  O39  1  0.961997  0.894734  0.669794  1
