# generated using pymatgen
data_Na2(NiO2)7
_symmetry_space_group_name_H-M   'P 1'
_cell_length_a   4.84406114
_cell_length_b   6.50572675
_cell_length_c   9.01526959
_cell_angle_alpha   99.80471546
_cell_angle_beta   94.73478965
_cell_angle_gamma   103.70902596
_symmetry_Int_Tables_number   1
_chemical_formula_structural   Na2(NiO2)7
_chemical_formula_sum   'Na2 Ni7 O14'
_cell_volume   269.73256090
_cell_formula_units_Z   1
loop_
 _symmetry_equiv_pos_site_id
 _symmetry_equiv_pos_as_xyz
  1  'x, y, z'
loop_
 _atom_site_type_symbol
 _atom_site_label
 _atom_site_symmetry_multiplicity
 _atom_site_fract_x
 _atom_site_fract_y
 _atom_site_fract_z
 _atom_site_occupancy
  Na  Na0  1  0.421961  0.851237  0.857945  1
  Na  Na1  1  0.149501  0.291630  0.284923  1
  Ni  Ni2  1  0.853150  0.214910  0.712838  1
  Ni  Ni3  1  0.718296  0.927951  0.430015  1
  Ni  Ni4  1  0.422081  0.353101  0.856178  1
  Ni  Ni5  1  0.575412  0.645368  0.144320  1
  Ni  Ni6  1  0.285706  0.071433  0.571431  1
  Ni  Ni7  1  0.149311  0.789769  0.286681  1
  Ni  Ni8  1  0.995994  0.497459  0.998536  1
  O  O9  1  0.985628  0.191486  0.519346  1
  O  O10  1  0.706330  0.214912  0.895855  1
  O  O11  1  0.686857  0.614983  0.942971  1
  O  O12  1  0.884580  0.527863  0.199890  1
  O  O13  1  0.865087  0.927950  0.247001  1
  O  O14  1  0.552592  0.334949  0.663113  1
  O  O15  1  0.585826  0.951380  0.623513  1
  O  O16  1  0.154381  0.090622  0.762717  1
  O  O17  1  0.123145  0.475758  0.802117  1
  O  O18  1  0.448282  0.667094  0.340734  1
  O  O19  1  0.417058  0.052242  0.380141  1
  O  O20  1  0.018833  0.807913  0.479742  1
  O  O21  1  0.284774  0.363042  0.043296  1
  O  O22  1  0.286643  0.779805  0.099559  1
