# generated using pymatgen
data_Ti2N2O
_symmetry_space_group_name_H-M   'P 1'
_cell_length_a   8.22238648
_cell_length_b   8.23612594
_cell_length_c   8.20324696
_cell_angle_alpha   109.39718619
_cell_angle_beta   109.40780583
_cell_angle_gamma   109.56540879
_symmetry_Int_Tables_number   1
_chemical_formula_structural   Ti2N2O
_chemical_formula_sum   'Ti16 N16 O8'
_cell_volume   427.87364096
_cell_formula_units_Z   8
loop_
 _symmetry_equiv_pos_site_id
 _symmetry_equiv_pos_as_xyz
  1  'x, y, z'
loop_
 _atom_site_type_symbol
 _atom_site_label
 _atom_site_symmetry_multiplicity
 _atom_site_fract_x
 _atom_site_fract_y
 _atom_site_fract_z
 _atom_site_occupancy
  Ti  Ti0  1  0.497747  0.997076  0.986063  1
  Ti  Ti1  1  0.763929  0.303260  0.555591  1
  Ti  Ti2  1  0.713573  0.464406  0.250457  1
  Ti  Ti3  1  0.202832  0.953944  0.242734  1
  Ti  Ti4  1  0.245850  0.207651  0.942517  1
  Ti  Ti5  1  0.035031  0.742244  0.780695  1
  Ti  Ti6  1  0.535236  0.745924  0.297415  1
  Ti  Ti7  1  0.955693  0.249205  0.208410  1
  Ti  Ti8  1  0.501803  0.506869  0.513166  1
  Ti  Ti9  1  0.997282  0.994596  0.497317  1
  Ti  Ti10  1  0.464690  0.259841  0.717992  1
  Ti  Ti11  1  0.999617  0.510743  0.001424  1
  Ti  Ti12  1  0.759982  0.798140  0.049780  1
  Ti  Ti13  1  0.291652  0.540665  0.744760  1
  Ti  Ti14  1  0.789185  0.039808  0.753472  1
  Ti  Ti15  1  0.245407  0.697966  0.455575  1
  N  N16  1  0.723706  0.994831  0.951979  1
  N  N17  1  0.508215  0.232516  0.962252  1
  N  N18  1  0.012312  0.051255  0.276282  1
  N  N19  1  0.772793  0.726342  0.268090  1
  N  N20  1  0.725698  0.263012  0.771582  1
  N  N21  1  0.771827  0.543983  0.535250  1
  N  N22  1  0.277379  0.737460  0.225880  1
  N  N23  1  0.950260  0.724699  0.990529  1
  N  N24  1  0.544944  0.772188  0.548364  1
  N  N25  1  0.992097  0.953486  0.726910  1
  N  N26  1  0.225613  0.274874  0.736699  1
  N  N27  1  0.551272  0.539102  0.774780  1
  N  N28  1  0.225711  0.449899  0.460922  1
  N  N29  1  0.958332  0.505441  0.233966  1
  N  N30  1  0.039762  0.487000  0.762516  1
  N  N31  1  0.268422  0.779279  0.726752  1
  O  O32  1  0.277249  0.007640  0.054862  1
  O  O33  1  0.764745  0.040652  0.487395  1
  O  O34  1  0.735316  0.221406  0.277630  1
  O  O35  1  0.052822  0.273058  0.013593  1
  O  O36  1  0.443948  0.459837  0.219536  1
  O  O37  1  0.231178  0.958761  0.505869  1
  O  O38  1  0.453329  0.222796  0.449258  1
  O  O39  1  0.493561  0.768148  0.041735  1
