# generated using pymatgen
data_Li4MnV3(P2O7)4
_symmetry_space_group_name_H-M   'P 1'
_cell_length_a   4.86733313
_cell_length_b   16.58686536
_cell_length_c   7.05407830
_cell_angle_alpha   90.61039236
_cell_angle_beta   108.79605757
_cell_angle_gamma   89.58795166
_symmetry_Int_Tables_number   1
_chemical_formula_structural   Li4MnV3(P2O7)4
_chemical_formula_sum   'Li4 Mn1 V3 P8 O28'
_cell_volume   539.09694312
_cell_formula_units_Z   1
loop_
 _symmetry_equiv_pos_site_id
 _symmetry_equiv_pos_as_xyz
  1  'x, y, z'
loop_
 _atom_site_type_symbol
 _atom_site_label
 _atom_site_symmetry_multiplicity
 _atom_site_fract_x
 _atom_site_fract_y
 _atom_site_fract_z
 _atom_site_occupancy
  Li  Li0  1  0.174104  0.931215  0.674092  1
  Li  Li1  1  0.176428  0.430800  0.674611  1
  Li  Li2  1  0.823479  0.180114  0.324519  1
  Li  Li3  1  0.822471  0.680646  0.325578  1
  Mn  Mn4  1  0.784226  0.999781  0.268596  1
  V  V5  1  0.216176  0.249820  0.726314  1
  V  V6  1  0.213814  0.749725  0.728991  1
  V  V7  1  0.783863  0.499843  0.271587  1
  P  P8  1  0.402202  0.088660  0.521979  1
  P  P9  1  0.399864  0.589909  0.522711  1
  P  P10  1  0.213316  0.391876  0.085659  1
  P  P11  1  0.213364  0.892339  0.088420  1
  P  P12  1  0.790042  0.143496  0.913272  1
  P  P13  1  0.787562  0.642282  0.914396  1
  P  P14  1  0.601241  0.840256  0.482686  1
  P  P15  1  0.600364  0.340265  0.477254  1
  O  O16  1  0.049611  0.163095  0.846425  1
  O  O17  1  0.049832  0.662424  0.851339  1
  O  O18  1  0.132757  0.348207  0.884363  1
  O  O19  1  0.131130  0.847553  0.888161  1
  O  O20  1  0.189455  0.017732  0.482190  1
  O  O21  1  0.186760  0.519065  0.482056  1
  O  O22  1  0.246746  0.671537  0.506857  1
  O  O23  1  0.250196  0.170816  0.505432  1
  O  O24  1  0.396625  0.338810  0.604155  1
  O  O25  1  0.392248  0.837352  0.605846  1
  O  O26  1  0.600532  0.218175  0.913221  1
  O  O27  1  0.600252  0.717036  0.916534  1
  O  O28  1  0.598531  0.076630  0.752782  1
  O  O29  1  0.596349  0.576349  0.752836  1
  O  O30  1  0.405497  0.326527  0.245981  1
  O  O31  1  0.405168  0.827789  0.249311  1
  O  O32  1  0.397458  0.466632  0.084434  1
  O  O33  1  0.395759  0.967121  0.083953  1
  O  O34  1  0.603023  0.588600  0.395250  1
  O  O35  1  0.603888  0.087626  0.391686  1
  O  O36  1  0.752167  0.421800  0.494157  1
  O  O37  1  0.754266  0.920931  0.505640  1
  O  O38  1  0.811734  0.768127  0.518070  1
  O  O39  1  0.814181  0.269121  0.516227  1
  O  O40  1  0.874576  0.102043  0.114565  1
  O  O41  1  0.867409  0.598669  0.114064  1
  O  O42  1  0.949692  0.412029  0.148511  1
  O  O43  1  0.941644  0.912758  0.145291  1
