# generated using pymatgen
data_LiV(Si3O7)2
_symmetry_space_group_name_H-M   'P 1'
_cell_length_a   12.77047103
_cell_length_b   12.77047103
_cell_length_c   7.37864117
_cell_angle_alpha   73.20820889
_cell_angle_beta   106.79179111
_cell_angle_gamma   82.43834167
_symmetry_Int_Tables_number   1
_chemical_formula_structural   LiV(Si3O7)2
_chemical_formula_sum   'Li4 V4 Si24 O56'
_cell_volume   1072.12417340
_cell_formula_units_Z   4
loop_
 _symmetry_equiv_pos_site_id
 _symmetry_equiv_pos_as_xyz
  1  'x, y, z'
loop_
 _atom_site_type_symbol
 _atom_site_label
 _atom_site_symmetry_multiplicity
 _atom_site_fract_x
 _atom_site_fract_y
 _atom_site_fract_z
 _atom_site_occupancy
  Li  Li0  1  0.750000  0.750000  0.000000  1
  Li  Li1  1  0.250000  0.250000  0.000000  1
  Li  Li2  1  0.000000  0.000000  0.500000  1
  Li  Li3  1  0.500000  0.500000  0.500000  1
  V  V4  1  0.963256  0.536744  0.213256  1
  V  V5  1  0.463256  0.036744  0.213256  1
  V  V6  1  0.536744  0.963256  0.786744  1
  V  V7  1  0.036744  0.463256  0.786744  1
  Si  Si8  1  0.871749  0.128251  0.057800  1
  Si  Si9  1  0.628251  0.371749  0.314302  1
  Si  Si10  1  0.334718  0.665282  0.071450  1
  Si  Si11  1  0.730203  0.575423  0.334655  1
  Si  Si12  1  0.424577  0.269797  0.334655  1
  Si  Si13  1  0.075423  0.230203  0.179874  1
  Si  Si14  1  0.769797  0.924577  0.179874  1
  Si  Si15  1  0.834718  0.165282  0.597986  1
  Si  Si16  1  0.529487  0.779018  0.219338  1
  Si  Si17  1  0.279018  0.029487  0.468869  1
  Si  Si18  1  0.220982  0.470513  0.219338  1
  Si  Si19  1  0.970513  0.720982  0.468869  1
  Si  Si20  1  0.029487  0.279018  0.531131  1
  Si  Si21  1  0.720982  0.970513  0.531131  1
  Si  Si22  1  0.470513  0.220982  0.780662  1
  Si  Si23  1  0.779018  0.529487  0.780662  1
  Si  Si24  1  0.165282  0.834718  0.402014  1
  Si  Si25  1  0.230203  0.075423  0.820126  1
  Si  Si26  1  0.269797  0.424577  0.665345  1
  Si  Si27  1  0.575423  0.730203  0.665345  1
  Si  Si28  1  0.924577  0.769797  0.820126  1
  Si  Si29  1  0.665282  0.334718  0.928550  1
  Si  Si30  1  0.371749  0.628251  0.685698  1
  Si  Si31  1  0.128251  0.871749  0.942200  1
  O  O32  1  0.993281  0.139077  0.190747  1
  O  O33  1  0.860923  0.006719  0.190747  1
  O  O34  1  0.772284  0.227716  0.039468  1
  O  O35  1  0.931562  0.696569  0.039968  1
  O  O36  1  0.303431  0.068438  0.039968  1
  O  O37  1  0.628304  0.371696  0.096779  1
  O  O38  1  0.431561  0.196569  0.195025  1
  O  O39  1  0.803431  0.568438  0.195025  1
  O  O40  1  0.806308  0.058695  0.531451  1
  O  O41  1  0.941305  0.193692  0.531451  1
  O  O42  1  0.599728  0.013489  0.541719  1
  O  O43  1  0.986511  0.400272  0.541719  1
  O  O44  1  0.639077  0.493281  0.336542  1
  O  O45  1  0.506719  0.360923  0.336542  1
  O  O46  1  0.727716  0.272284  0.494901  1
  O  O47  1  0.486511  0.900272  0.044521  1
  O  O48  1  0.099728  0.513489  0.044521  1
  O  O49  1  0.203312  0.150237  0.298443  1
  O  O50  1  0.650237  0.703312  0.245369  1
  O  O51  1  0.296688  0.349763  0.245369  1
  O  O52  1  0.849763  0.796688  0.298443  1
  O  O53  1  0.306308  0.558695  0.216164  1
  O  O54  1  0.441305  0.693692  0.216164  1
  O  O55  1  0.455869  0.193074  0.571586  1
  O  O56  1  0.693074  0.955869  0.308792  1
  O  O57  1  0.044131  0.306926  0.308792  1
  O  O58  1  0.806926  0.544131  0.571586  1
  O  O59  1  0.871696  0.128304  0.840172  1
  O  O60  1  0.128304  0.871696  0.159828  1
  O  O61  1  0.544131  0.806926  0.428414  1
  O  O62  1  0.193074  0.455869  0.428414  1
  O  O63  1  0.955869  0.693074  0.691208  1
  O  O64  1  0.306926  0.044131  0.691208  1
  O  O65  1  0.558695  0.306308  0.783836  1
  O  O66  1  0.693692  0.441305  0.783836  1
  O  O67  1  0.349763  0.296688  0.754631  1
  O  O68  1  0.703312  0.650237  0.754631  1
  O  O69  1  0.796688  0.849763  0.701557  1
  O  O70  1  0.150237  0.203312  0.701557  1
  O  O71  1  0.513489  0.099728  0.955479  1
  O  O72  1  0.900272  0.486511  0.955479  1
  O  O73  1  0.272284  0.727716  0.505099  1
  O  O74  1  0.360923  0.506719  0.663458  1
  O  O75  1  0.493281  0.639077  0.663458  1
  O  O76  1  0.400272  0.986511  0.458281  1
  O  O77  1  0.013489  0.599728  0.458281  1
  O  O78  1  0.058695  0.806308  0.468549  1
  O  O79  1  0.193692  0.941305  0.468549  1
  O  O80  1  0.196569  0.431561  0.804975  1
  O  O81  1  0.568438  0.803431  0.804975  1
  O  O82  1  0.371696  0.628304  0.903221  1
  O  O83  1  0.696569  0.931562  0.960032  1
  O  O84  1  0.068438  0.303431  0.960032  1
  O  O85  1  0.227716  0.772284  0.960532  1
  O  O86  1  0.139077  0.993281  0.809253  1
  O  O87  1  0.006719  0.860923  0.809253  1
