# generated using pymatgen
data_LiFe2(BO3)2
_symmetry_space_group_name_H-M   'P 1'
_cell_length_a   5.28621487
_cell_length_b   9.08933096
_cell_length_c   10.07349222
_cell_angle_alpha   89.25778579
_cell_angle_beta   90.98732335
_cell_angle_gamma   90.27109915
_symmetry_Int_Tables_number   1
_chemical_formula_structural   LiFe2(BO3)2
_chemical_formula_sum   'Li4 Fe8 B8 O24'
_cell_volume   483.89534656
_cell_formula_units_Z   4
loop_
 _symmetry_equiv_pos_site_id
 _symmetry_equiv_pos_as_xyz
  1  'x, y, z'
loop_
 _atom_site_type_symbol
 _atom_site_label
 _atom_site_symmetry_multiplicity
 _atom_site_fract_x
 _atom_site_fract_y
 _atom_site_fract_z
 _atom_site_occupancy
  Li  Li0  1  0.648890  0.008245  0.088166  1
  Li  Li1  1  0.843660  0.487372  0.339058  1
  Li  Li2  1  0.853536  0.513045  0.832810  1
  Li  Li3  1  0.336637  0.989080  0.353194  1
  Fe  Fe4  1  0.155586  0.173114  0.119203  1
  Fe  Fe5  1  0.836593  0.152578  0.380420  1
  Fe  Fe6  1  0.340946  0.334850  0.867666  1
  Fe  Fe7  1  0.655654  0.331145  0.620949  1
  Fe  Fe8  1  0.335312  0.654795  0.371893  1
  Fe  Fe9  1  0.167421  0.832859  0.627627  1
  Fe  Fe10  1  0.655687  0.665417  0.117568  1
  Fe  Fe11  1  0.837677  0.852021  0.863228  1
  B  B12  1  0.163475  0.165693  0.621049  1
  B  B13  1  0.331448  0.329744  0.371495  1
  B  B14  1  0.828192  0.173701  0.878220  1
  B  B15  1  0.660663  0.328808  0.127026  1
  B  B16  1  0.335426  0.664116  0.871247  1
  B  B17  1  0.662769  0.671457  0.622896  1
  B  B18  1  0.161893  0.836904  0.123611  1
  B  B19  1  0.834465  0.827476  0.365693  1
  O  O20  1  0.267656  0.030002  0.614490  1
  O  O21  1  0.076697  0.181221  0.925784  1
  O  O22  1  0.691438  0.048109  0.892866  1
  O  O23  1  0.223853  0.196567  0.326472  1
  O  O24  1  0.307683  0.286415  0.659014  1
  O  O25  1  0.798095  0.201278  0.161329  1
  O  O26  1  0.911825  0.187682  0.582592  1
  O  O27  1  0.418951  0.310065  0.078328  1
  O  O28  1  0.192523  0.454294  0.370894  1
  O  O29  1  0.587282  0.330478  0.415305  1
  O  O30  1  0.725767  0.304566  0.823750  1
  O  O31  1  0.206278  0.535543  0.869876  1
  O  O32  1  0.762730  0.465211  0.143631  1
  O  O33  1  0.303164  0.712257  0.153199  1
  O  O34  1  0.418657  0.692791  0.574827  1
  O  O35  1  0.756730  0.532399  0.639439  1
  O  O36  1  0.593814  0.669272  0.916589  1
  O  O37  1  0.086928  0.829037  0.409585  1
  O  O38  1  0.220064  0.794466  0.826662  1
  O  O39  1  0.724666  0.693110  0.323683  1
  O  O40  1  0.810596  0.792357  0.657106  1
  O  O41  1  0.277395  0.972941  0.137278  1
  O  O42  1  0.906361  0.826960  0.086245  1
  O  O43  1  0.694223  0.953030  0.359156  1
