# generated using pymatgen
data_Mn2O3F
_symmetry_space_group_name_H-M   'P 1'
_cell_length_a   8.82566938
_cell_length_b   5.48311808
_cell_length_c   5.48311808
_cell_angle_alpha   73.04144270
_cell_angle_beta   87.40318255
_cell_angle_gamma   87.40318255
_symmetry_Int_Tables_number   1
_chemical_formula_structural   Mn2O3F
_chemical_formula_sum   'Mn8 O12 F4'
_cell_volume   253.39835486
_cell_formula_units_Z   4
loop_
 _symmetry_equiv_pos_site_id
 _symmetry_equiv_pos_as_xyz
  1  'x, y, z'
loop_
 _atom_site_type_symbol
 _atom_site_label
 _atom_site_symmetry_multiplicity
 _atom_site_fract_x
 _atom_site_fract_y
 _atom_site_fract_z
 _atom_site_occupancy
  Mn  Mn0  1  0.889259  0.612086  0.612086  1
  Mn  Mn1  1  0.610741  0.887914  0.887914  1
  Mn  Mn2  1  0.750000  0.250000  0.250000  1
  Mn  Mn3  1  0.510383  0.506030  0.506030  1
  Mn  Mn4  1  0.250000  0.750000  0.750000  1
  Mn  Mn5  1  0.381913  0.143028  0.143028  1
  Mn  Mn6  1  0.118087  0.356972  0.356972  1
  Mn  Mn7  1  0.989617  0.993970  0.993970  1
  O  O8  1  0.494380  0.196631  0.818233  1
  O  O9  1  0.470471  0.722602  0.722602  1
  O  O10  1  0.732206  0.472498  0.472498  1
  O  O11  1  0.969013  0.214040  0.214040  1
  O  O12  1  0.767794  0.027502  0.027502  1
  O  O13  1  0.530987  0.285960  0.285960  1
  O  O14  1  0.029529  0.777398  0.777398  1
  O  O15  1  0.005620  0.303369  0.681767  1
  O  O16  1  0.494380  0.818233  0.196631  1
  O  O17  1  0.250000  0.057275  0.442725  1
  O  O18  1  0.005620  0.681767  0.303369  1
  O  O19  1  0.250000  0.442725  0.057275  1
  F  F20  1  0.750000  0.569557  0.930443  1
  F  F21  1  0.750000  0.930443  0.569557  1
  F  F22  1  0.223165  0.987415  0.987415  1
  F  F23  1  0.276835  0.512585  0.512585  1
