# generated using pymatgen
data_Ni3OF5
_symmetry_space_group_name_H-M   'P 1'
_cell_length_a   4.69481448
_cell_length_b   7.75943472
_cell_length_c   5.62311170
_cell_angle_alpha   93.84613916
_cell_angle_beta   90.00000000
_cell_angle_gamma   90.00000000
_symmetry_Int_Tables_number   1
_chemical_formula_structural   Ni3OF5
_chemical_formula_sum   'Ni6 O2 F10'
_cell_volume   204.38357822
_cell_formula_units_Z   2
loop_
 _symmetry_equiv_pos_site_id
 _symmetry_equiv_pos_as_xyz
  1  'x, y, z'
loop_
 _atom_site_type_symbol
 _atom_site_label
 _atom_site_symmetry_multiplicity
 _atom_site_fract_x
 _atom_site_fract_y
 _atom_site_fract_z
 _atom_site_occupancy
  Ni  Ni0  1  0.490503  0.007626  0.498129  1
  Ni  Ni1  1  0.513222  0.667917  0.162251  1
  Ni  Ni2  1  0.491387  0.330294  0.826763  1
  Ni  Ni3  1  0.991387  0.669706  0.673237  1
  Ni  Ni4  1  0.013222  0.332083  0.337749  1
  Ni  Ni5  1  0.990503  0.992374  0.001871  1
  O  O6  1  0.804976  0.766210  0.963611  1
  O  O7  1  0.304976  0.233790  0.536389  1
  F  F8  1  0.803146  0.434827  0.629830  1
  F  F9  1  0.804689  0.102222  0.299680  1
  F  F10  1  0.694108  0.773657  0.465129  1
  F  F11  1  0.700085  0.101597  0.795496  1
  F  F12  1  0.697885  0.429113  0.131605  1
  F  F13  1  0.303146  0.565173  0.870170  1
  F  F14  1  0.304689  0.897778  0.200320  1
  F  F15  1  0.194108  0.226343  0.034871  1
  F  F16  1  0.197884  0.570887  0.368395  1
  F  F17  1  0.200085  0.898403  0.704504  1
