# generated using pymatgen
data_Ca3YMn3B4O15
_symmetry_space_group_name_H-M   'P 1'
_cell_length_a   10.64387274
_cell_length_b   10.65023377
_cell_length_c   6.03610614
_cell_angle_alpha   90.00000000
_cell_angle_beta   90.00000000
_cell_angle_gamma   119.67356756
_symmetry_Int_Tables_number   1
_chemical_formula_structural   Ca3YMn3B4O15
_chemical_formula_sum   'Ca6 Y2 Mn6 B8 O30'
_cell_volume   594.51864951
_cell_formula_units_Z   2
loop_
 _symmetry_equiv_pos_site_id
 _symmetry_equiv_pos_as_xyz
  1  'x, y, z'
loop_
 _atom_site_type_symbol
 _atom_site_label
 _atom_site_symmetry_multiplicity
 _atom_site_fract_x
 _atom_site_fract_y
 _atom_site_fract_z
 _atom_site_occupancy
  Ca  Ca0  1  0.151208  0.263607  0.250000  1
  Ca  Ca1  1  0.313075  0.137590  0.750000  1
  Ca  Ca2  1  0.737140  0.890181  0.250000  1
  Ca  Ca3  1  0.821723  0.686494  0.750000  1
  Ca  Ca4  1  0.666682  0.332039  0.750000  1
  Ca  Ca5  1  0.865082  0.175221  0.750000  1
  Y  Y6  1  0.105633  0.848325  0.250000  1
  Y  Y7  1  0.335117  0.666986  0.250000  1
  Mn  Mn8  1  0.999784  0.497891  0.000869  1
  Mn  Mn9  1  0.501431  0.501255  0.002353  1
  Mn  Mn10  1  0.501431  0.501255  0.497647  1
  Mn  Mn11  1  0.497140  0.999705  0.002017  1
  Mn  Mn12  1  0.497140  0.999705  0.497983  1
  Mn  Mn13  1  0.999784  0.497891  0.499131  1
  B  B14  1  0.214492  0.769848  0.750000  1
  B  B15  1  0.002195  0.997749  0.007599  1
  B  B16  1  0.002195  0.997749  0.492401  1
  B  B17  1  0.234258  0.453155  0.750000  1
  B  B18  1  0.547406  0.782040  0.750000  1
  B  B19  1  0.452318  0.220733  0.250000  1
  B  B20  1  0.768718  0.550518  0.250000  1
  B  B21  1  0.779274  0.231588  0.250000  1
  O  O22  1  0.167073  0.699221  0.955528  1
  O  O23  1  0.167073  0.699221  0.544472  1
  O  O24  1  0.101318  0.476289  0.250000  1
  O  O25  1  0.310794  0.915125  0.750000  1
  O  O26  1  0.087372  0.399977  0.750000  1
  O  O27  1  0.367115  0.899877  0.250000  1
  O  O28  1  0.305761  0.479754  0.954435  1
  O  O29  1  0.305761  0.479754  0.545565  1
  O  O30  1  0.519092  0.826141  0.954914  1
  O  O31  1  0.519092  0.826141  0.545086  1
  O  O32  1  0.150496  0.055195  0.025768  1
  O  O33  1  0.150496  0.055195  0.474232  1
  O  O34  1  0.526404  0.626163  0.250000  1
  O  O35  1  0.403522  0.319669  0.250000  1
  O  O36  1  0.603584  0.690814  0.750000  1
  O  O37  1  0.477033  0.384067  0.750000  1
  O  O38  1  0.477603  0.173216  0.451398  1
  O  O39  1  0.477603  0.173216  0.048602  1
  O  O40  1  0.696522  0.522980  0.450847  1
  O  O41  1  0.696522  0.522980  0.049153  1
  O  O42  1  0.920809  0.848749  0.024266  1
  O  O43  1  0.920809  0.848749  0.475734  1
  O  O44  1  0.615744  0.091157  0.750000  1
  O  O45  1  0.918605  0.604609  0.250000  1
  O  O46  1  0.679896  0.084587  0.250000  1
  O  O47  1  0.905573  0.521621  0.750000  1
  O  O48  1  0.827608  0.304440  0.450859  1
  O  O49  1  0.827608  0.304440  0.049141  1
  O  O50  1  0.939941  0.082563  0.016955  1
  O  O51  1  0.939941  0.082563  0.483045  1
