# generated using pymatgen
data_Li3Cu2F8
_symmetry_space_group_name_H-M   'P 1'
_cell_length_a   5.44892381
_cell_length_b   6.44882498
_cell_length_c   5.77589391
_cell_angle_alpha   82.91265592
_cell_angle_beta   111.95725051
_cell_angle_gamma   60.39067343
_symmetry_Int_Tables_number   1
_chemical_formula_structural   Li3Cu2F8
_chemical_formula_sum   'Li3 Cu2 F8'
_cell_volume   151.23691869
_cell_formula_units_Z   1
loop_
 _symmetry_equiv_pos_site_id
 _symmetry_equiv_pos_as_xyz
  1  'x, y, z'
loop_
 _atom_site_type_symbol
 _atom_site_label
 _atom_site_symmetry_multiplicity
 _atom_site_fract_x
 _atom_site_fract_y
 _atom_site_fract_z
 _atom_site_occupancy
  Li  Li0  1  0.018587  0.040093  0.935557  1
  Li  Li1  1  0.401896  0.484927  0.187216  1
  Li  Li2  1  0.556899  0.536427  0.820492  1
  Cu  Cu3  1  0.231552  0.239523  0.510668  1
  Cu  Cu4  1  0.772069  0.754234  0.495907  1
  F  F5  1  0.059290  0.606249  0.342304  1
  F  F6  1  0.498563  0.157040  0.338059  1
  F  F7  1  0.443752  0.763047  0.215052  1
  F  F8  1  0.891115  0.283577  0.195600  1
  F  F9  1  0.111818  0.720786  0.800282  1
  F  F10  1  0.559600  0.228105  0.801805  1
  F  F11  1  0.492027  0.853941  0.668558  1
  F  F12  1  0.962656  0.332051  0.688322  1
