# generated using pymatgen
data_Mn6O7F5
_symmetry_space_group_name_H-M   'P 1'
_cell_length_a   4.76298183
_cell_length_b   7.70982374
_cell_length_c   5.64280467
_cell_angle_alpha   95.45334273
_cell_angle_beta   96.60020067
_cell_angle_gamma   85.30233826
_symmetry_Int_Tables_number   1
_chemical_formula_structural   Mn6O7F5
_chemical_formula_sum   'Mn6 O7 F5'
_cell_volume   204.38021911
_cell_formula_units_Z   1
loop_
 _symmetry_equiv_pos_site_id
 _symmetry_equiv_pos_as_xyz
  1  'x, y, z'
loop_
 _atom_site_type_symbol
 _atom_site_label
 _atom_site_symmetry_multiplicity
 _atom_site_fract_x
 _atom_site_fract_y
 _atom_site_fract_z
 _atom_site_occupancy
  Mn  Mn0  1  0.534432  0.011133  0.479491  1
  Mn  Mn1  1  0.498790  0.665830  0.167679  1
  Mn  Mn2  1  0.492314  0.331528  0.835573  1
  Mn  Mn3  1  0.002078  0.668609  0.666413  1
  Mn  Mn4  1  0.983767  0.322315  0.336433  1
  Mn  Mn5  1  0.996341  0.002930  0.008577  1
  O  O6  1  0.810350  0.101560  0.288601  1
  O  O7  1  0.699452  0.103035  0.793222  1
  O  O8  1  0.693142  0.768658  0.468689  1
  O  O9  1  0.693292  0.434051  0.128867  1
  O  O10  1  0.304529  0.567569  0.867110  1
  O  O11  1  0.310388  0.229742  0.529857  1
  O  O12  1  0.306557  0.900012  0.208657  1
  F  F13  1  0.805638  0.439445  0.634737  1
  F  F14  1  0.812678  0.767359  0.960690  1
  F  F15  1  0.176297  0.552208  0.372849  1
  F  F16  1  0.194583  0.231448  0.033528  1
  F  F17  1  0.185374  0.902569  0.719026  1
