# generated using pymatgen
data_Li2AlFeO4
_symmetry_space_group_name_H-M   'P 1'
_cell_length_a   10.10768576
_cell_length_b   5.03397826
_cell_length_c   14.28422586
_cell_angle_alpha   90.00000000
_cell_angle_beta   90.00000000
_cell_angle_gamma   90.00000000
_symmetry_Int_Tables_number   1
_chemical_formula_structural   Li2AlFeO4
_chemical_formula_sum   'Li16 Al8 Fe8 O32'
_cell_volume   726.80812861
_cell_formula_units_Z   8
loop_
 _symmetry_equiv_pos_site_id
 _symmetry_equiv_pos_as_xyz
  1  'x, y, z'
loop_
 _atom_site_type_symbol
 _atom_site_label
 _atom_site_symmetry_multiplicity
 _atom_site_fract_x
 _atom_site_fract_y
 _atom_site_fract_z
 _atom_site_occupancy
  Li  Li0  1  0.990325  0.057587  0.562943  1
  Li  Li1  1  0.988568  0.544820  0.938223  1
  Li  Li2  1  0.208083  0.965917  0.205242  1
  Li  Li3  1  0.206328  0.474232  0.308803  1
  Li  Li4  1  0.291917  0.965917  0.705242  1
  Li  Li5  1  0.293672  0.474232  0.808803  1
  Li  Li6  1  0.511432  0.544820  0.438223  1
  Li  Li7  1  0.509675  0.057587  0.062943  1
  Li  Li8  1  0.488568  0.455180  0.938223  1
  Li  Li9  1  0.490325  0.942413  0.562943  1
  Li  Li10  1  0.706328  0.525768  0.308803  1
  Li  Li11  1  0.708083  0.034083  0.205242  1
  Li  Li12  1  0.793672  0.525768  0.808803  1
  Li  Li13  1  0.791917  0.034083  0.705242  1
  Li  Li14  1  0.011432  0.455180  0.438223  1
  Li  Li15  1  0.009675  0.942413  0.062943  1
  Al  Al16  1  0.020990  0.054933  0.811937  1
  Al  Al17  1  0.225581  0.990678  0.430841  1
  Al  Al18  1  0.274419  0.990678  0.930841  1
  Al  Al19  1  0.479010  0.054933  0.311937  1
  Al  Al20  1  0.520990  0.945067  0.811937  1
  Al  Al21  1  0.725581  0.009322  0.430841  1
  Al  Al22  1  0.774419  0.009322  0.930841  1
  Al  Al23  1  0.979010  0.945067  0.311937  1
  Fe  Fe24  1  0.026629  0.549161  0.691693  1
  Fe  Fe25  1  0.224345  0.490255  0.062724  1
  Fe  Fe26  1  0.275655  0.490255  0.562724  1
  Fe  Fe27  1  0.473371  0.549161  0.191693  1
  Fe  Fe28  1  0.526629  0.450839  0.691693  1
  Fe  Fe29  1  0.724345  0.509745  0.062724  1
  Fe  Fe30  1  0.775655  0.509745  0.562724  1
  Fe  Fe31  1  0.973371  0.450839  0.191693  1
  O  O32  1  0.025415  0.288047  0.306540  1
  O  O33  1  0.016729  0.818486  0.197912  1
  O  O34  1  0.092942  0.790483  0.389999  1
  O  O35  1  0.065950  0.302982  0.088012  1
  O  O36  1  0.190491  0.129865  0.831772  1
  O  O37  1  0.212165  0.616030  0.682063  1
  O  O38  1  0.156988  0.244321  0.504745  1
  O  O39  1  0.159809  0.775375  0.988148  1
  O  O40  1  0.343012  0.244321  0.004745  1
  O  O41  1  0.340191  0.775375  0.488148  1
  O  O42  1  0.309509  0.129865  0.331772  1
  O  O43  1  0.287835  0.616030  0.182063  1
  O  O44  1  0.434050  0.302982  0.588013  1
  O  O45  1  0.407058  0.790483  0.889999  1
  O  O46  1  0.474585  0.288047  0.806540  1
  O  O47  1  0.483271  0.818486  0.697912  1
  O  O48  1  0.516729  0.181514  0.197912  1
  O  O49  1  0.525415  0.711953  0.306540  1
  O  O50  1  0.592942  0.209517  0.389999  1
  O  O51  1  0.565950  0.697018  0.088012  1
  O  O52  1  0.712165  0.383970  0.682063  1
  O  O53  1  0.690491  0.870135  0.831772  1
  O  O54  1  0.659809  0.224625  0.988148  1
  O  O55  1  0.656988  0.755679  0.504745  1
  O  O56  1  0.840191  0.224625  0.488148  1
  O  O57  1  0.843012  0.755679  0.004745  1
  O  O58  1  0.787835  0.383970  0.182063  1
  O  O59  1  0.809509  0.870135  0.331772  1
  O  O60  1  0.934050  0.697018  0.588013  1
  O  O61  1  0.907058  0.209517  0.889999  1
  O  O62  1  0.983271  0.181514  0.697912  1
  O  O63  1  0.974585  0.711953  0.806540  1
