# generated using pymatgen
data_Na3Ni5O8
_symmetry_space_group_name_H-M   'P 1'
_cell_length_a   6.01008480
_cell_length_b   10.25273717
_cell_length_c   5.93052759
_cell_angle_alpha   99.39027671
_cell_angle_beta   59.55523322
_cell_angle_gamma   90.00000000
_symmetry_Int_Tables_number   1
_chemical_formula_structural   Na3Ni5O8
_chemical_formula_sum   'Na6 Ni10 O16'
_cell_volume   309.35723208
_cell_formula_units_Z   2
loop_
 _symmetry_equiv_pos_site_id
 _symmetry_equiv_pos_as_xyz
  1  'x, y, z'
loop_
 _atom_site_type_symbol
 _atom_site_label
 _atom_site_symmetry_multiplicity
 _atom_site_fract_x
 _atom_site_fract_y
 _atom_site_fract_z
 _atom_site_occupancy
  Na  Na0  1  0.129229  0.247746  0.248220  1
  Na  Na1  1  0.377232  0.748920  0.245534  1
  Na  Na2  1  0.122768  0.251080  0.754466  1
  Na  Na3  1  0.622552  0.247746  0.248220  1
  Na  Na4  1  0.370771  0.752254  0.751780  1
  Na  Na5  1  0.877448  0.752254  0.751780  1
  Ni  Ni6  1  0.998918  0.003749  0.002164  1
  Ni  Ni7  1  0.998634  1.000000  0.500000  1
  Ni  Ni8  1  0.250000  0.500000  0.000000  1
  Ni  Ni9  1  0.501082  0.996251  0.997836  1
  Ni  Ni10  1  0.250000  0.500000  0.500000  1
  Ni  Ni11  1  0.750000  0.500000  0.000000  1
  Ni  Ni12  1  0.501366  0.000000  0.500000  1
  Ni  Ni13  1  0.626010  0.249577  0.747981  1
  Ni  Ni14  1  0.873990  0.750423  0.252019  1
  Ni  Ni15  1  0.750000  0.500000  0.500000  1
  O  O16  1  0.064613  0.606293  0.348198  1
  O  O17  1  0.157990  0.892247  0.155155  1
  O  O18  1  0.313644  0.098218  0.372713  1
  O  O19  1  0.053601  0.606525  0.892796  1
  O  O20  1  0.186356  0.901782  0.627287  1
  O  O21  1  0.446399  0.393475  0.107204  1
  O  O22  1  0.342010  0.107753  0.844845  1
  O  O23  1  0.587189  0.606293  0.348198  1
  O  O24  1  0.435387  0.393707  0.651802  1
  O  O25  1  0.686855  0.892247  0.155155  1
  O  O26  1  0.802573  0.110032  0.394855  1
  O  O27  1  0.922894  0.398249  0.154212  1
  O  O28  1  0.577106  0.601751  0.845788  1
  O  O29  1  0.697427  0.889968  0.605145  1
  O  O30  1  0.912811  0.393707  0.651802  1
  O  O31  1  0.813145  0.107753  0.844845  1
