# generated using pymatgen
data_K2Al4Fe5Si5(HO6)4
_symmetry_space_group_name_H-M   'P 1'
_cell_length_a   7.79562061
_cell_length_b   15.13579101
_cell_length_c   6.65624106
_cell_angle_alpha   79.07801810
_cell_angle_beta   78.02415105
_cell_angle_gamma   48.05808877
_symmetry_Int_Tables_number   1
_chemical_formula_structural   K2Al4Fe5Si5(HO6)4
_chemical_formula_sum   'K2 Al4 Fe5 Si5 H4 O24'
_cell_volume   570.08193686
_cell_formula_units_Z   1
loop_
 _symmetry_equiv_pos_site_id
 _symmetry_equiv_pos_as_xyz
  1  'x, y, z'
loop_
 _atom_site_type_symbol
 _atom_site_label
 _atom_site_symmetry_multiplicity
 _atom_site_fract_x
 _atom_site_fract_y
 _atom_site_fract_z
 _atom_site_occupancy
  K  K0  1  0.998330  0.892949  0.072518  1
  K  K1  1  0.075541  0.436085  0.903828  1
  Al  Al2  1  0.829691  0.708343  0.957421  1
  Al  Al3  1  0.243109  0.495832  0.229495  1
  Al  Al4  1  0.850900  0.704031  0.491649  1
  Al  Al5  1  0.447904  0.812044  0.265820  1
  Fe  Fe6  1  0.112950  0.311919  0.508282  1
  Fe  Fe7  1  0.315287  0.747221  0.611665  1
  Fe  Fe8  1  0.688635  0.410296  0.885296  1
  Fe  Fe9  1  0.545941  0.250342  0.183011  1
  Fe  Fe10  1  0.453235  0.034121  0.329560  1
  Si  Si11  1  0.300940  0.131913  0.824284  1
  Si  Si12  1  0.570762  0.184761  0.845258  1
  Si  Si13  1  0.869591  0.224452  0.485572  1
  Si  Si14  1  0.613958  0.482827  0.344097  1
  Si  Si15  1  0.796738  0.894488  0.670091  1
  H  H16  1  0.659360  0.554599  0.400343  1
  H  H17  1  0.717664  0.068934  0.416682  1
  H  H18  1  0.294378  0.986576  0.861309  1
  H  H19  1  0.316128  0.583181  0.744529  1
  O  O20  1  0.399745  0.220293  0.677707  1
  O  O21  1  0.029746  0.276565  0.816087  1
  O  O22  1  0.398601  0.942200  0.284807  1
  O  O23  1  0.470091  0.102769  0.997353  1
  O  O24  1  0.356724  0.526728  0.376698  1
  O  O25  1  0.140422  0.169665  0.444653  1
  O  O26  1  0.582406  0.736830  0.510290  1
  O  O27  1  0.441708  0.414381  0.009524  1
  O  O28  1  0.641779  0.091066  0.294048  1
  O  O29  1  0.995064  0.904737  0.658332  1
  O  O30  1  0.786045  0.174815  0.690695  1
  O  O31  1  0.752257  0.365592  0.526817  1
  O  O32  1  0.434134  0.587396  0.758423  1
  O  O33  1  0.741313  0.447541  0.109315  1
  O  O34  1  0.777021  0.233234  0.283173  1
  O  O35  1  0.186839  0.068119  0.903132  1
  O  O36  1  0.963006  0.641002  0.213371  1
  O  O37  1  0.222134  0.382755  0.311422  1
  O  O38  1  0.550678  0.762176  0.020032  1
  O  O39  1  0.970991  0.628392  0.728944  1
  O  O40  1  0.820607  0.827845  0.897390  1
  O  O41  1  0.520080  0.021670  0.650437  1
  O  O42  1  0.817999  0.834186  0.471410  1
  O  O43  1  0.269207  0.774545  0.342654  1
