# generated using pymatgen
data_LiVF5
_symmetry_space_group_name_H-M   'P 1'
_cell_length_a   8.07674762
_cell_length_b   5.47731490
_cell_length_c   10.67648957
_cell_angle_alpha   91.90785970
_cell_angle_beta   143.45192519
_cell_angle_gamma   113.10497430
_symmetry_Int_Tables_number   1
_chemical_formula_structural   LiVF5
_chemical_formula_sum   'Li2 V2 F10'
_cell_volume   199.56481606
_cell_formula_units_Z   2
loop_
 _symmetry_equiv_pos_site_id
 _symmetry_equiv_pos_as_xyz
  1  'x, y, z'
loop_
 _atom_site_type_symbol
 _atom_site_label
 _atom_site_symmetry_multiplicity
 _atom_site_fract_x
 _atom_site_fract_y
 _atom_site_fract_z
 _atom_site_occupancy
  Li  Li0  1  0.162266  0.603979  0.930460  1
  Li  Li1  1  0.836539  0.396459  0.074958  1
  V  V2  1  0.997726  0.501516  0.501335  1
  V  V3  1  0.996412  0.998842  0.000178  1
  F  F4  1  0.095906  0.446536  0.717401  1
  F  F5  1  0.313165  0.969162  0.734449  1
  F  F6  1  0.682810  0.033239  0.269226  1
  F  F7  1  0.078714  0.221653  0.197511  1
  F  F8  1  0.453528  0.602222  0.715821  1
  F  F9  1  0.900337  0.556107  0.285952  1
  F  F10  1  0.140218  0.797789  0.166231  1
  F  F11  1  0.852547  0.199974  0.834158  1
  F  F12  1  0.540067  0.398121  0.285258  1
  F  F13  1  0.915672  0.776262  0.803443  1
