# generated using pymatgen
data_CrP2
_symmetry_space_group_name_H-M   'P 1'
_cell_length_a   3.00760474
_cell_length_b   4.35842087
_cell_length_c   6.38893885
_cell_angle_alpha   80.23936500
_cell_angle_beta   76.38621680
_cell_angle_gamma   69.81614286
_symmetry_Int_Tables_number   1
_chemical_formula_structural   CrP2
_chemical_formula_sum   'Cr2 P4'
_cell_volume   76.03843267
_cell_formula_units_Z   2
loop_
 _symmetry_equiv_pos_site_id
 _symmetry_equiv_pos_as_xyz
  1  'x, y, z'
loop_
 _atom_site_type_symbol
 _atom_site_label
 _atom_site_symmetry_multiplicity
 _atom_site_fract_x
 _atom_site_fract_y
 _atom_site_fract_z
 _atom_site_occupancy
  P  P0  1  0.144375  0.739885  0.971365  1
  P  P1  1  0.855625  0.260115  0.028635  1
  P  P2  1  0.398566  0.802004  0.400863  1
  P  P3  1  0.601434  0.197996  0.599137  1
  Cr  Cr4  1  0.842747  0.609826  0.704680  1
  Cr  Cr5  1  0.157253  0.390174  0.295320  1
