# generated using pymatgen
data_Cu3OF5
_symmetry_space_group_name_H-M   'P 1'
_cell_length_a   7.55532602
_cell_length_b   4.60509866
_cell_length_c   5.96592961
_cell_angle_alpha   87.40046866
_cell_angle_beta   88.72254341
_cell_angle_gamma   90.88274228
_symmetry_Int_Tables_number   1
_chemical_formula_structural   Cu3OF5
_chemical_formula_sum   'Cu6 O2 F10'
_cell_volume   207.27956592
_cell_formula_units_Z   2
loop_
 _symmetry_equiv_pos_site_id
 _symmetry_equiv_pos_as_xyz
  1  'x, y, z'
loop_
 _atom_site_type_symbol
 _atom_site_label
 _atom_site_symmetry_multiplicity
 _atom_site_fract_x
 _atom_site_fract_y
 _atom_site_fract_z
 _atom_site_occupancy
  Cu  Cu0  1  0.999906  0.026285  0.972953  1
  Cu  Cu1  1  0.989223  0.477150  0.509665  1
  Cu  Cu2  1  0.333428  0.973715  0.360380  1
  Cu  Cu3  1  0.666667  0.500000  0.166667  1
  Cu  Cu4  1  0.344111  0.522850  0.823668  1
  Cu  Cu5  1  0.666667  0.000000  0.666667  1
  O  O6  1  0.446367  0.812592  0.637721  1
  O  O7  1  0.886966  0.187408  0.695612  1
  F  F8  1  0.232598  0.215828  0.017898  1
  F  F9  1  0.100735  0.784172  0.315435  1
  F  F10  1  0.446874  0.705151  0.154210  1
  F  F11  1  0.213694  0.285120  0.517010  1
  F  F12  1  0.119639  0.714880  0.816323  1
  F  F13  1  0.556577  0.202828  0.350076  1
  F  F14  1  0.886459  0.294849  0.179123  1
  F  F15  1  0.774045  0.694463  0.489861  1
  F  F16  1  0.559288  0.305537  0.843472  1
  F  F17  1  0.776756  0.797172  0.983257  1
