# generated using pymatgen
data_Li24Mn5Cr7O36
_symmetry_space_group_name_H-M   'P 1'
_cell_length_a   5.02843003
_cell_length_b   13.25390265
_cell_length_c   9.75249515
_cell_angle_alpha   97.05966972
_cell_angle_beta   95.02217828
_cell_angle_gamma   100.72110810
_symmetry_Int_Tables_number   1
_chemical_formula_structural   Li24Mn5Cr7O36
_chemical_formula_sum   'Li24 Mn5 Cr7 O36'
_cell_volume   629.70513610
_cell_formula_units_Z   1
loop_
 _symmetry_equiv_pos_site_id
 _symmetry_equiv_pos_as_xyz
  1  'x, y, z'
loop_
 _atom_site_type_symbol
 _atom_site_label
 _atom_site_symmetry_multiplicity
 _atom_site_fract_x
 _atom_site_fract_y
 _atom_site_fract_z
 _atom_site_occupancy
  Li  Li0  1  0.829462  0.166558  0.999672  1
  Li  Li1  1  0.950308  0.386782  0.999399  1
  Li  Li2  1  0.999531  0.749646  0.249550  1
  Li  Li3  1  0.664600  0.083536  0.250652  1
  Li  Li4  1  0.954570  0.887750  0.501507  1
  Li  Li5  1  0.616067  0.220126  0.499481  1
  Li  Li6  1  0.837954  0.667087  0.499119  1
  Li  Li7  1  0.498976  0.999941  0.500854  1
  Li  Li8  1  0.716982  0.445661  0.500149  1
  Li  Li9  1  0.666526  0.583687  0.749797  1
  Li  Li10  1  0.501479  0.499544  0.000772  1
  Li  Li11  1  0.711710  0.946097  0.999263  1
  Li  Li12  1  0.383683  0.279530  0.999950  1
  Li  Li13  1  0.616102  0.720728  0.000203  1
  Li  Li14  1  0.286381  0.053200  0.000287  1
  Li  Li15  1  0.335258  0.415832  0.249606  1
  Li  Li16  1  0.280309  0.554984  0.501114  1
  Li  Li17  1  0.164948  0.332042  0.500801  1
  Li  Li18  1  0.379553  0.779448  0.500034  1
  Li  Li19  1  0.053732  0.112606  0.498823  1
  Li  Li20  1  0.333251  0.916756  0.750187  1
  Li  Li21  1  0.167722  0.834194  0.999395  1
  Li  Li22  1  0.000600  0.251423  0.750217  1
  Li  Li23  1  0.051211  0.613852  0.000230  1
  Mn  Mn24  1  0.887481  0.527818  0.248439  1
  Mn  Mn25  1  0.445801  0.138929  0.750796  1
  Mn  Mn26  1  0.226683  0.194573  0.252675  1
  Mn  Mn27  1  0.220945  0.694006  0.749591  1
  Mn  Mn28  1  0.109997  0.472201  0.749693  1
  Cr  Cr29  1  0.894370  0.029792  0.751529  1
  Cr  Cr30  1  0.783219  0.305433  0.249952  1
  Cr  Cr31  1  0.772109  0.804096  0.748478  1
  Cr  Cr32  1  0.556790  0.363125  0.749939  1
  Cr  Cr33  1  0.556759  0.858802  0.249134  1
  Cr  Cr34  1  0.439408  0.635731  0.249376  1
  Cr  Cr35  1  0.106472  0.973840  0.250483  1
  O  O36  1  0.002705  0.071083  0.138765  1
  O  O37  1  0.934773  0.213744  0.364597  1
  O  O38  1  0.996377  0.571147  0.638515  1
  O  O39  1  0.862133  0.357654  0.636729  1
  O  O40  1  0.735722  0.116548  0.637321  1
  O  O41  1  0.665436  0.406346  0.136636  1
  O  O42  1  0.931301  0.716216  0.863061  1
  O  O43  1  0.810254  0.474962  0.860903  1
  O  O44  1  0.592201  0.049106  0.865713  1
  O  O45  1  0.845675  0.856767  0.136933  1
  O  O46  1  0.741780  0.618184  0.134837  1
  O  O47  1  0.522295  0.191783  0.138999  1
  O  O48  1  0.666778  0.262163  0.862117  1
  O  O49  1  0.819588  0.976428  0.362279  1
  O  O50  1  0.597673  0.549331  0.363269  1
  O  O51  1  0.475821  0.310211  0.362016  1
  O  O52  1  0.661351  0.761846  0.361596  1
  O  O53  1  0.340299  0.097952  0.363386  1
  O  O54  1  0.671657  0.903521  0.637611  1
  O  O55  1  0.336836  0.238337  0.639055  1
  O  O56  1  0.521323  0.690002  0.638200  1
  O  O57  1  0.401834  0.450926  0.636499  1
  O  O58  1  0.195677  0.024688  0.637797  1
  O  O59  1  0.333696  0.735257  0.137442  1
  O  O60  1  0.471622  0.808369  0.861734  1
  O  O61  1  0.259360  0.382787  0.864898  1
  O  O62  1  0.143730  0.142580  0.861468  1
  O  O63  1  0.399793  0.951625  0.135571  1
  O  O64  1  0.189595  0.524226  0.138710  1
  O  O65  1  0.068114  0.284304  0.136672  1
  O  O66  1  0.334665  0.595337  0.861359  1
  O  O67  1  0.267502  0.883259  0.363396  1
  O  O68  1  0.137249  0.642364  0.362680  1
  O  O69  1  0.995958  0.428069  0.361048  1
  O  O70  1  0.073838  0.784102  0.634666  1
  O  O71  1  0.994435  0.929422  0.862378  1
