# generated using pymatgen
data_Na2ScPCO7
_symmetry_space_group_name_H-M   'P 1'
_cell_length_a   9.05971497
_cell_length_b   6.74777010
_cell_length_c   5.30517116
_cell_angle_alpha   90.00000000
_cell_angle_beta   90.41340423
_cell_angle_gamma   90.00000000
_symmetry_Int_Tables_number   1
_chemical_formula_structural   Na2ScPCO7
_chemical_formula_sum   'Na4 Sc2 P2 C2 O14'
_cell_volume   324.31191691
_cell_formula_units_Z   2
loop_
 _symmetry_equiv_pos_site_id
 _symmetry_equiv_pos_as_xyz
  1  'x, y, z'
loop_
 _atom_site_type_symbol
 _atom_site_label
 _atom_site_symmetry_multiplicity
 _atom_site_fract_x
 _atom_site_fract_y
 _atom_site_fract_z
 _atom_site_occupancy
  Na  Na0  1  0.222287  0.499393  0.235637  1
  Na  Na1  1  0.222287  0.000607  0.235637  1
  Na  Na2  1  0.777713  0.500607  0.764363  1
  Na  Na3  1  0.777713  0.999393  0.764363  1
  Sc  Sc4  1  0.357309  0.750000  0.782835  1
  Sc  Sc5  1  0.642691  0.250000  0.217165  1
  P  P6  1  0.424325  0.250000  0.709296  1
  P  P7  1  0.575675  0.750000  0.290704  1
  C  C8  1  0.073376  0.750000  0.731396  1
  C  C9  1  0.926624  0.250000  0.268604  1
  O  O10  1  0.064651  0.250000  0.299217  1
  O  O11  1  0.138286  0.750000  0.952967  1
  O  O12  1  0.167008  0.750000  0.540247  1
  O  O13  1  0.340663  0.061923  0.791487  1
  O  O14  1  0.340663  0.438077  0.791487  1
  O  O15  1  0.417602  0.750000  0.168441  1
  O  O16  1  0.442587  0.250000  0.415885  1
  O  O17  1  0.557413  0.750000  0.584115  1
  O  O18  1  0.582398  0.250000  0.831559  1
  O  O19  1  0.659337  0.561923  0.208513  1
  O  O20  1  0.659337  0.938077  0.208513  1
  O  O21  1  0.832992  0.250000  0.459753  1
  O  O22  1  0.861714  0.250000  0.047033  1
  O  O23  1  0.935349  0.750000  0.700783  1
