# generated using pymatgen
data_Na3CrBPO7
_symmetry_space_group_name_H-M   'P 1'
_cell_length_a   8.95760666
_cell_length_b   6.56812971
_cell_length_c   5.26059435
_cell_angle_alpha   90.00000000
_cell_angle_beta   88.35334599
_cell_angle_gamma   90.00000000
_symmetry_Int_Tables_number   1
_chemical_formula_structural   Na3CrBPO7
_chemical_formula_sum   'Na6 Cr2 B2 P2 O14'
_cell_volume   309.37779759
_cell_formula_units_Z   2
loop_
 _symmetry_equiv_pos_site_id
 _symmetry_equiv_pos_as_xyz
  1  'x, y, z'
loop_
 _atom_site_type_symbol
 _atom_site_label
 _atom_site_symmetry_multiplicity
 _atom_site_fract_x
 _atom_site_fract_y
 _atom_site_fract_z
 _atom_site_occupancy
  Na  Na0  1  0.073609  0.250000  0.758431  1
  Na  Na1  1  0.254198  0.003384  0.251064  1
  Na  Na2  1  0.254198  0.496616  0.251064  1
  Na  Na3  1  0.745802  0.503384  0.748936  1
  Na  Na4  1  0.745802  0.996616  0.748936  1
  Na  Na5  1  0.926391  0.750000  0.241569  1
  Cr  Cr6  1  0.336545  0.750000  0.780363  1
  Cr  Cr7  1  0.663455  0.250000  0.219637  1
  B  B8  1  0.067575  0.750000  0.732043  1
  B  B9  1  0.932425  0.250000  0.267957  1
  P  P10  1  0.422390  0.250000  0.714485  1
  P  P11  1  0.577610  0.750000  0.285515  1
  O  O12  1  0.080853  0.250000  0.296705  1
  O  O13  1  0.138348  0.750000  0.967351  1
  O  O14  1  0.174316  0.750000  0.530214  1
  O  O15  1  0.322177  0.062996  0.781377  1
  O  O16  1  0.322177  0.437004  0.781377  1
  O  O17  1  0.463022  0.250000  0.423902  1
  O  O18  1  0.433493  0.750000  0.132403  1
  O  O19  1  0.566507  0.250000  0.867597  1
  O  O20  1  0.536978  0.750000  0.576098  1
  O  O21  1  0.677823  0.562996  0.218623  1
  O  O22  1  0.677823  0.937004  0.218623  1
  O  O23  1  0.825684  0.250000  0.469786  1
  O  O24  1  0.861652  0.250000  0.032649  1
  O  O25  1  0.919147  0.750000  0.703295  1
