# generated using pymatgen
data_Fe5(O4F)2
_symmetry_space_group_name_H-M   'P 1'
_cell_length_a   4.66041978
_cell_length_b   12.99372152
_cell_length_c   5.54888094
_cell_angle_alpha   102.94339398
_cell_angle_beta   90.00000000
_cell_angle_gamma   90.00000000
_symmetry_Int_Tables_number   1
_chemical_formula_structural   Fe5(O4F)2
_chemical_formula_sum   'Fe10 O16 F4'
_cell_volume   327.48149566
_cell_formula_units_Z   2
loop_
 _symmetry_equiv_pos_site_id
 _symmetry_equiv_pos_as_xyz
  1  'x, y, z'
loop_
 _atom_site_type_symbol
 _atom_site_label
 _atom_site_symmetry_multiplicity
 _atom_site_fract_x
 _atom_site_fract_y
 _atom_site_fract_z
 _atom_site_occupancy
  Fe  Fe0  1  0.502356  0.997522  0.487937  1
  Fe  Fe1  1  0.472802  0.406234  0.301131  1
  Fe  Fe2  1  0.477068  0.203996  0.888953  1
  Fe  Fe3  1  0.514116  0.604448  0.692674  1
  Fe  Fe4  1  0.527823  0.801590  0.093095  1
  Fe  Fe5  1  0.972802  0.393766  0.798869  1
  Fe  Fe6  1  0.002356  0.802478  0.612063  1
  Fe  Fe7  1  0.014116  0.195552  0.407326  1
  Fe  Fe8  1  0.977068  0.596004  0.211047  1
  Fe  Fe9  1  0.027823  0.998410  0.006905  1
  O  O10  1  0.797041  0.254854  0.706106  1
  O  O11  1  0.819311  0.869239  0.921502  1
  O  O12  1  0.810412  0.667133  0.521981  1
  O  O13  1  0.819089  0.059212  0.311385  1
  O  O14  1  0.792032  0.458237  0.113241  1
  O  O15  1  0.683294  0.464024  0.617355  1
  O  O16  1  0.696583  0.662331  0.017215  1
  O  O17  1  0.699418  0.857970  0.414110  1
  O  O18  1  0.292032  0.341763  0.986759  1
  O  O19  1  0.319089  0.740788  0.788615  1
  O  O20  1  0.310412  0.132867  0.578019  1
  O  O21  1  0.319311  0.930761  0.178498  1
  O  O22  1  0.297041  0.545146  0.393894  1
  O  O23  1  0.196583  0.137669  0.082785  1
  O  O24  1  0.199418  0.942030  0.685890  1
  O  O25  1  0.183294  0.335976  0.482645  1
  F  F26  1  0.698601  0.061504  0.819691  1
  F  F27  1  0.690056  0.259918  0.214644  1
  F  F28  1  0.190056  0.540082  0.885356  1
  F  F29  1  0.198601  0.738496  0.280309  1
