# generated using pymatgen
data_LiVSiO4
_symmetry_space_group_name_H-M   'P 1'
_cell_length_a   18.79596423
_cell_length_b   8.28365821
_cell_length_c   5.49890714
_cell_angle_alpha   90.00250128
_cell_angle_beta   90.00199328
_cell_angle_gamma   89.99916125
_symmetry_Int_Tables_number   1
_chemical_formula_structural   LiVSiO4
_chemical_formula_sum   'Li12 V12 Si12 O48'
_cell_volume   856.17623045
_cell_formula_units_Z   12
loop_
 _symmetry_equiv_pos_site_id
 _symmetry_equiv_pos_as_xyz
  1  'x, y, z'
loop_
 _atom_site_type_symbol
 _atom_site_label
 _atom_site_symmetry_multiplicity
 _atom_site_fract_x
 _atom_site_fract_y
 _atom_site_fract_z
 _atom_site_occupancy
  Li  Li0  1  0.083048  0.574826  0.031032  1
  Li  Li1  1  0.083388  0.075026  0.479562  1
  Li  Li2  1  0.249877  0.919829  0.008572  1
  Li  Li3  1  0.250164  0.419783  0.508566  1
  Li  Li4  1  0.416594  0.575012  0.979502  1
  Li  Li5  1  0.416942  0.074737  0.531064  1
  Li  Li6  1  0.583065  0.925216  0.031084  1
  Li  Li7  1  0.583405  0.425045  0.479514  1
  Li  Li8  1  0.749884  0.580101  0.008571  1
  Li  Li9  1  0.750166  0.080146  0.508570  1
  Li  Li10  1  0.916560  0.925025  0.979497  1
  Li  Li11  1  0.916908  0.425271  0.531079  1
  V  V12  1  0.999951  0.249869  0.005237  1
  V  V13  1  0.000057  0.750168  0.505247  1
  V  V14  1  0.166820  0.749064  0.506132  1
  V  V15  1  0.166687  0.249439  0.006342  1
  V  V16  1  0.333304  0.749418  0.506319  1
  V  V17  1  0.333181  0.249060  0.006111  1
  V  V18  1  0.499947  0.250150  0.005235  1
  V  V19  1  0.500052  0.749851  0.505237  1
  V  V20  1  0.666816  0.750927  0.506136  1
  V  V21  1  0.666690  0.250551  0.006355  1
  V  V22  1  0.833307  0.750569  0.506332  1
  V  V23  1  0.833187  0.250923  0.006114  1
  Si  Si24  1  0.083403  0.900798  0.002008  1
  Si  Si25  1  0.083535  0.400931  0.509338  1
  Si  Si26  1  0.249976  0.597708  0.006471  1
  Si  Si27  1  0.250023  0.097712  0.506469  1
  Si  Si28  1  0.416469  0.900924  0.009329  1
  Si  Si29  1  0.416578  0.400747  0.501988  1
  Si  Si30  1  0.583400  0.599237  0.002003  1
  Si  Si31  1  0.583530  0.099095  0.509352  1
  Si  Si32  1  0.749956  0.902229  0.006470  1
  Si  Si33  1  0.750007  0.402251  0.506459  1
  Si  Si34  1  0.916509  0.599103  0.009348  1
  Si  Si35  1  0.916612  0.099260  0.501993  1
  O  O36  1  0.987820  0.987209  0.502946  1
  O  O37  1  0.012151  0.012828  0.002941  1
  O  O38  1  0.012381  0.513222  0.506992  1
  O  O39  1  0.083392  0.276592  0.748562  1
  O  O40  1  0.083302  0.277969  0.266463  1
  O  O41  1  0.083272  0.777337  0.244314  1
  O  O42  1  0.083490  0.776876  0.762187  1
  O  O43  1  0.154768  0.012398  0.007345  1
  O  O44  1  0.155039  0.512087  0.506547  1
  O  O45  1  0.178552  0.486486  0.007562  1
  O  O46  1  0.178731  0.985989  0.505067  1
  O  O47  1  0.250001  0.222402  0.266427  1
  O  O48  1  0.249854  0.222132  0.746945  1
  O  O49  1  0.250005  0.722405  0.766418  1
  O  O50  1  0.250158  0.722142  0.246942  1
  O  O51  1  0.321273  0.485999  0.005050  1
  O  O52  1  0.321455  0.986464  0.507554  1
  O  O53  1  0.344962  0.012069  0.006553  1
  O  O54  1  0.345232  0.512389  0.507344  1
  O  O55  1  0.416497  0.276885  0.262148  1
  O  O56  1  0.416713  0.277317  0.744280  1
  O  O57  1  0.416695  0.777954  0.766436  1
  O  O58  1  0.416603  0.776568  0.248565  1
  O  O59  1  0.487602  0.013201  0.007005  1
  O  O60  1  0.487845  0.512819  0.502936  1
  O  O61  1  0.512175  0.487199  0.002925  1
  O  O62  1  0.512398  0.986804  0.506985  1
  O  O63  1  0.583402  0.223405  0.748617  1
  O  O64  1  0.583322  0.222044  0.266488  1
  O  O65  1  0.583281  0.722673  0.244346  1
  O  O66  1  0.583502  0.723134  0.762201  1
  O  O67  1  0.654792  0.487614  0.007359  1
  O  O68  1  0.655052  0.987911  0.506549  1
  O  O69  1  0.678558  0.013479  0.007560  1
  O  O70  1  0.678743  0.513985  0.505064  1
  O  O71  1  0.749851  0.277855  0.746925  1
  O  O72  1  0.750009  0.277592  0.266379  1
  O  O73  1  0.750162  0.777845  0.246930  1
  O  O74  1  0.750009  0.777583  0.766387  1
  O  O75  1  0.821279  0.014002  0.005068  1
  O  O76  1  0.821463  0.513525  0.507556  1
  O  O77  1  0.844941  0.487896  0.006542  1
  O  O78  1  0.845209  0.987598  0.507356  1
  O  O79  1  0.916489  0.223130  0.262198  1
  O  O80  1  0.916707  0.222675  0.744325  1
  O  O81  1  0.916685  0.722054  0.766475  1
  O  O82  1  0.916599  0.723425  0.248609  1
  O  O83  1  0.987579  0.486832  0.006986  1
