# generated using pymatgen
data_Li4Ti5Fe3O16
_symmetry_space_group_name_H-M   'P 1'
_cell_length_a   5.98476573
_cell_length_b   5.93942457
_cell_length_c   9.62887192
_cell_angle_alpha   89.99188238
_cell_angle_beta   90.07666429
_cell_angle_gamma   119.74742140
_symmetry_Int_Tables_number   1
_chemical_formula_structural   Li4Ti5Fe3O16
_chemical_formula_sum   'Li4 Ti5 Fe3 O16'
_cell_volume   297.16443268
_cell_formula_units_Z   1
loop_
 _symmetry_equiv_pos_site_id
 _symmetry_equiv_pos_as_xyz
  1  'x, y, z'
loop_
 _atom_site_type_symbol
 _atom_site_label
 _atom_site_symmetry_multiplicity
 _atom_site_fract_x
 _atom_site_fract_y
 _atom_site_fract_z
 _atom_site_occupancy
  Li  Li0  1  0.323251  0.661630  0.897483  1
  Li  Li1  1  0.998365  0.999215  0.992983  1
  Li  Li2  1  0.005709  0.002943  0.493237  1
  Li  Li3  1  0.664785  0.332401  0.398660  1
  Ti  Ti4  1  0.352460  0.176242  0.729339  1
  Ti  Ti5  1  0.188802  0.840074  0.220638  1
  Ti  Ti6  1  0.333287  0.666676  0.499833  1
  Ti  Ti7  1  0.188760  0.348769  0.220676  1
  Ti  Ti8  1  0.693641  0.346879  0.997549  1
  Fe  Fe9  1  0.658383  0.829225  0.210917  1
  Fe  Fe10  1  0.831864  0.659917  0.710137  1
  Fe  Fe11  1  0.831833  0.171905  0.710170  1
  O  O12  1  0.166988  0.826977  0.594756  1
  O  O13  1  0.037137  0.518559  0.335734  1
  O  O14  1  0.307138  0.653617  0.103289  1
  O  O15  1  0.016157  0.008033  0.304811  1
  O  O16  1  0.005753  0.002822  0.804055  1
  O  O17  1  0.166995  0.340026  0.594764  1
  O  O18  1  0.462360  0.957997  0.346382  1
  O  O19  1  0.462434  0.504491  0.346342  1
  O  O20  1  0.338441  0.169201  0.099152  1
  O  O21  1  0.662843  0.831422  0.590765  1
  O  O22  1  0.508512  0.475793  0.839105  1
  O  O23  1  0.508519  0.032679  0.839089  1
  O  O24  1  0.649849  0.324953  0.604062  1
  O  O25  1  0.842319  0.662074  0.090572  1
  O  O26  1  0.951192  0.475573  0.842757  1
  O  O27  1  0.842217  0.180207  0.090586  1
