# generated using pymatgen
data_Li2LuPCO7
_symmetry_space_group_name_H-M   'P 1'
_cell_length_a   8.93509267
_cell_length_b   6.70931726
_cell_length_c   4.89119950
_cell_angle_alpha   90.00000000
_cell_angle_beta   87.98775439
_cell_angle_gamma   90.00000000
_symmetry_Int_Tables_number   1
_chemical_formula_structural   Li2LuPCO7
_chemical_formula_sum   'Li4 Lu2 P2 C2 O14'
_cell_volume   293.03862913
_cell_formula_units_Z   2
loop_
 _symmetry_equiv_pos_site_id
 _symmetry_equiv_pos_as_xyz
  1  'x, y, z'
loop_
 _atom_site_type_symbol
 _atom_site_label
 _atom_site_symmetry_multiplicity
 _atom_site_fract_x
 _atom_site_fract_y
 _atom_site_fract_z
 _atom_site_occupancy
  Li  Li0  1  0.206139  0.007887  0.207946  1
  Li  Li1  1  0.206139  0.492113  0.207946  1
  Li  Li2  1  0.793861  0.507887  0.792054  1
  Li  Li3  1  0.793861  0.992113  0.792054  1
  Lu  Lu4  1  0.359167  0.750000  0.752095  1
  Lu  Lu5  1  0.640833  0.250000  0.247905  1
  P  P6  1  0.411532  0.250000  0.720829  1
  P  P7  1  0.588468  0.750000  0.279171  1
  C  C8  1  0.058349  0.750000  0.741902  1
  C  C9  1  0.941651  0.250000  0.258098  1
  O  O10  1  0.082530  0.250000  0.280165  1
  O  O11  1  0.124200  0.750000  0.977836  1
  O  O12  1  0.151729  0.750000  0.525531  1
  O  O13  1  0.334967  0.063146  0.843025  1
  O  O14  1  0.334967  0.436854  0.843025  1
  O  O15  1  0.416151  0.750000  0.218740  1
  O  O16  1  0.405807  0.250000  0.403119  1
  O  O17  1  0.594193  0.750000  0.596881  1
  O  O18  1  0.583849  0.250000  0.781260  1
  O  O19  1  0.665033  0.563146  0.156975  1
  O  O20  1  0.665033  0.936854  0.156975  1
  O  O21  1  0.848271  0.250000  0.474469  1
  O  O22  1  0.875800  0.250000  0.022164  1
  O  O23  1  0.917470  0.750000  0.719835  1
