# generated using pymatgen
data_Li3FeAsCO7
_symmetry_space_group_name_H-M   'P 1'
_cell_length_a   8.65928233
_cell_length_b   6.65631244
_cell_length_c   5.11443082
_cell_angle_alpha   90.00000000
_cell_angle_beta   86.02460298
_cell_angle_gamma   90.00000000
_symmetry_Int_Tables_number   1
_chemical_formula_structural   Li3FeAsCO7
_chemical_formula_sum   'Li6 Fe2 As2 C2 O14'
_cell_volume   294.08081774
_cell_formula_units_Z   2
loop_
 _symmetry_equiv_pos_site_id
 _symmetry_equiv_pos_as_xyz
  1  'x, y, z'
loop_
 _atom_site_type_symbol
 _atom_site_label
 _atom_site_symmetry_multiplicity
 _atom_site_fract_x
 _atom_site_fract_y
 _atom_site_fract_z
 _atom_site_occupancy
  Li  Li0  1  0.089441  0.250000  0.746711  1
  Li  Li1  1  0.268896  0.026598  0.229344  1
  Li  Li2  1  0.268896  0.473402  0.229344  1
  Li  Li3  1  0.731104  0.526598  0.770656  1
  Li  Li4  1  0.731104  0.973402  0.770656  1
  Li  Li5  1  0.910559  0.750000  0.253289  1
  Fe  Fe6  1  0.324511  0.750000  0.789553  1
  Fe  Fe7  1  0.675489  0.250000  0.210447  1
  As  As8  1  0.416734  0.250000  0.707124  1
  As  As9  1  0.583266  0.750000  0.292876  1
  C  C10  1  0.027873  0.750000  0.714276  1
  C  C11  1  0.972127  0.250000  0.285724  1
  O  O12  1  0.116736  0.250000  0.342968  1
  O  O13  1  0.065837  0.750000  0.955542  1
  O  O14  1  0.135739  0.750000  0.524604  1
  O  O15  1  0.298761  0.055125  0.820783  1
  O  O16  1  0.298761  0.444875  0.820783  1
  O  O17  1  0.435816  0.250000  0.368079  1
  O  O18  1  0.400998  0.750000  0.182460  1
  O  O19  1  0.599002  0.250000  0.817540  1
  O  O20  1  0.564184  0.750000  0.631921  1
  O  O21  1  0.701239  0.555125  0.179217  1
  O  O22  1  0.701239  0.944875  0.179217  1
  O  O23  1  0.864261  0.250000  0.475396  1
  O  O24  1  0.934163  0.250000  0.044458  1
  O  O25  1  0.883264  0.750000  0.657032  1
