# generated using pymatgen
data_Na4P4H2O13
_symmetry_space_group_name_H-M   'P 1'
_cell_length_a   13.80604374
_cell_length_b   13.61174866
_cell_length_c   6.34688197
_cell_angle_alpha   90.00000000
_cell_angle_beta   90.00000000
_cell_angle_gamma   90.00000000
_symmetry_Int_Tables_number   1
_chemical_formula_structural   Na4P4H2O13
_chemical_formula_sum   'Na16 P16 H8 O52'
_cell_volume   1192.73396944
_cell_formula_units_Z   4
loop_
 _symmetry_equiv_pos_site_id
 _symmetry_equiv_pos_as_xyz
  1  'x, y, z'
loop_
 _atom_site_type_symbol
 _atom_site_label
 _atom_site_symmetry_multiplicity
 _atom_site_fract_x
 _atom_site_fract_y
 _atom_site_fract_z
 _atom_site_occupancy
  Na  Na0  1  0.224602  0.962326  0.090026  1
  Na  Na1  1  0.275398  0.037674  0.590026  1
  Na  Na2  1  0.724602  0.537674  0.909974  1
  Na  Na3  1  0.775398  0.462326  0.409974  1
  Na  Na4  1  0.721978  0.959380  0.890893  1
  Na  Na5  1  0.778022  0.040620  0.390893  1
  Na  Na6  1  0.221978  0.540620  0.109107  1
  Na  Na7  1  0.278022  0.459380  0.609107  1
  Na  Na8  1  0.333987  0.754513  0.868305  1
  Na  Na9  1  0.166013  0.245487  0.368305  1
  Na  Na10  1  0.833987  0.745487  0.131695  1
  Na  Na11  1  0.666013  0.254513  0.631695  1
  Na  Na12  1  0.985449  0.948114  0.147662  1
  Na  Na13  1  0.514551  0.051886  0.647662  1
  Na  Na14  1  0.485449  0.551886  0.852338  1
  Na  Na15  1  0.014551  0.448114  0.352338  1
  P  P16  1  0.417719  0.642355  0.361805  1
  P  P17  1  0.082281  0.357645  0.861805  1
  P  P18  1  0.917719  0.857645  0.638195  1
  P  P19  1  0.582281  0.142355  0.138195  1
  P  P20  1  0.418505  0.860796  0.347493  1
  P  P21  1  0.081495  0.139204  0.847493  1
  P  P22  1  0.918505  0.639204  0.652507  1
  P  P23  1  0.581495  0.360796  0.152507  1
  P  P24  1  0.636259  0.859785  0.381967  1
  P  P25  1  0.863741  0.140215  0.881967  1
  P  P26  1  0.136259  0.640215  0.618033  1
  P  P27  1  0.363741  0.359785  0.118033  1
  P  P28  1  0.635486  0.639141  0.405603  1
  P  P29  1  0.864514  0.360859  0.905603  1
  P  P30  1  0.135486  0.860859  0.594397  1
  P  P31  1  0.364514  0.139141  0.094397  1
  H  H32  1  0.529871  0.767370  0.002245  1
  H  H33  1  0.970129  0.232630  0.502245  1
  H  H34  1  0.029871  0.732630  0.997755  1
  H  H35  1  0.470129  0.267370  0.497755  1
  H  H36  1  0.538666  0.778814  0.759399  1
  H  H37  1  0.961334  0.221186  0.259399  1
  H  H38  1  0.038666  0.721186  0.240601  1
  H  H39  1  0.461334  0.278814  0.740601  1
  O  O40  1  0.359532  0.635890  0.163195  1
  O  O41  1  0.140468  0.364110  0.663195  1
  O  O42  1  0.859532  0.864110  0.836805  1
  O  O43  1  0.640468  0.135890  0.336805  1
  O  O44  1  0.399662  0.573498  0.541190  1
  O  O45  1  0.100338  0.426502  0.041190  1
  O  O46  1  0.899662  0.926502  0.458810  1
  O  O47  1  0.600338  0.073498  0.958810  1
  O  O48  1  0.357302  0.863238  0.153655  1
  O  O49  1  0.142698  0.136762  0.653655  1
  O  O50  1  0.857302  0.636762  0.846345  1
  O  O51  1  0.642698  0.363238  0.346345  1
  O  O52  1  0.406871  0.934783  0.519116  1
  O  O53  1  0.093129  0.065217  0.019116  1
  O  O54  1  0.906871  0.565217  0.480884  1
  O  O55  1  0.593129  0.434783  0.980884  1
  O  O56  1  0.638430  0.931144  0.562704  1
  O  O57  1  0.861570  0.068856  0.062704  1
  O  O58  1  0.138430  0.568856  0.437296  1
  O  O59  1  0.361570  0.431144  0.937296  1
  O  O60  1  0.709624  0.868411  0.208684  1
  O  O61  1  0.790376  0.131589  0.708684  1
  O  O62  1  0.209624  0.631589  0.791316  1
  O  O63  1  0.290376  0.368411  0.291316  1
  O  O64  1  0.637319  0.574362  0.595909  1
  O  O65  1  0.862681  0.425638  0.095909  1
  O  O66  1  0.137319  0.925638  0.404091  1
  O  O67  1  0.362681  0.074362  0.904091  1
  O  O68  1  0.709863  0.625454  0.235625  1
  O  O69  1  0.790137  0.374546  0.735625  1
  O  O70  1  0.209863  0.874546  0.764375  1
  O  O71  1  0.290137  0.125454  0.264375  1
  O  O72  1  0.531323  0.859908  0.262792  1
  O  O73  1  0.968677  0.140092  0.762792  1
  O  O74  1  0.031323  0.640092  0.737208  1
  O  O75  1  0.468677  0.359908  0.237208  1
  O  O76  1  0.530736  0.636775  0.285775  1
  O  O77  1  0.969264  0.363225  0.785775  1
  O  O78  1  0.030736  0.863225  0.714225  1
  O  O79  1  0.469264  0.136775  0.214225  1
  O  O80  1  0.638560  0.752302  0.493418  1
  O  O81  1  0.861440  0.247698  0.993418  1
  O  O82  1  0.138560  0.747698  0.506582  1
  O  O83  1  0.361440  0.252302  0.006582  1
  O  O84  1  0.411011  0.753099  0.463241  1
  O  O85  1  0.088989  0.246901  0.963241  1
  O  O86  1  0.911011  0.746901  0.536759  1
  O  O87  1  0.588989  0.253099  0.036759  1
  O  O88  1  0.511480  0.736741  0.869226  1
  O  O89  1  0.988520  0.263259  0.369226  1
  O  O90  1  0.011480  0.763259  0.130774  1
  O  O91  1  0.488520  0.236741  0.630774  1
