# generated using pymatgen
data_LiCo7O7F
_symmetry_space_group_name_H-M   'P 1'
_cell_length_a   3.29025536
_cell_length_b   3.29024890
_cell_length_c   20.87346358
_cell_angle_alpha   89.99999948
_cell_angle_beta   90.00283848
_cell_angle_gamma   119.99992019
_symmetry_Int_Tables_number   1
_chemical_formula_structural   LiCo7O7F
_chemical_formula_sum   'Li1 Co7 O7 F1'
_cell_volume   195.69685948
_cell_formula_units_Z   1
loop_
 _symmetry_equiv_pos_site_id
 _symmetry_equiv_pos_as_xyz
  1  'x, y, z'
loop_
 _atom_site_type_symbol
 _atom_site_label
 _atom_site_symmetry_multiplicity
 _atom_site_fract_x
 _atom_site_fract_y
 _atom_site_fract_z
 _atom_site_occupancy
  Li  Li0  1  0.333334  0.666718  0.840557  1
  Co  Co1  1  0.333319  0.666710  0.346090  1
  Co  Co2  1  0.333324  0.666712  0.095819  1
  Co  Co3  1  0.333349  0.666725  0.596836  1
  Co  Co4  1  0.666626  0.333363  0.220758  1
  Co  Co5  1  0.666732  0.333416  0.721535  1
  Co  Co6  1  0.666627  0.333363  0.471400  1
  Co  Co7  1  0.666629  0.333365  0.972237  1
  O  O8  1  0.333311  0.666705  0.998562  1
  O  O9  1  0.333303  0.666701  0.249162  1
  O  O10  1  0.333410  0.666755  0.750510  1
  O  O11  1  0.333306  0.666703  0.499527  1
  O  O12  1  0.666664  0.333381  0.374401  1
  O  O13  1  0.666669  0.333384  0.123377  1
  O  O14  1  0.666697  0.333399  0.624357  1
  F  F15  1  0.666700  0.333399  0.875735  1
