# generated using pymatgen
data_Li3Sb2(PO4)3
_symmetry_space_group_name_H-M   'P 1'
_cell_length_a   9.16816079
_cell_length_b   13.02754016
_cell_length_c   9.20421463
_cell_angle_alpha   90.00000000
_cell_angle_beta   90.00000000
_cell_angle_gamma   89.91882432
_symmetry_Int_Tables_number   1
_chemical_formula_structural   Li3Sb2(PO4)3
_chemical_formula_sum   'Li12 Sb8 P12 O48'
_cell_volume   1099.33724934
_cell_formula_units_Z   4
loop_
 _symmetry_equiv_pos_site_id
 _symmetry_equiv_pos_as_xyz
  1  'x, y, z'
loop_
 _atom_site_type_symbol
 _atom_site_label
 _atom_site_symmetry_multiplicity
 _atom_site_fract_x
 _atom_site_fract_y
 _atom_site_fract_z
 _atom_site_occupancy
  Li  Li0  1  0.083782  0.700945  0.105393  1
  Li  Li1  1  0.081620  0.743548  0.722647  1
  Li  Li2  1  0.205838  0.184102  0.768259  1
  Li  Li3  1  0.294162  0.315898  0.268259  1
  Li  Li4  1  0.418380  0.756452  0.222647  1
  Li  Li5  1  0.416218  0.799055  0.605393  1
  Li  Li6  1  0.583782  0.200945  0.394607  1
  Li  Li7  1  0.581620  0.243548  0.777353  1
  Li  Li8  1  0.705838  0.684102  0.731741  1
  Li  Li9  1  0.794162  0.815898  0.231741  1
  Li  Li10  1  0.918380  0.256452  0.277353  1
  Li  Li11  1  0.916218  0.299055  0.894607  1
  Sb  Sb12  1  0.239037  0.098621  0.453670  1
  Sb  Sb13  1  0.250356  0.905196  0.040575  1
  Sb  Sb14  1  0.249644  0.594804  0.540575  1
  Sb  Sb15  1  0.260963  0.401379  0.953670  1
  Sb  Sb16  1  0.739037  0.598621  0.046330  1
  Sb  Sb17  1  0.750356  0.405196  0.459425  1
  Sb  Sb18  1  0.749644  0.094804  0.959425  1
  Sb  Sb19  1  0.760963  0.901379  0.546330  1
  P  P20  1  0.100076  0.836541  0.399424  1
  P  P21  1  0.094737  0.165229  0.087929  1
  P  P22  1  0.405263  0.334771  0.587929  1
  P  P23  1  0.399924  0.663459  0.899424  1
  P  P24  1  0.600076  0.336541  0.100576  1
  P  P25  1  0.594737  0.665229  0.412071  1
  P  P26  1  0.905263  0.834771  0.912071  1
  P  P27  1  0.899924  0.163459  0.600576  1
  P  P28  1  0.053682  0.491263  0.239575  1
  P  P29  1  0.446318  0.008737  0.739575  1
  P  P30  1  0.553682  0.991263  0.260425  1
  P  P31  1  0.946318  0.508737  0.760425  1
  O  O32  1  0.009367  0.430021  0.868566  1
  O  O33  1  0.058156  0.590598  0.713545  1
  O  O34  1  0.076926  0.827942  0.903041  1
  O  O35  1  0.071846  0.167551  0.598389  1
  O  O36  1  0.111059  0.551310  0.374012  1
  O  O37  1  0.152479  0.791892  0.253594  1
  O  O38  1  0.188195  0.433672  0.170315  1
  O  O39  1  0.146999  0.950715  0.413913  1
  O  O40  1  0.145249  0.054493  0.059457  1
  O  O41  1  0.147679  0.208495  0.235077  1
  O  O42  1  0.141073  0.235130  0.958129  1
  O  O43  1  0.163294  0.774662  0.530019  1
  O  O44  1  0.336706  0.725338  0.030019  1
  O  O45  1  0.358927  0.264870  0.458129  1
  O  O46  1  0.352321  0.291505  0.735077  1
  O  O47  1  0.354751  0.445507  0.559457  1
  O  O48  1  0.353001  0.549285  0.913913  1
  O  O49  1  0.311805  0.066328  0.670315  1
  O  O50  1  0.347521  0.708108  0.753594  1
  O  O51  1  0.388941  0.948690  0.874012  1
  O  O52  1  0.428154  0.332449  0.098389  1
  O  O53  1  0.423074  0.672058  0.403041  1
  O  O54  1  0.441844  0.909402  0.213545  1
  O  O55  1  0.490633  0.069979  0.368566  1
  O  O56  1  0.509367  0.930021  0.631434  1
  O  O57  1  0.558156  0.090598  0.786455  1
  O  O58  1  0.576926  0.327942  0.596959  1
  O  O59  1  0.571846  0.667551  0.901611  1
  O  O60  1  0.611059  0.051310  0.125988  1
  O  O61  1  0.652479  0.291892  0.246406  1
  O  O62  1  0.688195  0.933672  0.329685  1
  O  O63  1  0.646999  0.450715  0.086087  1
  O  O64  1  0.645249  0.554493  0.440543  1
  O  O65  1  0.647679  0.708495  0.264923  1
  O  O66  1  0.641073  0.735130  0.541871  1
  O  O67  1  0.663294  0.274662  0.969981  1
  O  O68  1  0.836706  0.225338  0.469981  1
  O  O69  1  0.858927  0.764870  0.041871  1
  O  O70  1  0.852321  0.791505  0.764923  1
  O  O71  1  0.854751  0.945507  0.940543  1
  O  O72  1  0.853001  0.049285  0.586087  1
  O  O73  1  0.811805  0.566328  0.829685  1
  O  O74  1  0.847521  0.208108  0.746406  1
  O  O75  1  0.888941  0.448690  0.625988  1
  O  O76  1  0.928154  0.832449  0.401611  1
  O  O77  1  0.923074  0.172058  0.096959  1
  O  O78  1  0.941844  0.409402  0.286455  1
  O  O79  1  0.990633  0.569979  0.131434  1
