# generated using pymatgen
data_Fe4O7F
_symmetry_space_group_name_H-M   'P 1'
_cell_length_a   4.61571694
_cell_length_b   5.51374868
_cell_length_c   5.51374868
_cell_angle_alpha   113.40254097
_cell_angle_beta   91.62639960
_cell_angle_gamma   88.37360040
_symmetry_Int_Tables_number   1
_chemical_formula_structural   Fe4O7F
_chemical_formula_sum   'Fe4 O7 F1'
_cell_volume   128.70659792
_cell_formula_units_Z   1
loop_
 _symmetry_equiv_pos_site_id
 _symmetry_equiv_pos_as_xyz
  1  'x, y, z'
loop_
 _atom_site_type_symbol
 _atom_site_label
 _atom_site_symmetry_multiplicity
 _atom_site_fract_x
 _atom_site_fract_y
 _atom_site_fract_z
 _atom_site_occupancy
  Fe  Fe0  1  0.498814  0.999280  0.500720  1
  Fe  Fe1  1  0.512762  0.506790  0.993210  1
  Fe  Fe2  1  0.991293  0.502312  0.510874  1
  Fe  Fe3  1  0.991293  0.989126  0.997688  1
  O  O4  1  0.802167  0.650550  0.849450  1
  O  O5  1  0.814329  0.157579  0.342421  1
  O  O6  1  0.694210  0.155288  0.848295  1
  O  O7  1  0.694210  0.651705  0.344712  1
  O  O8  1  0.306631  0.847254  0.153241  1
  O  O9  1  0.306631  0.346759  0.652746  1
  O  O10  1  0.184342  0.842065  0.657935  1
  F  F11  1  0.203317  0.351290  0.148710  1
