# generated using pymatgen
data_Li6Bi(BO3)3
_symmetry_space_group_name_H-M   'P 1'
_cell_length_a   7.35578372
_cell_length_b   16.73112984
_cell_length_c   6.80006695
_cell_angle_alpha   90.00000000
_cell_angle_beta   105.59268349
_cell_angle_gamma   90.00000000
_symmetry_Int_Tables_number   1
_chemical_formula_structural   Li6Bi(BO3)3
_chemical_formula_sum   'Li24 Bi4 B12 O36'
_cell_volume   806.08805404
_cell_formula_units_Z   4
loop_
 _symmetry_equiv_pos_site_id
 _symmetry_equiv_pos_as_xyz
  1  'x, y, z'
loop_
 _atom_site_type_symbol
 _atom_site_label
 _atom_site_symmetry_multiplicity
 _atom_site_fract_x
 _atom_site_fract_y
 _atom_site_fract_z
 _atom_site_occupancy
  Li  Li0  1  0.071178  0.998379  0.677389  1
  Li  Li1  1  0.143958  0.550629  0.577739  1
  Li  Li2  1  0.071178  0.501621  0.177389  1
  Li  Li3  1  0.304100  0.463755  0.945051  1
  Li  Li4  1  0.143958  0.949371  0.077739  1
  Li  Li5  1  0.288009  0.706349  0.631745  1
  Li  Li6  1  0.304100  0.036245  0.445051  1
  Li  Li7  1  0.434644  0.295469  0.947365  1
  Li  Li8  1  0.455750  0.969587  0.831069  1
  Li  Li9  1  0.288009  0.793651  0.131745  1
  Li  Li10  1  0.434644  0.204531  0.447365  1
  Li  Li11  1  0.455750  0.530413  0.331069  1
  Li  Li12  1  0.544250  0.469587  0.668931  1
  Li  Li13  1  0.565356  0.795469  0.552635  1
  Li  Li14  1  0.711991  0.206349  0.868255  1
  Li  Li15  1  0.544250  0.030413  0.168931  1
  Li  Li16  1  0.565356  0.704531  0.052635  1
  Li  Li17  1  0.695900  0.963755  0.554949  1
  Li  Li18  1  0.711991  0.293651  0.368255  1
  Li  Li19  1  0.856042  0.050629  0.922261  1
  Li  Li20  1  0.695900  0.536245  0.054949  1
  Li  Li21  1  0.928822  0.498379  0.822611  1
  Li  Li22  1  0.856042  0.449371  0.422261  1
  Li  Li23  1  0.928822  0.001621  0.322611  1
  Bi  Bi24  1  0.075320  0.186706  0.653806  1
  Bi  Bi25  1  0.075320  0.313294  0.153806  1
  Bi  Bi26  1  0.924680  0.686706  0.846194  1
  Bi  Bi27  1  0.924680  0.813294  0.346194  1
  B  B28  1  0.079794  0.366964  0.659509  1
  B  B29  1  0.079794  0.133036  0.159509  1
  B  B30  1  0.294868  0.881961  0.506031  1
  B  B31  1  0.442323  0.113403  0.816335  1
  B  B32  1  0.294868  0.618039  0.006031  1
  B  B33  1  0.442323  0.386597  0.316335  1
  B  B34  1  0.557677  0.613403  0.683665  1
  B  B35  1  0.705132  0.381961  0.993969  1
  B  B36  1  0.557677  0.886597  0.183665  1
  B  B37  1  0.705132  0.118039  0.493969  1
  B  B38  1  0.920206  0.866964  0.840491  1
  B  B39  1  0.920206  0.633036  0.340491  1
  O  O40  1  0.009142  0.669117  0.528020  1
  O  O41  1  0.131318  0.570633  0.967539  1
  O  O42  1  0.084582  0.448570  0.677190  1
  O  O43  1  0.153308  0.317270  0.826674  1
  O  O44  1  0.009142  0.830883  0.028020  1
  O  O45  1  0.131318  0.929367  0.467539  1
  O  O46  1  0.270712  0.698705  0.950768  1
  O  O47  1  0.084582  0.051430  0.177190  1
  O  O48  1  0.153308  0.182730  0.326674  1
  O  O49  1  0.280922  0.066502  0.735445  1
  O  O50  1  0.270712  0.801295  0.450768  1
  O  O51  1  0.280922  0.433498  0.235445  1
  O  O52  1  0.427836  0.194989  0.777224  1
  O  O53  1  0.395189  0.576502  0.571063  1
  O  O54  1  0.529920  0.413686  0.908791  1
  O  O55  1  0.470080  0.913686  0.591209  1
  O  O56  1  0.427836  0.305011  0.277224  1
  O  O57  1  0.604811  0.076502  0.928937  1
  O  O58  1  0.395189  0.923498  0.071063  1
  O  O59  1  0.572164  0.694989  0.722776  1
  O  O60  1  0.529920  0.086314  0.408791  1
  O  O61  1  0.470080  0.586314  0.091209  1
  O  O62  1  0.604811  0.423498  0.428937  1
  O  O63  1  0.572164  0.805011  0.222776  1
  O  O64  1  0.719078  0.566502  0.764555  1
  O  O65  1  0.729288  0.198705  0.549232  1
  O  O66  1  0.719078  0.933498  0.264555  1
  O  O67  1  0.846692  0.817270  0.673326  1
  O  O68  1  0.915418  0.948570  0.822810  1
  O  O69  1  0.729288  0.301295  0.049232  1
  O  O70  1  0.868682  0.070633  0.532461  1
  O  O71  1  0.990858  0.169117  0.971980  1
  O  O72  1  0.846692  0.682730  0.173326  1
  O  O73  1  0.915418  0.551430  0.322810  1
  O  O74  1  0.868682  0.429367  0.032461  1
  O  O75  1  0.990858  0.330883  0.471980  1
