# generated using pymatgen
data_BaLaCl5
_symmetry_space_group_name_H-M   'P 1'
_cell_length_a   13.29434607
_cell_length_b   10.01298559
_cell_length_c   13.92003166
_cell_angle_alpha   90.00000000
_cell_angle_beta   88.95348955
_cell_angle_gamma   90.00000000
_symmetry_Int_Tables_number   1
_chemical_formula_structural   BaLaCl5
_chemical_formula_sum   'Ba8 La8 Cl40'
_cell_volume   1852.67118549
_cell_formula_units_Z   8
loop_
 _symmetry_equiv_pos_site_id
 _symmetry_equiv_pos_as_xyz
  1  'x, y, z'
loop_
 _atom_site_type_symbol
 _atom_site_label
 _atom_site_symmetry_multiplicity
 _atom_site_fract_x
 _atom_site_fract_y
 _atom_site_fract_z
 _atom_site_occupancy
  Ba  Ba0  1  0.198217  0.722145  0.850737  1
  Ba  Ba1  1  0.273756  0.734125  0.468346  1
  Ba  Ba2  1  0.301783  0.222145  0.649263  1
  Ba  Ba3  1  0.226244  0.234125  0.031654  1
  Ba  Ba4  1  0.773756  0.765875  0.968346  1
  Ba  Ba5  1  0.698217  0.777855  0.350737  1
  Ba  Ba6  1  0.726244  0.265875  0.531654  1
  Ba  Ba7  1  0.801783  0.277855  0.149263  1
  La  La8  1  0.000444  0.213046  0.805823  1
  La  La9  1  0.115644  0.235134  0.350850  1
  La  La10  1  0.384356  0.735134  0.149150  1
  La  La11  1  0.499556  0.713045  0.694177  1
  La  La12  1  0.500444  0.286954  0.305823  1
  La  La13  1  0.615644  0.264866  0.850850  1
  La  La14  1  0.884356  0.764866  0.649150  1
  La  La15  1  0.999556  0.786955  0.194177  1
  Cl  Cl16  1  0.061395  0.236641  0.619390  1
  Cl  Cl17  1  0.020180  0.802949  0.996116  1
  Cl  Cl18  1  0.094106  0.762615  0.635921  1
  Cl  Cl19  1  0.145893  0.406301  0.850871  1
  Cl  Cl20  1  0.084686  0.384493  0.188458  1
  Cl  Cl21  1  0.091147  0.035661  0.207826  1
  Cl  Cl22  1  0.179852  0.058127  0.826197  1
  Cl  Cl23  1  0.205324  0.428062  0.461131  1
  Cl  Cl24  1  0.209626  0.043513  0.464992  1
  Cl  Cl25  1  0.189674  0.704701  0.254486  1
  Cl  Cl26  1  0.320148  0.558127  0.673803  1
  Cl  Cl27  1  0.310326  0.204701  0.245514  1
  Cl  Cl28  1  0.290374  0.543513  0.035008  1
  Cl  Cl29  1  0.294676  0.928062  0.038869  1
  Cl  Cl30  1  0.354107  0.906301  0.649129  1
  Cl  Cl31  1  0.405894  0.262615  0.864079  1
  Cl  Cl32  1  0.408853  0.535661  0.292174  1
  Cl  Cl33  1  0.415314  0.884493  0.311542  1
  Cl  Cl34  1  0.438605  0.736641  0.880610  1
  Cl  Cl35  1  0.479820  0.302949  0.503884  1
  Cl  Cl36  1  0.520180  0.697051  0.496116  1
  Cl  Cl37  1  0.561395  0.263360  0.119390  1
  Cl  Cl38  1  0.584686  0.115507  0.688458  1
  Cl  Cl39  1  0.591147  0.464339  0.707826  1
  Cl  Cl40  1  0.594106  0.737385  0.135921  1
  Cl  Cl41  1  0.645893  0.093699  0.350871  1
  Cl  Cl42  1  0.705324  0.071938  0.961131  1
  Cl  Cl43  1  0.709626  0.456487  0.964992  1
  Cl  Cl44  1  0.689674  0.795299  0.754486  1
  Cl  Cl45  1  0.679852  0.441873  0.326197  1
  Cl  Cl46  1  0.810326  0.295299  0.745514  1
  Cl  Cl47  1  0.790374  0.956487  0.535008  1
  Cl  Cl48  1  0.794676  0.571938  0.538869  1
  Cl  Cl49  1  0.820148  0.941873  0.173803  1
  Cl  Cl50  1  0.908853  0.964339  0.792174  1
  Cl  Cl51  1  0.915314  0.615507  0.811542  1
  Cl  Cl52  1  0.854107  0.593699  0.149129  1
  Cl  Cl53  1  0.905894  0.237385  0.364079  1
  Cl  Cl54  1  0.979820  0.197051  0.003884  1
  Cl  Cl55  1  0.938605  0.763359  0.380610  1
