# generated using pymatgen
data_Eu4O3F7
_symmetry_space_group_name_H-M   'P 1'
_cell_length_a   5.54381029
_cell_length_b   5.88118384
_cell_length_c   5.72539316
_cell_angle_alpha   90.00000000
_cell_angle_beta   90.00000000
_cell_angle_gamma   91.22415045
_symmetry_Int_Tables_number   1
_chemical_formula_structural   Eu4O3F7
_chemical_formula_sum   'Eu4 O3 F7'
_cell_volume   186.62907316
_cell_formula_units_Z   1
loop_
 _symmetry_equiv_pos_site_id
 _symmetry_equiv_pos_as_xyz
  1  'x, y, z'
loop_
 _atom_site_type_symbol
 _atom_site_label
 _atom_site_symmetry_multiplicity
 _atom_site_fract_x
 _atom_site_fract_y
 _atom_site_fract_z
 _atom_site_occupancy
  Eu  Eu0  1  0.025688  0.247287  0.277670  1
  Eu  Eu1  1  0.984398  0.750345  0.795779  1
  Eu  Eu2  1  0.515602  0.249655  0.795779  1
  Eu  Eu3  1  0.474312  0.752713  0.277670  1
  O  O4  1  0.250000  0.000000  0.044156  1
  O  O5  1  0.750000  0.000000  0.021965  1
  O  O6  1  0.250000  0.500000  0.993773  1
  F  F7  1  0.250000  0.000000  0.566492  1
  F  F8  1  0.750000  0.000000  0.490070  1
  F  F9  1  0.427973  0.354821  0.399209  1
  F  F10  1  0.072027  0.645179  0.399209  1
  F  F11  1  0.574557  0.653628  0.685414  1
  F  F12  1  0.925443  0.346372  0.685414  1
  F  F13  1  0.750000  0.500000  0.086199  1
