# generated using pymatgen
data_Li3Mn2P2(O4F)2
_symmetry_space_group_name_H-M   'P 1'
_cell_length_a   13.09264804
_cell_length_b   5.12094490
_cell_length_c   13.21546338
_cell_angle_alpha   90.00000000
_cell_angle_beta   60.31341209
_cell_angle_gamma   90.00000000
_symmetry_Int_Tables_number   1
_chemical_formula_structural   Li3Mn2P2(O4F)2
_chemical_formula_sum   'Li12 Mn8 P8 O32 F8'
_cell_volume   769.75681907
_cell_formula_units_Z   4
loop_
 _symmetry_equiv_pos_site_id
 _symmetry_equiv_pos_as_xyz
  1  'x, y, z'
loop_
 _atom_site_type_symbol
 _atom_site_label
 _atom_site_symmetry_multiplicity
 _atom_site_fract_x
 _atom_site_fract_y
 _atom_site_fract_z
 _atom_site_occupancy
  Li  Li0  1  0.151862  0.228536  0.176470  1
  Li  Li1  1  0.074674  0.761732  0.345677  1
  Li  Li2  1  0.151862  0.271464  0.676470  1
  Li  Li3  1  0.074674  0.738268  0.845677  1
  Li  Li4  1  0.412124  0.277086  0.406187  1
  Li  Li5  1  0.572972  0.765990  0.090162  1
  Li  Li6  1  0.650596  0.271835  0.168757  1
  Li  Li7  1  0.412124  0.222914  0.906187  1
  Li  Li8  1  0.572972  0.734010  0.590162  1
  Li  Li9  1  0.650596  0.228165  0.668757  1
  Li  Li10  1  0.904060  0.271708  0.181969  1
  Li  Li11  1  0.904060  0.228292  0.681969  1
  Mn  Mn12  1  0.070952  0.729061  0.108445  1
  Mn  Mn13  1  0.070952  0.770939  0.608445  1
  Mn  Mn14  1  0.415737  0.225890  0.176259  1
  Mn  Mn15  1  0.573744  0.717518  0.321149  1
  Mn  Mn16  1  0.415737  0.274110  0.676259  1
  Mn  Mn17  1  0.573744  0.782482  0.821149  1
  Mn  Mn18  1  0.920815  0.231468  0.403217  1
  Mn  Mn19  1  0.920815  0.268531  0.903217  1
  P  P20  1  0.161139  0.267109  0.422870  1
  P  P21  1  0.340108  0.715939  0.073302  1
  P  P22  1  0.161139  0.232891  0.922870  1
  P  P23  1  0.340108  0.784061  0.573302  1
  P  P24  1  0.660121  0.224329  0.420205  1
  P  P25  1  0.841424  0.781115  0.082239  1
  P  P26  1  0.660121  0.275671  0.920205  1
  P  P27  1  0.841424  0.718885  0.582239  1
  O  O28  1  0.117335  0.376012  0.043247  1
  O  O29  1  0.211657  0.820889  0.121642  1
  O  O30  1  0.106115  0.137177  0.355104  1
  O  O31  1  0.119304  0.555460  0.450469  1
  O  O32  1  0.117335  0.123988  0.543247  1
  O  O33  1  0.340351  0.412268  0.079823  1
  O  O34  1  0.391652  0.835360  0.144716  1
  O  O35  1  0.295758  0.246598  0.354059  1
  O  O36  1  0.211657  0.679111  0.621642  1
  O  O37  1  0.106115  0.362823  0.855104  1
  O  O38  1  0.119304  0.944540  0.950469  1
  O  O39  1  0.409850  0.683838  0.444943  1
  O  O40  1  0.340351  0.087732  0.579823  1
  O  O41  1  0.607032  0.156055  0.043680  1
  O  O42  1  0.391652  0.664640  0.644716  1
  O  O43  1  0.295758  0.253402  0.854059  1
  O  O44  1  0.711398  0.686652  0.158972  1
  O  O45  1  0.603454  0.362572  0.352792  1
  O  O46  1  0.409850  0.816162  0.944943  1
  O  O47  1  0.626194  0.931210  0.428227  1
  O  O48  1  0.607032  0.343945  0.543680  1
  O  O49  1  0.845178  0.085514  0.079159  1
  O  O50  1  0.910459  0.663565  0.140647  1
  O  O51  1  0.793500  0.267599  0.351634  1
  O  O52  1  0.711398  0.813348  0.658972  1
  O  O53  1  0.603454  0.137428  0.852792  1
  O  O54  1  0.626194  0.568790  0.928227  1
  O  O55  1  0.890601  0.832239  0.459527  1
  O  O56  1  0.845178  0.414486  0.579159  1
  O  O57  1  0.910459  0.836435  0.640647  1
  O  O58  1  0.793500  0.232401  0.851634  1
  O  O59  1  0.890601  0.667761  0.959527  1
  F  F60  1  0.030287  0.507905  0.267676  1
  F  F61  1  0.030287  0.992095  0.767676  1
  F  F62  1  0.509451  0.501491  0.217369  1
  F  F63  1  0.524457  0.009726  0.264787  1
  F  F64  1  0.509451  0.998509  0.717369  1
  F  F65  1  0.524457  0.490274  0.764787  1
  F  F66  1  0.004372  0.023642  0.214855  1
  F  F67  1  0.004372  0.476358  0.714855  1
