# generated using pymatgen
data_FeP2(H4O5)2
_symmetry_space_group_name_H-M   'P 1'
_cell_length_a   7.21891301
_cell_length_b   9.74822073
_cell_length_c   6.06642768
_cell_angle_alpha   90.00000000
_cell_angle_beta   81.90551044
_cell_angle_gamma   90.00000000
_symmetry_Int_Tables_number   1
_chemical_formula_structural   FeP2(H4O5)2
_chemical_formula_sum   'Fe2 P4 H16 O20'
_cell_volume   422.65080667
_cell_formula_units_Z   2
loop_
 _symmetry_equiv_pos_site_id
 _symmetry_equiv_pos_as_xyz
  1  'x, y, z'
loop_
 _atom_site_type_symbol
 _atom_site_label
 _atom_site_symmetry_multiplicity
 _atom_site_fract_x
 _atom_site_fract_y
 _atom_site_fract_z
 _atom_site_occupancy
  Fe  Fe0  1  0.000000  0.000000  0.000000  1
  Fe  Fe1  1  0.500000  0.500000  0.500000  1
  P  P2  1  0.663798  0.809058  0.812054  1
  P  P3  1  0.163798  0.690942  0.312054  1
  P  P4  1  0.336202  0.190942  0.187946  1
  P  P5  1  0.836202  0.309058  0.687946  1
  H  H6  1  0.194292  0.563307  0.003088  1
  H  H7  1  0.694292  0.936693  0.503088  1
  H  H8  1  0.805708  0.436693  0.996912  1
  H  H9  1  0.305708  0.063307  0.496912  1
  H  H10  1  0.537978  0.374564  0.201943  1
  H  H11  1  0.037978  0.125436  0.701943  1
  H  H12  1  0.462022  0.625436  0.798057  1
  H  H13  1  0.962022  0.874564  0.298057  1
  H  H14  1  0.513424  0.225443  0.853704  1
  H  H15  1  0.013424  0.274557  0.353704  1
  H  H16  1  0.486576  0.774557  0.146296  1
  H  H17  1  0.986576  0.725443  0.646296  1
  H  H18  1  0.206070  0.572785  0.707003  1
  H  H19  1  0.706070  0.927215  0.207003  1
  H  H20  1  0.793930  0.427215  0.292997  1
  H  H21  1  0.293930  0.072785  0.792997  1
  O  O22  1  0.873212  0.823558  0.819107  1
  O  O23  1  0.373212  0.676442  0.319107  1
  O  O24  1  0.126788  0.176442  0.180893  1
  O  O25  1  0.626788  0.323558  0.680893  1
  O  O26  1  0.611864  0.656568  0.765640  1
  O  O27  1  0.111864  0.843432  0.265640  1
  O  O28  1  0.388136  0.343432  0.234360  1
  O  O29  1  0.888136  0.156568  0.734360  1
  O  O30  1  0.185284  0.040384  0.724411  1
  O  O31  1  0.685284  0.459616  0.224411  1
  O  O32  1  0.814716  0.959616  0.275589  1
  O  O33  1  0.314716  0.540384  0.775589  1
  O  O34  1  0.044414  0.649157  0.539765  1
  O  O35  1  0.544414  0.850843  0.039765  1
  O  O36  1  0.955586  0.350843  0.460235  1
  O  O37  1  0.455586  0.149157  0.960235  1
  O  O38  1  0.596510  0.906370  0.635571  1
  O  O39  1  0.096510  0.593630  0.135572  1
  O  O40  1  0.403490  0.093630  0.364428  1
  O  O41  1  0.903490  0.406370  0.864429  1
