# generated using pymatgen
data_VOF
_symmetry_space_group_name_H-M   'P 1'
_cell_length_a   4.69786966
_cell_length_b   10.53102166
_cell_length_c   5.64379485
_cell_angle_alpha   83.27782332
_cell_angle_beta   90.00045703
_cell_angle_gamma   89.99969184
_symmetry_Int_Tables_number   1
_chemical_formula_structural   VOF
_chemical_formula_sum   'V8 O8 F8'
_cell_volume   277.29803068
_cell_formula_units_Z   8
loop_
 _symmetry_equiv_pos_site_id
 _symmetry_equiv_pos_as_xyz
  1  'x, y, z'
loop_
 _atom_site_type_symbol
 _atom_site_label
 _atom_site_symmetry_multiplicity
 _atom_site_fract_x
 _atom_site_fract_y
 _atom_site_fract_z
 _atom_site_occupancy
  V  V0  1  0.480751  0.264797  0.744072  1
  V  V1  1  0.519249  0.985203  0.505928  1
  V  V2  1  0.517301  0.735767  0.254983  1
  V  V3  1  0.482699  0.514233  0.995017  1
  V  V4  1  0.982707  0.235763  0.254980  1
  V  V5  1  0.019251  0.764790  0.744096  1
  V  V6  1  0.980749  0.485210  0.505904  1
  V  V7  1  0.017293  0.014237  0.995020  1
  O  O8  1  0.801616  0.318685  0.522796  1
  O  O9  1  0.800253  0.071065  0.273356  1
  O  O10  1  0.698381  0.818676  0.522816  1
  O  O11  1  0.699754  0.571073  0.273346  1
  O  O12  1  0.301619  0.431324  0.727184  1
  O  O13  1  0.300246  0.678927  0.976654  1
  O  O14  1  0.198384  0.931315  0.727204  1
  O  O15  1  0.199747  0.178935  0.976644  1
  F  F16  1  0.806067  0.581308  0.774432  1
  F  F17  1  0.803011  0.834827  0.021852  1
  F  F18  1  0.693938  0.081314  0.774433  1
  F  F19  1  0.696988  0.334829  0.021847  1
  F  F20  1  0.303012  0.915171  0.228153  1
  F  F21  1  0.306062  0.168686  0.475567  1
  F  F22  1  0.193933  0.668692  0.475568  1
  F  F23  1  0.196989  0.415173  0.228148  1
