# generated using pymatgen
data_Li6MnFeP2(CO7)2
_symmetry_space_group_name_H-M   'P 1'
_cell_length_a   8.52896594
_cell_length_b   4.99688039
_cell_length_c   6.57540460
_cell_angle_alpha   90.00000000
_cell_angle_beta   90.00000000
_cell_angle_gamma   85.47359998
_symmetry_Int_Tables_number   1
_chemical_formula_structural   Li6MnFeP2(CO7)2
_chemical_formula_sum   'Li6 Mn1 Fe1 P2 C2 O14'
_cell_volume   279.35803520
_cell_formula_units_Z   1
loop_
 _symmetry_equiv_pos_site_id
 _symmetry_equiv_pos_as_xyz
  1  'x, y, z'
loop_
 _atom_site_type_symbol
 _atom_site_label
 _atom_site_symmetry_multiplicity
 _atom_site_fract_x
 _atom_site_fract_y
 _atom_site_fract_z
 _atom_site_occupancy
  Li  Li0  1  0.091040  0.757903  0.250000  1
  Li  Li1  1  0.273594  0.246118  0.025369  1
  Li  Li2  1  0.273594  0.246118  0.474631  1
  Li  Li3  1  0.726150  0.754063  0.527208  1
  Li  Li4  1  0.726150  0.754063  0.972792  1
  Li  Li5  1  0.908078  0.240970  0.750000  1
  Mn  Mn6  1  0.659443  0.221028  0.250000  1
  Fe  Fe7  1  0.336468  0.785556  0.750000  1
  P  P8  1  0.409994  0.719175  0.250000  1
  P  P9  1  0.588519  0.280201  0.750000  1
  C  C10  1  0.034687  0.704830  0.750000  1
  C  C11  1  0.967288  0.295348  0.250000  1
  O  O12  1  0.071438  0.950209  0.750000  1
  O  O13  1  0.113032  0.354671  0.250000  1
  O  O14  1  0.147368  0.512490  0.750000  1
  O  O15  1  0.311118  0.826942  0.064697  1
  O  O16  1  0.311118  0.826942  0.435303  1
  O  O17  1  0.421052  0.181202  0.750000  1
  O  O18  1  0.423732  0.405075  0.250000  1
  O  O19  1  0.572204  0.594397  0.750000  1
  O  O20  1  0.579712  0.811360  0.250000  1
  O  O21  1  0.689988  0.173513  0.934059  1
  O  O22  1  0.689988  0.173513  0.565941  1
  O  O23  1  0.855508  0.490056  0.250000  1
  O  O24  1  0.888434  0.644628  0.750000  1
  O  O25  1  0.930301  0.049630  0.250000  1
