# generated using pymatgen
data_NaAl(H2N)4
_symmetry_space_group_name_H-M   'P 1'
_cell_length_a   9.36137207
_cell_length_b   6.28334959
_cell_length_c   14.67742107
_cell_angle_alpha   90.00000000
_cell_angle_beta   95.89538429
_cell_angle_gamma   90.00000000
_symmetry_Int_Tables_number   1
_chemical_formula_structural   NaAl(H2N)4
_chemical_formula_sum   'Na4 Al4 H32 N16'
_cell_volume   858.77114944
_cell_formula_units_Z   4
loop_
 _symmetry_equiv_pos_site_id
 _symmetry_equiv_pos_as_xyz
  1  'x, y, z'
loop_
 _atom_site_type_symbol
 _atom_site_label
 _atom_site_symmetry_multiplicity
 _atom_site_fract_x
 _atom_site_fract_y
 _atom_site_fract_z
 _atom_site_occupancy
  Na  Na0  1  0.800121  0.300194  0.711212  1
  Na  Na1  1  0.199879  0.800194  0.788788  1
  Na  Na2  1  0.199879  0.699806  0.288788  1
  Na  Na3  1  0.800121  0.199806  0.211212  1
  Al  Al4  1  0.235845  0.291949  0.619285  1
  Al  Al5  1  0.764155  0.791949  0.880715  1
  Al  Al6  1  0.764155  0.708051  0.380715  1
  Al  Al7  1  0.235845  0.208051  0.119285  1
  H  H8  1  0.510869  0.735193  0.558463  1
  H  H9  1  0.489131  0.235193  0.941537  1
  H  H10  1  0.489131  0.264807  0.441537  1
  H  H11  1  0.510869  0.764807  0.058463  1
  H  H12  1  0.567792  0.679059  0.535106  1
  H  H13  1  0.432208  0.179059  0.964894  1
  H  H14  1  0.432208  0.320941  0.464894  1
  H  H15  1  0.567792  0.820941  0.035106  1
  H  H16  1  0.705934  0.344436  0.890799  1
  H  H17  1  0.294066  0.844436  0.609201  1
  H  H18  1  0.294066  0.655564  0.109201  1
  H  H19  1  0.705934  0.155564  0.390799  1
  H  H20  1  0.834329  0.854165  0.616686  1
  H  H21  1  0.165671  0.354165  0.883314  1
  H  H22  1  0.165671  0.145835  0.383314  1
  H  H23  1  0.834329  0.645835  0.116686  1
  H  H24  1  0.019719  0.753650  0.586160  1
  H  H25  1  0.980281  0.253650  0.913840  1
  H  H26  1  0.980281  0.246350  0.413840  1
  H  H27  1  0.019719  0.746350  0.086160  1
  H  H28  1  0.055558  0.783288  0.045428  1
  H  H29  1  0.944442  0.283288  0.454572  1
  H  H30  1  0.944442  0.216712  0.954572  1
  H  H31  1  0.055558  0.716712  0.545428  1
  H  H32  1  0.691350  0.262690  0.926309  1
  H  H33  1  0.308650  0.762690  0.573691  1
  H  H34  1  0.308650  0.737310  0.073691  1
  H  H35  1  0.691350  0.237310  0.426309  1
  H  H36  1  0.243705  0.376272  0.897219  1
  H  H37  1  0.756295  0.876272  0.602781  1
  H  H38  1  0.756295  0.623728  0.102781  1
  H  H39  1  0.243705  0.123728  0.397219  1
  N  N40  1  0.439166  0.501473  0.729037  1
  N  N41  1  0.560834  0.001473  0.770963  1
  N  N42  1  0.560834  0.498527  0.270963  1
  N  N43  1  0.439166  0.998527  0.229037  1
  N  N44  1  0.048074  0.229852  0.677685  1
  N  N45  1  0.951926  0.729852  0.822315  1
  N  N46  1  0.951926  0.770148  0.322315  1
  N  N47  1  0.048074  0.270148  0.177685  1
  N  N48  1  0.068401  0.422098  0.681586  1
  N  N49  1  0.931599  0.922098  0.818414  1
  N  N50  1  0.931599  0.577902  0.318414  1
  N  N51  1  0.068401  0.077902  0.181586  1
  N  N52  1  0.441329  0.977930  0.776388  1
  N  N53  1  0.558671  0.477930  0.723612  1
  N  N54  1  0.558671  0.022070  0.223612  1
  N  N55  1  0.441329  0.522070  0.276388  1
