# generated using pymatgen
data_TlCoO3
_symmetry_space_group_name_H-M   'P 1'
_cell_length_a   5.32707597
_cell_length_b   5.40994852
_cell_length_c   7.92476064
_cell_angle_alpha   90.51006476
_cell_angle_beta   90.46890805
_cell_angle_gamma   89.13552738
_symmetry_Int_Tables_number   1
_chemical_formula_structural   TlCoO3
_chemical_formula_sum   'Tl4 Co4 O12'
_cell_volume   228.34287130
_cell_formula_units_Z   4
loop_
 _symmetry_equiv_pos_site_id
 _symmetry_equiv_pos_as_xyz
  1  'x, y, z'
loop_
 _atom_site_type_symbol
 _atom_site_label
 _atom_site_symmetry_multiplicity
 _atom_site_fract_x
 _atom_site_fract_y
 _atom_site_fract_z
 _atom_site_occupancy
  Tl  Tl0  1  0.018217  0.953566  0.747544  1
  Tl  Tl1  1  0.485555  0.453687  0.747661  1
  Tl  Tl2  1  0.514445  0.546313  0.252339  1
  Tl  Tl3  1  0.981783  0.046434  0.252456  1
  Co  Co4  1  0.000000  0.500000  -0.000000  1
  Co  Co5  1  -0.000000  0.500000  0.500000  1
  Co  Co6  1  0.500000  0.000000  0.000000  1
  Co  Co7  1  0.500000  0.000000  0.500000  1
  O  O8  1  0.106600  0.458114  0.243764  1
  O  O9  1  0.205242  0.205974  0.559053  1
  O  O10  1  0.206281  0.204992  0.942705  1
  O  O11  1  0.304042  0.713411  0.941765  1
  O  O12  1  0.296559  0.707163  0.560262  1
  O  O13  1  0.392713  0.958913  0.253205  1
  O  O14  1  0.607287  0.041087  0.746795  1
  O  O15  1  0.703441  0.292837  0.439738  1
  O  O16  1  0.695958  0.286589  0.058235  1
  O  O17  1  0.793719  0.795008  0.057295  1
  O  O18  1  0.794758  0.794026  0.440947  1
  O  O19  1  0.893400  0.541886  0.756236  1
