# generated using pymatgen
data_TiNi3(PO4)4
_symmetry_space_group_name_H-M   'P 1'
_cell_length_a   4.87401053
_cell_length_b   9.95859942
_cell_length_c   5.88879755
_cell_angle_alpha   90.00000000
_cell_angle_beta   90.00000000
_cell_angle_gamma   91.14698964
_symmetry_Int_Tables_number   1
_chemical_formula_structural   TiNi3(PO4)4
_chemical_formula_sum   'Ti1 Ni3 P4 O16'
_cell_volume   285.77505907
_cell_formula_units_Z   1
loop_
 _symmetry_equiv_pos_site_id
 _symmetry_equiv_pos_as_xyz
  1  'x, y, z'
loop_
 _atom_site_type_symbol
 _atom_site_label
 _atom_site_symmetry_multiplicity
 _atom_site_fract_x
 _atom_site_fract_y
 _atom_site_fract_z
 _atom_site_occupancy
  Ti  Ti0  1  0.968324  0.272198  0.250000  1
  Ni  Ni1  1  0.051142  0.719176  0.750000  1
  Ni  Ni2  1  0.462224  0.229790  0.750000  1
  Ni  Ni3  1  0.549602  0.776767  0.250000  1
  P  P4  1  0.088942  0.598306  0.250000  1
  P  P5  1  0.389428  0.094273  0.250000  1
  P  P6  1  0.597176  0.901160  0.750000  1
  P  P7  1  0.925672  0.405250  0.750000  1
  O  O8  1  0.144904  0.443715  0.250000  1
  O  O9  1  0.238420  0.665409  0.043913  1
  O  O10  1  0.238420  0.665409  0.456087  1
  O  O11  1  0.233741  0.392182  0.750000  1
  O  O12  1  0.282428  0.882081  0.750000  1
  O  O13  1  0.242820  0.171435  0.050141  1
  O  O14  1  0.242820  0.171435  0.449859  1
  O  O15  1  0.334690  0.946305  0.250000  1
  O  O16  1  0.651145  0.052568  0.750000  1
  O  O17  1  0.738521  0.831546  0.544727  1
  O  O18  1  0.738521  0.831546  0.955273  1
  O  O19  1  0.699420  0.130788  0.250000  1
  O  O20  1  0.779540  0.614435  0.250000  1
  O  O21  1  0.786453  0.326611  0.543242  1
  O  O22  1  0.786453  0.326611  0.956758  1
  O  O23  1  0.829195  0.551007  0.750000  1
