# generated using pymatgen
data_Li2VFe(P2O7)2
_symmetry_space_group_name_H-M   'P 1'
_cell_length_a   14.09003904
_cell_length_b   8.26788226
_cell_length_c   7.04562739
_cell_angle_alpha   89.85393212
_cell_angle_beta   80.43192650
_cell_angle_gamma   90.02866234
_symmetry_Int_Tables_number   1
_chemical_formula_structural   Li2VFe(P2O7)2
_chemical_formula_sum   'Li6 V3 Fe3 P12 O42'
_cell_volume   809.35784457
_cell_formula_units_Z   3
loop_
 _symmetry_equiv_pos_site_id
 _symmetry_equiv_pos_as_xyz
  1  'x, y, z'
loop_
 _atom_site_type_symbol
 _atom_site_label
 _atom_site_symmetry_multiplicity
 _atom_site_fract_x
 _atom_site_fract_y
 _atom_site_fract_z
 _atom_site_occupancy
  Li  Li0  1  0.058389  0.861337  0.612453  1
  Li  Li1  1  0.274472  0.361615  0.051812  1
  Li  Li2  1  0.392392  0.861005  0.282015  1
  Li  Li3  1  0.607771  0.360914  0.719675  1
  Li  Li4  1  0.725621  0.861935  0.947849  1
  Li  Li5  1  0.941311  0.360603  0.387231  1
  V  V6  1  0.262227  0.000150  0.009772  1
  V  V7  1  0.404467  0.500131  0.323807  1
  V  V8  1  0.738301  0.499870  0.989633  1
  Fe  Fe9  1  0.072623  0.499941  0.660257  1
  Fe  Fe10  1  0.594690  0.000111  0.672218  1
  Fe  Fe11  1  0.927463  0.999706  0.339612  1
  P  P12  1  0.133005  0.180500  0.389665  1
  P  P13  1  0.071767  0.783647  0.014603  1
  P  P14  1  0.261945  0.284160  0.651325  1
  P  P15  1  0.199951  0.680382  0.278488  1
  P  P16  1  0.404868  0.784246  0.681956  1
  P  P17  1  0.533486  0.681420  0.944165  1
  P  P18  1  0.466712  0.181010  0.054716  1
  P  P19  1  0.594607  0.283947  0.318892  1
  P  P20  1  0.799749  0.179527  0.722237  1
  P  P21  1  0.737923  0.783926  0.348227  1
  P  P22  1  0.928432  0.283495  0.985654  1
  P  P23  1  0.867220  0.679783  0.609913  1
  O  O24  1  0.016701  0.326248  0.839220  1
  O  O25  1  0.046140  0.694538  0.839214  1
  O  O26  1  0.133680  0.932894  0.950347  1
  O  O27  1  0.061890  0.038792  0.420096  1
  O  O28  1  0.083083  0.345063  0.426198  1
  O  O29  1  0.133001  0.677930  0.472839  1
  O  O30  1  0.199379  0.432662  0.714116  1
  O  O31  1  0.198834  0.152786  0.553726  1
  O  O32  1  0.134837  0.652260  0.112485  1
  O  O33  1  0.288834  0.196946  0.825240  1
  O  O34  1  0.317334  0.824886  0.831384  1
  O  O35  1  0.200619  0.178270  0.194405  1
  O  O36  1  0.251613  0.843274  0.241776  1
  O  O37  1  0.271159  0.538660  0.246085  1
  O  O38  1  0.349606  0.324731  0.502297  1
  O  O39  1  0.378144  0.696755  0.508964  1
  O  O40  1  0.468033  0.653050  0.780208  1
  O  O41  1  0.467736  0.932832  0.618806  1
  O  O42  1  0.533681  0.178306  0.860112  1
  O  O43  1  0.395565  0.038796  0.087652  1
  O  O44  1  0.415406  0.343523  0.091408  1
  O  O45  1  0.583913  0.845609  0.907238  1
  O  O46  1  0.604589  0.539528  0.912440  1
  O  O47  1  0.466325  0.678174  0.139215  1
  O  O48  1  0.532881  0.432854  0.383281  1
  O  O49  1  0.531769  0.152638  0.221075  1
  O  O50  1  0.621105  0.194857  0.493645  1
  O  O51  1  0.649786  0.826320  0.495138  1
  O  O52  1  0.728555  0.037735  0.753305  1
  O  O53  1  0.748755  0.342593  0.758528  1
  O  O54  1  0.799500  0.677891  0.804997  1
  O  O55  1  0.682292  0.325172  0.170160  1
  O  O56  1  0.711922  0.696327  0.174197  1
  O  O57  1  0.865392  0.151918  0.888205  1
  O  O58  1  0.801081  0.652482  0.446338  1
  O  O59  1  0.800802  0.932460  0.284901  1
  O  O60  1  0.867080  0.177870  0.527749  1
  O  O61  1  0.917187  0.844636  0.573316  1
  O  O62  1  0.938209  0.538375  0.579989  1
  O  O63  1  0.866634  0.432405  0.049965  1
  O  O64  1  0.953867  0.194231  0.161763  1
  O  O65  1  0.983690  0.826106  0.161798  1
