# generated using pymatgen
data_Cu6OF11
_symmetry_space_group_name_H-M   'P 1'
_cell_length_a   7.65507214
_cell_length_b   4.59656761
_cell_length_c   5.97982230
_cell_angle_alpha   91.76057296
_cell_angle_beta   88.15165546
_cell_angle_gamma   89.60553700
_symmetry_Int_Tables_number   1
_chemical_formula_structural   Cu6OF11
_chemical_formula_sum   'Cu6 O1 F11'
_cell_volume   210.19706085
_cell_formula_units_Z   1
loop_
 _symmetry_equiv_pos_site_id
 _symmetry_equiv_pos_as_xyz
  1  'x, y, z'
loop_
 _atom_site_type_symbol
 _atom_site_label
 _atom_site_symmetry_multiplicity
 _atom_site_fract_x
 _atom_site_fract_y
 _atom_site_fract_z
 _atom_site_occupancy
  Cu  Cu0  1  0.000015  0.999256  0.999266  1
  Cu  Cu1  1  0.988721  0.513311  0.502021  1
  Cu  Cu2  1  0.330348  0.005887  0.333119  1
  Cu  Cu3  1  0.671333  0.520359  0.190597  1
  Cu  Cu4  1  0.337516  0.494931  0.832904  1
  Cu  Cu5  1  0.672926  0.981043  0.655408  1
  O  O6  1  0.777030  0.694356  0.472075  1
  F  F7  1  0.225420  0.202713  0.019792  1
  F  F8  1  0.109027  0.795631  0.317824  1
  F  F9  1  0.441853  0.701914  0.145876  1
  F  F10  1  0.214480  0.305877  0.519310  1
  F  F11  1  0.111342  0.700353  0.811788  1
  F  F12  1  0.554931  0.202407  0.354114  1
  F  F13  1  0.443755  0.793364  0.647320  1
  F  F14  1  0.893574  0.296077  0.186256  1
  F  F15  1  0.561432  0.289646  0.852385  1
  F  F16  1  0.889567  0.206790  0.679882  1
  F  F17  1  0.776729  0.796082  0.980060  1
