# generated using pymatgen
data_Li5Co7O3F13
_symmetry_space_group_name_H-M   'P 1'
_cell_length_a   6.06719647
_cell_length_b   6.13954959
_cell_length_c   10.52205718
_cell_angle_alpha   107.00799835
_cell_angle_beta   90.10287310
_cell_angle_gamma   60.38783313
_symmetry_Int_Tables_number   1
_chemical_formula_structural   Li5Co7O3F13
_chemical_formula_sum   'Li5 Co7 O3 F13'
_cell_volume   321.01128525
_cell_formula_units_Z   1
loop_
 _symmetry_equiv_pos_site_id
 _symmetry_equiv_pos_as_xyz
  1  'x, y, z'
loop_
 _atom_site_type_symbol
 _atom_site_label
 _atom_site_symmetry_multiplicity
 _atom_site_fract_x
 _atom_site_fract_y
 _atom_site_fract_z
 _atom_site_occupancy
  Li  Li0  1  0.602834  0.792612  0.128240  1
  Li  Li1  1  0.013361  0.978096  0.987644  1
  Li  Li2  1  0.110231  0.760596  0.635323  1
  Li  Li3  1  0.525357  0.956624  0.497440  1
  Li  Li4  1  0.560268  0.371909  0.810127  1
  Co  Co5  1  0.323990  0.360282  0.065406  1
  Co  Co6  1  0.061578  0.881378  0.314427  1
  Co  Co7  1  0.562072  0.374942  0.312909  1
  Co  Co8  1  0.062990  0.375741  0.312336  1
  Co  Co9  1  0.804151  0.407116  0.567273  1
  Co  Co10  1  0.582186  0.859539  0.805453  1
  Co  Co11  1  0.055755  0.384106  0.804432  1
  O  O12  1  0.405315  0.191585  0.201754  1
  O  O13  1  0.721097  0.559617  0.422820  1
  O  O14  1  0.923810  0.616550  0.694964  1
  F  F15  1  0.418723  0.640960  0.190033  1
  F  F16  1  0.944397  0.641405  0.188811  1
  F  F17  1  0.179107  0.641400  0.435131  1
  F  F18  1  0.946578  0.111404  0.185711  1
  F  F19  1  0.706630  0.117896  0.438482  1
  F  F20  1  0.188403  0.109178  0.433570  1
  F  F21  1  0.439796  0.623702  0.699469  1
  F  F22  1  0.912298  0.156826  0.691825  1
  F  F23  1  0.683828  0.617765  0.929438  1
  F  F24  1  0.205385  0.586321  0.938617  1
  F  F25  1  0.435085  0.127119  0.698982  1
  F  F26  1  0.673476  0.129225  0.934224  1
  F  F27  1  0.201301  0.126105  0.925158  1
