# generated using pymatgen
data_H2RuC3(ClO2)2
_symmetry_space_group_name_H-M   'P 1'
_cell_length_a   6.32901317
_cell_length_b   10.43042213
_cell_length_c   12.02966282
_cell_angle_alpha   90.00000000
_cell_angle_beta   97.73356280
_cell_angle_gamma   90.00000000
_symmetry_Int_Tables_number   1
_chemical_formula_structural   H2RuC3(ClO2)2
_chemical_formula_sum   'H8 Ru4 C12 Cl8 O16'
_cell_volume   786.90654654
_cell_formula_units_Z   4
loop_
 _symmetry_equiv_pos_site_id
 _symmetry_equiv_pos_as_xyz
  1  'x, y, z'
loop_
 _atom_site_type_symbol
 _atom_site_label
 _atom_site_symmetry_multiplicity
 _atom_site_fract_x
 _atom_site_fract_y
 _atom_site_fract_z
 _atom_site_occupancy
  H  H0  1  0.235531  0.507315  0.975687  1
  H  H1  1  0.163365  0.922566  0.424998  1
  H  H2  1  0.264469  0.007315  0.524313  1
  H  H3  1  0.336635  0.422566  0.075002  1
  H  H4  1  0.663365  0.577434  0.924998  1
  H  H5  1  0.735531  0.992685  0.475687  1
  H  H6  1  0.836635  0.077434  0.575002  1
  H  H7  1  0.764469  0.492685  0.024313  1
  Ru  Ru8  1  0.147388  0.779476  0.613331  1
  Ru  Ru9  1  0.352612  0.279476  0.886669  1
  Ru  Ru10  1  0.647388  0.720524  0.113331  1
  Ru  Ru11  1  0.852612  0.220524  0.386669  1
  C  C12  1  0.037232  0.666267  0.712773  1
  C  C13  1  0.082740  0.285384  0.795185  1
  C  C14  1  0.270704  0.140090  0.975054  1
  C  C15  1  0.229296  0.640090  0.524946  1
  C  C16  1  0.417260  0.785384  0.704815  1
  C  C17  1  0.462769  0.166267  0.787227  1
  C  C18  1  0.537231  0.833733  0.212773  1
  C  C19  1  0.582740  0.214616  0.295185  1
  C  C20  1  0.770704  0.359910  0.475054  1
  C  C21  1  0.729296  0.859910  0.024946  1
  C  C22  1  0.917260  0.714616  0.204815  1
  C  C23  1  0.962769  0.333733  0.287227  1
  Cl  Cl24  1  0.036396  0.962072  0.717360  1
  Cl  Cl25  1  0.302120  0.719895  0.995396  1
  Cl  Cl26  1  0.197880  0.219895  0.504604  1
  Cl  Cl27  1  0.463604  0.462072  0.782640  1
  Cl  Cl28  1  0.536396  0.537928  0.217360  1
  Cl  Cl29  1  0.802120  0.780105  0.495396  1
  Cl  Cl30  1  0.697880  0.280105  0.004604  1
  Cl  Cl31  1  0.963604  0.037928  0.282640  1
  O  O32  1  0.037534  0.401590  0.227835  1
  O  O33  1  0.079024  0.711487  0.261662  1
  O  O34  1  0.258387  0.917222  0.497311  1
  O  O35  1  0.274139  0.554999  0.471768  1
  O  O36  1  0.225861  0.054999  0.028232  1
  O  O37  1  0.241613  0.417222  0.002689  1
  O  O38  1  0.537534  0.098410  0.727835  1
  O  O39  1  0.420976  0.211487  0.238338  1
  O  O40  1  0.579024  0.788513  0.761662  1
  O  O41  1  0.462466  0.901590  0.272165  1
  O  O42  1  0.758387  0.582778  0.997311  1
  O  O43  1  0.774139  0.945001  0.971768  1
  O  O44  1  0.725861  0.445001  0.528232  1
  O  O45  1  0.741613  0.082778  0.502689  1
  O  O46  1  0.920976  0.288513  0.738338  1
  O  O47  1  0.962466  0.598410  0.772165  1
