# generated using pymatgen
data_Li3MnFeCo(PO4)3
_symmetry_space_group_name_H-M   'P 1'
_cell_length_a   10.43749888
_cell_length_b   6.07784770
_cell_length_c   14.27562814
_cell_angle_alpha   90.00000000
_cell_angle_beta   90.00573745
_cell_angle_gamma   90.00000000
_symmetry_Int_Tables_number   1
_chemical_formula_structural   Li3MnFeCo(PO4)3
_chemical_formula_sum   'Li12 Mn4 Fe4 Co4 P12 O48'
_cell_volume   905.61056328
_cell_formula_units_Z   4
loop_
 _symmetry_equiv_pos_site_id
 _symmetry_equiv_pos_as_xyz
  1  'x, y, z'
loop_
 _atom_site_type_symbol
 _atom_site_label
 _atom_site_symmetry_multiplicity
 _atom_site_fract_x
 _atom_site_fract_y
 _atom_site_fract_z
 _atom_site_occupancy
  Li  Li0  1  0.996170  0.500706  0.667185  1
  Li  Li1  1  0.996938  0.000747  0.999747  1
  Li  Li2  1  0.996938  0.499253  0.999747  1
  Li  Li3  1  -0.000072  0.999329  0.333464  1
  Li  Li4  1  -0.000072  0.500671  0.333464  1
  Li  Li5  1  0.996170  0.999294  0.667185  1
  Li  Li6  1  0.501077  0.000871  0.500384  1
  Li  Li7  1  0.501077  0.499129  0.500384  1
  Li  Li8  1  0.502535  0.998795  0.166881  1
  Li  Li9  1  0.502535  0.501205  0.166881  1
  Li  Li10  1  0.504363  0.998511  0.832624  1
  Li  Li11  1  0.504363  0.501489  0.832624  1
  Mn  Mn12  1  0.218010  0.750000  0.160314  1
  Mn  Mn13  1  0.218451  0.750000  0.826447  1
  Mn  Mn14  1  0.281319  0.250000  0.660106  1
  Mn  Mn15  1  0.281657  0.250000  0.993497  1
  Fe  Fe16  1  0.218476  0.750000  0.492034  1
  Fe  Fe17  1  0.279758  0.250000  0.327814  1
  Fe  Fe18  1  0.724213  0.750000  0.004283  1
  Fe  Fe19  1  0.720007  0.750000  0.339327  1
  Co  Co20  1  0.722937  0.750000  0.672365  1
  Co  Co21  1  0.777024  0.250000  0.839378  1
  Co  Co22  1  0.779882  0.250000  0.505540  1
  Co  Co23  1  0.777091  0.250000  0.174394  1
  P  P24  1  0.089366  0.250000  0.805845  1
  P  P25  1  0.090574  0.250000  0.139805  1
  P  P26  1  0.092179  0.250000  0.473141  1
  P  P27  1  0.406658  0.750000  0.307224  1
  P  P28  1  0.408579  0.750000  0.637453  1
  P  P29  1  0.410647  0.750000  0.972418  1
  P  P30  1  0.597195  0.250000  0.361526  1
  P  P31  1  0.598739  0.250000  0.028331  1
  P  P32  1  0.598230  0.250000  0.693647  1
  P  P33  1  0.901715  0.750000  0.860858  1
  P  P34  1  0.901671  0.750000  0.194106  1
  P  P35  1  0.903575  0.750000  0.526696  1
  O  O36  1  0.039173  0.750000  0.236041  1
  O  O37  1  0.042145  0.750000  0.567452  1
  O  O38  1  0.039422  0.750000  0.901762  1
  O  O39  1  0.096228  0.250000  0.580557  1
  O  O40  1  0.094577  0.250000  0.913392  1
  O  O41  1  0.097120  0.250000  0.247364  1
  O  O42  1  0.160674  0.047880  0.094153  1
  O  O43  1  0.160674  0.452120  0.094153  1
  O  O44  1  0.164231  0.048114  0.427821  1
  O  O45  1  0.164231  0.451886  0.427821  1
  O  O46  1  0.159696  0.047644  0.760483  1
  O  O47  1  0.159696  0.452356  0.760483  1
  O  O48  1  0.338293  0.547514  0.591858  1
  O  O49  1  0.338293  0.952486  0.591858  1
  O  O50  1  0.336487  0.546957  0.262256  1
  O  O51  1  0.336487  0.953043  0.262256  1
  O  O52  1  0.340155  0.548053  0.927148  1
  O  O53  1  0.340155  0.951947  0.927148  1
  O  O54  1  0.401902  0.750000  0.414877  1
  O  O55  1  0.405117  0.750000  0.079801  1
  O  O56  1  0.402659  0.750000  0.745108  1
  O  O57  1  0.458843  0.250000  0.401008  1
  O  O58  1  0.460516  0.250000  0.069036  1
  O  O59  1  0.460266  0.250000  0.735204  1
  O  O60  1  0.545695  0.750000  0.266939  1
  O  O61  1  0.549578  0.750000  0.932156  1
  O  O62  1  0.547825  0.750000  0.598636  1
  O  O63  1  0.601376  0.250000  0.253541  1
  O  O64  1  0.601433  0.250000  0.920316  1
  O  O65  1  0.601551  0.250000  0.585937  1
  O  O66  1  0.668476  0.046133  0.073064  1
  O  O67  1  0.667605  0.046953  0.407220  1
  O  O68  1  0.668633  0.045644  0.738173  1
  O  O69  1  0.668633  0.454356  0.738173  1
  O  O70  1  0.668476  0.453867  0.073064  1
  O  O71  1  0.667605  0.453047  0.407220  1
  O  O72  1  0.831278  0.546376  0.905736  1
  O  O73  1  0.831278  0.953624  0.905736  1
  O  O74  1  0.830883  0.546654  0.238653  1
  O  O75  1  0.833221  0.546223  0.571949  1
  O  O76  1  0.830883  0.953346  0.238653  1
  O  O77  1  0.833221  0.953777  0.571949  1
  O  O78  1  0.899042  0.750000  0.752687  1
  O  O79  1  0.900353  0.750000  0.418732  1
  O  O80  1  0.899816  0.750000  0.086167  1
  O  O81  1  0.950501  0.250000  0.766218  1
  O  O82  1  0.951669  0.250000  0.100561  1
  O  O83  1  0.953947  0.250000  0.432368  1
