# generated using pymatgen
data_Li3MnV(PO4)3
_symmetry_space_group_name_H-M   'P 1'
_cell_length_a   9.90138749
_cell_length_b   9.86079204
_cell_length_c   9.84767854
_cell_angle_alpha   88.03088483
_cell_angle_beta   87.77395846
_cell_angle_gamma   85.79115395
_symmetry_Int_Tables_number   1
_chemical_formula_structural   Li3MnV(PO4)3
_chemical_formula_sum   'Li12 Mn4 V4 P12 O48'
_cell_volume   957.68757099
_cell_formula_units_Z   4
loop_
 _symmetry_equiv_pos_site_id
 _symmetry_equiv_pos_as_xyz
  1  'x, y, z'
loop_
 _atom_site_type_symbol
 _atom_site_label
 _atom_site_symmetry_multiplicity
 _atom_site_fract_x
 _atom_site_fract_y
 _atom_site_fract_z
 _atom_site_occupancy
  Li  Li0  1  0.999041  0.051271  0.977341  1
  Li  Li1  1  0.059343  0.742113  0.136248  1
  Li  Li2  1  0.130109  0.085531  0.734530  1
  Li  Li3  1  0.233537  0.558911  0.641460  1
  Li  Li4  1  0.272523  0.858500  0.941367  1
  Li  Li5  1  0.368755  0.766510  0.422469  1
  Li  Li6  1  0.441612  0.356378  0.768849  1
  Li  Li7  1  0.500846  0.515408  0.452292  1
  Li  Li8  1  0.647426  0.232158  0.554560  1
  Li  Li9  1  0.764131  0.458951  0.356412  1
  Li  Li10  1  0.723390  0.156674  0.040412  1
  Li  Li11  1  0.851826  0.942082  0.266399  1
  Mn  Mn12  1  0.025630  0.253579  0.475887  1
  Mn  Mn13  1  0.738785  0.525770  0.972512  1
  Mn  Mn14  1  0.757349  0.740675  0.751954  1
  Mn  Mn15  1  0.973604  0.760854  0.530353  1
  V  V16  1  0.245966  0.251020  0.252822  1
  V  V17  1  0.247573  0.465643  0.036382  1
  V  V18  1  0.464000  0.026828  0.246412  1
  V  V19  1  0.537654  0.958311  0.748905  1
  P  P20  1  0.053743  0.675830  0.853474  1
  P  P21  1  0.145502  0.955795  0.335306  1
  P  P22  1  0.174065  0.551319  0.355558  1
  P  P23  1  0.327135  0.146073  0.949551  1
  P  P24  1  0.360393  0.166238  0.550405  1
  P  P25  1  0.447941  0.642750  0.837590  1
  P  P26  1  0.546371  0.339364  0.178465  1
  P  P27  1  0.647415  0.815639  0.450243  1
  P  P28  1  0.674411  0.849672  0.048139  1
  P  P29  1  0.826324  0.448372  0.652271  1
  P  P30  1  0.851989  0.049136  0.671255  1
  P  P31  1  0.947336  0.327001  0.147327  1
  O  O32  1  0.035920  0.620778  0.407258  1
  O  O33  1  0.052493  0.909623  0.228292  1
  O  O34  1  0.108730  0.330145  0.120283  1
  O  O35  1  0.117935  0.117823  0.338267  1
  O  O36  1  0.093320  0.694889  0.700074  1
  O  O37  1  0.114530  0.895199  0.478681  1
  O  O38  1  0.097652  0.787964  0.942762  1
  O  O39  1  0.117576  0.535414  0.900579  1
  O  O40  1  0.170143  0.392971  0.382398  1
  O  O41  1  0.184848  0.588537  0.201306  1
  O  O42  1  0.208281  0.193475  0.590888  1
  O  O43  1  0.211294  0.061989  0.905817  1
  O  O44  1  0.327140  0.121226  0.110248  1
  O  O45  1  0.291130  0.593611  0.439406  1
  O  O46  1  0.298782  0.915903  0.301945  1
  O  O47  1  0.308996  0.301136  0.913672  1
  O  O48  1  0.377433  0.164226  0.388465  1
  O  O49  1  0.385516  0.374796  0.173458  1
  O  O50  1  0.409374  0.024097  0.607631  1
  O  O51  1  0.376437  0.605747  0.974190  1
  O  O52  1  0.404842  0.555113  0.723287  1
  O  O53  1  0.450061  0.275879  0.594414  1
  O  O54  1  0.416575  0.799077  0.810142  1
  O  O55  1  0.464202  0.095547  0.885488  1
  O  O56  1  0.532204  0.897879  0.104356  1
  O  O57  1  0.579952  0.181470  0.192769  1
  O  O58  1  0.592135  0.412579  0.299515  1
  O  O59  1  0.562767  0.700662  0.414144  1
  O  O60  1  0.612526  0.377751  0.039350  1
  O  O61  1  0.594226  0.953797  0.387134  1
  O  O62  1  0.606300  0.614321  0.847157  1
  O  O63  1  0.630610  0.823047  0.613887  1
  O  O64  1  0.695740  0.081401  0.695701  1
  O  O65  1  0.707547  0.698371  0.084302  1
  O  O66  1  0.720562  0.406872  0.554842  1
  O  O67  1  0.671665  0.869729  0.883871  1
  O  O68  1  0.780597  0.944857  0.088752  1
  O  O69  1  0.796329  0.413639  0.802739  1
  O  O70  1  0.801136  0.798935  0.409629  1
  O  O71  1  0.833557  0.608907  0.626414  1
  O  O72  1  0.882662  0.464628  0.088897  1
  O  O73  1  0.904325  0.201685  0.080616  1
  O  O74  1  0.886880  0.121795  0.533426  1
  O  O75  1  0.914686  0.329128  0.302394  1
  O  O76  1  0.881477  0.889800  0.655759  1
  O  O77  1  0.937791  0.088188  0.786730  1
  O  O78  1  0.895005  0.672889  0.874809  1
  O  O79  1  0.970387  0.384892  0.609959  1
