# generated using pymatgen
data_Li2Mn(CO3)2
_symmetry_space_group_name_H-M   'P 1'
_cell_length_a   5.19007415
_cell_length_b   6.63659260
_cell_length_c   8.00473778
_cell_angle_alpha   89.43843572
_cell_angle_beta   91.42966851
_cell_angle_gamma   68.34502548
_symmetry_Int_Tables_number   1
_chemical_formula_structural   Li2Mn(CO3)2
_chemical_formula_sum   'Li4 Mn2 C4 O12'
_cell_volume   256.12564272
_cell_formula_units_Z   2
loop_
 _symmetry_equiv_pos_site_id
 _symmetry_equiv_pos_as_xyz
  1  'x, y, z'
loop_
 _atom_site_type_symbol
 _atom_site_label
 _atom_site_symmetry_multiplicity
 _atom_site_fract_x
 _atom_site_fract_y
 _atom_site_fract_z
 _atom_site_occupancy
  Li  Li0  1  0.288129  0.057234  0.403674  1
  Li  Li1  1  0.339283  0.257430  0.921313  1
  Li  Li2  1  0.656753  0.732664  0.081030  1
  Li  Li3  1  0.831611  0.788716  0.567798  1
  Mn  Mn4  1  0.493045  0.483606  0.503070  1
  Mn  Mn5  1  0.985235  0.997879  0.988393  1
  C  C6  1  0.727291  0.115773  0.267831  1
  C  C7  1  0.787005  0.377244  0.773387  1
  C  C8  1  0.198032  0.645401  0.235868  1
  C  C9  1  0.293843  0.879921  0.728435  1
  O  O10  1  0.979775  0.103981  0.254158  1
  O  O11  1  0.596704  0.081623  0.135402  1
  O  O12  1  0.604375  0.153423  0.410404  1
  O  O13  1  0.538902  0.368604  0.765224  1
  O  O14  1  0.939432  0.317351  0.908921  1
  O  O15  1  0.088206  0.621658  0.375867  1
  O  O16  1  0.874763  0.445506  0.642153  1
  O  O17  1  0.459003  0.624044  0.241186  1
  O  O18  1  0.056550  0.684872  0.096162  1
  O  O19  1  0.425848  0.842483  0.589022  1
  O  O20  1  0.409336  0.912743  0.867158  1
  O  O21  1  0.039978  0.889085  0.731903  1
