# generated using pymatgen
data_Li5Mn2P2(CO7)2
_symmetry_space_group_name_H-M   'P 1'
_cell_length_a   9.55307312
_cell_length_b   10.16620762
_cell_length_c   6.44665141
_cell_angle_alpha   90.00000000
_cell_angle_beta   90.00000000
_cell_angle_gamma   62.25225028
_symmetry_Int_Tables_number   1
_chemical_formula_structural   Li5Mn2P2(CO7)2
_chemical_formula_sum   'Li10 Mn4 P4 C4 O28'
_cell_volume   554.09271674
_cell_formula_units_Z   2
loop_
 _symmetry_equiv_pos_site_id
 _symmetry_equiv_pos_as_xyz
  1  'x, y, z'
loop_
 _atom_site_type_symbol
 _atom_site_label
 _atom_site_symmetry_multiplicity
 _atom_site_fract_x
 _atom_site_fract_y
 _atom_site_fract_z
 _atom_site_occupancy
  Li  Li0  1  0.910319  0.921801  0.750000  1
  Li  Li1  1  0.738721  0.263767  0.981228  1
  Li  Li2  1  0.738721  0.263767  0.518772  1
  Li  Li3  1  0.744752  0.745865  0.519655  1
  Li  Li4  1  0.744752  0.745865  0.980345  1
  Li  Li5  1  0.255248  0.254135  0.019655  1
  Li  Li6  1  0.255248  0.254135  0.480345  1
  Li  Li7  1  0.261279  0.736233  0.018772  1
  Li  Li8  1  0.261279  0.736233  0.481228  1
  Li  Li9  1  0.089681  0.078199  0.250000  1
  Mn  Mn10  1  0.664157  0.061810  0.250000  1
  Mn  Mn11  1  0.659552  0.561713  0.250000  1
  Mn  Mn12  1  0.340448  0.438287  0.750000  1
  Mn  Mn13  1  0.335843  0.938190  0.750000  1
  P  P14  1  0.585013  0.065567  0.750000  1
  P  P15  1  0.580278  0.573700  0.750000  1
  P  P16  1  0.419722  0.426300  0.250000  1
  P  P17  1  0.414987  0.934433  0.250000  1
  C  C18  1  0.954119  0.369290  0.250000  1
  C  C19  1  0.966358  0.873570  0.250000  1
  C  C20  1  0.033642  0.126430  0.750000  1
  C  C21  1  0.045881  0.630710  0.750000  1
  O  O22  1  0.927733  0.014528  0.250000  1
  O  O23  1  0.902230  0.511429  0.250000  1
  O  O24  1  0.890255  0.227346  0.750000  1
  O  O25  1  0.849868  0.319733  0.250000  1
  O  O26  1  0.896544  0.725268  0.750000  1
  O  O27  1  0.847614  0.840892  0.250000  1
  O  O28  1  0.687793  0.068812  0.936057  1
  O  O29  1  0.687793  0.068812  0.563943  1
  O  O30  1  0.674602  0.579053  0.940967  1
  O  O31  1  0.674602  0.579053  0.559033  1
  O  O32  1  0.589496  0.293191  0.250000  1
  O  O33  1  0.563495  0.427115  0.750000  1
  O  O34  1  0.583451  0.802154  0.250000  1
  O  O35  1  0.572279  0.918180  0.750000  1
  O  O36  1  0.427721  0.081820  0.250000  1
  O  O37  1  0.416549  0.197846  0.750000  1
  O  O38  1  0.436505  0.572885  0.250000  1
  O  O39  1  0.410504  0.706809  0.750000  1
  O  O40  1  0.325398  0.420947  0.059033  1
  O  O41  1  0.325398  0.420947  0.440967  1
  O  O42  1  0.312207  0.931188  0.436057  1
  O  O43  1  0.312207  0.931188  0.063943  1
  O  O44  1  0.152386  0.159108  0.750000  1
  O  O45  1  0.103456  0.274732  0.250000  1
  O  O46  1  0.150132  0.680267  0.750000  1
  O  O47  1  0.109745  0.772654  0.250000  1
  O  O48  1  0.097770  0.488571  0.750000  1
  O  O49  1  0.072267  0.985472  0.750000  1
