# generated using pymatgen
data_Li4TiMn3O8
_symmetry_space_group_name_H-M   'P 1'
_cell_length_a   6.07887484
_cell_length_b   5.96131271
_cell_length_c   14.81995014
_cell_angle_alpha   88.17908344
_cell_angle_beta   87.83523281
_cell_angle_gamma   60.84435047
_symmetry_Int_Tables_number   1
_chemical_formula_structural   Li4TiMn3O8
_chemical_formula_sum   'Li12 Ti3 Mn9 O24'
_cell_volume   468.61262277
_cell_formula_units_Z   3
loop_
 _symmetry_equiv_pos_site_id
 _symmetry_equiv_pos_as_xyz
  1  'x, y, z'
loop_
 _atom_site_type_symbol
 _atom_site_label
 _atom_site_symmetry_multiplicity
 _atom_site_fract_x
 _atom_site_fract_y
 _atom_site_fract_z
 _atom_site_occupancy
  Li  Li0  1  0.505786  0.006042  0.502727  1
  Li  Li1  1  0.185025  0.167838  0.668750  1
  Li  Li2  1  0.000213  0.002560  0.501997  1
  Li  Li3  1  0.668447  0.169489  0.667044  1
  Li  Li4  1  0.336065  0.333567  0.833468  1
  Li  Li5  1  0.830692  0.325410  0.829060  1
  Li  Li6  1  0.166767  0.665675  0.167224  1
  Li  Li7  1  0.495987  0.499453  0.003659  1
  Li  Li8  1  0.995375  0.502470  -0.000002  1
  Li  Li9  1  0.663710  0.666553  0.165891  1
  Li  Li10  1  0.339290  0.827571  0.333235  1
  Li  Li11  1  0.837480  0.831022  0.328827  1
  Ti  Ti12  1  0.346812  0.314481  0.334905  1
  Ti  Ti13  1  0.989936  0.015134  0.998695  1
  Ti  Ti14  1  0.664985  0.668624  0.666260  1
  Mn  Mn15  1  0.167042  0.166526  0.166660  1
  Mn  Mn16  1  0.003219  0.502513  0.498833  1
  Mn  Mn17  1  0.330131  0.831672  0.834865  1
  Mn  Mn18  1  0.667310  0.165797  0.166667  1
  Mn  Mn19  1  0.844711  0.318757  0.333643  1
  Mn  Mn20  1  0.164424  0.670726  0.666803  1
  Mn  Mn21  1  0.504990  0.500521  0.499178  1
  Mn  Mn22  1  0.826471  0.834619  0.834144  1
  Mn  Mn23  1  0.490967  0.012023  -0.000256  1
  O  O24  1  0.127486  0.174579  0.919601  1
  O  O25  1  0.207575  0.157273  0.414334  1
  O  O26  1  0.509224  0.017153  0.251179  1
  O  O27  1  0.664903  0.165227  0.927298  1
  O  O28  1  0.336618  0.313246  0.076309  1
  O  O29  1  0.027382  0.478486  0.265770  1
  O  O30  1  0.999131  0.017745  0.256917  1
  O  O31  1  0.670114  0.165751  0.405912  1
  O  O32  1  0.326321  0.375324  0.584714  1
  O  O33  1  0.826270  0.313794  0.081858  1
  O  O34  1  0.223974  0.626150  0.415117  1
  O  O35  1  0.501252  0.472458  0.243599  1
  O  O36  1  0.792384  0.366592  0.582212  1
  O  O37  1  0.522626  0.503894  0.747641  1
  O  O38  1  0.112087  0.704495  0.918604  1
  O  O39  1  0.683629  0.620512  0.412967  1
  O  O40  1  0.338037  0.834174  0.598024  1
  O  O41  1  0.990772  0.506135  0.735390  1
  O  O42  1  0.651434  0.711545  0.919912  1
  O  O43  1  0.309190  0.851979  0.068024  1
  O  O44  1  0.809051  0.833317  0.585700  1
  O  O45  1  0.532992  0.974655  0.750096  1
  O  O46  1  0.834359  0.858345  0.089518  1
  O  O47  1  0.002572  0.963529  0.750212  1
