# generated using pymatgen
data_LiFePO4
_symmetry_space_group_name_H-M   'P 1'
_cell_length_a   5.50652015
_cell_length_b   6.34265030
_cell_length_c   5.50652015
_cell_angle_alpha   76.30138383
_cell_angle_beta   62.97025357
_cell_angle_gamma   103.69861617
_symmetry_Int_Tables_number   1
_chemical_formula_structural   LiFePO4
_chemical_formula_sum   'Li2 Fe2 P2 O8'
_cell_volume   152.69042890
_cell_formula_units_Z   2
loop_
 _symmetry_equiv_pos_site_id
 _symmetry_equiv_pos_as_xyz
  1  'x, y, z'
loop_
 _atom_site_type_symbol
 _atom_site_label
 _atom_site_symmetry_multiplicity
 _atom_site_fract_x
 _atom_site_fract_y
 _atom_site_fract_z
 _atom_site_occupancy
  Li  Li0  1  0.436569  0.250000  0.436569  1
  Li  Li1  1  0.186569  0.750000  0.186569  1
  Fe  Fe2  1  0.807117  0.250000  0.807117  1
  Fe  Fe3  1  0.557117  0.750000  0.557117  1
  P  P4  1  0.129227  0.250000  0.129227  1
  P  P5  1  0.879227  0.750000  0.879227  1
  O  O6  1  0.801331  0.090811  0.247279  1
  O  O7  1  0.322194  0.107731  0.131283  1
  O  O8  1  0.739015  0.607731  0.214463  1
  O  O9  1  0.838090  0.590811  0.710521  1
  O  O10  1  0.131283  0.392269  0.322194  1
  O  O11  1  0.247279  0.409189  0.801331  1
  O  O12  1  0.710521  0.909189  0.838090  1
  O  O13  1  0.214463  0.892269  0.739015  1
