# generated using pymatgen
data_Ca5P3HO13
_symmetry_space_group_name_H-M   'P 1'
_cell_length_a   9.50280915
_cell_length_b   19.00220481
_cell_length_c   6.93592362
_cell_angle_alpha   90.00000000
_cell_angle_beta   90.00000000
_cell_angle_gamma   120.03718050
_symmetry_Int_Tables_number   1
_chemical_formula_structural   Ca5P3HO13
_chemical_formula_sum   'Ca20 P12 H4 O52'
_cell_volume   1084.24668506
_cell_formula_units_Z   4
loop_
 _symmetry_equiv_pos_site_id
 _symmetry_equiv_pos_as_xyz
  1  'x, y, z'
loop_
 _atom_site_type_symbol
 _atom_site_label
 _atom_site_symmetry_multiplicity
 _atom_site_fract_x
 _atom_site_fract_y
 _atom_site_fract_z
 _atom_site_occupancy
  Ca  Ca0  1  0.325701  0.079799  0.499670  1
  Ca  Ca1  1  0.674299  0.420201  0.999670  1
  Ca  Ca2  1  0.674299  0.920201  0.500330  1
  Ca  Ca3  1  0.325701  0.579799  0.000330  1
  Ca  Ca4  1  0.341257  0.087036  0.001908  1
  Ca  Ca5  1  0.658743  0.412964  0.501908  1
  Ca  Ca6  1  0.658743  0.912964  0.998092  1
  Ca  Ca7  1  0.341257  0.587036  0.498092  1
  Ca  Ca8  1  0.246698  0.746788  0.246514  1
  Ca  Ca9  1  0.753302  0.753212  0.746514  1
  Ca  Ca10  1  0.753302  0.253212  0.753486  1
  Ca  Ca11  1  0.246698  0.246788  0.253486  1
  Ca  Ca12  1  0.993895  0.123421  0.756400  1
  Ca  Ca13  1  0.006105  0.376579  0.256400  1
  Ca  Ca14  1  0.006105  0.876579  0.243600  1
  Ca  Ca15  1  0.993895  0.623421  0.743600  1
  Ca  Ca16  1  0.253118  0.873364  0.743488  1
  Ca  Ca17  1  0.746882  0.626636  0.243488  1
  Ca  Ca18  1  0.746882  0.126636  0.256512  1
  Ca  Ca19  1  0.253118  0.373364  0.756512  1
  P  P20  1  0.398274  0.934015  0.245126  1
  P  P21  1  0.601726  0.565985  0.745126  1
  P  P22  1  0.601726  0.065985  0.754874  1
  P  P23  1  0.398274  0.434015  0.254874  1
  P  P24  1  0.631773  0.764953  0.244530  1
  P  P25  1  0.368227  0.735047  0.744530  1
  P  P26  1  0.368227  0.235047  0.755470  1
  P  P27  1  0.631773  0.264953  0.255470  1
  P  P28  1  0.029896  0.949147  0.748458  1
  P  P29  1  0.970104  0.550853  0.248458  1
  P  P30  1  0.970104  0.050853  0.251542  1
  P  P31  1  0.029896  0.449147  0.751542  1
  H  H32  1  0.999979  0.750054  0.057270  1
  H  H33  1  0.000021  0.749946  0.557270  1
  H  H34  1  0.000021  0.249946  0.942730  1
  H  H35  1  0.999979  0.250054  0.442730  1
  O  O36  1  0.327720  0.992157  0.239977  1
  O  O37  1  0.672280  0.507843  0.739977  1
  O  O38  1  0.672280  0.007843  0.760023  1
  O  O39  1  0.327720  0.492157  0.260023  1
  O  O40  1  0.485031  0.828486  0.739959  1
  O  O41  1  0.514969  0.671514  0.239959  1
  O  O42  1  0.514969  0.171514  0.260041  1
  O  O43  1  0.485031  0.328486  0.760041  1
  O  O44  1  0.156854  0.085957  0.254256  1
  O  O45  1  0.843146  0.414043  0.754256  1
  O  O46  1  0.843146  0.914043  0.745744  1
  O  O47  1  0.156854  0.585957  0.245744  1
  O  O48  1  0.587470  0.982882  0.263358  1
  O  O49  1  0.412530  0.517118  0.763358  1
  O  O50  1  0.412530  0.017118  0.736642  1
  O  O51  1  0.587470  0.482882  0.236642  1
  O  O52  1  0.534669  0.811172  0.257413  1
  O  O53  1  0.465331  0.688828  0.757413  1
  O  O54  1  0.465331  0.188828  0.742587  1
  O  O55  1  0.534669  0.311172  0.242587  1
  O  O56  1  0.121943  0.043709  0.767689  1
  O  O57  1  0.878057  0.456291  0.267689  1
  O  O58  1  0.878057  0.956291  0.232311  1
  O  O59  1  0.121943  0.543709  0.732311  1
  O  O60  1  0.327446  0.874472  0.418113  1
  O  O61  1  0.672554  0.625528  0.918113  1
  O  O62  1  0.672554  0.125528  0.581887  1
  O  O63  1  0.327446  0.374472  0.081887  1
  O  O64  1  0.748260  0.790355  0.420956  1
  O  O65  1  0.251740  0.709645  0.920956  1
  O  O66  1  0.251740  0.209645  0.579044  1
  O  O67  1  0.748260  0.290355  0.079044  1
  O  O68  1  0.079741  0.913174  0.918758  1
  O  O69  1  0.920259  0.586826  0.418758  1
  O  O70  1  0.920259  0.086826  0.081242  1
  O  O71  1  0.079741  0.413174  0.581242  1
  O  O72  1  0.357542  0.882209  0.058374  1
  O  O73  1  0.642458  0.617791  0.558374  1
  O  O74  1  0.642458  0.117791  0.941626  1
  O  O75  1  0.357542  0.382209  0.441626  1
  O  O76  1  0.738020  0.795084  0.060291  1
  O  O77  1  0.261980  0.704916  0.560291  1
  O  O78  1  0.261980  0.204916  0.939709  1
  O  O79  1  0.738020  0.295084  0.439709  1
  O  O80  1  0.090691  0.928980  0.559565  1
  O  O81  1  0.909309  0.571020  0.059565  1
  O  O82  1  0.909309  0.071020  0.440435  1
  O  O83  1  0.090691  0.428980  0.940435  1
  O  O84  1  0.999616  0.750250  0.198967  1
  O  O85  1  0.000384  0.749750  0.698967  1
  O  O86  1  0.000384  0.249750  0.801033  1
  O  O87  1  0.999616  0.250250  0.301033  1
