# generated using pymatgen
data_Li4Ti3V2Sn3O16
_symmetry_space_group_name_H-M   'P 1'
_cell_length_a   6.16732046
_cell_length_b   6.13900079
_cell_length_c   9.91370569
_cell_angle_alpha   89.99634404
_cell_angle_beta   89.52647134
_cell_angle_gamma   119.92338981
_symmetry_Int_Tables_number   1
_chemical_formula_structural   Li4Ti3V2Sn3O16
_chemical_formula_sum   'Li4 Ti3 V2 Sn3 O16'
_cell_volume   325.29374053
_cell_formula_units_Z   1
loop_
 _symmetry_equiv_pos_site_id
 _symmetry_equiv_pos_as_xyz
  1  'x, y, z'
loop_
 _atom_site_type_symbol
 _atom_site_label
 _atom_site_symmetry_multiplicity
 _atom_site_fract_x
 _atom_site_fract_y
 _atom_site_fract_z
 _atom_site_occupancy
  Li  Li0  1  0.339156  0.669737  0.886198  1
  Li  Li1  1  0.982488  0.991035  0.995205  1
  Li  Li2  1  0.983795  0.991932  0.501407  1
  Li  Li3  1  0.671527  0.335819  0.393981  1
  Ti  Ti4  1  0.664696  0.832229  0.216767  1
  Ti  Ti5  1  0.830426  0.662962  0.715281  1
  Ti  Ti6  1  0.831490  0.169242  0.715634  1
  V  V7  1  0.340931  0.670571  0.491822  1
  V  V8  1  0.673755  0.336910  0.985197  1
  Sn  Sn9  1  0.171673  0.832973  0.215613  1
  Sn  Sn10  1  0.171470  0.338690  0.215572  1
  Sn  Sn11  1  0.337960  0.168766  0.710326  1
  O  O12  1  0.146495  0.831460  0.603131  1
  O  O13  1  0.038634  0.519491  0.341680  1
  O  O14  1  0.349408  0.674625  0.099391  1
  O  O15  1  0.988523  0.994339  0.319394  1
  O  O16  1  0.988217  0.994219  0.812500  1
  O  O17  1  0.146499  0.314831  0.603224  1
  O  O18  1  0.492235  0.965344  0.335833  1
  O  O19  1  0.492111  0.527044  0.335850  1
  O  O20  1  0.311383  0.155518  0.095816  1
  O  O21  1  0.681509  0.840339  0.610686  1
  O  O22  1  0.528166  0.490561  0.831580  1
  O  O23  1  0.528121  0.037284  0.831536  1
  O  O24  1  0.684565  0.342147  0.602951  1
  O  O25  1  0.831653  0.682429  0.107312  1
  O  O26  1  0.961766  0.480620  0.826807  1
  O  O27  1  0.831348  0.149182  0.107144  1
