# generated using pymatgen
data_Lu2GeO5
_symmetry_space_group_name_H-M   'P 1'
_cell_length_a   5.16018471
_cell_length_b   6.25745720
_cell_length_c   7.36510423
_cell_angle_alpha   68.32112307
_cell_angle_beta   90.00008104
_cell_angle_gamma   65.64714309
_symmetry_Int_Tables_number   1
_chemical_formula_structural   Lu2GeO5
_chemical_formula_sum   'Lu4 Ge2 O10'
_cell_volume   198.04612843
_cell_formula_units_Z   2
loop_
 _symmetry_equiv_pos_site_id
 _symmetry_equiv_pos_as_xyz
  1  'x, y, z'
loop_
 _atom_site_type_symbol
 _atom_site_label
 _atom_site_symmetry_multiplicity
 _atom_site_fract_x
 _atom_site_fract_y
 _atom_site_fract_z
 _atom_site_occupancy
  Lu  Lu0  1  0.632286  0.720610  0.756362  1
  Lu  Lu1  1  0.352945  0.279293  0.743688  1
  Lu  Lu2  1  0.647081  0.720708  0.256319  1
  Lu  Lu3  1  0.367680  0.279402  0.243648  1
  Ge  Ge4  1  0.999980  0.999993  0.499978  1
  Ge  Ge5  1  0.000032  0.999995  0.999962  1
  O  O6  1  0.024106  0.664363  0.637712  1
  O  O7  1  0.758340  0.853608  0.959402  1
  O  O8  1  0.388022  0.853683  0.459414  1
  O  O9  1  0.688429  0.335621  0.862291  1
  O  O10  1  0.311597  0.664373  0.137699  1
  O  O11  1  0.170149  0.000057  0.749979  1
  O  O12  1  0.611961  0.146296  0.540594  1
  O  O13  1  0.241665  0.146397  0.040607  1
  O  O14  1  0.975890  0.335633  0.362312  1
  O  O15  1  0.829839  0.999970  0.250033  1
