# generated using pymatgen
data_LiFe2(BO3)2
_symmetry_space_group_name_H-M   'P 1'
_cell_length_a   5.24702441
_cell_length_b   9.14558865
_cell_length_c   11.36373891
_cell_angle_alpha   67.11081868
_cell_angle_beta   76.91933743
_cell_angle_gamma   89.98534923
_symmetry_Int_Tables_number   1
_chemical_formula_structural   LiFe2(BO3)2
_chemical_formula_sum   'Li4 Fe8 B8 O24'
_cell_volume   486.99274159
_cell_formula_units_Z   4
loop_
 _symmetry_equiv_pos_site_id
 _symmetry_equiv_pos_as_xyz
  1  'x, y, z'
loop_
 _atom_site_type_symbol
 _atom_site_label
 _atom_site_symmetry_multiplicity
 _atom_site_fract_x
 _atom_site_fract_y
 _atom_site_fract_z
 _atom_site_occupancy
  Li  Li0  1  0.971247  0.967007  0.397150  1
  Li  Li1  1  0.516756  0.492896  0.657746  1
  Li  Li2  1  0.011619  0.989502  0.666595  1
  Li  Li3  1  0.234733  0.251830  0.158833  1
  Fe  Fe4  1  0.982141  0.640049  0.374320  1
  Fe  Fe5  1  0.727564  0.066659  0.884530  1
  Fe  Fe6  1  0.528540  0.847044  0.628371  1
  Fe  Fe7  1  0.763607  0.438431  0.131139  1
  Fe  Fe8  1  0.229621  0.570247  0.875403  1
  Fe  Fe9  1  0.472240  0.157421  0.386080  1
  Fe  Fe10  1  0.036316  0.341813  0.628179  1
  Fe  Fe11  1  0.250328  0.930514  0.129141  1
  B  B12  1  0.974163  0.316017  0.372944  1
  B  B13  1  0.736969  0.399235  0.875978  1
  B  B14  1  0.519523  0.179302  0.635565  1
  B  B15  1  0.761947  0.111985  0.128188  1
  B  B16  1  0.485608  0.813981  0.379245  1
  B  B17  1  0.232937  0.899189  0.875796  1
  B  B18  1  0.023967  0.685356  0.621837  1
  B  B19  1  0.270667  0.595764  0.130793  1
  O  O20  1  0.987010  0.929362  0.857344  1
  O  O21  1  0.861933  0.285942  0.838248  1
  O  O22  1  0.865582  0.483211  0.929470  1
  O  O23  1  0.917033  0.827434  0.608503  1
  O  O24  1  0.915102  0.576784  0.583543  1
  O  O25  1  0.754746  0.143722  0.677026  1
  O  O26  1  0.752299  0.345836  0.322678  1
  O  O27  1  0.492207  0.434210  0.856288  1
  O  O28  1  0.359183  0.782047  0.840362  1
  O  O29  1  0.574365  0.929312  0.416929  1
  O  O30  1  0.634264  0.692952  0.376424  1
  O  O31  1  0.363303  0.984760  0.924886  1
  O  O32  1  0.648538  0.019325  0.078016  1
  O  O33  1  0.407357  0.313923  0.633012  1
  O  O34  1  0.405205  0.073399  0.595331  1
  O  O35  1  0.606437  0.224719  0.160701  1
  O  O36  1  0.528695  0.590596  0.126410  1
  O  O37  1  0.247479  0.649336  0.673854  1
  O  O38  1  0.236019  0.822481  0.349005  1
  O  O39  1  0.057967  0.417728  0.423113  1
  O  O40  1  0.104575  0.186069  0.369167  1
  O  O41  1  0.152046  0.495007  0.083672  1
  O  O42  1  0.116817  0.692203  0.179507  1
  O  O43  1  0.010421  0.096916  0.147556  1
