# generated using pymatgen
data_V6O11F
_symmetry_space_group_name_H-M   'P 1'
_cell_length_a   7.12327832
_cell_length_b   5.50719822
_cell_length_c   5.50719822
_cell_angle_alpha   74.03874694
_cell_angle_beta   71.99374237
_cell_angle_gamma   71.99374237
_symmetry_Int_Tables_number   1
_chemical_formula_structural   V6O11F
_chemical_formula_sum   'V6 O11 F1'
_cell_volume   191.51549669
_cell_formula_units_Z   1
loop_
 _symmetry_equiv_pos_site_id
 _symmetry_equiv_pos_as_xyz
  1  'x, y, z'
loop_
 _atom_site_type_symbol
 _atom_site_label
 _atom_site_symmetry_multiplicity
 _atom_site_fract_x
 _atom_site_fract_y
 _atom_site_fract_z
 _atom_site_occupancy
  V  V0  1  0.833333  0.672235  0.661098  1
  V  V1  1  0.661816  0.317377  0.350640  1
  V  V2  1  0.333333  0.694729  0.638604  1
  V  V3  1  0.151259  0.330045  0.363666  1
  V  V4  1  0.515407  0.969667  0.003288  1
  V  V5  1  0.004850  0.982694  0.015957  1
  O  O6  1  0.662482  0.044003  0.634569  1
  O  O7  1  0.962291  0.235618  0.227436  1
  O  O8  1  0.623029  0.572872  0.571319  1
  O  O9  1  0.304062  0.901538  0.890273  1
  O  O10  1  0.704376  0.105898  0.097715  1
  O  O11  1  0.043638  0.762015  0.760461  1
  O  O12  1  0.362605  0.443061  0.431795  1
  O  O13  1  0.007100  0.288228  0.691671  1
  O  O14  1  0.659567  0.641662  0.045105  1
  O  O15  1  0.333333  0.978181  0.355152  1
  O  O16  1  0.004184  0.698764  0.289330  1
  F  F17  1  0.333333  0.361413  0.971921  1
