# generated using pymatgen
data_As5Pb3S10
_symmetry_space_group_name_H-M   'P 1'
_cell_length_a   25.59073796
_cell_length_b   8.75036912
_cell_length_c   8.60776204
_cell_angle_alpha   90.00000000
_cell_angle_beta   91.14385542
_cell_angle_gamma   90.00000000
_symmetry_Int_Tables_number   1
_chemical_formula_structural   As5Pb3S10
_chemical_formula_sum   'As20 Pb12 S40'
_cell_volume   1927.13830249
_cell_formula_units_Z   4
loop_
 _symmetry_equiv_pos_site_id
 _symmetry_equiv_pos_as_xyz
  1  'x, y, z'
loop_
 _atom_site_type_symbol
 _atom_site_label
 _atom_site_symmetry_multiplicity
 _atom_site_fract_x
 _atom_site_fract_y
 _atom_site_fract_z
 _atom_site_occupancy
  As  As0  1  0.097739  0.153091  0.507881  1
  As  As1  1  0.096834  0.143769  0.064193  1
  As  As2  1  0.183302  0.442484  0.284870  1
  As  As3  1  0.189496  0.831263  0.616220  1
  As  As4  1  0.173912  0.818577  0.996868  1
  As  As5  1  0.310364  0.672906  0.633508  1
  As  As6  1  0.325891  0.680951  0.260007  1
  As  As7  1  0.315026  0.055030  0.961784  1
  As  As8  1  0.405134  0.352464  0.746737  1
  As  As9  1  0.401932  0.352329  0.185422  1
  As  As10  1  0.598068  0.852329  0.814578  1
  As  As11  1  0.594866  0.852464  0.253263  1
  As  As12  1  0.684974  0.555030  0.038216  1
  As  As13  1  0.674109  0.180951  0.739993  1
  As  As14  1  0.689636  0.172906  0.366492  1
  As  As15  1  0.826088  0.318577  0.003132  1
  As  As16  1  0.810504  0.331263  0.383780  1
  As  As17  1  0.816698  0.942484  0.715130  1
  As  As18  1  0.903166  0.643769  0.935807  1
  As  As19  1  0.902261  0.653091  0.492119  1
  Pb  Pb20  1  0.045139  0.792015  0.760473  1
  Pb  Pb21  1  0.039830  0.787698  0.263626  1
  Pb  Pb22  1  0.171438  0.486591  0.735643  1
  Pb  Pb23  1  0.331172  0.019443  0.514505  1
  Pb  Pb24  1  0.458269  0.700161  0.485287  1
  Pb  Pb25  1  0.454616  0.717253  0.991978  1
  Pb  Pb26  1  0.541731  0.200161  0.514713  1
  Pb  Pb27  1  0.545384  0.217253  0.008022  1
  Pb  Pb28  1  0.668828  0.519443  0.485495  1
  Pb  Pb29  1  0.828562  0.986591  0.264357  1
  Pb  Pb30  1  0.960170  0.287698  0.736374  1
  Pb  Pb31  1  0.954861  0.292015  0.239527  1
  S  S32  1  0.022929  0.013916  0.497075  1
  S  S33  1  0.019284  0.020559  0.026040  1
  S  S34  1  0.080860  0.310459  0.277635  1
  S  S35  1  0.075110  0.311994  0.697223  1
  S  S36  1  0.113781  0.633133  0.991631  1
  S  S37  1  0.122822  0.676924  0.525434  1
  S  S38  1  0.141682  0.967175  0.212499  1
  S  S39  1  0.144820  0.974127  0.799964  1
  S  S40  1  0.225424  0.332018  0.077192  1
  S  S41  1  0.220301  0.327695  0.473528  1
  S  S42  1  0.280016  0.175177  0.773316  1
  S  S43  1  0.271003  0.159802  0.167229  1
  S  S44  1  0.355017  0.524255  0.454850  1
  S  S45  1  0.357339  0.531887  0.038419  1
  S  S46  1  0.376352  0.826354  0.727498  1
  S  S47  1  0.386420  0.865613  0.256462  1
  S  S48  1  0.426833  0.190636  0.559133  1
  S  S49  1  0.421852  0.192382  0.971503  1
  S  S50  1  0.479695  0.495186  0.755314  1
  S  S51  1  0.478633  0.475784  0.227501  1
  S  S52  1  0.521367  0.975784  0.772499  1
  S  S53  1  0.520305  0.995186  0.244686  1
  S  S54  1  0.578148  0.692382  0.028497  1
  S  S55  1  0.573167  0.690636  0.440867  1
  S  S56  1  0.613580  0.365613  0.743538  1
  S  S57  1  0.623648  0.326354  0.272502  1
  S  S58  1  0.642661  0.031887  0.961581  1
  S  S59  1  0.644984  0.024255  0.545150  1
  S  S60  1  0.728997  0.659802  0.832771  1
  S  S61  1  0.719984  0.675177  0.226684  1
  S  S62  1  0.779699  0.827695  0.526472  1
  S  S63  1  0.774576  0.832018  0.922808  1
  S  S64  1  0.855180  0.474127  0.200036  1
  S  S65  1  0.858318  0.467175  0.787501  1
  S  S66  1  0.877178  0.176924  0.474566  1
  S  S67  1  0.886219  0.133133  0.008369  1
  S  S68  1  0.924890  0.811994  0.302777  1
  S  S69  1  0.919140  0.810459  0.722365  1
  S  S70  1  0.977071  0.513916  0.502925  1
  S  S71  1  0.980716  0.520559  0.973960  1
