# generated using pymatgen
data_Li4Ti4Mn4NiO18
_symmetry_space_group_name_H-M   'P 1'
_cell_length_a   9.12608462
_cell_length_b   25.30168444
_cell_length_c   2.93693620
_cell_angle_alpha   89.99996702
_cell_angle_beta   89.99998286
_cell_angle_gamma   89.97180460
_symmetry_Int_Tables_number   1
_chemical_formula_structural   Li4Ti4Mn4NiO18
_chemical_formula_sum   'Li8 Ti8 Mn8 Ni2 O36'
_cell_volume   678.15409069
_cell_formula_units_Z   2
loop_
 _symmetry_equiv_pos_site_id
 _symmetry_equiv_pos_as_xyz
  1  'x, y, z'
loop_
 _atom_site_type_symbol
 _atom_site_label
 _atom_site_symmetry_multiplicity
 _atom_site_fract_x
 _atom_site_fract_y
 _atom_site_fract_z
 _atom_site_occupancy
  Li  Li0  1  0.202754  0.000775  0.999999  1
  Li  Li1  1  0.206764  0.197445  0.000000  1
  Li  Li2  1  0.293242  0.697423  0.000000  1
  Li  Li3  1  0.297411  0.500740  0.000000  1
  Li  Li4  1  0.702587  0.499262  0.999999  1
  Li  Li5  1  0.706750  0.302580  0.000000  1
  Li  Li6  1  0.793247  0.802552  0.000000  1
  Li  Li7  1  0.797237  0.999225  0.000001  1
  Ti  Ti8  1  0.009470  0.104279  0.000002  1
  Ti  Ti9  1  0.141539  0.804843  0.499999  1
  Ti  Ti10  1  0.358459  0.304817  0.500001  1
  Ti  Ti11  1  0.490543  0.604316  1.000000  1
  Ti  Ti12  1  0.509449  0.395688  0.999999  1
  Ti  Ti13  1  0.641541  0.695185  0.500001  1
  Ti  Ti14  1  0.858475  0.195159  0.500000  1
  Ti  Ti15  1  0.990528  0.895720  0.999998  1
  Mn  Mn16  1  0.019868  0.315647  -0.000000  1
  Mn  Mn17  1  0.137551  0.586141  0.500000  1
  Mn  Mn18  1  0.362464  0.086118  0.499996  1
  Mn  Mn19  1  0.480224  0.815642  -0.000002  1
  Mn  Mn20  1  0.519801  0.184353  0.000002  1
  Mn  Mn21  1  0.637528  0.913877  0.499999  1
  Mn  Mn22  1  0.862451  0.413857  0.500004  1
  Mn  Mn23  1  0.980145  0.684357  0.000003  1
  Ni  Ni24  1  0.999996  0.500000  -0.000002  1
  Ni  Ni25  1  0.499998  0.999997  0.000000  1
  O  O26  1  0.998299  0.417009  -0.000000  1
  O  O27  1  0.001706  0.582991  0.000000  1
  O  O28  1  0.032380  0.940120  0.500000  1
  O  O29  1  0.055992  0.162841  0.500004  1
  O  O30  1  0.111809  0.663031  0.500003  1
  O  O31  1  0.111324  0.756678  -0.000000  1
  O  O32  1  0.157298  0.511732  0.500001  1
  O  O33  1  0.143994  0.291148  0.500000  1
  O  O34  1  0.174694  0.857283  0.999998  1
  O  O35  1  0.220335  0.089778  0.000001  1
  O  O36  1  0.279680  0.589762  0.999999  1
  O  O37  1  0.325325  0.357292  -0.000001  1
  O  O38  1  0.356035  0.791163  0.499999  1
  O  O39  1  0.342695  0.011753  0.499998  1
  O  O40  1  0.388672  0.256687  0.000002  1
  O  O41  1  0.388262  0.163037  0.499998  1
  O  O42  1  0.443963  0.662856  0.500003  1
  O  O43  1  0.467482  0.440133  0.500000  1
  O  O44  1  0.498281  0.082945  0.000001  1
  O  O45  1  0.501710  0.917049  0.999998  1
  O  O46  1  0.532510  0.559873  0.500000  1
  O  O47  1  0.556032  0.337149  0.499999  1
  O  O48  1  0.611750  0.836958  0.500000  1
  O  O49  1  0.611326  0.743315  0.000002  1
  O  O50  1  0.657286  0.988237  0.499998  1
  O  O51  1  0.643977  0.208846  0.500002  1
  O  O52  1  0.674668  0.642712  0.000002  1
  O  O53  1  0.720320  0.410240  -0.000000  1
  O  O54  1  0.779658  0.910215  0.999995  1
  O  O55  1  0.825305  0.142717  0.000003  1
  O  O56  1  0.856008  0.708855  0.500000  1
  O  O57  1  0.842703  0.488268  0.500001  1
  O  O58  1  0.888679  0.243322  0.999999  1
  O  O59  1  0.888196  0.336968  0.499998  1
  O  O60  1  0.944010  0.837158  0.499999  1
  O  O61  1  0.967617  0.059879  0.500001  1
