# generated using pymatgen
data_Ni(SO4)2
_symmetry_space_group_name_H-M   'P 1'
_cell_length_a   9.00586989
_cell_length_b   9.00587017
_cell_length_c   9.00586960
_cell_angle_alpha   56.23226739
_cell_angle_beta   56.23226809
_cell_angle_gamma   56.23227120
_symmetry_Int_Tables_number   1
_chemical_formula_structural   Ni(SO4)2
_chemical_formula_sum   'Ni3 S6 O24'
_cell_volume   471.45488438
_cell_formula_units_Z   3
loop_
 _symmetry_equiv_pos_site_id
 _symmetry_equiv_pos_as_xyz
  1  'x, y, z'
loop_
 _atom_site_type_symbol
 _atom_site_label
 _atom_site_symmetry_multiplicity
 _atom_site_fract_x
 _atom_site_fract_y
 _atom_site_fract_z
 _atom_site_occupancy
  Ni  Ni0  1  0.356397  0.356397  0.356397  1
  Ni  Ni1  1  0.643687  0.643687  0.643687  1
  Ni  Ni2  1  0.851095  0.851095  0.851095  1
  S  S3  1  0.043350  0.744705  0.464575  1
  S  S4  1  0.464575  0.043350  0.744705  1
  S  S5  1  0.744705  0.464575  0.043350  1
  S  S6  1  0.249791  0.542075  0.959489  1
  S  S7  1  0.542075  0.959489  0.249791  1
  S  S8  1  0.959489  0.249791  0.542075  1
  O  O9  1  0.104633  0.302606  0.512526  1
  O  O10  1  0.302606  0.512526  0.104633  1
  O  O11  1  0.005504  0.948709  0.334529  1
  O  O12  1  0.512526  0.104633  0.302606  1
  O  O13  1  0.025819  0.720824  0.649833  1
  O  O14  1  0.235661  0.619654  0.379577  1
  O  O15  1  0.379577  0.235661  0.619654  1
  O  O16  1  0.334529  0.005504  0.948709  1
  O  O17  1  0.619654  0.379577  0.235661  1
  O  O18  1  0.048982  0.673719  0.985196  1
  O  O19  1  0.276870  0.356781  0.971718  1
  O  O20  1  0.356781  0.971718  0.276870  1
  O  O21  1  0.649833  0.025819  0.720824  1
  O  O22  1  0.720824  0.649833  0.025819  1
  O  O23  1  0.948709  0.334529  0.005504  1
  O  O24  1  0.379225  0.622649  0.762549  1
  O  O25  1  0.673719  0.985196  0.048982  1
  O  O26  1  0.622649  0.762549  0.379225  1
  O  O27  1  0.762549  0.379225  0.622649  1
  O  O28  1  0.971718  0.276870  0.356781  1
  O  O29  1  0.489174  0.895537  0.694922  1
  O  O30  1  0.985196  0.048982  0.673719  1
  O  O31  1  0.694922  0.489174  0.895537  1
  O  O32  1  0.895537  0.694922  0.489174  1
