# generated using pymatgen
data_Ba2YBr7
_symmetry_space_group_name_H-M   'P 1'
_cell_length_a   14.35504316
_cell_length_b   13.40985643
_cell_length_c   16.40513488
_cell_angle_alpha   90.00000000
_cell_angle_beta   148.32353292
_cell_angle_gamma   90.00000000
_symmetry_Int_Tables_number   1
_chemical_formula_structural   Ba2YBr7
_chemical_formula_sum   'Ba8 Y4 Br28'
_cell_volume   1658.32167973
_cell_formula_units_Z   4
loop_
 _symmetry_equiv_pos_site_id
 _symmetry_equiv_pos_as_xyz
  1  'x, y, z'
loop_
 _atom_site_type_symbol
 _atom_site_label
 _atom_site_symmetry_multiplicity
 _atom_site_fract_x
 _atom_site_fract_y
 _atom_site_fract_z
 _atom_site_occupancy
  Ba  Ba0  1  0.191119  0.237054  0.714304  1
  Ba  Ba1  1  0.586181  0.363937  0.803126  1
  Ba  Ba2  1  0.413819  0.863937  0.696874  1
  Ba  Ba3  1  0.191119  0.262946  0.214304  1
  Ba  Ba4  1  0.808881  0.737054  0.785696  1
  Ba  Ba5  1  0.586181  0.136063  0.303126  1
  Ba  Ba6  1  0.413819  0.636063  0.196874  1
  Ba  Ba7  1  0.808881  0.762946  0.285696  1
  Y  Y8  1  0.049669  0.701065  0.726651  1
  Y  Y9  1  0.049669  0.798935  0.226651  1
  Y  Y10  1  0.950331  0.201065  0.773349  1
  Y  Y11  1  0.950331  0.298935  0.273349  1
  Br  Br12  1  0.014362  0.559262  0.826709  1
  Br  Br13  1  0.148653  0.826716  0.929318  1
  Br  Br14  1  0.295703  0.270682  0.982738  1
  Br  Br15  1  0.158468  0.409485  0.542566  1
  Br  Br16  1  0.014362  0.940738  0.326709  1
  Br  Br17  1  0.390480  0.084263  0.751376  1
  Br  Br18  1  0.148271  0.816178  0.661553  1
  Br  Br19  1  0.590523  0.366801  0.008114  1
  Br  Br20  1  0.148653  0.673284  0.429318  1
  Br  Br21  1  0.295703  0.229318  0.482738  1
  Br  Br22  1  0.409477  0.866801  0.491886  1
  Br  Br23  1  0.851729  0.316178  0.838447  1
  Br  Br24  1  0.609520  0.584263  0.748624  1
  Br  Br25  1  0.158468  0.090515  0.042566  1
  Br  Br26  1  0.841532  0.909485  0.957434  1
  Br  Br27  1  0.390480  0.415737  0.251376  1
  Br  Br28  1  0.148271  0.683822  0.161553  1
  Br  Br29  1  0.590523  0.133199  0.508114  1
  Br  Br30  1  0.704297  0.770682  0.517262  1
  Br  Br31  1  0.851347  0.326716  0.570682  1
  Br  Br32  1  0.409477  0.633199  0.991886  1
  Br  Br33  1  0.851729  0.183822  0.338447  1
  Br  Br34  1  0.609520  0.915737  0.248624  1
  Br  Br35  1  0.985638  0.059262  0.673291  1
  Br  Br36  1  0.841532  0.590515  0.457434  1
  Br  Br37  1  0.704297  0.729318  0.017262  1
  Br  Br38  1  0.851347  0.173284  0.070682  1
  Br  Br39  1  0.985638  0.440738  0.173291  1
