# generated using pymatgen
data_Mn6O7F5
_symmetry_space_group_name_H-M   'P 1'
_cell_length_a   4.63680721
_cell_length_b   5.64572980
_cell_length_c   15.34301265
_cell_angle_alpha   90.06680910
_cell_angle_beta   89.51096390
_cell_angle_gamma   91.39284375
_symmetry_Int_Tables_number   1
_chemical_formula_structural   Mn6O7F5
_chemical_formula_sum   'Mn12 O14 F10'
_cell_volume   401.51836448
_cell_formula_units_Z   2
loop_
 _symmetry_equiv_pos_site_id
 _symmetry_equiv_pos_as_xyz
  1  'x, y, z'
loop_
 _atom_site_type_symbol
 _atom_site_label
 _atom_site_symmetry_multiplicity
 _atom_site_fract_x
 _atom_site_fract_y
 _atom_site_fract_z
 _atom_site_occupancy
  Mn  Mn0  1  0.044985  0.153113  0.412540  1
  Mn  Mn1  1  0.015872  0.826351  0.250572  1
  Mn  Mn2  1  0.008836  0.176656  0.080344  1
  Mn  Mn3  1  0.009577  0.170520  0.745393  1
  Mn  Mn4  1  0.989865  0.849313  0.577301  1
  Mn  Mn5  1  0.054310  0.849231  0.913872  1
  Mn  Mn6  1  0.494027  0.347089  0.585709  1
  Mn  Mn7  1  0.484026  0.355251  0.920971  1
  Mn  Mn8  1  0.484674  0.363577  0.251412  1
  Mn  Mn9  1  0.514406  0.621921  0.084609  1
  Mn  Mn10  1  0.479706  0.648231  0.424775  1
  Mn  Mn11  1  0.483842  0.641923  0.752645  1
  O  O12  1  0.234114  0.115137  0.304150  1
  O  O13  1  0.210383  0.111240  0.634624  1
  O  O14  1  0.232938  0.120068  0.968653  1
  O  O15  1  0.222258  0.887913  0.469808  1
  O  O16  1  0.222321  0.893709  0.800999  1
  O  O17  1  0.275798  0.394825  0.144365  1
  O  O18  1  0.283243  0.603509  0.312865  1
  O  O19  1  0.275140  0.382923  0.475326  1
  O  O20  1  0.274993  0.400636  0.815754  1
  O  O21  1  0.292266  0.605701  0.978478  1
  O  O22  1  0.714459  0.380731  0.026054  1
  O  O23  1  0.727134  0.603320  0.192759  1
  O  O24  1  0.709704  0.621934  0.528602  1
  O  O25  1  0.711907  0.386257  0.695002  1
  F  F26  1  0.254848  0.880751  0.132044  1
  F  F27  1  0.231012  0.609577  0.642302  1
  F  F28  1  0.744774  0.378816  0.358011  1
  F  F29  1  0.754871  0.617752  0.867612  1
  F  F30  1  0.759665  0.112127  0.195016  1
  F  F31  1  0.773130  0.129714  0.514220  1
  F  F32  1  0.755197  0.883846  0.364834  1
  F  F33  1  0.782147  0.869035  0.027684  1
  F  F34  1  0.754075  0.128278  0.860909  1
  F  F35  1  0.739497  0.879023  0.689785  1
