# generated using pymatgen
data_Li4Y3MnO8
_symmetry_space_group_name_H-M   'P 1'
_cell_length_a   6.05758597
_cell_length_b   6.05756998
_cell_length_c   12.11546136
_cell_angle_alpha   138.16966347
_cell_angle_beta   138.17044735
_cell_angle_gamma   60.63801860
_symmetry_Int_Tables_number   1
_chemical_formula_structural   Li4Y3MnO8
_chemical_formula_sum   'Li4 Y3 Mn1 O8'
_cell_volume   195.62143856
_cell_formula_units_Z   1
loop_
 _symmetry_equiv_pos_site_id
 _symmetry_equiv_pos_as_xyz
  1  'x, y, z'
loop_
 _atom_site_type_symbol
 _atom_site_label
 _atom_site_symmetry_multiplicity
 _atom_site_fract_x
 _atom_site_fract_y
 _atom_site_fract_z
 _atom_site_occupancy
  Li  Li0  1  0.255415  0.755410  0.755423  1
  Li  Li1  1  0.500019  0.499981  0.500001  1
  Li  Li2  1  0.244585  0.744587  0.244577  1
  Li  Li3  1  0.499991  0.500007  -0.000001  1
  Y  Y4  1  0.000015  0.999983  0.500000  1
  Y  Y5  1  0.757129  0.257131  0.757132  1
  Y  Y6  1  0.742878  0.242862  0.242865  1
  Mn  Mn7  1  0.000019  0.000023  0.000014  1
  O  O8  1  0.548605  0.018515  0.764475  1
  O  O9  1  0.213995  0.213927  0.499951  1
  O  O10  1  0.980380  0.510450  0.764462  1
  O  O11  1  0.489544  0.019619  0.235531  1
  O  O12  1  0.221389  0.221509  0.000065  1
  O  O13  1  0.786068  0.785992  0.500046  1
  O  O14  1  0.981481  0.451403  0.235526  1
  O  O15  1  0.778487  0.778600  0.999933  1
