# generated using pymatgen
data_CaP2(HO2)4
_symmetry_space_group_name_H-M   'P 1'
_cell_length_a   7.90824180
_cell_length_b   8.17311086
_cell_length_c   5.64891172
_cell_angle_alpha   107.05331184
_cell_angle_beta   96.03919961
_cell_angle_gamma   108.20828826
_symmetry_Int_Tables_number   1
_chemical_formula_structural   CaP2(HO2)4
_chemical_formula_sum   'Ca2 P4 H8 O16'
_cell_volume   323.70217152
_cell_formula_units_Z   2
loop_
 _symmetry_equiv_pos_site_id
 _symmetry_equiv_pos_as_xyz
  1  'x, y, z'
loop_
 _atom_site_type_symbol
 _atom_site_label
 _atom_site_symmetry_multiplicity
 _atom_site_fract_x
 _atom_site_fract_y
 _atom_site_fract_z
 _atom_site_occupancy
  Ca  Ca0  1  0.681009  0.549519  0.796788  1
  Ca  Ca1  1  0.318991  0.450481  0.203212  1
  P  P2  1  0.737194  0.857348  0.533855  1
  P  P3  1  0.262806  0.142652  0.466145  1
  P  P4  1  0.276772  0.688540  0.805559  1
  P  P5  1  0.723228  0.311460  0.194441  1
  H  H6  1  0.662381  0.062943  0.403504  1
  H  H7  1  0.337619  0.937057  0.596496  1
  H  H8  1  0.984996  0.947683  0.825984  1
  H  H9  1  0.015004  0.052317  0.174016  1
  H  H10  1  0.147405  0.759368  0.122739  1
  H  H11  1  0.852595  0.240632  0.877261  1
  H  H12  1  0.000000  0.000000  0.500000  1
  H  H13  1  0.500000  0.000000  0.000000  1
  O  O14  1  0.581017  0.682470  0.482767  1
  O  O15  1  0.418983  0.317530  0.517233  1
  O  O16  1  0.874423  0.860659  0.356942  1
  O  O17  1  0.125577  0.139341  0.643058  1
  O  O18  1  0.688109  0.033537  0.571579  1
  O  O19  1  0.311891  0.966463  0.428421  1
  O  O20  1  0.852999  0.888061  0.808177  1
  O  O21  1  0.147001  0.111939  0.191823  1
  O  O22  1  0.409032  0.633065  0.955437  1
  O  O23  1  0.590968  0.366935  0.044563  1
  O  O24  1  0.104181  0.676554  0.943934  1
  O  O25  1  0.895819  0.323446  0.056066  1
  O  O26  1  0.200168  0.573184  0.530113  1
  O  O27  1  0.799832  0.426816  0.469887  1
  O  O28  1  0.367286  0.897421  0.833424  1
  O  O29  1  0.632714  0.102579  0.166576  1
