# generated using pymatgen
data_Li2Nb2(PO4)3
_symmetry_space_group_name_H-M   'P 1'
_cell_length_a   8.90114036
_cell_length_b   8.89733200
_cell_length_c   8.90114098
_cell_angle_alpha   60.38625885
_cell_angle_beta   62.12255442
_cell_angle_gamma   60.38625582
_symmetry_Int_Tables_number   1
_chemical_formula_structural   Li2Nb2(PO4)3
_chemical_formula_sum   'Li4 Nb4 P6 O24'
_cell_volume   508.99796105
_cell_formula_units_Z   2
loop_
 _symmetry_equiv_pos_site_id
 _symmetry_equiv_pos_as_xyz
  1  'x, y, z'
loop_
 _atom_site_type_symbol
 _atom_site_label
 _atom_site_symmetry_multiplicity
 _atom_site_fract_x
 _atom_site_fract_y
 _atom_site_fract_z
 _atom_site_occupancy
  Li  Li0  1  0.315100  0.451947  0.677374  1
  Li  Li1  1  0.822626  0.048053  0.184900  1
  Li  Li2  1  0.177374  0.951947  0.815100  1
  Li  Li3  1  0.684900  0.548053  0.322626  1
  Nb  Nb4  1  0.139338  0.142031  0.139585  1
  Nb  Nb5  1  0.360415  0.357969  0.360662  1
  Nb  Nb6  1  0.639585  0.642031  0.639338  1
  Nb  Nb7  1  0.860662  0.857969  0.860415  1
  P  P8  1  0.034156  0.750000  0.465844  1
  P  P9  1  0.965844  0.250000  0.534156  1
  P  P10  1  0.452757  0.036929  0.756720  1
  P  P11  1  0.743280  0.463071  0.047243  1
  P  P12  1  0.256720  0.536929  0.952757  1
  P  P13  1  0.547243  0.963071  0.243280  1
  O  O14  1  0.126288  0.297730  0.501004  1
  O  O15  1  0.311531  0.488611  0.113838  1
  O  O16  1  0.043783  0.913110  0.284023  1
  O  O17  1  0.532061  0.109050  0.301759  1
  O  O18  1  0.001004  0.797730  0.626288  1
  O  O19  1  0.215977  0.586890  0.456217  1
  O  O20  1  0.270271  0.054882  0.912432  1
  O  O21  1  0.429717  0.229083  0.603584  1
  O  O22  1  0.587568  0.445118  0.229729  1
  O  O23  1  0.198241  0.390950  0.967939  1
  O  O24  1  0.103584  0.729083  0.929717  1
  O  O25  1  0.386162  0.011389  0.188469  1
  O  O26  1  0.613838  0.988611  0.811531  1
  O  O27  1  0.896416  0.270917  0.070283  1
  O  O28  1  0.801759  0.609050  0.032061  1
  O  O29  1  0.412432  0.554882  0.770271  1
  O  O30  1  0.570283  0.770917  0.396416  1
  O  O31  1  0.729729  0.945118  0.087568  1
  O  O32  1  0.784023  0.413110  0.543783  1
  O  O33  1  0.998996  0.202270  0.373712  1
  O  O34  1  0.467939  0.890950  0.698241  1
  O  O35  1  0.956217  0.086890  0.715977  1
  O  O36  1  0.688469  0.511389  0.886162  1
  O  O37  1  0.873712  0.702270  0.498996  1
