# generated using pymatgen
data_Li10Mn3F16
_symmetry_space_group_name_H-M   'P 1'
_cell_length_a   6.07757909
_cell_length_b   10.26285998
_cell_length_c   6.07764237
_cell_angle_alpha   107.23151533
_cell_angle_beta   59.99308912
_cell_angle_gamma   107.23158119
_symmetry_Int_Tables_number   1
_chemical_formula_structural   Li10Mn3F16
_chemical_formula_sum   'Li10 Mn3 F16'
_cell_volume   308.47175211
_cell_formula_units_Z   1
loop_
 _symmetry_equiv_pos_site_id
 _symmetry_equiv_pos_as_xyz
  1  'x, y, z'
loop_
 _atom_site_type_symbol
 _atom_site_label
 _atom_site_symmetry_multiplicity
 _atom_site_fract_x
 _atom_site_fract_y
 _atom_site_fract_z
 _atom_site_occupancy
  Li  Li0  1  0.255080  0.747207  0.746088  1
  Li  Li1  1  0.253917  0.252809  0.253915  1
  Li  Li2  1  0.000003  0.999993  0.499984  1
  Li  Li3  1  0.746104  0.747204  0.255078  1
  Li  Li4  1  0.499998  0.499985  0.499996  1
  Li  Li5  1  0.499985  0.999993  0.999997  1
  Li  Li6  1  0.253907  0.252791  0.744915  1
  Li  Li7  1  0.500000  0.999996  0.500003  1
  Li  Li8  1  0.744931  0.252792  0.253914  1
  Li  Li9  1  0.746087  0.747184  0.746073  1
  Mn  Mn10  1  0.191718  0.575178  0.191712  1
  Mn  Mn11  1  0.999986  0.000006  0.999989  1
  Mn  Mn12  1  0.808301  0.424906  0.808339  1
  F  F13  1  0.123055  0.876492  0.123079  1
  F  F14  1  0.122984  0.876291  0.630352  1
  F  F15  1  0.120257  0.361203  0.120222  1
  F  F16  1  0.156954  0.368246  0.605672  1
  F  F17  1  0.394342  0.631538  0.394324  1
  F  F18  1  0.630344  0.876296  0.122983  1
  F  F19  1  0.394354  0.631756  0.843012  1
  F  F20  1  0.372476  0.117152  0.372482  1
  F  F21  1  0.627515  0.882836  0.627529  1
  F  F22  1  0.605666  0.368239  0.156975  1
  F  F23  1  0.369642  0.123680  0.877012  1
  F  F24  1  0.605680  0.368452  0.605687  1
  F  F25  1  0.843020  0.631749  0.394338  1
  F  F26  1  0.879763  0.638834  0.879783  1
  F  F27  1  0.877007  0.123687  0.369636  1
  F  F28  1  0.876927  0.123506  0.876904  1
