# generated using pymatgen
data_LaAlO3
_symmetry_space_group_name_H-M   'P 1'
_cell_length_a   8.80158848
_cell_length_b   10.76172664
_cell_length_c   8.92658184
_cell_angle_alpha   90.00000000
_cell_angle_beta   90.00000000
_cell_angle_gamma   100.64168424
_symmetry_Int_Tables_number   1
_chemical_formula_structural   LaAlO3
_chemical_formula_sum   'La12 Al12 O36'
_cell_volume   830.98638916
_cell_formula_units_Z   12
loop_
 _symmetry_equiv_pos_site_id
 _symmetry_equiv_pos_as_xyz
  1  'x, y, z'
loop_
 _atom_site_type_symbol
 _atom_site_label
 _atom_site_symmetry_multiplicity
 _atom_site_fract_x
 _atom_site_fract_y
 _atom_site_fract_z
 _atom_site_occupancy
  La  La0  1  0.043700  0.826665  0.472755  1
  La  La1  1  0.043700  0.326665  0.027245  1
  La  La2  1  0.169504  0.556974  0.640390  1
  La  La3  1  0.169504  0.056974  0.859610  1
  La  La4  1  0.486527  0.830637  0.434452  1
  La  La5  1  0.513473  0.669363  0.934452  1
  La  La6  1  0.486527  0.330637  0.065548  1
  La  La7  1  0.513473  0.169363  0.565548  1
  La  La8  1  0.830496  0.943026  0.140390  1
  La  La9  1  0.830496  0.443026  0.359610  1
  La  La10  1  0.956300  0.673335  0.972755  1
  La  La11  1  0.956300  0.173335  0.527245  1
  Al  Al12  1  0.206445  0.579352  0.234309  1
  Al  Al13  1  0.270238  0.857434  0.090647  1
  Al  Al14  1  0.206445  0.079352  0.265691  1
  Al  Al15  1  0.320833  0.838175  0.745894  1
  Al  Al16  1  0.270238  0.357434  0.409353  1
  Al  Al17  1  0.320833  0.338175  0.754106  1
  Al  Al18  1  0.679167  0.661825  0.245894  1
  Al  Al19  1  0.729762  0.642566  0.590647  1
  Al  Al20  1  0.679167  0.161825  0.254106  1
  Al  Al21  1  0.793555  0.920648  0.734309  1
  Al  Al22  1  0.729762  0.142566  0.909353  1
  Al  Al23  1  0.793555  0.420648  0.765691  1
  O  O24  1  0.984959  0.985826  0.666690  1
  O  O25  1  0.082710  0.889556  0.037871  1
  O  O26  1  0.984959  0.485826  0.833310  1
  O  O27  1  0.125022  0.757728  0.741441  1
  O  O28  1  0.082710  0.389556  0.462129  1
  O  O29  1  0.125022  0.257728  0.758559  1
  O  O30  1  0.233542  0.674335  0.401263  1
  O  O31  1  0.257099  0.689660  0.083657  1
  O  O32  1  0.300409  0.941983  0.264315  1
  O  O33  1  0.342661  0.954077  0.602070  1
  O  O34  1  0.233542  0.174335  0.098737  1
  O  O35  1  0.257099  0.189660  0.416343  1
  O  O36  1  0.300409  0.441983  0.235685  1
  O  O37  1  0.376235  0.900302  0.923143  1
  O  O38  1  0.342661  0.454077  0.897930  1
  O  O39  1  0.423537  0.718190  0.692042  1
  O  O40  1  0.376235  0.400302  0.576857  1
  O  O41  1  0.423537  0.218190  0.807958  1
  O  O42  1  0.576463  0.781810  0.192042  1
  O  O43  1  0.623765  0.599698  0.423143  1
  O  O44  1  0.576463  0.281810  0.307958  1
  O  O45  1  0.657339  0.545923  0.102070  1
  O  O46  1  0.623765  0.099698  0.076857  1
  O  O47  1  0.699591  0.558017  0.764315  1
  O  O48  1  0.742901  0.810340  0.583657  1
  O  O49  1  0.766458  0.825665  0.901263  1
  O  O50  1  0.657339  0.045923  0.397929  1
  O  O51  1  0.699591  0.058017  0.735685  1
  O  O52  1  0.742901  0.310340  0.916343  1
  O  O53  1  0.766458  0.325665  0.598737  1
  O  O54  1  0.874978  0.742272  0.241441  1
  O  O55  1  0.917290  0.610444  0.537871  1
  O  O56  1  0.874978  0.242272  0.258559  1
  O  O57  1  0.015041  0.514174  0.166690  1
  O  O58  1  0.917290  0.110444  0.962129  1
  O  O59  1  0.015041  0.014174  0.333310  1
