# generated using pymatgen
data_Fe6O11F
_symmetry_space_group_name_H-M   'P 1'
_cell_length_a   7.25684895
_cell_length_b   5.50694037
_cell_length_c   5.50694037
_cell_angle_alpha   71.93870517
_cell_angle_beta   70.96985707
_cell_angle_gamma   70.96985707
_symmetry_Int_Tables_number   1
_chemical_formula_structural   Fe6O11F
_chemical_formula_sum   'Fe6 O11 F1'
_cell_volume   191.49808566
_cell_formula_units_Z   1
loop_
 _symmetry_equiv_pos_site_id
 _symmetry_equiv_pos_as_xyz
  1  'x, y, z'
loop_
 _atom_site_type_symbol
 _atom_site_label
 _atom_site_symmetry_multiplicity
 _atom_site_fract_x
 _atom_site_fract_y
 _atom_site_fract_z
 _atom_site_occupancy
  Fe  Fe0  1  0.835088  0.666927  0.666927  1
  Fe  Fe1  1  0.667229  0.335688  0.335688  1
  Fe  Fe2  1  0.331472  0.656373  0.656373  1
  Fe  Fe3  1  0.163711  0.331168  0.331168  1
  Fe  Fe4  1  0.509816  0.006749  0.006749  1
  Fe  Fe5  1  0.990850  0.001785  0.001785  1
  O  O6  1  0.667462  0.023702  0.646000  1
  O  O7  1  0.330884  0.358365  0.971164  1
  O  O8  1  0.956373  0.233464  0.233464  1
  O  O9  1  0.627072  0.559911  0.559911  1
  O  O10  1  0.041998  0.770591  0.770591  1
  O  O11  1  0.378831  0.425867  0.425867  1
  O  O12  1  0.699182  0.113291  0.113291  1
  O  O13  1  0.330884  0.971164  0.358365  1
  O  O14  1  0.667462  0.646000  0.023702  1
  O  O15  1  0.001116  0.307330  0.693599  1
  O  O16  1  0.001116  0.693599  0.307330  1
  F  F17  1  0.299454  0.898022  0.898022  1
