# generated using pymatgen
data_Li7Sb2S
_symmetry_space_group_name_H-M   'P 1'
_cell_length_a   9.39702526
_cell_length_b   13.98520956
_cell_length_c   5.94165424
_cell_angle_alpha   90.00000000
_cell_angle_beta   90.11586682
_cell_angle_gamma   90.00000000
_symmetry_Int_Tables_number   1
_chemical_formula_structural   Li7Sb2S
_chemical_formula_sum   'Li28 Sb8 S4'
_cell_volume   780.84684469
_cell_formula_units_Z   4
loop_
 _symmetry_equiv_pos_site_id
 _symmetry_equiv_pos_as_xyz
  1  'x, y, z'
loop_
 _atom_site_type_symbol
 _atom_site_label
 _atom_site_symmetry_multiplicity
 _atom_site_fract_x
 _atom_site_fract_y
 _atom_site_fract_z
 _atom_site_occupancy
  Li  Li0  1  0.046156  0.148623  0.726860  1
  Li  Li1  1  0.080260  0.394096  0.997707  1
  Li  Li2  1  0.091317  0.396081  0.508509  1
  Li  Li3  1  0.137613  0.919732  0.846654  1
  Li  Li4  1  0.187026  0.745622  0.490114  1
  Li  Li5  1  0.188484  0.736753  0.005064  1
  Li  Li6  1  0.230087  0.050024  0.270983  1
  Li  Li7  1  0.269913  0.550024  0.729017  1
  Li  Li8  1  0.311516  0.236753  0.994936  1
  Li  Li9  1  0.312974  0.245622  0.509886  1
  Li  Li10  1  0.362387  0.419732  0.153346  1
  Li  Li11  1  0.408683  0.896081  0.491491  1
  Li  Li12  1  0.419740  0.894096  0.002293  1
  Li  Li13  1  0.453844  0.648623  0.273140  1
  Li  Li14  1  0.546156  0.351377  0.726860  1
  Li  Li15  1  0.580260  0.105904  0.997707  1
  Li  Li16  1  0.591317  0.103919  0.508509  1
  Li  Li17  1  0.637613  0.580268  0.846654  1
  Li  Li18  1  0.687026  0.754378  0.490114  1
  Li  Li19  1  0.688484  0.763247  0.005064  1
  Li  Li20  1  0.730087  0.449976  0.270983  1
  Li  Li21  1  0.769913  0.949976  0.729017  1
  Li  Li22  1  0.811516  0.263247  0.994936  1
  Li  Li23  1  0.812974  0.254378  0.509886  1
  Li  Li24  1  0.862387  0.080268  0.153346  1
  Li  Li25  1  0.908683  0.603919  0.491491  1
  Li  Li26  1  0.919740  0.605904  0.002293  1
  Li  Li27  1  0.953844  0.851377  0.273140  1
  Sb  Sb28  1  0.062684  0.221893  0.255267  1
  Sb  Sb29  1  0.168871  0.566044  0.252060  1
  Sb  Sb30  1  0.331129  0.066044  0.747940  1
  Sb  Sb31  1  0.437316  0.721893  0.744733  1
  Sb  Sb32  1  0.562684  0.278107  0.255267  1
  Sb  Sb33  1  0.668871  0.933956  0.252060  1
  Sb  Sb34  1  0.831129  0.433956  0.747940  1
  Sb  Sb35  1  0.937316  0.778107  0.744733  1
  S  S36  1  0.205758  0.880211  0.232059  1
  S  S37  1  0.294242  0.380211  0.767941  1
  S  S38  1  0.705758  0.619789  0.232059  1
  S  S39  1  0.794242  0.119789  0.767941  1
