# generated using pymatgen
data_Li4MnP2O9
_symmetry_space_group_name_H-M   'P 1'
_cell_length_a   14.60373914
_cell_length_b   14.20988987
_cell_length_c   6.75374398
_cell_angle_alpha   90.00000000
_cell_angle_beta   90.00000000
_cell_angle_gamma   90.00000000
_symmetry_Int_Tables_number   1
_chemical_formula_structural   Li4MnP2O9
_chemical_formula_sum   'Li32 Mn8 P16 O72'
_cell_volume   1401.52023433
_cell_formula_units_Z   8
loop_
 _symmetry_equiv_pos_site_id
 _symmetry_equiv_pos_as_xyz
  1  'x, y, z'
loop_
 _atom_site_type_symbol
 _atom_site_label
 _atom_site_symmetry_multiplicity
 _atom_site_fract_x
 _atom_site_fract_y
 _atom_site_fract_z
 _atom_site_occupancy
  Li  Li0  1  0.004477  0.002881  0.777856  1
  Li  Li1  1  0.004477  0.497119  0.277856  1
  Li  Li2  1  0.026937  0.247201  0.245500  1
  Li  Li3  1  0.026937  0.252799  0.745500  1
  Li  Li4  1  0.127782  0.632380  0.000293  1
  Li  Li5  1  0.127782  0.867620  0.500293  1
  Li  Li6  1  0.226115  0.028150  0.182817  1
  Li  Li7  1  0.226115  0.471850  0.682817  1
  Li  Li8  1  0.273885  0.528150  0.182817  1
  Li  Li9  1  0.273885  0.971850  0.682817  1
  Li  Li10  1  0.372218  0.132380  0.000293  1
  Li  Li11  1  0.372218  0.367620  0.500293  1
  Li  Li12  1  0.473063  0.747201  0.245500  1
  Li  Li13  1  0.473063  0.752799  0.745500  1
  Li  Li14  1  0.495523  0.502881  0.777856  1
  Li  Li15  1  0.495523  0.997119  0.277856  1
  Li  Li16  1  0.504477  0.002881  0.722144  1
  Li  Li17  1  0.504477  0.497119  0.222144  1
  Li  Li18  1  0.526937  0.247201  0.254500  1
  Li  Li19  1  0.526937  0.252799  0.754500  1
  Li  Li20  1  0.627782  0.632380  0.499707  1
  Li  Li21  1  0.627782  0.867620  0.999707  1
  Li  Li22  1  0.726115  0.028150  0.317183  1
  Li  Li23  1  0.726115  0.471850  0.817183  1
  Li  Li24  1  0.773885  0.528150  0.317183  1
  Li  Li25  1  0.773885  0.971850  0.817183  1
  Li  Li26  1  0.872218  0.132380  0.499707  1
  Li  Li27  1  0.872218  0.367620  0.999707  1
  Li  Li28  1  0.973063  0.747201  0.254500  1
  Li  Li29  1  0.973063  0.752799  0.754500  1
  Li  Li30  1  0.995523  0.502881  0.722144  1
  Li  Li31  1  0.995523  0.997119  0.222144  1
  Mn  Mn32  1  0.234578  0.248467  0.751653  1
  Mn  Mn33  1  0.234578  0.251533  0.251653  1
  Mn  Mn34  1  0.265422  0.748467  0.751653  1
  Mn  Mn35  1  0.265422  0.751533  0.251653  1
  Mn  Mn36  1  0.734578  0.248467  0.748347  1
  Mn  Mn37  1  0.734578  0.251533  0.248347  1
  Mn  Mn38  1  0.765422  0.748467  0.748347  1
  Mn  Mn39  1  0.765422  0.751533  0.248347  1
  P  P40  1  0.114167  0.104031  0.500598  1
  P  P41  1  0.114167  0.395969  0.000598  1
  P  P42  1  0.117379  0.640323  0.502800  1
  P  P43  1  0.117379  0.859677  0.002800  1
  P  P44  1  0.382621  0.140323  0.502800  1
  P  P45  1  0.382621  0.359676  0.002800  1
  P  P46  1  0.385833  0.604031  0.500598  1
  P  P47  1  0.385833  0.895969  0.000598  1
  P  P48  1  0.614167  0.104031  0.999402  1
  P  P49  1  0.614167  0.395969  0.499402  1
  P  P50  1  0.617379  0.640323  0.997200  1
  P  P51  1  0.617379  0.859677  0.497200  1
  P  P52  1  0.882621  0.140323  0.997200  1
  P  P53  1  0.882621  0.359676  0.497200  1
  P  P54  1  0.885833  0.604031  0.999402  1
  P  P55  1  0.885833  0.895969  0.499402  1
  O  O56  1  0.010302  0.089175  0.497697  1
  O  O57  1  0.010302  0.410825  0.997697  1
  O  O58  1  0.042378  0.784221  0.005178  1
  O  O59  1  0.042378  0.715779  0.505178  1
  O  O60  1  0.083127  0.538206  0.507708  1
  O  O61  1  0.083127  0.961794  0.007708  1
  O  O62  1  0.133173  0.164978  0.689070  1
  O  O63  1  0.133173  0.335022  0.189070  1
  O  O64  1  0.136979  0.160556  0.306578  1
  O  O65  1  0.136979  0.339444  0.806578  1
  O  O66  1  0.170935  0.012452  0.498680  1
  O  O67  1  0.170935  0.487548  0.998680  1
  O  O68  1  0.176330  0.650370  0.308450  1
  O  O69  1  0.176330  0.849630  0.808450  1
  O  O70  1  0.179136  0.648838  0.692758  1
  O  O71  1  0.179136  0.851162  0.192758  1
  O  O72  1  0.244280  0.199558  0.002996  1
  O  O73  1  0.244280  0.300442  0.502996  1
  O  O74  1  0.255720  0.699558  0.002996  1
  O  O75  1  0.255720  0.800442  0.502996  1
  O  O76  1  0.320864  0.148838  0.692758  1
  O  O77  1  0.320864  0.351162  0.192758  1
  O  O78  1  0.323670  0.150370  0.308450  1
  O  O79  1  0.323670  0.349630  0.808450  1
  O  O80  1  0.329065  0.512452  0.498680  1
  O  O81  1  0.329065  0.987548  0.998680  1
  O  O82  1  0.363021  0.660556  0.306578  1
  O  O83  1  0.363021  0.839444  0.806578  1
  O  O84  1  0.366827  0.664978  0.689070  1
  O  O85  1  0.366827  0.835022  0.189070  1
  O  O86  1  0.416873  0.038206  0.507708  1
  O  O87  1  0.416873  0.461794  0.007708  1
  O  O88  1  0.457622  0.215779  0.505178  1
  O  O89  1  0.457622  0.284221  0.005178  1
  O  O90  1  0.489698  0.589175  0.497697  1
  O  O91  1  0.489698  0.910825  0.997697  1
  O  O92  1  0.510302  0.089175  0.002303  1
  O  O93  1  0.510302  0.410825  0.502303  1
  O  O94  1  0.542378  0.715779  0.994822  1
  O  O95  1  0.542378  0.784221  0.494822  1
  O  O96  1  0.583127  0.538206  0.992292  1
  O  O97  1  0.583127  0.961794  0.492292  1
  O  O98  1  0.633173  0.164978  0.810930  1
  O  O99  1  0.633173  0.335022  0.310930  1
  O  O100  1  0.636979  0.160556  0.193422  1
  O  O101  1  0.636979  0.339444  0.693422  1
  O  O102  1  0.670935  0.012452  0.001320  1
  O  O103  1  0.670935  0.487548  0.501320  1
  O  O104  1  0.676330  0.650370  0.191550  1
  O  O105  1  0.676330  0.849630  0.691550  1
  O  O106  1  0.679136  0.648838  0.807242  1
  O  O107  1  0.679136  0.851162  0.307242  1
  O  O108  1  0.744280  0.199558  0.497004  1
  O  O109  1  0.744280  0.300442  0.997004  1
  O  O110  1  0.755720  0.699558  0.497004  1
  O  O111  1  0.755720  0.800442  0.997004  1
  O  O112  1  0.820864  0.148838  0.807242  1
  O  O113  1  0.820864  0.351162  0.307242  1
  O  O114  1  0.823670  0.150370  0.191550  1
  O  O115  1  0.823670  0.349630  0.691550  1
  O  O116  1  0.829065  0.512452  0.001320  1
  O  O117  1  0.829065  0.987548  0.501320  1
  O  O118  1  0.863021  0.660556  0.193422  1
  O  O119  1  0.863021  0.839444  0.693422  1
  O  O120  1  0.866827  0.664978  0.810930  1
  O  O121  1  0.866827  0.835022  0.310930  1
  O  O122  1  0.916873  0.038206  0.992292  1
  O  O123  1  0.916873  0.461794  0.492292  1
  O  O124  1  0.957622  0.215779  0.994822  1
  O  O125  1  0.957622  0.284221  0.494822  1
  O  O126  1  0.989698  0.589175  0.002303  1
  O  O127  1  0.989698  0.910825  0.502303  1
