# generated using pymatgen
data_NaH5(SO4)3
_symmetry_space_group_name_H-M   'P 1'
_cell_length_a   5.98169837
_cell_length_b   9.58901805
_cell_length_c   13.12192550
_cell_angle_alpha   68.01600287
_cell_angle_beta   88.33482551
_cell_angle_gamma   95.51645657
_symmetry_Int_Tables_number   1
_chemical_formula_structural   NaH5(SO4)3
_chemical_formula_sum   'Na2 H10 S6 O24'
_cell_volume   692.96915140
_cell_formula_units_Z   2
loop_
 _symmetry_equiv_pos_site_id
 _symmetry_equiv_pos_as_xyz
  1  'x, y, z'
loop_
 _atom_site_type_symbol
 _atom_site_label
 _atom_site_symmetry_multiplicity
 _atom_site_fract_x
 _atom_site_fract_y
 _atom_site_fract_z
 _atom_site_occupancy
  Na  Na0  1  0.135124  0.506003  0.686431  1
  Na  Na1  1  0.864876  0.493997  0.313569  1
  H  H2  1  0.553241  0.742174  0.758129  1
  H  H3  1  0.446759  0.257826  0.241871  1
  H  H4  1  0.790952  0.155795  0.238920  1
  H  H5  1  0.209048  0.844205  0.761080  1
  H  H6  1  0.179261  0.938659  0.165815  1
  H  H7  1  0.820739  0.061341  0.834185  1
  H  H8  1  0.177479  0.223357  0.966829  1
  H  H9  1  0.822521  0.776643  0.033171  1
  H  H10  1  0.553500  0.796569  0.370014  1
  H  H11  1  0.446500  0.203431  0.629986  1
  S  S12  1  0.864228  0.821583  0.920349  1
  S  S13  1  0.135772  0.178417  0.079651  1
  S  S14  1  0.583706  0.777621  0.478464  1
  S  S15  1  0.416294  0.222379  0.521536  1
  S  S16  1  0.681924  0.428629  0.820782  1
  S  S17  1  0.318076  0.571371  0.179218  1
  O  O18  1  0.096418  0.786098  0.905492  1
  O  O19  1  0.903582  0.213902  0.094508  1
  O  O20  1  0.812632  0.581468  0.781134  1
  O  O21  1  0.187368  0.418532  0.218866  1
  O  O22  1  0.838900  0.091691  0.640353  1
  O  O23  1  0.161100  0.908309  0.359647  1
  O  O24  1  0.526234  0.844378  0.752266  1
  O  O25  1  0.473766  0.155622  0.247734  1
  O  O26  1  0.389987  0.674192  0.545274  1
  O  O27  1  0.610013  0.325808  0.454726  1
  O  O28  1  0.804827  0.641860  0.470464  1
  O  O29  1  0.195173  0.358140  0.529536  1
  O  O30  1  0.198257  0.468130  0.433640  1
  O  O31  1  0.801743  0.531870  0.566360  1
  O  O32  1  0.316446  0.868972  0.695565  1
  O  O33  1  0.683554  0.131028  0.304435  1
  O  O34  1  0.438714  0.430804  0.801886  1
  O  O35  1  0.561286  0.569196  0.198114  1
  O  O36  1  0.796676  0.320383  0.787184  1
  O  O37  1  0.203324  0.679617  0.212816  1
  O  O38  1  0.873991  0.000772  0.905361  1
  O  O39  1  0.126009  0.999228  0.094639  1
  O  O40  1  0.931839  0.010368  0.602539  1
  O  O41  1  0.068161  -0.010368  0.397461  1
