# generated using pymatgen
data_LiFeF3
_symmetry_space_group_name_H-M   'P 1'
_cell_length_a   5.83756565
_cell_length_b   5.83756565
_cell_length_c   12.30118358
_cell_angle_alpha   76.21494814
_cell_angle_beta   103.78505186
_cell_angle_gamma   120.31436650
_symmetry_Int_Tables_number   1
_chemical_formula_structural   LiFeF3
_chemical_formula_sum   'Li6 Fe6 F18'
_cell_volume   347.95124868
_cell_formula_units_Z   6
loop_
 _symmetry_equiv_pos_site_id
 _symmetry_equiv_pos_as_xyz
  1  'x, y, z'
loop_
 _atom_site_type_symbol
 _atom_site_label
 _atom_site_symmetry_multiplicity
 _atom_site_fract_x
 _atom_site_fract_y
 _atom_site_fract_z
 _atom_site_occupancy
  Li  Li0  1  0.433242  0.751614  0.749524  1
  Li  Li1  1  0.068074  0.068074  0.750000  1
  Li  Li2  1  0.248386  0.566758  0.249524  1
  Li  Li3  1  0.751614  0.433242  0.750476  1
  Li  Li4  1  0.931926  0.931926  0.250000  1
  Li  Li5  1  0.566758  0.248386  0.250476  1
  Fe  Fe6  1  0.000000  0.500000  0.500000  1
  Fe  Fe7  1  0.657258  0.843526  0.469306  1
  Fe  Fe8  1  0.843526  0.657258  0.030694  1
  Fe  Fe9  1  0.156474  0.342742  0.969306  1
  Fe  Fe10  1  0.342742  0.156474  0.530694  1
  Fe  Fe11  1  0.500000  0.000000  0.000000  1
  F  F12  1  0.368250  0.785800  0.574634  1
  F  F13  1  0.508653  0.718062  0.924461  1
  F  F14  1  0.098252  0.407836  0.784983  1
  F  F15  1  0.214200  0.631750  0.074634  1
  F  F16  1  0.281938  0.491347  0.424461  1
  F  F17  1  0.989396  0.130050  0.575021  1
  F  F18  1  0.749870  0.749870  0.750000  1
  F  F19  1  0.130050  0.989396  0.924979  1
  F  F20  1  0.592164  0.901748  0.284983  1
  F  F21  1  0.407836  0.098252  0.715017  1
  F  F22  1  0.869950  0.010604  0.075021  1
  F  F23  1  0.250130  0.250130  0.250000  1
  F  F24  1  0.010604  0.869950  0.424979  1
  F  F25  1  0.718062  0.508653  0.575539  1
  F  F26  1  0.785800  0.368250  0.925366  1
  F  F27  1  0.901748  0.592164  0.215017  1
  F  F28  1  0.491347  0.281938  0.075539  1
  F  F29  1  0.631750  0.214200  0.425366  1
