# generated using pymatgen
data_K2NaZn2H5(C2O7)2
_symmetry_space_group_name_H-M   'P 1'
_cell_length_a   10.67476364
_cell_length_b   11.15380163
_cell_length_c   5.21873703
_cell_angle_alpha   90.00000000
_cell_angle_beta   92.98321442
_cell_angle_gamma   90.00000000
_symmetry_Int_Tables_number   1
_chemical_formula_structural   K2NaZn2H5(C2O7)2
_chemical_formula_sum   'K4 Na2 Zn4 H10 C8 O28'
_cell_volume   620.52267119
_cell_formula_units_Z   2
loop_
 _symmetry_equiv_pos_site_id
 _symmetry_equiv_pos_as_xyz
  1  'x, y, z'
loop_
 _atom_site_type_symbol
 _atom_site_label
 _atom_site_symmetry_multiplicity
 _atom_site_fract_x
 _atom_site_fract_y
 _atom_site_fract_z
 _atom_site_occupancy
  K  K0  1  0.075883  0.165294  0.036490  1
  K  K1  1  0.424117  0.665294  0.463510  1
  K  K2  1  0.575883  0.334706  0.536490  1
  K  K3  1  0.924117  0.834706  0.963510  1
  Na  Na4  1  0.000000  0.500000  0.000000  1
  Na  Na5  1  0.500000  0.000000  0.500000  1
  Zn  Zn6  1  0.205265  0.396766  0.531016  1
  Zn  Zn7  1  0.294735  0.896766  0.968984  1
  Zn  Zn8  1  0.705265  0.103234  0.031016  1
  Zn  Zn9  1  0.794735  0.603234  0.468984  1
  H  H10  1  0.000000  0.000000  0.500000  1
  H  H11  1  0.184390  0.691414  0.125572  1
  H  H12  1  0.231688  0.668642  0.847708  1
  H  H13  1  0.268312  0.168642  0.652292  1
  H  H14  1  0.315610  0.191414  0.374428  1
  H  H15  1  0.500000  0.500000  0.000000  1
  H  H16  1  0.684390  0.808586  0.625572  1
  H  H17  1  0.731688  0.831358  0.347708  1
  H  H18  1  0.768312  0.331358  0.152292  1
  H  H19  1  0.815610  0.308586  0.874428  1
  C  C20  1  0.065679  0.627513  0.493202  1
  C  C21  1  0.180009  0.924882  0.469953  1
  C  C22  1  0.319991  0.424882  0.030046  1
  C  C23  1  0.434321  0.127513  0.006798  1
  C  C24  1  0.565679  0.872487  0.993202  1
  C  C25  1  0.680009  0.575118  0.969953  1
  C  C26  1  0.819991  0.075118  0.530047  1
  C  C27  1  0.934321  0.372487  0.506798  1
  O  O28  1  0.030652  0.379946  0.361714  1
  O  O29  1  0.052072  0.667301  0.262245  1
  O  O30  1  0.088737  0.953873  0.618037  1
  O  O31  1  0.163193  0.937954  0.223796  1
  O  O32  1  0.175267  0.592060  0.588708  1
  O  O33  1  0.216443  0.384665  0.923850  1
  O  O34  1  0.243177  0.210067  0.486780  1
  O  O35  1  0.256823  0.710067  0.013220  1
  O  O36  1  0.283557  0.884665  0.576150  1
  O  O37  1  0.324733  0.092060  0.911292  1
  O  O38  1  0.336807  0.437954  0.276204  1
  O  O39  1  0.411263  0.453873  0.881963  1
  O  O40  1  0.447928  0.167301  0.237755  1
  O  O41  1  0.469348  0.879946  0.138286  1
  O  O42  1  0.530652  0.120054  0.861714  1
  O  O43  1  0.552072  0.832699  0.762245  1
  O  O44  1  0.588737  0.546127  0.118037  1
  O  O45  1  0.663193  0.562046  0.723796  1
  O  O46  1  0.675267  0.907940  0.088708  1
  O  O47  1  0.716443  0.115335  0.423850  1
  O  O48  1  0.743177  0.289933  0.986780  1
  O  O49  1  0.756823  0.789933  0.513220  1
  O  O50  1  0.783557  0.615335  0.076150  1
  O  O51  1  0.824733  0.407940  0.411292  1
  O  O52  1  0.836807  0.062046  0.776204  1
  O  O53  1  0.911263  0.046127  0.381963  1
  O  O54  1  0.947928  0.332699  0.737755  1
  O  O55  1  0.969348  0.620054  0.638286  1
