# generated using pymatgen
data_Li3V3P8O29
_symmetry_space_group_name_H-M   'P 1'
_cell_length_a   9.74877329
_cell_length_b   9.78415395
_cell_length_c   14.29410159
_cell_angle_alpha   90.29173447
_cell_angle_beta   90.06544263
_cell_angle_gamma   59.93866360
_symmetry_Int_Tables_number   1
_chemical_formula_structural   Li3V3P8O29
_chemical_formula_sum   'Li6 V6 P16 O58'
_cell_volume   1180.01026451
_cell_formula_units_Z   2
loop_
 _symmetry_equiv_pos_site_id
 _symmetry_equiv_pos_as_xyz
  1  'x, y, z'
loop_
 _atom_site_type_symbol
 _atom_site_label
 _atom_site_symmetry_multiplicity
 _atom_site_fract_x
 _atom_site_fract_y
 _atom_site_fract_z
 _atom_site_occupancy
  Li  Li0  1  0.766169  0.909139  0.556907  1
  Li  Li1  1  0.770850  0.324573  0.055800  1
  Li  Li2  1  0.324762  0.768892  0.557981  1
  Li  Li3  1  0.328307  0.335952  0.100764  1
  Li  Li4  1  0.039014  0.941377  0.000758  1
  Li  Li5  1  0.979374  0.061428  0.505676  1
  V  V6  1  0.567458  0.432096  0.254808  1
  V  V7  1  0.437097  0.562298  0.750581  1
  V  V8  1  0.561962  0.998811  0.757046  1
  V  V9  1  0.432452  0.998576  0.245881  1
  V  V10  1  0.997936  0.567858  0.252519  1
  V  V11  1  0.997914  0.438869  0.746612  1
  P  P12  1  0.918491  0.776163  0.843989  1
  P  P13  1  0.771469  0.917903  0.340891  1
  P  P14  1  0.921138  0.304289  0.342709  1
  P  P15  1  0.668159  0.660908  0.131288  1
  P  P16  1  0.663339  0.671511  0.632185  1
  P  P17  1  0.776892  0.313768  0.840954  1
  P  P18  1  0.693489  0.217232  0.661758  1
  P  P19  1  0.302701  0.914876  0.844732  1
  P  P20  1  0.693824  0.088495  0.158615  1
  P  P21  1  0.310941  0.776358  0.341193  1
  P  P22  1  0.219325  0.689264  0.161452  1
  P  P23  1  0.332376  0.331116  0.366682  1
  P  P24  1  0.330438  0.335639  0.866069  1
  P  P25  1  0.083260  0.695382  0.659510  1
  P  P26  1  0.221846  0.084616  0.662067  1
  P  P27  1  0.086618  0.222018  0.158779  1
  O  O28  1  0.992575  0.795182  0.578725  1
  O  O29  1  0.911956  0.744853  0.328228  1
  O  O30  1  0.796079  0.006821  0.077692  1
  O  O31  1  0.741140  0.909691  0.829907  1
  O  O32  1  0.923077  0.616444  0.828901  1
  O  O33  1  0.817479  0.650152  0.181396  1
  O  O34  1  0.926920  0.458001  0.330713  1
  O  O35  1  0.995004  0.214130  0.078252  1
  O  O36  1  0.915529  0.345826  0.827228  1
  O  O37  1  0.666307  0.817357  0.676885  1
  O  O38  1  0.615330  0.917582  0.321941  1
  O  O39  1  0.810799  0.525204  0.678399  1
  O  O40  1  0.676194  0.654431  0.028032  1
  O  O41  1  0.665529  0.676826  0.528347  1
  O  O42  1  0.660285  0.516351  0.172410  1
  O  O43  1  0.460379  0.919657  0.831980  1
  O  O44  1  0.525633  0.814885  0.174558  1
  O  O45  1  0.743944  0.346127  0.328915  1
  O  O46  1  0.791903  0.196916  0.757632  1
  O  O47  1  0.793800  0.196054  0.579275  1
  O  O48  1  0.776360  0.245330  0.932851  1
  O  O49  1  0.619027  0.473005  0.821910  1
  O  O50  1  0.511502  0.671808  0.669807  1
  O  O51  1  0.654040  0.266005  0.162513  1
  O  O52  1  0.469323  0.618983  0.323384  1
  O  O53  1  0.342837  0.915560  0.326318  1
  O  O54  1  0.788023  0.016421  0.256871  1
  O  O55  1  0.781236  0.982817  0.433123  1
  O  O56  1  0.206626  0.999236  0.579494  1
  O  O57  1  0.650728  0.083753  0.666726  1
  O  O58  1  0.539656  0.381101  0.671991  1
  O  O59  1  0.347724  0.739142  0.826886  1
  O  O60  1  0.479754  0.335592  0.320799  1
  O  O61  1  0.375758  0.527959  0.170414  1
  O  O62  1  0.202722  0.787442  0.079912  1
  O  O63  1  0.239571  0.783532  0.433873  1
  O  O64  1  0.196755  0.789451  0.257385  1
  O  O65  1  0.259367  0.655444  0.660022  1
  O  O66  1  0.479630  0.185163  0.824677  1
  O  O67  1  0.530182  0.095739  0.167322  1
  O  O68  1  0.337661  0.479326  0.821561  1
  O  O69  1  0.333230  0.337932  0.970012  1
  O  O70  1  0.337898  0.329134  0.469786  1
  O  O71  1  0.186497  0.478097  0.321651  1
  O  O72  1  0.383815  0.076020  0.674379  1
  O  O73  1  0.336511  0.184440  0.318106  1
  O  O74  1  0.083212  0.648729  0.167842  1
  O  O75  1  0.009121  0.794452  0.754580  1
  O  O76  1  0.988274  0.798224  0.929830  1
  O  O77  1  0.079479  0.538946  0.670734  1
  O  O78  1  0.184564  0.337298  0.822101  1
  O  O79  1  0.097938  0.374365  0.169193  1
  O  O80  1  0.262531  0.083028  0.161580  1
  O  O81  1  0.211796  0.981408  0.931454  1
  O  O82  1  0.196784  0.006343  0.754994  1
  O  O83  1  0.089488  0.260966  0.666640  1
  O  O84  1  0.989946  0.211811  0.428534  1
  O  O85  1  0.010528  0.197426  0.252969  1
