# generated using pymatgen
data_LiCr4(PO4)3
_symmetry_space_group_name_H-M   'P 1'
_cell_length_a   10.10047634
_cell_length_b   6.51519584
_cell_length_c   15.80746243
_cell_angle_alpha   90.00000000
_cell_angle_beta   90.00000000
_cell_angle_gamma   90.00000000
_symmetry_Int_Tables_number   1
_chemical_formula_structural   LiCr4(PO4)3
_chemical_formula_sum   'Li4 Cr16 P12 O48'
_cell_volume   1040.23506364
_cell_formula_units_Z   4
loop_
 _symmetry_equiv_pos_site_id
 _symmetry_equiv_pos_as_xyz
  1  'x, y, z'
loop_
 _atom_site_type_symbol
 _atom_site_label
 _atom_site_symmetry_multiplicity
 _atom_site_fract_x
 _atom_site_fract_y
 _atom_site_fract_z
 _atom_site_occupancy
  Li  Li0  1  0.252572  0.750000  0.721152  1
  Li  Li1  1  0.247428  0.250000  0.221152  1
  Li  Li2  1  0.752572  0.750000  0.778848  1
  Li  Li3  1  0.747428  0.250000  0.278848  1
  Cr  Cr4  1  0.036599  0.250000  0.627173  1
  Cr  Cr5  1  0.069219  0.750000  0.122727  1
  Cr  Cr6  1  0.246642  0.498205  0.951661  1
  Cr  Cr7  1  0.246642  0.001795  0.951661  1
  Cr  Cr8  1  0.253358  0.501795  0.451661  1
  Cr  Cr9  1  0.253358  0.998205  0.451661  1
  Cr  Cr10  1  0.430781  0.250000  0.622727  1
  Cr  Cr11  1  0.463401  0.750000  0.127173  1
  Cr  Cr12  1  0.536599  0.250000  0.872827  1
  Cr  Cr13  1  0.569219  0.750000  0.377273  1
  Cr  Cr14  1  0.746642  0.001795  0.548339  1
  Cr  Cr15  1  0.746642  0.498205  0.548339  1
  Cr  Cr16  1  0.753358  0.501795  0.048339  1
  Cr  Cr17  1  0.753358  0.998205  0.048339  1
  Cr  Cr18  1  0.930781  0.250000  0.877273  1
  Cr  Cr19  1  0.963401  0.750000  0.372827  1
  P  P20  1  0.028300  0.750000  0.565870  1
  P  P21  1  0.042890  0.250000  0.060918  1
  P  P22  1  0.208318  0.250000  0.769316  1
  P  P23  1  0.291682  0.750000  0.269316  1
  P  P24  1  0.457110  0.750000  0.560918  1
  P  P25  1  0.471700  0.250000  0.065870  1
  P  P26  1  0.528300  0.750000  0.934130  1
  P  P27  1  0.542890  0.250000  0.439082  1
  P  P28  1  0.708318  0.250000  0.730684  1
  P  P29  1  0.791682  0.750000  0.230684  1
  P  P30  1  0.957110  0.750000  0.939082  1
  P  P31  1  0.971700  0.250000  0.434130  1
  O  O32  1  0.054242  0.250000  0.763783  1
  O  O33  1  0.062162  0.559312  0.616000  1
  O  O34  1  0.062162  0.940688  0.616000  1
  O  O35  1  0.094374  0.060147  0.105501  1
  O  O36  1  0.094374  0.439853  0.105501  1
  O  O37  1  0.103001  0.250000  0.965628  1
  O  O38  1  0.111330  0.750000  0.950894  1
  O  O39  1  0.111515  0.750000  0.478209  1
  O  O40  1  0.121185  0.250000  0.464434  1
  O  O41  1  0.241548  0.550290  0.312634  1
  O  O42  1  0.241548  0.949710  0.312634  1
  O  O43  1  0.249138  0.250000  0.674086  1
  O  O44  1  0.250862  0.750000  0.174086  1
  O  O45  1  0.258452  0.050290  0.812634  1
  O  O46  1  0.258452  0.449710  0.812634  1
  O  O47  1  0.378815  0.750000  0.964434  1
  O  O48  1  0.388485  0.250000  0.978209  1
  O  O49  1  0.388670  0.250000  0.450894  1
  O  O50  1  0.396999  0.750000  0.465628  1
  O  O51  1  0.405626  0.939853  0.605501  1
  O  O52  1  0.405626  0.560147  0.605501  1
  O  O53  1  0.437838  0.059312  0.116000  1
  O  O54  1  0.437838  0.440688  0.116000  1
  O  O55  1  0.445758  0.750000  0.263783  1
  O  O56  1  0.554242  0.250000  0.736217  1
  O  O57  1  0.562162  0.559312  0.884000  1
  O  O58  1  0.562162  0.940688  0.884000  1
  O  O59  1  0.594374  0.060147  0.394499  1
  O  O60  1  0.594374  0.439853  0.394499  1
  O  O61  1  0.603001  0.250000  0.534372  1
  O  O62  1  0.611330  0.750000  0.549106  1
  O  O63  1  0.611515  0.750000  0.021791  1
  O  O64  1  0.621185  0.250000  0.035566  1
  O  O65  1  0.741548  0.550290  0.187366  1
  O  O66  1  0.741548  0.949710  0.187366  1
  O  O67  1  0.749138  0.250000  0.825914  1
  O  O68  1  0.750862  0.750000  0.325914  1
  O  O69  1  0.758452  0.050290  0.687366  1
  O  O70  1  0.758452  0.449710  0.687366  1
  O  O71  1  0.878815  0.750000  0.535566  1
  O  O72  1  0.888485  0.250000  0.521791  1
  O  O73  1  0.888670  0.250000  0.049106  1
  O  O74  1  0.896999  0.750000  0.034372  1
  O  O75  1  0.905626  0.560147  0.894499  1
  O  O76  1  0.905626  0.939853  0.894499  1
  O  O77  1  0.937838  0.059312  0.384000  1
  O  O78  1  0.937838  0.440688  0.384000  1
  O  O79  1  0.945758  0.750000  0.236217  1
