# generated using pymatgen
data_Sm3B5O12
_symmetry_space_group_name_H-M   'P 1'
_cell_length_a   6.53940108
_cell_length_b   8.07959726
_cell_length_c   17.59973092
_cell_angle_alpha   90.00000000
_cell_angle_beta   90.00000000
_cell_angle_gamma   90.00000000
_symmetry_Int_Tables_number   1
_chemical_formula_structural   Sm3B5O12
_chemical_formula_sum   'Sm12 B20 O48'
_cell_volume   929.89457901
_cell_formula_units_Z   4
loop_
 _symmetry_equiv_pos_site_id
 _symmetry_equiv_pos_as_xyz
  1  'x, y, z'
loop_
 _atom_site_type_symbol
 _atom_site_label
 _atom_site_symmetry_multiplicity
 _atom_site_fract_x
 _atom_site_fract_y
 _atom_site_fract_z
 _atom_site_occupancy
  Sm  Sm0  1  0.039923  0.020981  0.900374  1
  Sm  Sm1  1  0.039923  0.479019  0.900374  1
  Sm  Sm2  1  0.989795  0.750000  0.308508  1
  Sm  Sm3  1  0.510205  0.250000  0.808508  1
  Sm  Sm4  1  0.460077  0.520981  0.400374  1
  Sm  Sm5  1  0.460077  0.979019  0.400374  1
  Sm  Sm6  1  0.539923  0.020981  0.599626  1
  Sm  Sm7  1  0.539923  0.479019  0.599626  1
  Sm  Sm8  1  0.489794  0.750000  0.191492  1
  Sm  Sm9  1  0.010206  0.250000  0.691492  1
  Sm  Sm10  1  0.960077  0.520981  0.099626  1
  Sm  Sm11  1  0.960077  0.979019  0.099626  1
  B  B12  1  0.094137  0.250000  0.386090  1
  B  B13  1  0.127292  0.099772  0.260080  1
  B  B14  1  0.127292  0.400228  0.260080  1
  B  B15  1  0.171666  0.250000  0.524719  1
  B  B16  1  0.203803  0.750000  0.520709  1
  B  B17  1  0.296196  0.250000  0.020709  1
  B  B18  1  0.328334  0.750000  0.024719  1
  B  B19  1  0.372708  0.599772  0.760080  1
  B  B20  1  0.372708  0.900228  0.760080  1
  B  B21  1  0.405863  0.750000  0.886090  1
  B  B22  1  0.594137  0.250000  0.113910  1
  B  B23  1  0.627292  0.099772  0.239920  1
  B  B24  1  0.627292  0.400228  0.239920  1
  B  B25  1  0.671666  0.250000  0.975281  1
  B  B26  1  0.703803  0.750000  0.979291  1
  B  B27  1  0.796197  0.250000  0.479291  1
  B  B28  1  0.828334  0.750000  0.475281  1
  B  B29  1  0.872708  0.900228  0.739920  1
  B  B30  1  0.872708  0.599772  0.739920  1
  B  B31  1  0.905863  0.750000  0.613910  1
  O  O32  1  0.031963  0.750000  0.458805  1
  O  O33  1  0.154590  0.098747  0.338033  1
  O  O34  1  0.154590  0.401253  0.338033  1
  O  O35  1  0.078674  0.250000  0.223524  1
  O  O36  1  0.110245  0.750000  0.596244  1
  O  O37  1  0.139023  0.543401  0.220926  1
  O  O38  1  0.139023  0.956599  0.220926  1
  O  O39  1  0.184029  0.250000  0.835834  1
  O  O40  1  0.174227  0.100303  0.010582  1
  O  O41  1  0.174227  0.399697  0.010582  1
  O  O42  1  0.198630  0.750000  0.086437  1
  O  O43  1  0.245295  0.250000  0.449198  1
  O  O44  1  0.254705  0.750000  0.949198  1
  O  O45  1  0.301370  0.250000  0.586437  1
  O  O46  1  0.325773  0.600303  0.510582  1
  O  O47  1  0.325773  0.899697  0.510582  1
  O  O48  1  0.315971  0.750000  0.335834  1
  O  O49  1  0.360977  0.456599  0.720926  1
  O  O50  1  0.360977  0.043401  0.720926  1
  O  O51  1  0.389755  0.250000  0.096244  1
  O  O52  1  0.421326  0.750000  0.723524  1
  O  O53  1  0.345410  0.598747  0.838033  1
  O  O54  1  0.345410  0.901253  0.838033  1
  O  O55  1  0.468037  0.250000  0.958805  1
  O  O56  1  0.531963  0.750000  0.041195  1
  O  O57  1  0.654590  0.098747  0.161967  1
  O  O58  1  0.654590  0.401253  0.161967  1
  O  O59  1  0.578674  0.250000  0.276476  1
  O  O60  1  0.610245  0.750000  0.903756  1
  O  O61  1  0.639023  0.543401  0.279074  1
  O  O62  1  0.639023  0.956599  0.279074  1
  O  O63  1  0.684029  0.250000  0.664166  1
  O  O64  1  0.674227  0.100303  0.489418  1
  O  O65  1  0.674227  0.399697  0.489418  1
  O  O66  1  0.698630  0.750000  0.413563  1
  O  O67  1  0.745295  0.250000  0.050802  1
  O  O68  1  0.754705  0.750000  0.550802  1
  O  O69  1  0.801370  0.250000  0.913563  1
  O  O70  1  0.825773  0.899697  0.989418  1
  O  O71  1  0.825773  0.600303  0.989418  1
  O  O72  1  0.815971  0.750000  0.164166  1
  O  O73  1  0.860977  0.043401  0.779074  1
  O  O74  1  0.860977  0.456599  0.779074  1
  O  O75  1  0.889755  0.250000  0.403756  1
  O  O76  1  0.921326  0.750000  0.776476  1
  O  O77  1  0.845410  0.901253  0.661967  1
  O  O78  1  0.845410  0.598747  0.661967  1
  O  O79  1  0.968037  0.250000  0.541195  1
