# generated using pymatgen
data_Na3SiBSbO7
_symmetry_space_group_name_H-M   'P 1'
_cell_length_a   9.18799344
_cell_length_b   6.83999765
_cell_length_c   5.32460169
_cell_angle_alpha   90.00000000
_cell_angle_beta   90.58674668
_cell_angle_gamma   90.00000000
_symmetry_Int_Tables_number   1
_chemical_formula_structural   Na3SiBSbO7
_chemical_formula_sum   'Na6 Si2 B2 Sb2 O14'
_cell_volume   334.61159178
_cell_formula_units_Z   2
loop_
 _symmetry_equiv_pos_site_id
 _symmetry_equiv_pos_as_xyz
  1  'x, y, z'
loop_
 _atom_site_type_symbol
 _atom_site_label
 _atom_site_symmetry_multiplicity
 _atom_site_fract_x
 _atom_site_fract_y
 _atom_site_fract_z
 _atom_site_occupancy
  Na  Na0  1  0.076309  0.250000  0.759467  1
  Na  Na1  1  0.249159  0.007593  0.253545  1
  Na  Na2  1  0.249159  0.492407  0.253545  1
  Na  Na3  1  0.750841  0.507593  0.746455  1
  Na  Na4  1  0.750841  0.992407  0.746455  1
  Na  Na5  1  0.923691  0.750000  0.240533  1
  Si  Si6  1  0.417312  0.250000  0.707034  1
  Si  Si7  1  0.582688  0.750000  0.292966  1
  B  B8  1  0.059196  0.750000  0.732674  1
  B  B9  1  0.940804  0.250000  0.267326  1
  Sb  Sb10  1  0.341827  0.750000  0.783164  1
  Sb  Sb11  1  0.658173  0.250000  0.216836  1
  O  O12  1  0.085747  0.250000  0.287240  1
  O  O13  1  0.137041  0.750000  0.964861  1
  O  O14  1  0.154045  0.750000  0.524367  1
  O  O15  1  0.315974  0.061846  0.793691  1
  O  O16  1  0.315974  0.438154  0.793691  1
  O  O17  1  0.436608  0.250000  0.398347  1
  O  O18  1  0.419140  0.750000  0.161332  1
  O  O19  1  0.580860  0.250000  0.838668  1
  O  O20  1  0.563392  0.750000  0.601653  1
  O  O21  1  0.684026  0.561846  0.206309  1
  O  O22  1  0.684026  0.938154  0.206309  1
  O  O23  1  0.845955  0.250000  0.475633  1
  O  O24  1  0.862959  0.250000  0.035139  1
  O  O25  1  0.914253  0.750000  0.712760  1
