# generated using pymatgen
data_Li4V3CrO8
_symmetry_space_group_name_H-M   'P 1'
_cell_length_a   5.18463756
_cell_length_b   5.94699870
_cell_length_c   5.94836922
_cell_angle_alpha   119.98526811
_cell_angle_beta   90.01291319
_cell_angle_gamma   73.34444243
_symmetry_Int_Tables_number   1
_chemical_formula_structural   Li4V3CrO8
_chemical_formula_sum   'Li4 V3 Cr1 O8'
_cell_volume   149.91569815
_cell_formula_units_Z   1
loop_
 _symmetry_equiv_pos_site_id
 _symmetry_equiv_pos_as_xyz
  1  'x, y, z'
loop_
 _atom_site_type_symbol
 _atom_site_label
 _atom_site_symmetry_multiplicity
 _atom_site_fract_x
 _atom_site_fract_y
 _atom_site_fract_z
 _atom_site_occupancy
  Li  Li0  1  0.001144  0.996144  0.497649  1
  Li  Li1  1  0.998845  0.003873  0.002354  1
  Li  Li2  1  0.999807  0.500064  0.494871  1
  Li  Li3  1  0.000201  0.499896  0.005108  1
  V  V4  1  0.500005  0.000030  0.750028  1
  V  V5  1  0.500015  0.000044  0.250016  1
  V  V6  1  0.500018  0.499969  0.749980  1
  Cr  Cr7  1  0.500046  0.499798  0.249869  1
  O  O8  1  0.273208  0.242267  0.620775  1
  O  O9  1  0.730531  0.256227  0.880771  1
  O  O10  1  0.270008  0.245693  0.124208  1
  O  O11  1  0.731007  0.259326  0.378721  1
  O  O12  1  0.269423  0.743840  0.619295  1
  O  O13  1  0.726812  0.757723  0.879228  1
  O  O14  1  0.268929  0.740737  0.121302  1
  O  O15  1  0.730002  0.754368  0.375826  1
