# generated using pymatgen
data_VGaO3
_symmetry_space_group_name_H-M   'P 1'
_cell_length_a   5.13569294
_cell_length_b   7.87867448
_cell_length_c   5.14516745
_cell_angle_alpha   89.99944291
_cell_angle_beta   89.99974220
_cell_angle_gamma   90.00182971
_symmetry_Int_Tables_number   1
_chemical_formula_structural   VGaO3
_chemical_formula_sum   'V4 Ga4 O12'
_cell_volume   208.18609557
_cell_formula_units_Z   4
loop_
 _symmetry_equiv_pos_site_id
 _symmetry_equiv_pos_as_xyz
  1  'x, y, z'
loop_
 _atom_site_type_symbol
 _atom_site_label
 _atom_site_symmetry_multiplicity
 _atom_site_fract_x
 _atom_site_fract_y
 _atom_site_fract_z
 _atom_site_occupancy
  V  V0  1  0.000000  -0.000001  0.499999  1
  V  V1  1  -0.000002  0.500001  0.499999  1
  V  V2  1  0.499999  0.000000  0.999999  1
  V  V3  1  0.499998  0.500000  0.999999  1
  Ga  Ga4  1  0.012778  0.250004  0.015266  1
  Ga  Ga5  1  0.487224  0.749988  0.515267  1
  Ga  Ga6  1  0.512777  0.250011  0.484729  1
  Ga  Ga7  1  0.987223  0.749995  0.984739  1
  O  O8  1  0.122187  0.750001  0.628774  1
  O  O9  1  0.169171  0.574929  0.157170  1
  O  O10  1  0.169155  0.925075  0.157162  1
  O  O11  1  0.330845  0.074932  0.657163  1
  O  O12  1  0.330830  0.425074  0.657168  1
  O  O13  1  0.377814  0.250006  0.128771  1
  O  O14  1  0.622186  0.749993  0.871228  1
  O  O15  1  0.669172  0.574925  0.342832  1
  O  O16  1  0.669155  0.925071  0.342838  1
  O  O17  1  0.830845  0.074925  0.842839  1
  O  O18  1  0.830831  0.425069  0.842831  1
  O  O19  1  0.877813  0.250000  0.371229  1
