# generated using pymatgen
data_Li2RhF6
_symmetry_space_group_name_H-M   'P 1'
_cell_length_a   4.72092855
_cell_length_b   4.71853871
_cell_length_c   9.24283500
_cell_angle_alpha   89.99729384
_cell_angle_beta   90.00000000
_cell_angle_gamma   90.00000000
_symmetry_Int_Tables_number   1
_chemical_formula_structural   Li2RhF6
_chemical_formula_sum   'Li4 Rh2 F12'
_cell_volume   205.89232118
_cell_formula_units_Z   2
loop_
 _symmetry_equiv_pos_site_id
 _symmetry_equiv_pos_as_xyz
  1  'x, y, z'
loop_
 _atom_site_type_symbol
 _atom_site_label
 _atom_site_symmetry_multiplicity
 _atom_site_fract_x
 _atom_site_fract_y
 _atom_site_fract_z
 _atom_site_occupancy
  Li  Li0  1  0.000406  0.000238  0.665809  1
  Li  Li1  1  0.499594  0.500238  0.165809  1
  Li  Li2  1  0.999594  0.999762  0.334191  1
  Li  Li3  1  0.500406  0.499762  0.834191  1
  F  F4  1  0.305677  0.304604  0.341164  1
  F  F5  1  0.805677  0.195396  0.158836  1
  F  F6  1  0.708542  0.710351  0.999907  1
  F  F7  1  0.208542  0.789649  0.500093  1
  F  F8  1  0.291458  0.289649  0.000093  1
  F  F9  1  0.791458  0.210351  0.499907  1
  F  F10  1  0.806595  0.195474  0.840795  1
  F  F11  1  0.306595  0.304526  0.659205  1
  F  F12  1  0.193405  0.804526  0.159205  1
  F  F13  1  0.693405  0.695474  0.340795  1
  F  F14  1  0.194323  0.804604  0.841164  1
  F  F15  1  0.694323  0.695396  0.658836  1
  Rh  Rh16  1  0.500000  0.500000  0.500000  1
  Rh  Rh17  1  0.000000  0.000000  0.000000  1
