# generated using pymatgen
data_Li4CrFe3O8
_symmetry_space_group_name_H-M   'P 1'
_cell_length_a   5.20199464
_cell_length_b   5.96954597
_cell_length_c   10.33693875
_cell_angle_alpha   89.94501977
_cell_angle_beta   80.42094472
_cell_angle_gamma   73.21562476
_symmetry_Int_Tables_number   1
_chemical_formula_structural   Li4CrFe3O8
_chemical_formula_sum   'Li8 Cr2 Fe6 O16'
_cell_volume   302.66118259
_cell_formula_units_Z   2
loop_
 _symmetry_equiv_pos_site_id
 _symmetry_equiv_pos_as_xyz
  1  'x, y, z'
loop_
 _atom_site_type_symbol
 _atom_site_label
 _atom_site_symmetry_multiplicity
 _atom_site_fract_x
 _atom_site_fract_y
 _atom_site_fract_z
 _atom_site_occupancy
  Li  Li0  1  0.998280  0.000729  -0.000036  1
  Li  Li1  1  -0.000032  0.000603  0.499477  1
  Li  Li2  1  0.000000  0.250000  0.250000  1
  Li  Li3  1  0.000000  0.250000  0.750000  1
  Li  Li4  1  0.000033  0.499397  0.000523  1
  Li  Li5  1  0.001720  0.499271  0.500036  1
  Li  Li6  1  0.000000  0.750000  0.250000  1
  Li  Li7  1  0.000000  0.750000  0.750000  1
  Cr  Cr8  1  0.500805  0.125213  0.373960  1
  Cr  Cr9  1  0.499196  0.374787  0.126039  1
  Fe  Fe10  1  0.500030  0.125298  0.875764  1
  Fe  Fe11  1  0.499971  0.374701  0.624236  1
  Fe  Fe12  1  0.500538  0.625217  0.374461  1
  Fe  Fe13  1  0.499611  0.624713  0.875748  1
  Fe  Fe14  1  0.499462  0.874783  0.125538  1
  Fe  Fe15  1  0.500389  0.875287  0.624252  1
  O  O16  1  0.273375  0.183236  0.061822  1
  O  O17  1  0.273613  0.181551  0.558581  1
  O  O18  1  0.726032  0.069578  0.189965  1
  O  O19  1  0.728904  0.068079  0.689263  1
  O  O20  1  0.273966  0.430423  0.310036  1
  O  O21  1  0.726624  0.316766  0.438179  1
  O  O22  1  0.271095  0.431920  0.810737  1
  O  O23  1  0.726387  0.318449  0.941418  1
  O  O24  1  0.271275  0.681158  0.062306  1
  O  O25  1  0.726135  0.566416  0.188968  1
  O  O26  1  0.271293  0.682271  0.560295  1
  O  O27  1  0.728884  0.567438  0.688835  1
  O  O28  1  0.273865  0.933584  0.311033  1
  O  O29  1  0.728724  0.818843  0.437694  1
  O  O30  1  0.271115  0.932562  0.811166  1
  O  O31  1  0.728709  0.817727  0.939704  1
