# generated using pymatgen
data_LiFeBO3
_symmetry_space_group_name_H-M   'P 1'
_cell_length_a   10.48650572
_cell_length_b   9.02972336
_cell_length_c   10.34733211
_cell_angle_alpha   90.00000000
_cell_angle_beta   88.64205509
_cell_angle_gamma   90.00000000
_symmetry_Int_Tables_number   1
_chemical_formula_structural   LiFeBO3
_chemical_formula_sum   'Li16 Fe16 B16 O48'
_cell_volume   979.51624816
_cell_formula_units_Z   16
loop_
 _symmetry_equiv_pos_site_id
 _symmetry_equiv_pos_as_xyz
  1  'x, y, z'
loop_
 _atom_site_type_symbol
 _atom_site_label
 _atom_site_symmetry_multiplicity
 _atom_site_fract_x
 _atom_site_fract_y
 _atom_site_fract_z
 _atom_site_occupancy
  Li  Li0  1  0.082774  0.509798  0.339153  1
  Li  Li1  1  0.082778  0.490201  0.839156  1
  Li  Li2  1  0.167226  0.009798  0.160847  1
  Li  Li3  1  0.167222  0.990201  0.660844  1
  Li  Li4  1  0.330235  0.994060  0.408792  1
  Li  Li5  1  0.330235  0.005931  0.908799  1
  Li  Li6  1  0.418507  0.508444  0.161329  1
  Li  Li7  1  0.418518  0.491557  0.661335  1
  Li  Li8  1  0.579984  0.493242  0.410345  1
  Li  Li9  1  0.579977  0.506754  0.910322  1
  Li  Li10  1  0.670016  0.993242  0.089655  1
  Li  Li11  1  0.670023  0.006754  0.589678  1
  Li  Li12  1  0.831493  0.008444  0.338671  1
  Li  Li13  1  0.831482  0.991557  0.838665  1
  Li  Li14  1  0.919765  0.494060  0.091208  1
  Li  Li15  1  0.919765  0.505931  0.591201  1
  Fe  Fe16  1  0.074324  0.836325  0.379753  1
  Fe  Fe17  1  0.074324  0.163647  0.879782  1
  Fe  Fe18  1  0.175676  0.336325  0.120247  1
  Fe  Fe19  1  0.175676  0.663647  0.620218  1
  Fe  Fe20  1  0.325847  0.334364  0.378018  1
  Fe  Fe21  1  0.325839  0.665661  0.878020  1
  Fe  Fe22  1  0.419325  0.839362  0.124732  1
  Fe  Fe23  1  0.419316  0.160633  0.624724  1
  Fe  Fe24  1  0.580448  0.834085  0.369848  1
  Fe  Fe25  1  0.580403  0.166005  0.869835  1
  Fe  Fe26  1  0.669552  0.334085  0.130152  1
  Fe  Fe27  1  0.669597  0.666005  0.630165  1
  Fe  Fe28  1  0.830675  0.339362  0.375268  1
  Fe  Fe29  1  0.830684  0.660633  0.875276  1
  Fe  Fe30  1  0.924153  0.834364  0.121982  1
  Fe  Fe31  1  0.924161  0.165661  0.621980  1
  B  B32  1  0.081805  0.166228  0.371033  1
  B  B33  1  0.081805  0.833767  0.871031  1
  B  B34  1  0.168195  0.666228  0.128967  1
  B  B35  1  0.168195  0.333767  0.628969  1
  B  B36  1  0.333091  0.667006  0.370092  1
  B  B37  1  0.333089  0.332998  0.870095  1
  B  B38  1  0.417970  0.166491  0.120742  1
  B  B39  1  0.417961  0.833500  0.620737  1
  B  B40  1  0.583294  0.166071  0.378912  1
  B  B41  1  0.583308  0.833937  0.878923  1
  B  B42  1  0.666706  0.666071  0.121088  1
  B  B43  1  0.666692  0.333937  0.621077  1
  B  B44  1  0.832030  0.666491  0.379258  1
  B  B45  1  0.832040  0.333500  0.879263  1
  B  B46  1  0.916909  0.167006  0.129908  1
  B  B47  1  0.916911  0.832998  0.629905  1
  O  O48  1  0.045262  0.162744  0.091157  1
  O  O49  1  0.045261  0.837247  0.591161  1
  O  O50  1  0.095498  0.538145  0.141584  1
  O  O51  1  0.095499  0.461850  0.641585  1
  O  O52  1  0.111344  0.802688  0.157244  1
  O  O53  1  0.111344  0.197311  0.657244  1
  O  O54  1  0.138656  0.302688  0.342756  1
  O  O55  1  0.138656  0.697311  0.842756  1
  O  O56  1  0.154502  0.038145  0.358416  1
  O  O57  1  0.154501  0.961850  0.858415  1
  O  O58  1  0.204738  0.662744  0.408843  1
  O  O59  1  0.204739  0.337247  0.908839  1
  O  O60  1  0.296938  0.659165  0.091873  1
  O  O61  1  0.296937  0.340834  0.591875  1
  O  O62  1  0.341671  0.041112  0.108046  1
  O  O63  1  0.341677  0.958889  0.608052  1
  O  O64  1  0.361612  0.300251  0.158412  1
  O  O65  1  0.361605  0.699748  0.658414  1
  O  O66  1  0.390839  0.803340  0.340001  1
  O  O67  1  0.390835  0.196651  0.840002  1
  O  O68  1  0.404590  0.538434  0.358229  1
  O  O69  1  0.404593  0.461561  0.858230  1
  O  O70  1  0.453264  0.161785  0.410048  1
  O  O71  1  0.453270  0.838215  0.910045  1
  O  O72  1  0.547540  0.159368  0.090758  1
  O  O73  1  0.547527  0.840610  0.590729  1
  O  O74  1  0.592380  0.539915  0.109244  1
  O  O75  1  0.592374  0.460085  0.609227  1
  O  O76  1  0.609680  0.800363  0.158790  1
  O  O77  1  0.609687  0.199623  0.658786  1
  O  O78  1  0.640320  0.300363  0.341210  1
  O  O79  1  0.640313  0.699623  0.841214  1
  O  O80  1  0.657620  0.039915  0.390756  1
  O  O81  1  0.657626  0.960085  0.890773  1
  O  O82  1  0.702460  0.659368  0.409242  1
  O  O83  1  0.702473  0.340610  0.909271  1
  O  O84  1  0.796736  0.661785  0.089952  1
  O  O85  1  0.796730  0.338215  0.589955  1
  O  O86  1  0.845410  0.038434  0.141770  1
  O  O87  1  0.845407  0.961561  0.641770  1
  O  O88  1  0.859161  0.303340  0.159999  1
  O  O89  1  0.859165  0.696651  0.659998  1
  O  O90  1  0.888388  0.800251  0.341588  1
  O  O91  1  0.888395  0.199748  0.841586  1
  O  O92  1  0.908329  0.541112  0.391954  1
  O  O93  1  0.908323  0.458890  0.891948  1
  O  O94  1  0.953062  0.159165  0.408127  1
  O  O95  1  0.953063  0.840834  0.908125  1
