# generated using pymatgen
data_Na5(WO3)14
_symmetry_space_group_name_H-M   'P 1'
_cell_length_a   7.77916589
_cell_length_b   19.83136727
_cell_length_c   5.50293653
_cell_angle_alpha   97.97324052
_cell_angle_beta   90.00003589
_cell_angle_gamma   78.68486662
_symmetry_Int_Tables_number   1
_chemical_formula_structural   Na5(WO3)14
_chemical_formula_sum   'Na5 W14 O42'
_cell_volume   824.07407333
_cell_formula_units_Z   1
loop_
 _symmetry_equiv_pos_site_id
 _symmetry_equiv_pos_as_xyz
  1  'x, y, z'
loop_
 _atom_site_type_symbol
 _atom_site_label
 _atom_site_symmetry_multiplicity
 _atom_site_fract_x
 _atom_site_fract_y
 _atom_site_fract_z
 _atom_site_occupancy
  Na  Na0  1  0.638407  0.715313  0.856078  1
  Na  Na1  1  0.858432  0.286227  0.147854  1
  Na  Na2  1  0.068590  0.859110  0.430751  1
  Na  Na3  1  0.428350  0.141506  0.568973  1
  Na  Na4  1  0.210785  0.571240  0.282703  1
  W  W5  1  0.965346  0.569843  0.784312  1
  W  W6  1  0.893591  0.714449  0.356431  1
  W  W7  1  0.818836  0.858873  0.929128  1
  W  W8  1  0.679723  0.141852  0.069566  1
  W  W9  1  0.605958  0.286292  0.642119  1
  W  W10  1  0.537482  0.427902  0.212787  1
  W  W11  1  0.750809  0.000299  0.499582  1
  W  W12  1  0.393280  0.714132  0.355297  1
  W  W13  1  0.467692  0.569358  0.783571  1
  W  W14  1  0.321078  0.858769  0.927010  1
  W  W15  1  0.250744  0.000233  0.497683  1
  W  W16  1  0.108383  0.286643  0.642521  1
  W  W17  1  0.177108  0.142009  0.069300  1
  W  W18  1  0.037678  0.428226  0.213042  1
  O  O19  1  0.856699  0.785370  0.140536  1
  O  O20  1  0.789343  0.928492  0.713687  1
  O  O21  1  0.929038  0.642977  0.570791  1
  O  O22  1  0.857257  0.786130  0.641108  1
  O  O23  1  0.930699  0.642886  0.071169  1
  O  O24  1  0.789566  0.927055  0.218297  1
  O  O25  1  0.857560  0.285718  0.641450  1
  O  O26  1  0.571697  0.856203  0.926098  1
  O  O27  1  0.927525  0.144176  0.069995  1
  O  O28  1  0.787706  0.427501  0.214043  1
  O  O29  1  0.643492  0.714459  0.355288  1
  O  O30  1  0.715359  0.572111  0.786552  1
  O  O31  1  0.710551  0.071942  0.782841  1
  O  O32  1  0.712011  0.071935  0.286898  1
  O  O33  1  0.642025  0.213384  0.852719  1
  O  O34  1  0.576846  0.355808  0.930046  1
  O  O35  1  0.643139  0.214557  0.353943  1
  O  O36  1  0.497524  0.500485  0.496771  1
  O  O37  1  0.575072  0.356362  0.425582  1
  O  O38  1  0.497946  0.500360  0.001573  1
  O  O39  1  0.431505  0.643209  0.572133  1
  O  O40  1  0.428880  0.642297  0.071652  1
  O  O41  1  0.283149  0.927834  0.709059  1
  O  O42  1  0.283392  0.927580  0.214276  1
  O  O43  1  0.357937  0.786139  0.638956  1
  O  O44  1  0.357867  0.784860  0.137575  1
  O  O45  1  0.358122  0.284499  0.641623  1
  O  O46  1  0.428318  0.142626  0.071574  1
  O  O47  1  0.286850  0.429205  0.211577  1
  O  O48  1  0.215709  0.571449  0.784027  1
  O  O49  1  0.071255  0.857152  0.927089  1
  O  O50  1  0.143401  0.714608  0.357818  1
  O  O51  1  0.500083  0.000853  0.498227  1
  O  O52  1  0.003984  0.500982  0.003158  1
  O  O53  1  0.142796  0.213985  0.356853  1
  O  O54  1  0.005231  0.500550  0.497647  1
  O  O55  1  0.142709  0.214613  0.857289  1
  O  O56  1  0.069518  0.356770  0.928364  1
  O  O57  1  0.216702  0.071815  0.285270  1
  O  O58  1  0.070383  0.356138  0.423857  1
  O  O59  1  0.216993  0.072382  0.781011  1
  O  O60  1  0.001213  0.998626  0.497254  1
