# generated using pymatgen
data_Li3FePCO7
_symmetry_space_group_name_H-M   'P 1'
_cell_length_a   5.01522270
_cell_length_b   6.48094960
_cell_length_c   8.61728322
_cell_angle_alpha   89.91064804
_cell_angle_beta   82.95222503
_cell_angle_gamma   90.08692031
_symmetry_Int_Tables_number   1
_chemical_formula_structural   Li3FePCO7
_chemical_formula_sum   'Li6 Fe2 P2 C2 O14'
_cell_volume   277.97398612
_cell_formula_units_Z   2
loop_
 _symmetry_equiv_pos_site_id
 _symmetry_equiv_pos_as_xyz
  1  'x, y, z'
loop_
 _atom_site_type_symbol
 _atom_site_label
 _atom_site_symmetry_multiplicity
 _atom_site_fract_x
 _atom_site_fract_y
 _atom_site_fract_z
 _atom_site_occupancy
  Li  Li0  1  0.056210  0.116446  0.109933  1
  Li  Li1  1  0.410786  0.616625  0.978161  1
  Li  Li2  1  0.491938  0.490269  0.341626  1
  Li  Li3  1  0.492334  0.019662  0.330404  1
  Li  Li4  1  0.974295  0.989004  0.747077  1
  Li  Li5  1  0.972652  0.517626  0.758228  1
  Fe  Fe6  1  0.011589  0.754356  0.375656  1
  Fe  Fe7  1  0.454775  0.254539  0.712066  1
  P  P8  1  0.968897  0.259552  0.448354  1
  P  P9  1  0.497501  0.759569  0.639350  1
  C  C10  1  0.589597  0.213077  0.004231  1
  C  C11  1  0.877759  0.713073  0.083202  1
  O  O12  1  0.119255  0.779742  0.101356  1
  O  O13  1  0.704163  0.698845  0.209058  1
  O  O14  1  0.656206  0.166255  0.139047  1
  O  O15  1  0.071371  0.067054  0.349153  1
  O  O16  1  0.089840  0.446839  0.352774  1
  O  O17  1  0.403811  0.756997  0.475035  1
  O  O18  1  0.653639  0.262870  0.469124  1
  O  O19  1  0.812778  0.762670  0.618365  1
  O  O20  1  0.062602  0.255970  0.612408  1
  O  O21  1  0.393775  0.566696  0.738433  1
  O  O22  1  0.377793  0.946342  0.734909  1
  O  O23  1  0.811240  0.667360  0.948856  1
  O  O24  1  0.763297  0.200122  0.878771  1
  O  O25  1  0.348236  0.279081  0.986517  1
