# generated using pymatgen
data_Li6V3P8O29
_symmetry_space_group_name_H-M   'P 1'
_cell_length_a   9.80396364
_cell_length_b   9.82868408
_cell_length_c   13.89981708
_cell_angle_alpha   89.73856253
_cell_angle_beta   89.71375496
_cell_angle_gamma   60.15153509
_symmetry_Int_Tables_number   1
_chemical_formula_structural   Li6V3P8O29
_chemical_formula_sum   'Li12 V6 P16 O58'
_cell_volume   1161.69267533
_cell_formula_units_Z   2
loop_
 _symmetry_equiv_pos_site_id
 _symmetry_equiv_pos_as_xyz
  1  'x, y, z'
loop_
 _atom_site_type_symbol
 _atom_site_label
 _atom_site_symmetry_multiplicity
 _atom_site_fract_x
 _atom_site_fract_y
 _atom_site_fract_z
 _atom_site_occupancy
  Li  Li0  1  0.904817  0.767166  0.059075  1
  Li  Li1  1  0.771842  0.911929  0.561727  1
  Li  Li2  1  0.904940  0.321975  0.559475  1
  Li  Li3  1  0.665885  0.666288  0.882720  1
  Li  Li4  1  0.767810  0.326097  0.059942  1
  Li  Li5  1  0.327359  0.905148  0.059001  1
  Li  Li6  1  0.323591  0.771383  0.561200  1
  Li  Li7  1  0.339128  0.331866  0.616927  1
  Li  Li8  1  0.336573  0.332499  0.113678  1
  Li  Li9  1  0.088718  0.685163  0.439807  1
  Li  Li10  1  0.225341  0.091043  0.440012  1
  Li  Li11  1  0.997794  0.001491  0.991184  1
  V  V12  1  0.566984  0.431893  0.252812  1
  V  V13  1  0.434406  0.563015  0.752991  1
  V  V14  1  0.566050  0.002663  0.753334  1
  V  V15  1  0.433883  0.998102  0.250725  1
  V  V16  1  0.997536  0.568458  0.250652  1
  V  V17  1  0.001308  0.432522  0.753465  1
  P  P18  1  0.909806  0.774381  0.843867  1
  P  P19  1  0.767862  0.915280  0.343944  1
  P  P20  1  0.913300  0.316320  0.343064  1
  P  P21  1  0.664364  0.666586  0.125945  1
  P  P22  1  0.667112  0.667868  0.627546  1
  P  P23  1  0.773826  0.314316  0.844775  1
  P  P24  1  0.684258  0.229458  0.657294  1
  P  P25  1  0.315739  0.908811  0.843812  1
  P  P26  1  0.689029  0.087021  0.156664  1
  P  P27  1  0.319868  0.766459  0.343165  1
  P  P28  1  0.226227  0.686775  0.157759  1
  P  P29  1  0.330692  0.334994  0.373368  1
  P  P30  1  0.332753  0.332686  0.873265  1
  P  P31  1  0.089800  0.680248  0.657713  1
  P  P32  1  0.230138  0.089647  0.657925  1
  P  P33  1  0.088804  0.225332  0.157499  1
  O  O34  1  0.996148  0.758159  0.568618  1
  O  O35  1  0.915145  0.748411  0.339211  1
  O  O36  1  0.787291  0.990645  0.073766  1
  O  O37  1  0.744764  0.917245  0.838072  1
  O  O38  1  0.893044  0.625324  0.830717  1
  O  O39  1  0.810825  0.672983  0.163927  1
  O  O40  1  0.908513  0.475086  0.320663  1
  O  O41  1  0.996379  0.219483  0.074093  1
  O  O42  1  0.917199  0.337391  0.837712  1
  O  O43  1  0.662094  0.819542  0.670166  1
  O  O44  1  0.616784  0.905117  0.319894  1
  O  O45  1  0.818862  0.520936  0.670036  1
  O  O46  1  0.665529  0.663069  0.017443  1
  O  O47  1  0.667796  0.668796  0.520409  1
  O  O48  1  0.668438  0.513831  0.166211  1
  O  O49  1  0.481316  0.893392  0.830537  1
  O  O50  1  0.510884  0.812482  0.163559  1
  O  O51  1  0.748483  0.340626  0.340003  1
  O  O52  1  0.782668  0.209003  0.754919  1
  O  O53  1  0.770103  0.242028  0.572833  1
  O  O54  1  0.774730  0.232630  0.936290  1
  O  O55  1  0.625128  0.480618  0.831316  1
  O  O56  1  0.519655  0.662572  0.669716  1
  O  O57  1  0.667030  0.253598  0.156933  1
  O  O58  1  0.481429  0.622372  0.324340  1
  O  O59  1  0.331056  0.918386  0.341275  1
  O  O60  1  0.787402  0.007058  0.254540  1
  O  O61  1  0.754474  0.994222  0.436493  1
  O  O62  1  0.245910  0.996181  0.568623  1
  O  O63  1  0.665787  0.082100  0.657048  1
  O  O64  1  0.516343  0.374482  0.671386  1
  O  O65  1  0.338307  0.743525  0.837429  1
  O  O66  1  0.477647  0.335855  0.326560  1
  O  O67  1  0.374546  0.522885  0.167243  1
  O  O68  1  0.219049  0.786291  0.074117  1
  O  O69  1  0.244448  0.753791  0.434888  1
  O  O70  1  0.205599  0.785553  0.254987  1
  O  O71  1  0.253469  0.666142  0.656068  1
  O  O72  1  0.477392  0.182820  0.829500  1
  O  O73  1  0.523424  0.104216  0.168888  1
  O  O74  1  0.339665  0.476546  0.829176  1
  O  O75  1  0.332697  0.332477  0.980282  1
  O  O76  1  0.330965  0.336124  0.481266  1
  O  O77  1  0.183327  0.488962  0.335331  1
  O  O78  1  0.374944  0.111304  0.671760  1
  O  O79  1  0.327249  0.186557  0.335334  1
  O  O80  1  0.081448  0.660627  0.159649  1
  O  O81  1  0.002805  0.785473  0.750380  1
  O  O82  1  0.993586  0.773972  0.933762  1
  O  O83  1  0.111710  0.514162  0.672230  1
  O  O84  1  0.182503  0.338903  0.829508  1
  O  O85  1  0.106798  0.372153  0.168659  1
  O  O86  1  0.258887  0.080565  0.159587  1
  O  O87  1  0.231412  0.992215  0.933974  1
  O  O88  1  0.212001  0.002022  0.750688  1
  O  O89  1  0.080833  0.252744  0.656409  1
  O  O90  1  0.003488  0.246302  0.434232  1
  O  O91  1  0.009938  0.203807  0.254754  1
