# generated using pymatgen
data_FeOF
_symmetry_space_group_name_H-M   'P 1'
_cell_length_a   9.46212200
_cell_length_b   9.45679095
_cell_length_c   6.25934936
_cell_angle_alpha   89.98124581
_cell_angle_beta   89.78025989
_cell_angle_gamma   90.38816099
_symmetry_Int_Tables_number   1
_chemical_formula_structural   FeOF
_chemical_formula_sum   'Fe16 O16 F16'
_cell_volume   560.07777128
_cell_formula_units_Z   16
loop_
 _symmetry_equiv_pos_site_id
 _symmetry_equiv_pos_as_xyz
  1  'x, y, z'
loop_
 _atom_site_type_symbol
 _atom_site_label
 _atom_site_symmetry_multiplicity
 _atom_site_fract_x
 _atom_site_fract_y
 _atom_site_fract_z
 _atom_site_occupancy
  Fe  Fe0  1  0.991509  0.991602  0.019623  1
  Fe  Fe1  1  0.008501  0.008371  0.482855  1
  Fe  Fe2  1  0.999198  0.500661  0.018911  1
  Fe  Fe3  1  0.000379  0.499686  0.481751  1
  Fe  Fe4  1  0.239957  0.258127  0.269789  1
  Fe  Fe5  1  0.260043  0.241872  0.730210  1
  Fe  Fe6  1  0.239685  0.758884  0.225342  1
  Fe  Fe7  1  0.260316  0.741117  0.774657  1
  Fe  Fe8  1  0.508489  0.508396  0.980384  1
  Fe  Fe9  1  0.491489  0.491622  0.517152  1
  Fe  Fe10  1  0.500802  0.999340  0.981087  1
  Fe  Fe11  1  0.499621  0.000315  0.518246  1
  Fe  Fe12  1  0.760432  0.241118  0.225393  1
  Fe  Fe13  1  0.739569  0.258882  0.774608  1
  Fe  Fe14  1  0.759600  0.741896  0.231794  1
  Fe  Fe15  1  0.740401  0.758104  0.768206  1
  O  O16  1  0.096447  0.402862  0.253387  1
  O  O17  1  0.096559  0.903065  0.251856  1
  O  O18  1  0.153033  0.152568  0.504023  1
  O  O19  1  0.149562  0.650546  0.996970  1
  O  O20  1  0.346967  0.347432  0.495976  1
  O  O21  1  0.350439  0.849455  0.003030  1
  O  O22  1  0.403441  0.596936  0.748144  1
  O  O23  1  0.403554  0.097138  0.746613  1
  O  O24  1  0.596114  0.402622  0.747437  1
  O  O25  1  0.597201  0.902339  0.740117  1
  O  O26  1  0.650469  0.149778  0.003686  1
  O  O27  1  0.653042  0.652815  0.003642  1
  O  O28  1  0.849532  0.350223  0.996312  1
  O  O29  1  0.846958  0.847184  0.996357  1
  O  O30  1  0.903886  0.097379  0.252563  1
  O  O31  1  0.902799  0.597662  0.259882  1
  F  F32  1  0.096885  0.403818  0.744984  1
  F  F33  1  0.097202  0.903280  0.746759  1
  F  F34  1  0.153375  0.153929  0.996515  1
  F  F35  1  0.154395  0.654675  0.503702  1
  F  F36  1  0.346626  0.346072  0.003485  1
  F  F37  1  0.345605  0.845326  0.496297  1
  F  F38  1  0.403116  0.096182  0.255016  1
  F  F39  1  0.402799  0.596720  0.253240  1
  F  F40  1  0.597316  0.403539  0.253687  1
  F  F41  1  0.597790  0.903014  0.261467  1
  F  F42  1  0.654160  0.154840  0.496042  1
  F  F43  1  0.652962  0.653504  0.496712  1
  F  F44  1  0.845841  0.345161  0.503957  1
  F  F45  1  0.847038  0.846497  0.503287  1
  F  F46  1  0.902685  0.096462  0.746312  1
  F  F47  1  0.902210  0.596986  0.738532  1
