# generated using pymatgen
data_Mg2Cu2P2(H4O5)3
_symmetry_space_group_name_H-M   'P 1'
_cell_length_a   11.60615785
_cell_length_b   11.60615785
_cell_length_c   10.63745061
_cell_angle_alpha   79.95251850
_cell_angle_beta   100.04748150
_cell_angle_gamma   154.93697139
_symmetry_Int_Tables_number   1
_chemical_formula_structural   Mg2Cu2P2(H4O5)3
_chemical_formula_sum   'Mg4 Cu4 P4 H24 O30'
_cell_volume   597.22313121
_cell_formula_units_Z   2
loop_
 _symmetry_equiv_pos_site_id
 _symmetry_equiv_pos_as_xyz
  1  'x, y, z'
loop_
 _atom_site_type_symbol
 _atom_site_label
 _atom_site_symmetry_multiplicity
 _atom_site_fract_x
 _atom_site_fract_y
 _atom_site_fract_z
 _atom_site_occupancy
  Mg  Mg0  1  0.953442  0.713076  0.964083  1
  Mg  Mg1  1  0.713076  0.953442  0.535917  1
  Mg  Mg2  1  0.046558  0.286924  0.035917  1
  Mg  Mg3  1  0.286924  0.046558  0.464083  1
  Cu  Cu4  1  0.096460  0.605740  0.866607  1
  Cu  Cu5  1  0.605740  0.096460  0.633393  1
  Cu  Cu6  1  0.903540  0.394260  0.133393  1
  Cu  Cu7  1  0.394260  0.903540  0.366607  1
  P  P8  1  0.176448  0.484235  0.728042  1
  P  P9  1  0.484235  0.176448  0.771958  1
  P  P10  1  0.823552  0.515765  0.271958  1
  P  P11  1  0.515765  0.823552  0.228042  1
  H  H12  1  0.329528  0.870283  0.070147  1
  H  H13  1  0.870283  0.329528  0.429853  1
  H  H14  1  0.670472  0.129717  0.929853  1
  H  H15  1  0.129717  0.670472  0.570147  1
  H  H16  1  0.391061  0.191511  0.093658  1
  H  H17  1  0.191511  0.391061  0.406342  1
  H  H18  1  0.608939  0.808489  0.906342  1
  H  H19  1  0.808489  0.608939  0.593658  1
  H  H20  1  0.111257  0.942631  0.158336  1
  H  H21  1  0.942631  0.111257  0.341664  1
  H  H22  1  0.888743  0.057369  0.841664  1
  H  H23  1  0.057369  0.888743  0.658336  1
  H  H24  1  0.556088  0.517063  0.855213  1
  H  H25  1  0.517063  0.556088  0.644787  1
  H  H26  1  0.443912  0.482937  0.144787  1
  H  H27  1  0.482937  0.443912  0.355213  1
  H  H28  1  0.767836  0.770855  0.935515  1
  H  H29  1  0.770855  0.767836  0.564485  1
  H  H30  1  0.232164  0.229145  0.064485  1
  H  H31  1  0.229145  0.232164  0.435515  1
  H  H32  1  0.146706  0.220428  0.726616  1
  H  H33  1  0.220428  0.146706  0.773384  1
  H  H34  1  0.853294  0.779572  0.273384  1
  H  H35  1  0.779572  0.853294  0.226616  1
  O  O36  1  0.273016  0.540534  0.869592  1
  O  O37  1  0.540534  0.273016  0.630408  1
  O  O38  1  0.726984  0.459466  0.130408  1
  O  O39  1  0.459466  0.726984  0.369592  1
  O  O40  1  0.988040  0.429864  0.715972  1
  O  O41  1  0.429864  0.988040  0.784028  1
  O  O42  1  0.011960  0.570136  0.284028  1
  O  O43  1  0.570136  0.011960  0.215972  1
  O  O44  1  0.001063  0.226184  0.687277  1
  O  O45  1  0.226184  0.001063  0.812723  1
  O  O46  1  0.998937  0.773816  0.312723  1
  O  O47  1  0.773816  0.998937  0.187277  1
  O  O48  1  0.415739  0.733417  0.641439  1
  O  O49  1  0.733417  0.415739  0.858561  1
  O  O50  1  0.584261  0.266583  0.358561  1
  O  O51  1  0.266583  0.584261  0.141439  1
  O  O52  1  0.154447  0.729348  0.022385  1
  O  O53  1  0.729348  0.154447  0.477615  1
  O  O54  1  0.845553  0.270652  0.977615  1
  O  O55  1  0.270652  0.845553  0.522385  1
  O  O56  1  0.194182  0.034980  0.073436  1
  O  O57  1  0.034980  0.194182  0.426564  1
  O  O58  1  0.805818  0.965020  0.926564  1
  O  O59  1  0.965020  0.805818  0.573436  1
  O  O60  1  0.727051  0.658137  0.909125  1
  O  O61  1  0.658137  0.727051  0.590875  1
  O  O62  1  0.272949  0.341863  0.090875  1
  O  O63  1  0.341863  0.272949  0.409125  1
  O  O64  1  0.292668  0.292668  0.750000  1
  O  O65  1  0.707332  0.707332  0.250000  1
