# generated using pymatgen
data_Ti7O8
_symmetry_space_group_name_H-M   'P 1'
_cell_length_a   8.96204086
_cell_length_b   5.20512438
_cell_length_c   4.09499434
_cell_angle_alpha   113.24398467
_cell_angle_beta   90.05468727
_cell_angle_gamma   107.59692332
_symmetry_Int_Tables_number   1
_chemical_formula_structural   Ti7O8
_chemical_formula_sum   'Ti7 O8'
_cell_volume   165.72253642
_cell_formula_units_Z   1
loop_
 _symmetry_equiv_pos_site_id
 _symmetry_equiv_pos_as_xyz
  1  'x, y, z'
loop_
 _atom_site_type_symbol
 _atom_site_label
 _atom_site_symmetry_multiplicity
 _atom_site_fract_x
 _atom_site_fract_y
 _atom_site_fract_z
 _atom_site_occupancy
  Ti  Ti0  1  0.112703  0.648066  0.321359  1
  Ti  Ti1  1  0.456014  0.702648  0.354702  1
  Ti  Ti2  1  0.336437  0.968618  0.982568  1
  Ti  Ti3  1  0.774585  0.674272  0.335396  1
  Ti  Ti4  1  0.195834  0.331693  0.666671  1
  Ti  Ti5  1  0.900448  0.317598  0.654750  1
  Ti  Ti6  1  0.567911  0.297504  0.650039  1
  O  O7  1  0.235969  0.335305  0.168033  1
  O  O8  1  0.887183  0.374258  0.182677  1
  O  O9  1  0.551553  0.343150  0.173450  1
  O  O10  1  0.437631  0.628877  0.817233  1
  O  O11  1  0.102670  0.686554  0.839553  1
  O  O12  1  0.677494  0.997328  0.496552  1
  O  O13  1  0.991211  0.982186  0.488998  1
  O  O14  1  0.322819  0.013785  0.505450  1
