# generated using pymatgen
data_Li3CuS2
_symmetry_space_group_name_H-M   'P 1'
_cell_length_a   7.10663966
_cell_length_b   7.97154292
_cell_length_c   7.44150657
_cell_angle_alpha   90.00000000
_cell_angle_beta   74.26703609
_cell_angle_gamma   90.00000000
_symmetry_Int_Tables_number   1
_chemical_formula_structural   Li3CuS2
_chemical_formula_sum   'Li12 Cu4 S8'
_cell_volume   405.77425709
_cell_formula_units_Z   4
loop_
 _symmetry_equiv_pos_site_id
 _symmetry_equiv_pos_as_xyz
  1  'x, y, z'
loop_
 _atom_site_type_symbol
 _atom_site_label
 _atom_site_symmetry_multiplicity
 _atom_site_fract_x
 _atom_site_fract_y
 _atom_site_fract_z
 _atom_site_occupancy
  Li  Li0  1  0.108587  0.729469  0.159269  1
  Li  Li1  1  0.141272  0.998351  0.611569  1
  Li  Li2  1  0.246858  0.551398  0.544935  1
  Li  Li3  1  0.391413  0.229469  0.340731  1
  Li  Li4  1  0.641272  0.501649  0.111569  1
  Li  Li5  1  0.253142  0.051398  0.955065  1
  Li  Li6  1  0.746858  0.948602  0.044935  1
  Li  Li7  1  0.358728  0.498351  0.888431  1
  Li  Li8  1  0.608587  0.770531  0.659269  1
  Li  Li9  1  0.753142  0.448602  0.455065  1
  Li  Li10  1  0.858728  0.001649  0.388431  1
  Li  Li11  1  0.891413  0.270531  0.840731  1
  Cu  Cu12  1  0.046317  0.331314  0.191688  1
  Cu  Cu13  1  0.453683  0.831314  0.308312  1
  Cu  Cu14  1  0.546317  0.168686  0.691688  1
  Cu  Cu15  1  0.953683  0.668686  0.808312  1
  S  S16  1  0.281496  0.487699  0.225280  1
  S  S17  1  0.218504  0.987699  0.274720  1
  S  S18  1  0.235109  0.774629  0.801384  1
  S  S19  1  0.264891  0.274629  0.698616  1
  S  S20  1  0.735109  0.725371  0.301384  1
  S  S21  1  0.764891  0.225371  0.198616  1
  S  S22  1  0.781496  0.012301  0.725280  1
  S  S23  1  0.718504  0.512301  0.774720  1
