# generated using pymatgen
data_BaSrI4
_symmetry_space_group_name_H-M   'P 1'
_cell_length_a   6.08189407
_cell_length_b   20.97855175
_cell_length_c   10.09807399
_cell_angle_alpha   90.00000000
_cell_angle_beta   89.98272130
_cell_angle_gamma   90.00000000
_symmetry_Int_Tables_number   1
_chemical_formula_structural   BaSrI4
_chemical_formula_sum   'Ba4 Sr4 I16'
_cell_volume   1288.40643082
_cell_formula_units_Z   4
loop_
 _symmetry_equiv_pos_site_id
 _symmetry_equiv_pos_as_xyz
  1  'x, y, z'
loop_
 _atom_site_type_symbol
 _atom_site_label
 _atom_site_symmetry_multiplicity
 _atom_site_fract_x
 _atom_site_fract_y
 _atom_site_fract_z
 _atom_site_occupancy
  Ba  Ba0  1  0.185335  0.865443  0.755043  1
  Ba  Ba1  1  0.185335  0.634557  0.255043  1
  Ba  Ba2  1  0.814665  0.365443  0.744957  1
  Ba  Ba3  1  0.814665  0.134557  0.244957  1
  Sr  Sr4  1  0.294924  0.153638  0.755493  1
  Sr  Sr5  1  0.294924  0.346362  0.255493  1
  Sr  Sr6  1  0.705076  0.653638  0.744507  1
  Sr  Sr7  1  0.705076  0.846362  0.244507  1
  I  I8  1  0.204607  0.697903  0.781711  1
  I  I9  1  0.308274  0.397560  0.559911  1
  I  I10  1  0.300694  0.305283  0.917208  1
  I  I11  1  0.204607  0.802097  0.281711  1
  I  I12  1  0.254794  0.012737  0.648481  1
  I  I13  1  0.308274  0.102440  0.059911  1
  I  I14  1  0.300694  0.194717  0.417208  1
  I  I15  1  0.254794  0.487263  0.148481  1
  I  I16  1  0.745206  0.512737  0.851519  1
  I  I17  1  0.699306  0.805283  0.582792  1
  I  I18  1  0.691726  0.897560  0.940089  1
  I  I19  1  0.745206  0.987263  0.351519  1
  I  I20  1  0.795393  0.197903  0.718289  1
  I  I21  1  0.699306  0.694717  0.082792  1
  I  I22  1  0.691726  0.602440  0.440089  1
  I  I23  1  0.795393  0.302097  0.218289  1
