# generated using pymatgen
data_KCo2As2HO8
_symmetry_space_group_name_H-M   'P 1'
_cell_length_a   8.89893677
_cell_length_b   5.08287789
_cell_length_c   16.07942714
_cell_angle_alpha   89.91958891
_cell_angle_beta   96.73462634
_cell_angle_gamma   89.98344577
_symmetry_Int_Tables_number   1
_chemical_formula_structural   KCo2As2HO8
_chemical_formula_sum   'K4 Co8 As8 H4 O32'
_cell_volume   722.28876637
_cell_formula_units_Z   4
loop_
 _symmetry_equiv_pos_site_id
 _symmetry_equiv_pos_as_xyz
  1  'x, y, z'
loop_
 _atom_site_type_symbol
 _atom_site_label
 _atom_site_symmetry_multiplicity
 _atom_site_fract_x
 _atom_site_fract_y
 _atom_site_fract_z
 _atom_site_occupancy
  K  K0  1  0.500604  0.868945  0.750740  1
  K  K1  1  0.499393  0.129834  0.249129  1
  K  K2  1  0.999317  0.838787  0.249790  1
  K  K3  1  0.999901  0.160224  0.749482  1
  Co  Co4  1  0.415136  0.761470  0.495244  1
  Co  Co5  1  0.585224  0.760213  0.005263  1
  Co  Co6  1  0.584969  0.239299  0.505054  1
  Co  Co7  1  0.414910  0.239840  0.994843  1
  Co  Co8  1  0.917466  0.758718  0.001161  1
  Co  Co9  1  0.082404  0.760409  0.498767  1
  Co  Co10  1  0.082545  0.240499  0.998494  1
  Co  Co11  1  0.917595  0.240548  0.501208  1
  As  As12  1  0.273012  0.725076  0.104691  1
  As  As13  1  0.726763  0.725542  0.395099  1
  As  As14  1  0.726762  0.274839  0.895158  1
  As  As15  1  0.273191  0.274812  0.604985  1
  As  As16  1  0.226570  0.730101  0.889929  1
  As  As17  1  0.773313  0.728567  0.609890  1
  As  As18  1  0.773733  0.269229  0.110338  1
  As  As19  1  0.226820  0.272304  0.389965  1
  H  H20  1  0.263018  0.471740  0.741227  1
  H  H21  1  0.737571  0.470012  0.758547  1
  H  H22  1  0.737051  0.526886  0.259290  1
  H  H23  1  0.262656  0.530195  0.241451  1
  O  O24  1  0.302197  0.705204  0.214080  1
  O  O25  1  0.696733  0.701908  0.285708  1
  O  O26  1  0.697421  0.295417  0.785548  1
  O  O27  1  0.303232  0.296905  0.714471  1
  O  O28  1  0.426243  0.907771  0.079726  1
  O  O29  1  0.573548  0.908342  0.419967  1
  O  O30  1  0.573329  0.092991  0.920070  1
  O  O31  1  0.426348  0.092286  0.580065  1
  O  O32  1  0.106338  0.899816  0.078723  1
  O  O33  1  0.893168  0.901227  0.420481  1
  O  O34  1  0.893104  0.099703  0.920986  1
  O  O35  1  0.106530  0.100137  0.579480  1
  O  O36  1  0.267037  0.401317  0.072304  1
  O  O37  1  0.733108  0.402134  0.428025  1
  O  O38  1  0.732857  0.598627  0.927498  1
  O  O39  1  0.266740  0.598365  0.572243  1
  O  O40  1  0.207840  0.702164  0.783587  1
  O  O41  1  0.793372  0.699535  0.716445  1
  O  O42  1  0.793395  0.295520  0.216418  1
  O  O43  1  0.207790  0.300108  0.283883  1
  O  O44  1  0.229539  0.061109  0.919530  1
  O  O45  1  0.769994  0.059597  0.580196  1
  O  O46  1  0.770134  0.938338  0.080058  1
  O  O47  1  0.229984  0.941338  0.420364  1
  O  O48  1  0.399167  0.588898  0.929200  1
  O  O49  1  0.600642  0.587334  0.571478  1
  O  O50  1  0.601020  0.411713  0.071572  1
  O  O51  1  0.399533  0.413508  0.428935  1
  O  O52  1  0.070843  0.581137  0.926733  1
  O  O53  1  0.928893  0.580829  0.572647  1
  O  O54  1  0.929205  0.418077  0.072921  1
  O  O55  1  0.070792  0.420554  0.426913  1
