# generated using pymatgen
data_Mn2O3F
_symmetry_space_group_name_H-M   'P 1'
_cell_length_a   5.47949462
_cell_length_b   9.62031322
_cell_length_c   5.47934968
_cell_angle_alpha   82.03443524
_cell_angle_beta   66.63750861
_cell_angle_gamma   101.82100989
_symmetry_Int_Tables_number   1
_chemical_formula_structural   Mn2O3F
_chemical_formula_sum   'Mn8 O12 F4'
_cell_volume   251.65097932
_cell_formula_units_Z   4
loop_
 _symmetry_equiv_pos_site_id
 _symmetry_equiv_pos_as_xyz
  1  'x, y, z'
loop_
 _atom_site_type_symbol
 _atom_site_label
 _atom_site_symmetry_multiplicity
 _atom_site_fract_x
 _atom_site_fract_y
 _atom_site_fract_z
 _atom_site_occupancy
  Mn  Mn0  1  0.002608  0.999008  0.996109  1
  Mn  Mn1  1  0.124063  0.250236  0.375084  1
  Mn  Mn2  1  0.382184  0.736357  0.145639  1
  Mn  Mn3  1  0.492579  0.998985  0.505910  1
  Mn  Mn4  1  0.756603  0.500999  0.244386  1
  Mn  Mn5  1  0.245869  0.501880  0.752588  1
  Mn  Mn6  1  0.624047  0.250449  0.875206  1
  Mn  Mn7  1  0.866950  0.764010  0.603532  1
  O  O8  1  0.048100  0.405272  0.140086  1
  O  O9  1  0.232506  0.153598  0.076244  1
  O  O10  1  0.015737  0.347354  0.672736  1
  O  O11  1  0.519987  0.346482  0.170863  1
  O  O12  1  0.265793  0.847045  0.421707  1
  O  O13  1  0.458948  0.595074  0.361517  1
  O  O14  1  0.201228  0.095179  0.608768  1
  O  O15  1  0.790982  0.905565  0.387488  1
  O  O16  1  0.983596  0.652881  0.328244  1
  O  O17  1  0.728053  0.154363  0.579346  1
  O  O18  1  0.480156  0.654404  0.828162  1
  O  O19  1  0.768379  0.846767  0.920071  1
  F  F20  1  0.696121  0.108616  0.090762  1
  F  F21  1  0.551740  0.392690  0.661098  1
  F  F22  1  0.304609  0.888009  0.917285  1
  F  F23  1  0.943149  0.612078  0.832593  1
