# generated using pymatgen
data_Mn4O7F
_symmetry_space_group_name_H-M   'P 1'
_cell_length_a   6.98165400
_cell_length_b   7.17535954
_cell_length_c   6.67405452
_cell_angle_alpha   64.51286662
_cell_angle_beta   65.61782482
_cell_angle_gamma   101.83215638
_symmetry_Int_Tables_number   1
_chemical_formula_structural   Mn4O7F
_chemical_formula_sum   'Mn8 O14 F2'
_cell_volume   243.29511354
_cell_formula_units_Z   2
loop_
 _symmetry_equiv_pos_site_id
 _symmetry_equiv_pos_as_xyz
  1  'x, y, z'
loop_
 _atom_site_type_symbol
 _atom_site_label
 _atom_site_symmetry_multiplicity
 _atom_site_fract_x
 _atom_site_fract_y
 _atom_site_fract_z
 _atom_site_occupancy
  Mn  Mn0  1  0.296077  0.458944  0.254875  1
  Mn  Mn1  1  0.202131  0.058978  0.743200  1
  Mn  Mn2  1  0.195331  0.552178  0.756800  1
  Mn  Mn3  1  0.295780  0.934234  0.258404  1
  Mn  Mn4  1  0.696915  0.051033  0.761839  1
  Mn  Mn5  1  0.800952  0.463819  0.245125  1
  Mn  Mn6  1  0.804184  0.942638  0.241596  1
  Mn  Mn7  1  0.708754  0.562872  0.738161  1
  O  O8  1  0.633408  0.024493  0.079394  1
  O  O9  1  0.126668  0.511575  0.086394  1
  O  O10  1  0.036720  0.149897  0.577476  1
  O  O11  1  0.102273  0.210154  0.921021  1
  O  O12  1  0.463061  0.347968  0.413606  1
  O  O13  1  0.226753  0.617741  0.430869  1
  O  O14  1  0.273296  0.881176  0.578979  1
  O  O15  1  0.768479  0.381666  0.580168  1
  O  O16  1  0.907623  0.798611  0.069131  1
  O  O17  1  0.541054  0.648512  0.574619  1
  O  O18  1  0.598647  0.711834  0.919832  1
  O  O19  1  0.962803  0.853887  0.420606  1
  O  O20  1  0.864196  0.477372  0.922524  1
  O  O21  1  0.365673  0.973132  0.925381  1
  F  F22  1  0.403409  0.282441  0.072402  1
  F  F23  1  0.725811  0.104843  0.427598  1
