# generated using pymatgen
data_LiFePO4
_symmetry_space_group_name_H-M   'P 1'
_cell_length_a   13.70534643
_cell_length_b   5.10857558
_cell_length_c   18.19259237
_cell_angle_alpha   90.00000000
_cell_angle_beta   92.59657172
_cell_angle_gamma   90.00000000
_symmetry_Int_Tables_number   1
_chemical_formula_structural   LiFePO4
_chemical_formula_sum   'Li16 Fe16 P16 O64'
_cell_volume   1272.44289942
_cell_formula_units_Z   16
loop_
 _symmetry_equiv_pos_site_id
 _symmetry_equiv_pos_as_xyz
  1  'x, y, z'
loop_
 _atom_site_type_symbol
 _atom_site_label
 _atom_site_symmetry_multiplicity
 _atom_site_fract_x
 _atom_site_fract_y
 _atom_site_fract_z
 _atom_site_occupancy
  Li  Li0  1  0.137563  0.210352  0.940668  1
  Li  Li1  1  0.169123  0.779309  0.724641  1
  Li  Li2  1  0.274504  0.143110  0.622023  1
  Li  Li3  1  0.272841  0.285912  0.115178  1
  Li  Li4  1  0.227159  0.785912  0.384822  1
  Li  Li5  1  0.225496  0.643110  0.877977  1
  Li  Li6  1  0.330877  0.279309  0.775359  1
  Li  Li7  1  0.362437  0.710352  0.559332  1
  Li  Li8  1  0.637563  0.289648  0.440668  1
  Li  Li9  1  0.669123  0.720691  0.224641  1
  Li  Li10  1  0.774504  0.356890  0.122023  1
  Li  Li11  1  0.772841  0.214088  0.615178  1
  Li  Li12  1  0.727159  0.714088  0.884822  1
  Li  Li13  1  0.725496  0.856890  0.377977  1
  Li  Li14  1  0.830877  0.220691  0.275359  1
  Li  Li15  1  0.862437  0.789648  0.059332  1
  Fe  Fe16  1  0.006837  0.243016  0.122915  1
  Fe  Fe17  1  0.004684  0.749613  0.375511  1
  Fe  Fe18  1  0.108025  0.745403  0.190274  1
  Fe  Fe19  1  0.112759  0.296912  0.449117  1
  Fe  Fe20  1  0.387241  0.796912  0.050883  1
  Fe  Fe21  1  0.391975  0.245403  0.309726  1
  Fe  Fe22  1  0.495316  0.249613  0.124489  1
  Fe  Fe23  1  0.493163  0.743016  0.377085  1
  Fe  Fe24  1  0.506837  0.256984  0.622915  1
  Fe  Fe25  1  0.504684  0.750387  0.875511  1
  Fe  Fe26  1  0.608025  0.754597  0.690274  1
  Fe  Fe27  1  0.612759  0.203088  0.949117  1
  Fe  Fe28  1  0.887241  0.703088  0.550883  1
  Fe  Fe29  1  0.891975  0.254597  0.809726  1
  Fe  Fe30  1  0.995316  0.250387  0.624489  1
  Fe  Fe31  1  0.993163  0.756984  0.877085  1
  P  P32  1  0.113512  0.244159  0.783223  1
  P  P33  1  0.121812  0.799938  0.544298  1
  P  P34  1  0.133120  0.690413  0.034761  1
  P  P35  1  0.141546  0.253463  0.292398  1
  P  P36  1  0.358454  0.753463  0.207602  1
  P  P37  1  0.366880  0.190413  0.465239  1
  P  P38  1  0.378188  0.299938  0.955702  1
  P  P39  1  0.386488  0.744159  0.716777  1
  P  P40  1  0.613512  0.255841  0.283223  1
  P  P41  1  0.621812  0.700062  0.044298  1
  P  P42  1  0.633120  0.809587  0.534761  1
  P  P43  1  0.641546  0.246537  0.792398  1
  P  P44  1  0.858454  0.746537  0.707602  1
  P  P45  1  0.866880  0.309587  0.965239  1
  P  P46  1  0.878188  0.200062  0.455702  1
  P  P47  1  0.886488  0.755841  0.216777  1
  O  O48  1  0.026575  0.409104  0.811111  1
  O  O49  1  0.045582  0.631438  0.583616  1
  O  O50  1  0.059446  0.874531  0.072762  1
  O  O51  1  0.086106  0.090821  0.543605  1
  O  O52  1  0.097385  0.622619  0.953545  1
  O  O53  1  0.092068  0.131275  0.704761  1
  O  O54  1  0.092889  0.145810  0.219139  1
  O  O55  1  0.108840  0.538752  0.308377  1
  O  O56  1  0.112188  0.069701  0.357060  1
  O  O57  1  0.128814  0.002921  0.835377  1
  O  O58  1  0.122722  0.704094  0.461379  1
  O  O59  1  0.138698  0.428108  0.080071  1
  O  O60  1  0.200275  0.437863  0.781315  1
  O  O61  1  0.224306  0.787763  0.580175  1
  O  O62  1  0.233969  0.819427  0.032686  1
  O  O63  1  0.252136  0.243314  0.290580  1
  O  O64  1  0.247864  0.743314  0.209420  1
  O  O65  1  0.266031  0.319427  0.467314  1
  O  O66  1  0.275694  0.287763  0.919825  1
  O  O67  1  0.299725  0.937863  0.718685  1
  O  O68  1  0.361302  0.928108  0.419929  1
  O  O69  1  0.377278  0.204094  0.038621  1
  O  O70  1  0.371186  0.502921  0.664623  1
  O  O71  1  0.387812  0.569701  0.142940  1
  O  O72  1  0.391160  0.038752  0.191623  1
  O  O73  1  0.407932  0.631275  0.795239  1
  O  O74  1  0.407111  0.645810  0.280861  1
  O  O75  1  0.402615  0.122619  0.546455  1
  O  O76  1  0.413894  0.590821  0.956395  1
  O  O77  1  0.440554  0.374531  0.427238  1
  O  O78  1  0.454418  0.131438  0.916384  1
  O  O79  1  0.473425  0.909104  0.688889  1
  O  O80  1  0.526575  0.090896  0.311111  1
  O  O81  1  0.545582  0.868562  0.083616  1
  O  O82  1  0.559446  0.625469  0.572762  1
  O  O83  1  0.586106  0.409179  0.043605  1
  O  O84  1  0.597385  0.877381  0.453545  1
  O  O85  1  0.592889  0.354190  0.719139  1
  O  O86  1  0.592068  0.368725  0.204761  1
  O  O87  1  0.608840  0.961248  0.808377  1
  O  O88  1  0.612188  0.430299  0.857060  1
  O  O89  1  0.628814  0.497079  0.335377  1
  O  O90  1  0.622722  0.795906  0.961379  1
  O  O91  1  0.638698  0.071892  0.580071  1
  O  O92  1  0.700275  0.062137  0.281315  1
  O  O93  1  0.724306  0.712237  0.080175  1
  O  O94  1  0.733969  0.680573  0.532686  1
  O  O95  1  0.752136  0.256686  0.790580  1
  O  O96  1  0.747864  0.756686  0.709420  1
  O  O97  1  0.766031  0.180573  0.967314  1
  O  O98  1  0.775694  0.212237  0.419825  1
  O  O99  1  0.799725  0.562137  0.218685  1
  O  O100  1  0.861302  0.571892  0.919929  1
  O  O101  1  0.877278  0.295906  0.538621  1
  O  O102  1  0.871186  0.997079  0.164623  1
  O  O103  1  0.887812  0.930299  0.642940  1
  O  O104  1  0.891160  0.461248  0.691623  1
  O  O105  1  0.907111  0.854190  0.780861  1
  O  O106  1  0.907932  0.868725  0.295239  1
  O  O107  1  0.902615  0.377381  0.046455  1
  O  O108  1  0.913894  0.909179  0.456395  1
  O  O109  1  0.940554  0.125469  0.927238  1
  O  O110  1  0.954418  0.368562  0.416384  1
  O  O111  1  0.973425  0.590896  0.188889  1
