# generated using pymatgen
data_Mn6O7F5
_symmetry_space_group_name_H-M   'P 1'
_cell_length_a   7.57700434
_cell_length_b   5.63129387
_cell_length_c   5.63129387
_cell_angle_alpha   69.25134709
_cell_angle_beta   69.48024565
_cell_angle_gamma   69.48024565
_symmetry_Int_Tables_number   1
_chemical_formula_structural   Mn6O7F5
_chemical_formula_sum   'Mn6 O7 F5'
_cell_volume   203.28843583
_cell_formula_units_Z   1
loop_
 _symmetry_equiv_pos_site_id
 _symmetry_equiv_pos_as_xyz
  1  'x, y, z'
loop_
 _atom_site_type_symbol
 _atom_site_label
 _atom_site_symmetry_multiplicity
 _atom_site_fract_x
 _atom_site_fract_y
 _atom_site_fract_z
 _atom_site_occupancy
  Mn  Mn0  1  0.844836  0.681190  0.690989  1
  Mn  Mn1  1  0.678777  0.329239  0.338257  1
  Mn  Mn2  1  0.321223  0.661743  0.670761  1
  Mn  Mn3  1  0.155164  0.309011  0.318810  1
  Mn  Mn4  1  0.500000  0.994321  0.005679  1
  Mn  Mn5  1  0.000000  0.024996  0.975004  1
  O  O6  1  0.669261  0.025541  0.646567  1
  O  O7  1  0.330739  0.353433  0.974459  1
  O  O8  1  0.956585  0.226026  0.217603  1
  O  O9  1  0.043415  0.782397  0.773974  1
  O  O10  1  0.331819  0.962735  0.364392  1
  O  O11  1  0.668181  0.635608  0.037265  1
  O  O12  1  0.000000  0.322893  0.677107  1
  F  F13  1  0.301884  0.897542  0.906154  1
  F  F14  1  0.616665  0.573657  0.578309  1
  F  F15  1  0.698116  0.093846  0.102458  1
  F  F16  1  0.383335  0.421691  0.426343  1
  F  F17  1  0.000000  0.704129  0.295871  1
