# generated using pymatgen
data_KBa7Al15Si17O64
_symmetry_space_group_name_H-M   'P 1'
_cell_length_a   8.75933113
_cell_length_b   9.41176448
_cell_length_c   18.81421902
_cell_angle_alpha   89.25185510
_cell_angle_beta   81.93753792
_cell_angle_gamma   83.06992271
_symmetry_Int_Tables_number   1
_chemical_formula_structural   KBa7Al15Si17O64
_chemical_formula_sum   'K1 Ba7 Al15 Si17 O64'
_cell_volume   1524.49590674
_cell_formula_units_Z   1
loop_
 _symmetry_equiv_pos_site_id
 _symmetry_equiv_pos_as_xyz
  1  'x, y, z'
loop_
 _atom_site_type_symbol
 _atom_site_label
 _atom_site_symmetry_multiplicity
 _atom_site_fract_x
 _atom_site_fract_y
 _atom_site_fract_z
 _atom_site_occupancy
  K  K0  1  0.212648  0.069763  0.036209  1
  Ba  Ba1  1  0.209217  0.055288  0.533772  1
  Ba  Ba2  1  0.290103  0.422760  0.217390  1
  Ba  Ba3  1  0.294350  0.420776  0.716949  1
  Ba  Ba4  1  0.725438  0.568101  0.285957  1
  Ba  Ba5  1  0.715957  0.566537  0.782734  1
  Ba  Ba6  1  0.773764  0.924576  0.474185  1
  Ba  Ba7  1  0.768427  0.946047  0.977583  1
  Al  Al8  1  0.034667  0.550516  0.395774  1
  Al  Al9  1  0.532469  0.049057  0.145800  1
  Al  Al10  1  0.465643  0.950093  0.353204  1
  Al  Al11  1  0.395963  0.431200  0.899170  1
  Al  Al12  1  0.473370  0.708347  0.472865  1
  Al  Al13  1  0.603366  0.568189  0.101666  1
  Al  Al14  1  0.530238  0.051033  0.645608  1
  Al  Al15  1  0.463449  0.950424  0.853434  1
  Al  Al16  1  0.607881  0.570068  0.600941  1
  Al  Al17  1  0.967799  0.211034  0.222277  1
  Al  Al18  1  0.890353  0.296718  0.463831  1
  Al  Al19  1  0.903305  0.928998  0.145205  1
  Al  Al20  1  0.969097  0.209816  0.722659  1
  Al  Al21  1  0.893084  0.298256  0.965467  1
  Al  Al22  1  0.897965  0.928480  0.648391  1
  Si  Si23  1  0.100376  0.073618  0.353193  1
  Si  Si24  1  0.108042  0.702245  0.032097  1
  Si  Si25  1  0.037564  0.793003  0.275493  1
  Si  Si26  1  0.100552  0.074683  0.853952  1
  Si  Si27  1  0.036630  0.553764  0.894632  1
  Si  Si28  1  0.103716  0.704501  0.533446  1
  Si  Si29  1  0.037944  0.794271  0.777795  1
  Si  Si30  1  0.400016  0.430075  0.397413  1
  Si  Si31  1  0.398274  0.791666  0.214809  1
  Si  Si32  1  0.525300  0.286914  0.028807  1
  Si  Si33  1  0.397648  0.791815  0.714447  1
  Si  Si34  1  0.604408  0.207159  0.284582  1
  Si  Si35  1  0.527768  0.288848  0.528318  1
  Si  Si36  1  0.470795  0.709870  0.970807  1
  Si  Si37  1  0.602014  0.209425  0.784972  1
  Si  Si38  1  0.967285  0.448509  0.105160  1
  Si  Si39  1  0.967906  0.445953  0.605585  1
  O  O40  1  0.020880  0.372654  0.178581  1
  O  O41  1  0.994172  0.129982  0.429607  1
  O  O42  1  0.096891  0.565192  0.086621  1
  O  O43  1  0.095712  0.189236  0.288342  1
  O  O44  1  0.019381  0.678126  0.463963  1
  O  O45  1  0.021975  0.928550  0.332094  1
  O  O46  1  0.025463  0.368431  0.678045  1
  O  O47  1  0.988178  0.134362  0.927041  1
  O  O48  1  0.092551  0.565851  0.588533  1
  O  O49  1  0.097518  0.187848  0.787746  1
  O  O50  1  0.028074  0.669807  0.960039  1
  O  O51  1  0.021339  0.928399  0.833588  1
  O  O52  1  0.226403  0.463537  0.376663  1
  O  O53  1  0.272610  0.029417  0.374830  1
  O  O54  1  0.218164  0.751322  0.237568  1
  O  O55  1  0.289436  0.729728  0.011250  1
  O  O56  1  0.210682  0.474334  0.872237  1
  O  O57  1  0.272543  0.027053  0.873206  1
  O  O58  1  0.217392  0.749892  0.739353  1
  O  O59  1  0.476190  0.142886  0.070331  1
  O  O60  1  0.280780  0.740073  0.516283  1
  O  O61  1  0.396492  0.924373  0.160215  1
  O  O62  1  0.406200  0.322833  0.467547  1
  O  O63  1  0.511045  0.416720  0.088170  1
  O  O64  1  0.513484  0.177034  0.216867  1
  O  O65  1  0.490108  0.636830  0.182550  1
  O  O66  1  0.499497  0.355607  0.322363  1
  O  O67  1  0.463831  0.149817  0.571396  1
  O  O68  1  0.483252  0.821694  0.284108  1
  O  O69  1  0.486979  0.569535  0.408156  1
  O  O70  1  0.392589  0.925667  0.659465  1
  O  O71  1  0.594033  0.683565  0.028172  1
  O  O72  1  0.399778  0.320856  0.972778  1
  O  O73  1  0.602466  0.074780  0.339837  1
  O  O74  1  0.509651  0.420140  0.586106  1
  O  O75  1  0.512544  0.175667  0.716801  1
  O  O76  1  0.519188  0.865712  0.429960  1
  O  O77  1  0.490592  0.637516  0.682553  1
  O  O78  1  0.501262  0.361160  0.817224  1
  O  O79  1  0.483961  0.822944  0.783262  1
  O  O80  1  0.489742  0.584088  0.909771  1
  O  O81  1  0.615060  0.684997  0.529540  1
  O  O82  1  0.599121  0.075641  0.840837  1
  O  O83  1  0.703988  0.244948  0.489604  1
  O  O84  1  0.516160  0.857122  0.930187  1
  O  O85  1  0.773687  0.261681  0.262349  1
  O  O86  1  0.719299  0.964655  0.119425  1
  O  O87  1  0.791599  0.531203  0.125149  1
  O  O88  1  0.703661  0.253133  0.987460  1
  O  O89  1  0.775439  0.256403  0.762767  1
  O  O90  1  0.716409  0.967531  0.621327  1
  O  O91  1  0.790736  0.521973  0.629715  1
  O  O92  1  0.997374  0.073370  0.161457  1
  O  O93  1  0.984748  0.336283  0.039081  1
  O  O94  1  0.911524  0.812103  0.219453  1
  O  O95  1  0.890103  0.438623  0.404452  1
  O  O96  1  0.007399  0.848508  0.063853  1
  O  O97  1  0.991939  0.649967  0.319367  1
  O  O98  1  0.001368  0.071207  0.660926  1
  O  O99  1  0.985790  0.331607  0.539329  1
  O  O100  1  0.910739  0.809783  0.722501  1
  O  O101  1  0.902284  0.448781  0.907518  1
  O  O102  1  0.006501  0.851997  0.568549  1
  O  O103  1  0.987254  0.652869  0.825350  1
