# generated using pymatgen
data_HRu6C16NO16
_symmetry_space_group_name_H-M   'P 1'
_cell_length_a   16.45099838
_cell_length_b   10.35504902
_cell_length_c   15.48417830
_cell_angle_alpha   90.00000000
_cell_angle_beta   98.45273247
_cell_angle_gamma   90.00000000
_symmetry_Int_Tables_number   1
_chemical_formula_structural   HRu6C16NO16
_chemical_formula_sum   'H4 Ru24 C64 N4 O64'
_cell_volume   2609.09104625
_cell_formula_units_Z   4
loop_
 _symmetry_equiv_pos_site_id
 _symmetry_equiv_pos_as_xyz
  1  'x, y, z'
loop_
 _atom_site_type_symbol
 _atom_site_label
 _atom_site_symmetry_multiplicity
 _atom_site_fract_x
 _atom_site_fract_y
 _atom_site_fract_z
 _atom_site_occupancy
  H  H0  1  0.359608  0.699139  0.221285  1
  H  H1  1  0.859608  0.800861  0.721285  1
  H  H2  1  0.640392  0.300861  0.778715  1
  H  H3  1  0.140392  0.199139  0.278715  1
  Ru  Ru4  1  0.425695  0.699024  0.136844  1
  Ru  Ru5  1  0.925695  0.800976  0.636844  1
  Ru  Ru6  1  0.574305  0.300976  0.863156  1
  Ru  Ru7  1  0.074305  0.199024  0.363156  1
  Ru  Ru8  1  0.494151  0.526610  0.286104  1
  Ru  Ru9  1  0.994151  0.973390  0.786104  1
  Ru  Ru10  1  0.505849  0.473390  0.713896  1
  Ru  Ru11  1  0.005849  0.026610  0.213896  1
  Ru  Ru12  1  0.411780  0.771073  0.321084  1
  Ru  Ru13  1  0.911780  0.728927  0.821084  1
  Ru  Ru14  1  0.588220  0.228927  0.678916  1
  Ru  Ru15  1  0.088220  0.271073  0.178916  1
  Ru  Ru16  1  0.610241  0.669502  0.189200  1
  Ru  Ru17  1  0.110241  0.830498  0.689200  1
  Ru  Ru18  1  0.389759  0.330498  0.810800  1
  Ru  Ru19  1  0.889759  0.169502  0.310800  1
  Ru  Ru20  1  0.520978  0.911387  0.220661  1
  Ru  Ru21  1  0.020978  0.588613  0.720661  1
  Ru  Ru22  1  0.479022  0.088613  0.779339  1
  Ru  Ru23  1  0.979022  0.411387  0.279339  1
  Ru  Ru24  1  0.594501  0.728131  0.364368  1
  Ru  Ru25  1  0.094501  0.771869  0.864368  1
  Ru  Ru26  1  0.405499  0.271869  0.635632  1
  Ru  Ru27  1  0.905499  0.228131  0.135632  1
  C  C28  1  0.510462  0.717689  0.251226  1
  C  C29  1  0.010462  0.782311  0.751226  1
  C  C30  1  0.489538  0.282311  0.748774  1
  C  C31  1  0.989538  0.217689  0.248774  1
  C  C32  1  0.343154  0.808385  0.069886  1
  C  C33  1  0.843154  0.691615  0.569886  1
  C  C34  1  0.656846  0.191615  0.930114  1
  C  C35  1  0.156846  0.308385  0.430114  1
  C  C36  1  0.485621  0.684250  0.038432  1
  C  C37  1  0.985621  0.815750  0.538432  1
  C  C38  1  0.514379  0.315750  0.961568  1
  C  C39  1  0.014379  0.184250  0.461568  1
  C  C40  1  0.372661  0.534231  0.113184  1
  C  C41  1  0.872661  0.965769  0.613184  1
  C  C42  1  0.627339  0.465769  0.886816  1
  C  C43  1  0.127339  0.034231  0.386816  1
  C  C44  1  0.543031  0.375727  0.249789  1
  C  C45  1  0.043031  0.124273  0.749789  1
  C  C46  1  0.456969  0.624273  0.750211  1
  C  C47  1  0.956969  0.875727  0.250211  1
  C  C48  1  0.412548  0.419693  0.324033  1
  C  C49  1  0.912548  0.080307  0.824033  1
  C  C50  1  0.587452  0.580307  0.675967  1
  C  C51  1  0.087452  0.919693  0.175967  1
  C  C52  1  0.569946  0.539373  0.402620  1
  C  C53  1  0.069946  0.960627  0.902620  1
  C  C54  1  0.430054  0.460627  0.597380  1
  C  C55  1  0.930054  0.039373  0.097380  1
  C  C56  1  0.342795  0.922241  0.309309  1
  C  C57  1  0.842795  0.577759  0.809309  1
  C  C58  1  0.657205  0.077759  0.690691  1
  C  C59  1  0.157205  0.422241  0.190691  1
  C  C60  1  0.457870  0.817738  0.439135  1
  C  C61  1  0.957870  0.682262  0.939135  1
  C  C62  1  0.542130  0.182262  0.560865  1
  C  C63  1  0.042130  0.317738  0.060865  1
  C  C64  1  0.329867  0.665261  0.364535  1
  C  C65  1  0.829867  0.834739  0.864535  1
  C  C66  1  0.670133  0.334739  0.635465  1
  C  C67  1  0.170133  0.165261  0.135465  1
  C  C68  1  0.686820  0.758527  0.131158  1
  C  C69  1  0.186820  0.741473  0.631158  1
  C  C70  1  0.313180  0.241473  0.868842  1
  C  C71  1  0.813180  0.258527  0.368842  1
  C  C72  1  0.649219  0.517077  0.142717  1
  C  C73  1  0.149219  0.982923  0.642717  1
  C  C74  1  0.350781  0.482923  0.857283  1
  C  C75  1  0.850781  0.017077  0.357283  1
  C  C76  1  0.690897  0.663334  0.303250  1
  C  C77  1  0.190897  0.836666  0.803250  1
  C  C78  1  0.309103  0.336666  0.696750  1
  C  C79  1  0.809103  0.163334  0.196750  1
  C  C80  1  0.565771  0.963089  0.120024  1
  C  C81  1  0.065771  0.536911  0.620024  1
  C  C82  1  0.434229  0.036911  0.879976  1
  C  C83  1  0.934229  0.463089  0.379976  1
  C  C84  1  0.444629  0.050638  0.198250  1
  C  C85  1  0.944629  0.449362  0.698250  1
  C  C86  1  0.555371  0.949362  0.801750  1
  C  C87  1  0.055371  0.550638  0.301750  1
  C  C88  1  0.597828  0.002151  0.304453  1
  C  C89  1  0.097828  0.497849  0.804453  1
  C  C90  1  0.402172  0.997849  0.695547  1
  C  C91  1  0.902172  0.502151  0.195547  1
  N  N92  1  0.649810  0.801402  0.459959  1
  N  N93  1  0.149810  0.698598  0.959959  1
  N  N94  1  0.350190  0.198598  0.540041  1
  N  N95  1  0.850190  0.301402  0.040041  1
  O  O96  1  0.292590  0.872450  0.032070  1
  O  O97  1  0.792590  0.627550  0.532070  1
  O  O98  1  0.707410  0.127550  0.967930  1
  O  O99  1  0.207410  0.372450  0.467930  1
  O  O100  1  0.507898  0.674356  0.970679  1
  O  O101  1  0.007898  0.825644  0.470679  1
  O  O102  1  0.492102  0.325644  0.029321  1
  O  O103  1  0.992102  0.174356  0.529321  1
  O  O104  1  0.336352  0.441022  0.091351  1
  O  O105  1  0.836352  0.058978  0.591351  1
  O  O106  1  0.663648  0.558978  0.908649  1
  O  O107  1  0.163648  0.941022  0.408649  1
  O  O108  1  0.572664  0.280207  0.230021  1
  O  O109  1  0.072664  0.219793  0.730021  1
  O  O110  1  0.427336  0.719793  0.769979  1
  O  O111  1  0.927336  0.780207  0.269979  1
  O  O112  1  0.362940  0.351918  0.345512  1
  O  O113  1  0.862940  0.148082  0.845512  1
  O  O114  1  0.637060  0.648082  0.654488  1
  O  O115  1  0.137060  0.851918  0.154488  1
  O  O116  1  0.591439  0.475480  0.465140  1
  O  O117  1  0.091439  0.024520  0.965140  1
  O  O118  1  0.408561  0.524520  0.534860  1
  O  O119  1  0.908561  0.975480  0.034860  1
  O  O120  1  0.298797  0.009998  0.304486  1
  O  O121  1  0.798797  0.490002  0.804486  1
  O  O122  1  0.701203  0.990002  0.695514  1
  O  O123  1  0.201203  0.509998  0.195514  1
  O  O124  1  0.471813  0.849118  0.512033  1
  O  O125  1  0.971813  0.650882  0.012033  1
  O  O126  1  0.528187  0.150882  0.487967  1
  O  O127  1  0.028187  0.349118  0.987967  1
  O  O128  1  0.276869  0.609045  0.388506  1
  O  O129  1  0.776869  0.890955  0.888506  1
  O  O130  1  0.723131  0.390955  0.611494  1
  O  O131  1  0.223131  0.109045  0.111494  1
  O  O132  1  0.736392  0.811866  0.098596  1
  O  O133  1  0.236392  0.688134  0.598596  1
  O  O134  1  0.263608  0.188134  0.901404  1
  O  O135  1  0.763608  0.311866  0.401404  1
  O  O136  1  0.675354  0.425988  0.112341  1
  O  O137  1  0.175354  0.074012  0.612341  1
  O  O138  1  0.324646  0.574012  0.887659  1
  O  O139  1  0.824646  0.925988  0.387659  1
  O  O140  1  0.760564  0.636291  0.326390  1
  O  O141  1  0.260564  0.863709  0.826390  1
  O  O142  1  0.239436  0.363709  0.673610  1
  O  O143  1  0.739436  0.136291  0.173610  1
  O  O144  1  0.586615  0.001832  0.056427  1
  O  O145  1  0.086615  0.498168  0.556427  1
  O  O146  1  0.413384  0.998168  0.943573  1
  O  O147  1  0.913385  0.501832  0.443573  1
  O  O148  1  0.401903  0.138767  0.181021  1
  O  O149  1  0.901903  0.361233  0.681021  1
  O  O150  1  0.598097  0.861233  0.818979  1
  O  O151  1  0.098097  0.638767  0.318979  1
  O  O152  1  0.644128  0.066842  0.348851  1
  O  O153  1  0.144128  0.433158  0.848851  1
  O  O154  1  0.355872  0.933158  0.651149  1
  O  O155  1  0.855872  0.566842  0.151148  1
  O  O156  1  0.677592  0.871051  0.516784  1
  O  O157  1  0.177592  0.628949  0.016784  1
  O  O158  1  0.322408  0.128949  0.483216  1
  O  O159  1  0.822408  0.371051  0.983216  1
