# generated using pymatgen
data_Co3(OF2)2
_symmetry_space_group_name_H-M   'P 1'
_cell_length_a   7.51280305
_cell_length_b   5.62091648
_cell_length_c   5.62091648
_cell_angle_alpha   69.57735576
_cell_angle_beta   70.40577338
_cell_angle_gamma   70.40577338
_symmetry_Int_Tables_number   1
_chemical_formula_structural   Co3(OF2)2
_chemical_formula_sum   'Co6 O4 F8'
_cell_volume   203.05415279
_cell_formula_units_Z   2
loop_
 _symmetry_equiv_pos_site_id
 _symmetry_equiv_pos_as_xyz
  1  'x, y, z'
loop_
 _atom_site_type_symbol
 _atom_site_label
 _atom_site_symmetry_multiplicity
 _atom_site_fract_x
 _atom_site_fract_y
 _atom_site_fract_z
 _atom_site_occupancy
  Co  Co0  1  0.839047  0.645140  0.674727  1
  Co  Co1  1  0.336049  0.686799  0.647207  1
  Co  Co2  1  0.663951  0.352793  0.313201  1
  Co  Co3  1  0.160953  0.325273  0.354860  1
  Co  Co4  1  0.500000  0.981936  0.018064  1
  Co  Co5  1  0.000000  0.988916  0.011084  1
  O  O6  1  0.325387  -0.001156  0.352970  1
  O  O7  1  0.674613  0.647030  0.001156  1
  O  O8  1  0.000000  0.277391  0.722609  1
  O  O9  1  0.000000  0.685858  0.314142  1
  F  F10  1  0.334622  0.375083  0.962685  1
  F  F11  1  0.665378  0.037315  0.624917  1
  F  F12  1  0.632329  0.570978  0.559460  1
  F  F13  1  0.304932  0.906269  0.908273  1
  F  F14  1  0.962127  0.226393  0.238285  1
  F  F15  1  0.367671  0.440540  0.429022  1
  F  F16  1  0.037873  0.761715  0.773607  1
  F  F17  1  0.695068  0.091727  0.093731  1
