# generated using pymatgen
data_Li2Fe(BO3)2
_symmetry_space_group_name_H-M   'P 1'
_cell_length_a   5.87409664
_cell_length_b   7.66738160
_cell_length_c   5.39177651
_cell_angle_alpha   90.00000000
_cell_angle_beta   117.92760340
_cell_angle_gamma   90.00000000
_symmetry_Int_Tables_number   1
_chemical_formula_structural   Li2Fe(BO3)2
_chemical_formula_sum   'Li4 Fe2 B4 O12'
_cell_volume   214.55878924
_cell_formula_units_Z   2
loop_
 _symmetry_equiv_pos_site_id
 _symmetry_equiv_pos_as_xyz
  1  'x, y, z'
loop_
 _atom_site_type_symbol
 _atom_site_label
 _atom_site_symmetry_multiplicity
 _atom_site_fract_x
 _atom_site_fract_y
 _atom_site_fract_z
 _atom_site_occupancy
  Li  Li0  1  0.200039  0.434816  0.394293  1
  Li  Li1  1  0.299961  0.934816  0.605707  1
  Li  Li2  1  0.700039  0.065184  0.394293  1
  Li  Li3  1  0.799961  0.565184  0.605707  1
  Fe  Fe4  1  0.000000  0.000000  0.000000  1
  Fe  Fe5  1  0.500000  0.500000  0.000000  1
  B  B6  1  0.130113  0.261435  0.877752  1
  B  B7  1  0.369887  0.761435  0.122248  1
  B  B8  1  0.630113  0.238565  0.877752  1
  B  B9  1  0.869887  0.738565  0.122248  1
  O  O10  1  0.085773  0.108198  0.725665  1
  O  O11  1  0.157582  0.421858  0.776570  1
  O  O12  1  0.402688  0.739500  0.885815  1
  O  O13  1  0.097312  0.239500  0.114185  1
  O  O14  1  0.342418  0.921858  0.223430  1
  O  O15  1  0.414227  0.608198  0.274335  1
  O  O16  1  0.585773  0.391802  0.725665  1
  O  O17  1  0.657582  0.078142  0.776570  1
  O  O18  1  0.902688  0.760500  0.885815  1
  O  O19  1  0.597312  0.260500  0.114185  1
  O  O20  1  0.842418  0.578142  0.223430  1
  O  O21  1  0.914227  0.891802  0.274335  1
