# generated using pymatgen
data_W7(OF5)6
_symmetry_space_group_name_H-M   'P 1'
_cell_length_a   9.32325932
_cell_length_b   10.98010519
_cell_length_c   9.32325891
_cell_angle_alpha   115.12233073
_cell_angle_beta   60.00000212
_cell_angle_gamma   115.12233018
_symmetry_Int_Tables_number   1
_chemical_formula_structural   W7(OF5)6
_chemical_formula_sum   'W7 O6 F30'
_cell_volume   720.42074903
_cell_formula_units_Z   1
loop_
 _symmetry_equiv_pos_site_id
 _symmetry_equiv_pos_as_xyz
  1  'x, y, z'
loop_
 _atom_site_type_symbol
 _atom_site_label
 _atom_site_symmetry_multiplicity
 _atom_site_fract_x
 _atom_site_fract_y
 _atom_site_fract_z
 _atom_site_occupancy
  W  W0  1  0.000000  0.000000  0.000000  1
  W  W1  1  0.079423  0.241433  0.394774  1
  W  W2  1  0.232763  0.758567  0.920577  1
  W  W3  1  0.605226  0.758567  0.232763  1
  W  W4  1  0.394774  0.241433  0.767237  1
  W  W5  1  0.767237  0.241433  0.079423  1
  W  W6  1  0.920577  0.758567  0.605226  1
  O  O7  1  0.091108  0.882733  0.022605  1
  O  O8  1  0.022605  0.882733  0.769020  1
  O  O9  1  0.769020  0.882733  0.091108  1
  O  O10  1  0.230980  0.117267  0.908892  1
  O  O11  1  0.977395  0.117267  0.230980  1
  O  O12  1  0.908892  0.117267  0.977395  1
  F  F13  1  0.089988  0.660960  0.090251  1
  F  F14  1  0.054561  0.877699  0.459429  1
  F  F15  1  0.363708  0.877699  0.054561  1
  F  F16  1  0.090251  0.660960  0.480721  1
  F  F17  1  0.211408  0.363921  0.252449  1
  F  F18  1  0.099935  0.636079  0.788592  1
  F  F19  1  0.480721  0.660960  0.089988  1
  F  F20  1  0.459429  0.877699  0.363708  1
  F  F21  1  0.198751  0.359495  0.539518  1
  F  F22  1  0.249120  0.142795  0.270859  1
  F  F23  1  0.377183  0.857205  0.750880  1
  F  F24  1  0.460482  0.640505  0.378774  1
  F  F25  1  0.378774  0.640505  0.801249  1
  F  F26  1  0.747551  0.636079  0.099935  1
  F  F27  1  0.729141  0.857205  0.377183  1
  F  F28  1  0.270859  0.142795  0.622817  1
  F  F29  1  0.252449  0.363921  0.900065  1
  F  F30  1  0.621226  0.359495  0.198751  1
  F  F31  1  0.539518  0.359495  0.621226  1
  F  F32  1  0.622817  0.142795  0.249120  1
  F  F33  1  0.750880  0.857205  0.729141  1
  F  F34  1  0.801249  0.640505  0.460482  1
  F  F35  1  0.540571  0.122301  0.636292  1
  F  F36  1  0.519279  0.339040  0.910012  1
  F  F37  1  0.900065  0.363921  0.211408  1
  F  F38  1  0.788592  0.636079  0.747551  1
  F  F39  1  0.909749  0.339040  0.519279  1
  F  F40  1  0.636292  0.122301  0.945439  1
  F  F41  1  0.945439  0.122301  0.540571  1
  F  F42  1  0.910012  0.339040  0.909749  1
