# generated using pymatgen
data_Li3Mn2Fe(BO3)3
_symmetry_space_group_name_H-M   'P 1'
_cell_length_a   8.26508165
_cell_length_b   14.30866810
_cell_length_c   3.17373645
_cell_angle_alpha   90.00000000
_cell_angle_beta   90.00000000
_cell_angle_gamma   89.87610883
_symmetry_Int_Tables_number   1
_chemical_formula_structural   Li3Mn2Fe(BO3)3
_chemical_formula_sum   'Li6 Mn4 Fe2 B6 O18'
_cell_volume   375.33252708
_cell_formula_units_Z   2
loop_
 _symmetry_equiv_pos_site_id
 _symmetry_equiv_pos_as_xyz
  1  'x, y, z'
loop_
 _atom_site_type_symbol
 _atom_site_label
 _atom_site_symmetry_multiplicity
 _atom_site_fract_x
 _atom_site_fract_y
 _atom_site_fract_z
 _atom_site_occupancy
  Li  Li0  1  0.292929  0.990858  0.500000  1
  Li  Li1  1  0.339333  0.358884  0.500000  1
  Li  Li2  1  0.365647  0.650671  0.500000  1
  Li  Li3  1  0.792926  0.492386  0.500000  1
  Li  Li4  1  0.840915  0.857208  0.500000  1
  Li  Li5  1  0.867009  0.150840  0.500000  1
  Mn  Mn6  1  0.173543  0.813974  0.000000  1
  Mn  Mn7  1  0.191014  0.179563  0.000000  1
  Mn  Mn8  1  0.635088  0.005535  0.000000  1
  Mn  Mn9  1  0.674353  0.313934  0.000000  1
  Fe  Fe10  1  0.136713  0.504346  0.000000  1
  Fe  Fe11  1  0.687743  0.679476  0.000000  1
  B  B12  1  0.998361  0.665566  0.500000  1
  B  B13  1  0.000066  -0.000068  0.000000  1
  B  B14  1  0.001023  0.334506  0.500000  1
  B  B15  1  0.499886  0.166860  0.500000  1
  B  B16  1  0.500452  0.501059  0.000000  1
  B  B17  1  0.501066  0.832269  0.500000  1
  O  O18  1  0.012199  0.431510  0.500000  1
  O  O19  1  0.015090  0.762585  0.500000  1
  O  O20  1  0.135654  0.608655  0.500000  1
  O  O21  1  0.140499  0.280317  0.500000  1
  O  O22  1  0.154808  0.960951  0.000000  1
  O  O23  1  0.347959  0.125125  0.500000  1
  O  O24  1  0.350301  0.789757  0.500000  1
  O  O25  1  0.361527  0.445517  0.000000  1
  O  O26  1  0.485677  0.598085  0.000000  1
  O  O27  1  0.511782  0.929207  0.500000  1
  O  O28  1  0.513315  0.263936  0.500000  1
  O  O29  1  0.638612  0.111581  0.500000  1
  O  O30  1  0.640987  0.778001  0.500000  1
  O  O31  1  0.653080  0.460097  0.000000  1
  O  O32  1  0.844314  0.626494  0.500000  1
  O  O33  1  0.850546  0.291361  0.500000  1
  O  O34  1  0.864554  0.942089  0.000000  1
  O  O35  1  0.981023  0.096870  0.000000  1
