# generated using pymatgen
data_Li2CoSiO4
_symmetry_space_group_name_H-M   'P 1'
_cell_length_a   5.12597381
_cell_length_b   6.29900538
_cell_length_c   10.77594712
_cell_angle_alpha   90.09667261
_cell_angle_beta   90.00000000
_cell_angle_gamma   90.00000000
_symmetry_Int_Tables_number   1
_chemical_formula_structural   Li2CoSiO4
_chemical_formula_sum   'Li8 Co4 Si4 O16'
_cell_volume   347.93906768
_cell_formula_units_Z   4
loop_
 _symmetry_equiv_pos_site_id
 _symmetry_equiv_pos_as_xyz
  1  'x, y, z'
loop_
 _atom_site_type_symbol
 _atom_site_label
 _atom_site_symmetry_multiplicity
 _atom_site_fract_x
 _atom_site_fract_y
 _atom_site_fract_z
 _atom_site_occupancy
  Li  Li0  1  0.796467  0.870065  0.074698  1
  Li  Li1  1  0.192858  0.121415  0.161473  1
  Li  Li2  1  0.691826  0.621702  0.336831  1
  Li  Li3  1  0.301114  0.369804  0.425136  1
  Li  Li4  1  0.703533  0.870065  0.574698  1
  Li  Li5  1  0.307142  0.121415  0.661473  1
  Li  Li6  1  0.808174  0.621702  0.836831  1
  Li  Li7  1  0.198886  0.369804  0.925136  1
  Co  Co8  1  0.689451  0.116337  0.333302  1
  Co  Co9  1  0.810549  0.116337  0.833302  1
  Co  Co10  1  0.187716  0.616276  0.165156  1
  Co  Co11  1  0.312284  0.616276  0.665156  1
  Si  Si12  1  0.690867  0.369622  0.087229  1
  Si  Si13  1  0.191458  0.868489  0.411316  1
  Si  Si14  1  0.809133  0.369622  0.587229  1
  Si  Si15  1  0.308542  0.868489  0.911316  1
  O  O16  1  0.198316  0.867523  0.054700  1
  O  O17  1  0.368199  0.369801  0.088641  1
  O  O18  1  0.795195  0.584805  0.160095  1
  O  O19  1  0.798593  0.154601  0.159627  1
  O  O20  1  0.296938  0.652521  0.338989  1
  O  O21  1  0.297345  0.082937  0.338388  1
  O  O22  1  0.868569  0.870215  0.409894  1
  O  O23  1  0.698312  0.368332  0.443898  1
  O  O24  1  0.301684  0.867523  0.554700  1
  O  O25  1  0.131801  0.369801  0.588641  1
  O  O26  1  0.704805  0.584805  0.660095  1
  O  O27  1  0.701407  0.154601  0.659627  1
  O  O28  1  0.203062  0.652521  0.838989  1
  O  O29  1  0.202655  0.082937  0.838388  1
  O  O30  1  0.631431  0.870215  0.909894  1
  O  O31  1  0.801688  0.368332  0.943898  1
