# generated using pymatgen
data_Li3Fe8(BO3)8
_symmetry_space_group_name_H-M   'P 1'
_cell_length_a   5.23494053
_cell_length_b   9.12902570
_cell_length_c   11.36948476
_cell_angle_alpha   66.74180011
_cell_angle_beta   76.74327081
_cell_angle_gamma   89.40916275
_symmetry_Int_Tables_number   1
_chemical_formula_structural   Li3Fe8(BO3)8
_chemical_formula_sum   'Li3 Fe8 B8 O24'
_cell_volume   483.92921109
_cell_formula_units_Z   1
loop_
 _symmetry_equiv_pos_site_id
 _symmetry_equiv_pos_as_xyz
  1  'x, y, z'
loop_
 _atom_site_type_symbol
 _atom_site_label
 _atom_site_symmetry_multiplicity
 _atom_site_fract_x
 _atom_site_fract_y
 _atom_site_fract_z
 _atom_site_occupancy
  Li  Li0  1  0.718235  0.723859  0.898889  1
  Li  Li1  1  0.733725  0.747886  0.162057  1
  Li  Li2  1  0.029644  0.015118  0.631446  1
  Fe  Fe3  1  0.986119  0.651407  0.380856  1
  Fe  Fe4  1  0.743082  0.071787  0.876365  1
  Fe  Fe5  1  0.533372  0.835707  0.627654  1
  Fe  Fe6  1  0.747080  0.427075  0.132463  1
  Fe  Fe7  1  0.227587  0.555496  0.880853  1
  Fe  Fe8  1  0.480805  0.145465  0.377850  1
  Fe  Fe9  1  0.017080  0.356354  0.631896  1
  Fe  Fe10  1  0.265670  0.945225  0.120945  1
  B  B11  1  0.968002  0.308021  0.387702  1
  B  B12  1  0.726548  0.403514  0.873620  1
  B  B13  1  0.517153  0.182880  0.627274  1
  B  B14  1  0.762959  0.095590  0.134124  1
  B  B15  1  0.482066  0.820376  0.368947  1
  B  B16  1  0.231758  0.885248  0.880331  1
  B  B17  1  0.036259  0.685503  0.633738  1
  B  B18  1  0.265740  0.615876  0.119420  1
  O  O19  1  0.978292  0.898291  0.866076  1
  O  O20  1  0.877676  0.304900  0.824453  1
  O  O21  1  0.845757  0.503247  0.917620  1
  O  O22  1  0.901101  0.811480  0.639445  1
  O  O23  1  0.957035  0.588455  0.574851  1
  O  O24  1  0.763833  0.170771  0.660703  1
  O  O25  1  0.742986  0.318452  0.341354  1
  O  O26  1  0.464370  0.403348  0.881619  1
  O  O27  1  0.386071  0.774503  0.845074  1
  O  O28  1  0.539316  0.920610  0.424798  1
  O  O29  1  0.650990  0.710944  0.351399  1
  O  O30  1  0.347926  0.977380  0.930476  1
  O  O31  1  0.648445  0.992678  0.090181  1
  O  O32  1  0.360746  0.300126  0.636284  1
  O  O33  1  0.433738  0.069544  0.586115  1
  O  O34  1  0.606237  0.194454  0.180305  1
  O  O35  1  0.532098  0.620165  0.109589  1
  O  O36  1  0.254979  0.647567  0.684634  1
  O  O37  1  0.249446  0.832068  0.325395  1
  O  O38  1  0.035058  0.426992  0.428534  1
  O  O39  1  0.122205  0.183815  0.399225  1
  O  O40  1  0.137384  0.522516  0.076701  1
  O  O41  1  0.109490  0.716244  0.171347  1
  O  O42  1  0.025497  0.093876  0.128789  1
