# generated using pymatgen
data_Li3Mn2P2(CO7)2
_symmetry_space_group_name_H-M   'P 1'
_cell_length_a   9.43146719
_cell_length_b   10.11955323
_cell_length_c   6.46586333
_cell_angle_alpha   90.00000000
_cell_angle_beta   90.00000000
_cell_angle_gamma   61.81019987
_symmetry_Int_Tables_number   1
_chemical_formula_structural   Li3Mn2P2(CO7)2
_chemical_formula_sum   'Li6 Mn4 P4 C4 O28'
_cell_volume   543.91875724
_cell_formula_units_Z   2
loop_
 _symmetry_equiv_pos_site_id
 _symmetry_equiv_pos_as_xyz
  1  'x, y, z'
loop_
 _atom_site_type_symbol
 _atom_site_label
 _atom_site_symmetry_multiplicity
 _atom_site_fract_x
 _atom_site_fract_y
 _atom_site_fract_z
 _atom_site_occupancy
  Li  Li0  1  0.737726  0.250308  0.960875  1
  Li  Li1  1  0.746621  0.752134  0.512538  1
  Li  Li2  1  0.746611  0.750056  0.986505  1
  Li  Li3  1  0.253379  0.247866  0.012538  1
  Li  Li4  1  0.253389  0.249944  0.486505  1
  Li  Li5  1  0.262274  0.749692  0.460875  1
  Mn  Mn6  1  0.669314  0.065303  0.253084  1
  Mn  Mn7  1  0.663912  0.558897  0.254170  1
  Mn  Mn8  1  0.336088  0.441103  0.754170  1
  Mn  Mn9  1  0.330686  0.934697  0.753084  1
  P  P10  1  0.580581  0.068979  0.750790  1
  P  P11  1  0.577771  0.577721  0.750640  1
  P  P12  1  0.422229  0.422279  0.250640  1
  P  P13  1  0.419419  0.931021  0.250790  1
  C  C14  1  0.950782  0.382429  0.242212  1
  C  C15  1  0.951416  0.877449  0.254848  1
  C  C16  1  0.048584  0.122551  0.754848  1
  C  C17  1  0.049218  0.617571  0.742212  1
  O  O18  1  0.898361  0.022357  0.247302  1
  O  O19  1  0.890540  0.529297  0.254500  1
  O  O20  1  0.906934  0.219844  0.770213  1
  O  O21  1  0.837760  0.342990  0.226797  1
  O  O22  1  0.901526  0.707891  0.746889  1
  O  O23  1  0.827728  0.846023  0.248232  1
  O  O24  1  0.683610  0.066088  0.938201  1
  O  O25  1  0.680620  0.058415  0.559368  1
  O  O26  1  0.671987  0.584540  0.941449  1
  O  O27  1  0.684622  0.568216  0.564604  1
  O  O28  1  0.589627  0.281903  0.229525  1
  O  O29  1  0.545386  0.439970  0.768453  1
  O  O30  1  0.586159  0.787372  0.255208  1
  O  O31  1  0.548146  0.929645  0.757411  1
  O  O32  1  0.451854  0.070355  0.257411  1
  O  O33  1  0.413841  0.212628  0.755208  1
  O  O34  1  0.454614  0.560030  0.268453  1
  O  O35  1  0.410373  0.718097  0.729525  1
  O  O36  1  0.315378  0.431784  0.064604  1
  O  O37  1  0.328014  0.415460  0.441449  1
  O  O38  1  0.316390  0.933912  0.438201  1
  O  O39  1  0.319380  0.941585  0.059368  1
  O  O40  1  0.172272  0.153977  0.748232  1
  O  O41  1  0.098474  0.292109  0.246889  1
  O  O42  1  0.162240  0.657010  0.726797  1
  O  O43  1  0.093066  0.780156  0.270213  1
  O  O44  1  0.109460  0.470703  0.754500  1
  O  O45  1  0.101639  0.977643  0.747302  1
