# generated using pymatgen
data_Ba8LiTa7O24
_symmetry_space_group_name_H-M   'P 1'
_cell_length_a   5.89850115
_cell_length_b   5.89796228
_cell_length_c   19.14726751
_cell_angle_alpha   90.00712195
_cell_angle_beta   89.99781887
_cell_angle_gamma   120.00342040
_symmetry_Int_Tables_number   1
_chemical_formula_structural   Ba8LiTa7O24
_chemical_formula_sum   'Ba8 Li1 Ta7 O24'
_cell_volume   576.85428465
_cell_formula_units_Z   1
loop_
 _symmetry_equiv_pos_site_id
 _symmetry_equiv_pos_as_xyz
  1  'x, y, z'
loop_
 _atom_site_type_symbol
 _atom_site_label
 _atom_site_symmetry_multiplicity
 _atom_site_fract_x
 _atom_site_fract_y
 _atom_site_fract_z
 _atom_site_occupancy
  Ba  Ba0  1  0.333328  0.666614  0.249897  1
  Ba  Ba1  1  0.333432  0.666882  0.854551  1
  Ba  Ba2  1  0.000058  0.000158  0.993715  1
  Ba  Ba3  1  0.999869  0.999855  0.500518  1
  Ba  Ba4  1  0.333345  0.666716  0.634383  1
  Ba  Ba5  1  0.666678  0.333342  0.132358  1
  Ba  Ba6  1  0.666731  0.333469  0.753681  1
  Ba  Ba7  1  0.666568  0.333231  0.364950  1
  Li  Li8  1  0.000066  0.000105  0.832842  1
  Ta  Ta9  1  0.333362  0.666739  0.060847  1
  Ta  Ta10  1  0.999995  0.999966  0.182102  1
  Ta  Ta11  1  0.999978  0.999953  0.317987  1
  Ta  Ta12  1  0.000040  0.000065  0.688708  1
  Ta  Ta13  1  0.333303  0.666629  0.439212  1
  Ta  Ta14  1  0.666664  0.333334  0.560093  1
  Ta  Ta15  1  0.666734  0.333508  0.936079  1
  O  O16  1  0.158061  0.841895  0.742603  1
  O  O17  1  0.000706  0.500400  0.004906  1
  O  O18  1  0.998569  0.499285  0.498869  1
  O  O19  1  0.169825  0.830124  0.124450  1
  O  O20  1  0.169148  0.830806  0.376710  1
  O  O21  1  0.169834  0.339664  0.124454  1
  O  O22  1  0.169128  0.338310  0.376696  1
  O  O23  1  0.158228  0.316290  0.742623  1
  O  O24  1  0.321853  0.160828  0.249661  1
  O  O25  1  0.661632  0.830830  0.376696  1
  O  O26  1  0.660287  0.830114  0.124459  1
  O  O27  1  0.499728  0.500378  0.004919  1
  O  O28  1  0.500725  0.499274  0.498855  1
  O  O29  1  0.336548  0.168295  0.619918  1
  O  O30  1  0.348906  0.174454  0.882293  1
  O  O31  1  0.683850  0.841949  0.742607  1
  O  O32  1  0.831795  0.663547  0.619909  1
  O  O33  1  0.499473  0.998962  0.004829  1
  O  O34  1  0.500730  0.001447  0.498858  1
  O  O35  1  0.825575  0.651156  0.882247  1
  O  O36  1  0.839028  0.678093  0.249634  1
  O  O37  1  0.825581  0.174506  0.882292  1
  O  O38  1  0.831734  0.168287  0.619925  1
  O  O39  1  0.839016  0.160835  0.249667  1
