# generated using pymatgen
data_Yb6Cl13
_symmetry_space_group_name_H-M   'P 1'
_cell_length_a   21.10922381
_cell_length_b   21.14003257
_cell_length_c   20.94448951
_cell_angle_alpha   161.18976166
_cell_angle_beta   26.18040082
_cell_angle_gamma   162.04540041
_symmetry_Int_Tables_number   1
_chemical_formula_structural   Yb6Cl13
_chemical_formula_sum   'Yb12 Cl26'
_cell_volume   928.54357130
_cell_formula_units_Z   2
loop_
 _symmetry_equiv_pos_site_id
 _symmetry_equiv_pos_as_xyz
  1  'x, y, z'
loop_
 _atom_site_type_symbol
 _atom_site_label
 _atom_site_symmetry_multiplicity
 _atom_site_fract_x
 _atom_site_fract_y
 _atom_site_fract_z
 _atom_site_occupancy
  Yb  Yb0  1  0.599159  0.251363  0.910779  1
  Yb  Yb1  1  0.400841  0.748637  0.089221  1
  Yb  Yb2  1  0.762856  0.269764  0.088022  1
  Yb  Yb3  1  0.237144  0.730236  0.911978  1
  Yb  Yb4  1  0.847382  0.694920  0.591285  1
  Yb  Yb5  1  0.152618  0.305080  0.408715  1
  Yb  Yb6  1  0.926698  0.302372  0.282532  1
  Yb  Yb7  1  0.073302  0.697628  0.717468  1
  Yb  Yb8  1  0.518007  0.639132  0.214632  1
  Yb  Yb9  1  0.481993  0.360868  0.785368  1
  Yb  Yb10  1  0.681171  0.671368  0.410090  1
  Yb  Yb11  1  0.318829  0.328632  0.589910  1
  Cl  Cl12  1  0.273468  0.159322  0.898527  1
  Cl  Cl13  1  0.726532  0.840678  0.101473  1
  Cl  Cl14  1  0.754646  0.538874  0.926865  1
  Cl  Cl15  1  0.245354  0.461126  0.073135  1
  Cl  Cl16  1  0.282978  0.179987  0.072700  1
  Cl  Cl17  1  0.717022  0.820013  0.927300  1
  Cl  Cl18  1  0.802391  0.785259  0.274672  1
  Cl  Cl19  1  0.197609  0.214741  0.725328  1
  Cl  Cl20  1  0.357638  0.180236  0.161535  1
  Cl  Cl21  1  0.642362  0.819764  0.838465  1
  Cl  Cl22  1  0.855912  0.481310  0.055587  1
  Cl  Cl23  1  0.144088  0.518690  0.944413  1
  Cl  Cl24  1  0.441673  0.190628  0.248853  1
  Cl  Cl25  1  0.558327  0.809372  0.751147  1
  Cl  Cl26  1  0.929144  0.798687  0.434021  1
  Cl  Cl27  1  0.070856  0.201313  0.565979  1
  Cl  Cl28  1  0.527287  0.207729  0.341162  1
  Cl  Cl29  1  0.472713  0.792271  0.658838  1
  Cl  Cl30  1  0.015701  0.534684  0.228048  1
  Cl  Cl31  1  0.984299  0.465316  0.771952  1
  Cl  Cl32  1  0.610061  0.212147  0.425865  1
  Cl  Cl33  1  0.389939  0.787853  0.574135  1
  Cl  Cl34  1  0.115712  0.829204  0.572793  1
  Cl  Cl35  1  0.884288  0.170796  0.427207  1
  Cl  Cl36  1  0.761202  0.376566  0.601838  1
  Cl  Cl37  1  0.238798  0.623434  0.398162  1
