# generated using pymatgen
data_Na2SnO3
_symmetry_space_group_name_H-M   'P 1'
_cell_length_a   5.71753058
_cell_length_b   10.23482424
_cell_length_c   5.71741561
_cell_angle_alpha   100.85981397
_cell_angle_beta   71.18351203
_cell_angle_gamma   79.09644596
_symmetry_Int_Tables_number   1
_chemical_formula_structural   Na2SnO3
_chemical_formula_sum   'Na8 Sn4 O12'
_cell_volume   299.56790300
_cell_formula_units_Z   4
loop_
 _symmetry_equiv_pos_site_id
 _symmetry_equiv_pos_as_xyz
  1  'x, y, z'
loop_
 _atom_site_type_symbol
 _atom_site_label
 _atom_site_symmetry_multiplicity
 _atom_site_fract_x
 _atom_site_fract_y
 _atom_site_fract_z
 _atom_site_occupancy
  Na  Na0  1  0.005092  0.992036  0.498845  1
  Na  Na1  1  0.581444  0.844354  0.423279  1
  Na  Na2  1  0.175390  0.656526  0.328844  1
  Na  Na3  1  0.749016  0.510991  0.253396  1
  Na  Na4  1  0.257607  0.491047  0.742382  1
  Na  Na5  1  0.331098  0.343871  0.173184  1
  Na  Na6  1  0.425459  0.156693  0.580488  1
  Na  Na7  1  0.494274  0.010058  0.009656  1
  Sn  Sn8  1  0.085987  0.832185  0.917673  1
  Sn  Sn9  1  0.667715  0.669427  0.835085  1
  Sn  Sn10  1  0.835404  0.332463  0.665864  1
  Sn  Sn11  1  0.916655  0.169604  0.084590  1
  O  O12  1  0.337747  0.816706  0.125294  1
  O  O13  1  0.849995  0.817146  0.694899  1
  O  O14  1  0.415753  0.685455  0.628332  1
  O  O15  1  0.904314  0.684282  0.058059  1
  O  O16  1  0.543595  0.500656  0.957422  1
  O  O17  1  0.958904  0.501101  0.542292  1
  O  O18  1  0.058756  0.316616  0.900983  1
  O  O19  1  0.628012  0.317314  0.413488  1
  O  O20  1  0.693381  0.184749  0.848535  1
  O  O21  1  0.123728  0.184922  0.336722  1
  O  O22  1  0.208967  0.001041  0.794341  1
  O  O23  1  0.793686  0.000923  0.209605  1
