# generated using pymatgen
data_LiMnF4
_symmetry_space_group_name_H-M   'P 1'
_cell_length_a   7.56191896
_cell_length_b   7.90189985
_cell_length_c   15.65563815
_cell_angle_alpha   90.00000000
_cell_angle_beta   90.00000000
_cell_angle_gamma   104.19525232
_symmetry_Int_Tables_number   1
_chemical_formula_structural   LiMnF4
_chemical_formula_sum   'Li12 Mn12 F48'
_cell_volume   906.91534653
_cell_formula_units_Z   12
loop_
 _symmetry_equiv_pos_site_id
 _symmetry_equiv_pos_as_xyz
  1  'x, y, z'
loop_
 _atom_site_type_symbol
 _atom_site_label
 _atom_site_symmetry_multiplicity
 _atom_site_fract_x
 _atom_site_fract_y
 _atom_site_fract_z
 _atom_site_occupancy
  Li  Li0  1  0.146003  0.095742  0.863371  1
  Li  Li1  1  0.153871  0.085225  0.203312  1
  Li  Li2  1  0.372679  0.900690  0.348048  1
  Li  Li3  1  0.358356  0.901820  0.040144  1
  Li  Li4  1  0.319847  0.910397  0.676034  1
  Li  Li5  1  0.158107  0.082371  0.502403  1
  Li  Li6  1  0.841893  0.917629  0.002403  1
  Li  Li7  1  0.680153  0.089603  0.176034  1
  Li  Li8  1  0.641644  0.098180  0.540144  1
  Li  Li9  1  0.627321  0.099310  0.848048  1
  Li  Li10  1  0.846129  0.914775  0.703312  1
  Li  Li11  1  0.853997  0.904258  0.363371  1
  Mn  Mn12  1  0.036581  0.669350  0.522837  1
  Mn  Mn13  1  0.046343  0.687096  0.854423  1
  Mn  Mn14  1  0.049823  0.679588  0.191837  1
  Mn  Mn15  1  0.460259  0.313329  0.023106  1
  Mn  Mn16  1  0.547635  0.674568  0.187976  1
  Mn  Mn17  1  0.455427  0.326350  0.355695  1
  Mn  Mn18  1  0.544573  0.673650  0.855695  1
  Mn  Mn19  1  0.452365  0.325432  0.687976  1
  Mn  Mn20  1  0.539741  0.686671  0.523106  1
  Mn  Mn21  1  0.950177  0.320412  0.691837  1
  Mn  Mn22  1  0.953657  0.312904  0.354423  1
  Mn  Mn23  1  0.963419  0.330650  0.022837  1
  F  F24  1  0.035873  0.879175  0.925366  1
  F  F25  1  0.013905  0.794160  0.425050  1
  F  F26  1  0.064438  0.860070  0.752868  1
  F  F27  1  0.140339  0.886376  0.578772  1
  F  F28  1  0.128245  0.848159  0.098531  1
  F  F29  1  0.062257  0.543563  0.967951  1
  F  F30  1  0.163523  0.876477  0.270254  1
  F  F31  1  0.068731  0.540920  0.621058  1
  F  F32  1  0.049937  0.485387  0.789555  1
  F  F33  1  0.166278  0.246783  0.696034  1
  F  F34  1  0.210536  0.388366  0.359056  1
  F  F35  1  0.306779  0.756136  0.856911  1
  F  F36  1  0.305816  0.670779  0.481374  1
  F  F37  1  0.224061  0.297333  0.063659  1
  F  F38  1  0.264246  0.605655  0.188248  1
  F  F39  1  0.444330  0.525687  0.622559  1
  F  F40  1  0.446554  0.450471  0.791551  1
  F  F41  1  0.356387  0.106237  0.419008  1
  F  F42  1  0.552465  0.883142  0.251117  1
  F  F43  1  0.465727  0.542164  0.954346  1
  F  F44  1  0.389034  0.208334  0.255650  1
  F  F45  1  0.374161  0.149684  0.928700  1
  F  F46  1  0.556536  0.802176  0.087431  1
  F  F47  1  0.521907  0.887847  0.596855  1
  F  F48  1  0.478093  0.112153  0.096855  1
  F  F49  1  0.443464  0.197824  0.587431  1
  F  F50  1  0.625839  0.850316  0.428700  1
  F  F51  1  0.610966  0.791666  0.755650  1
  F  F52  1  0.534273  0.457836  0.454346  1
  F  F53  1  0.447535  0.116858  0.751117  1
  F  F54  1  0.643613  0.893763  0.919008  1
  F  F55  1  0.553446  0.549529  0.291551  1
  F  F56  1  0.555670  0.474313  0.122559  1
  F  F57  1  0.735754  0.394345  0.688248  1
  F  F58  1  0.775939  0.702667  0.563659  1
  F  F59  1  0.694184  0.329221  0.981374  1
  F  F60  1  0.693221  0.243864  0.356911  1
  F  F61  1  0.789464  0.611634  0.859056  1
  F  F62  1  0.833722  0.753217  0.196034  1
  F  F63  1  0.950063  0.514613  0.289555  1
  F  F64  1  0.931270  0.459080  0.121058  1
  F  F65  1  0.836477  0.123523  0.770254  1
  F  F66  1  0.937743  0.456437  0.467951  1
  F  F67  1  0.871755  0.151841  0.598531  1
  F  F68  1  0.859661  0.113624  0.078772  1
  F  F69  1  0.935562  0.139930  0.252868  1
  F  F70  1  0.986095  0.205840  0.925050  1
  F  F71  1  0.964127  0.120825  0.425366  1
