# generated using pymatgen
data_LiCuCO3
_symmetry_space_group_name_H-M   'P 1'
_cell_length_a   8.29717005
_cell_length_b   8.29677858
_cell_length_c   3.05428246
_cell_angle_alpha   90.00000000
_cell_angle_beta   90.00000000
_cell_angle_gamma   120.00488303
_symmetry_Int_Tables_number   1
_chemical_formula_structural   LiCuCO3
_chemical_formula_sum   'Li3 Cu3 C3 O9'
_cell_volume   182.07819937
_cell_formula_units_Z   3
loop_
 _symmetry_equiv_pos_site_id
 _symmetry_equiv_pos_as_xyz
  1  'x, y, z'
loop_
 _atom_site_type_symbol
 _atom_site_label
 _atom_site_symmetry_multiplicity
 _atom_site_fract_x
 _atom_site_fract_y
 _atom_site_fract_z
 _atom_site_occupancy
  Li  Li0  1  0.327853  0.298658  0.500000  1
  Li  Li1  1  0.970807  0.672146  0.500000  1
  Li  Li2  1  0.701332  0.029187  0.500000  1
  Cu  Cu3  1  0.020731  0.354985  0.000000  1
  Cu  Cu4  1  0.334262  0.979311  0.000000  1
  Cu  Cu5  1  0.644999  0.665707  0.000000  1
  C  C6  1  0.333340  0.666624  0.500000  1
  C  C7  1  0.000265  0.000171  0.000000  1
  C  C8  1  0.666501  0.333402  0.000000  1
  O  O9  1  0.055501  0.878369  0.000000  1
  O  O10  1  0.151741  0.576036  0.500000  1
  O  O11  1  0.424289  0.848274  0.500000  1
  O  O12  1  0.121533  0.177038  0.000000  1
  O  O13  1  0.423961  0.575742  0.500000  1
  O  O14  1  0.822691  0.944426  0.000000  1
  O  O15  1  0.487616  0.263215  0.000000  1
  O  O16  1  0.775689  0.512471  0.000000  1
  O  O17  1  0.736889  0.224239  0.000000  1
