# generated using pymatgen
data_Li4V3Ni3(SbO8)2
_symmetry_space_group_name_H-M   'P 1'
_cell_length_a   5.95701470
_cell_length_b   5.92807405
_cell_length_c   9.69085055
_cell_angle_alpha   90.02131812
_cell_angle_beta   90.47765836
_cell_angle_gamma   119.83605865
_symmetry_Int_Tables_number   1
_chemical_formula_structural   Li4V3Ni3(SbO8)2
_chemical_formula_sum   'Li4 V3 Ni3 Sb2 O16'
_cell_volume   296.84443446
_cell_formula_units_Z   1
loop_
 _symmetry_equiv_pos_site_id
 _symmetry_equiv_pos_as_xyz
  1  'x, y, z'
loop_
 _atom_site_type_symbol
 _atom_site_label
 _atom_site_symmetry_multiplicity
 _atom_site_fract_x
 _atom_site_fract_y
 _atom_site_fract_z
 _atom_site_occupancy
  Li  Li0  1  0.323862  0.662104  0.892192  1
  Li  Li1  1  0.995534  0.997403  0.984151  1
  Li  Li2  1  0.002987  0.001430  0.497314  1
  Li  Li3  1  0.662715  0.331301  0.406002  1
  V  V4  1  0.176289  0.833000  0.216764  1
  V  V5  1  0.177691  0.343346  0.215739  1
  V  V6  1  0.349631  0.174865  0.720486  1
  Ni  Ni7  1  0.660410  0.830191  0.210766  1
  Ni  Ni8  1  0.830078  0.658625  0.711979  1
  Ni  Ni9  1  0.830138  0.171556  0.711966  1
  Sb  Sb10  1  0.342236  0.671453  0.495488  1
  Sb  Sb11  1  0.681614  0.341091  0.983980  1
  O  O12  1  0.171595  0.835253  0.592819  1
  O  O13  1  0.037549  0.519150  0.339602  1
  O  O14  1  0.298087  0.649907  0.108266  1
  O  O15  1  0.020365  0.009152  0.304309  1
  O  O16  1  0.025637  0.012804  0.798070  1
  O  O17  1  0.171555  0.336541  0.592586  1
  O  O18  1  0.469081  0.960084  0.341725  1
  O  O19  1  0.467859  0.507745  0.341377  1
  O  O20  1  0.335378  0.168089  0.101908  1
  O  O21  1  0.676690  0.838333  0.588587  1
  O  O22  1  0.505418  0.473456  0.852155  1
  O  O23  1  0.505748  0.032207  0.852289  1
  O  O24  1  0.630061  0.315109  0.605822  1
  O  O25  1  0.842998  0.673517  0.096462  1
  O  O26  1  0.964357  0.482106  0.848216  1
  O  O27  1  0.844438  0.170484  0.096823  1
