# generated using pymatgen
data_Li10V(SiO5)2
_symmetry_space_group_name_H-M   'P 1'
_cell_length_a   6.13588036
_cell_length_b   15.38784115
_cell_length_c   5.14641472
_cell_angle_alpha   79.53822974
_cell_angle_beta   89.96037213
_cell_angle_gamma   78.48478369
_symmetry_Int_Tables_number   1
_chemical_formula_structural   Li10V(SiO5)2
_chemical_formula_sum   'Li20 V2 Si4 O20'
_cell_volume   467.89934022
_cell_formula_units_Z   2
loop_
 _symmetry_equiv_pos_site_id
 _symmetry_equiv_pos_as_xyz
  1  'x, y, z'
loop_
 _atom_site_type_symbol
 _atom_site_label
 _atom_site_symmetry_multiplicity
 _atom_site_fract_x
 _atom_site_fract_y
 _atom_site_fract_z
 _atom_site_occupancy
  Li  Li0  1  0.509567  0.983033  0.756622  1
  Li  Li1  1  0.346704  0.870206  0.241064  1
  Li  Li2  1  0.779386  0.870465  0.237970  1
  Li  Li3  1  0.127913  0.739202  0.481825  1
  Li  Li4  1  0.348912  0.738231  0.027793  1
  Li  Li5  1  0.913851  0.738312  0.022729  1
  Li  Li6  1  0.673057  0.650860  0.416437  1
  Li  Li7  1  0.435585  0.611277  0.787642  1
  Li  Li8  1  0.949235  0.610789  0.786234  1
  Li  Li9  1  0.729515  0.539750  0.134404  1
  Li  Li10  1  0.270866  0.460551  0.865069  1
  Li  Li11  1  0.048392  0.388670  0.211389  1
  Li  Li12  1  0.561912  0.388253  0.213732  1
  Li  Li13  1  0.324218  0.349422  0.586428  1
  Li  Li14  1  0.087310  0.261602  0.972450  1
  Li  Li15  1  0.653106  0.261360  0.975367  1
  Li  Li16  1  0.869647  0.260353  0.517898  1
  Li  Li17  1  0.651612  0.130584  0.756603  1
  Li  Li18  1  0.218544  0.129432  0.760239  1
  Li  Li19  1  0.489375  0.017447  0.242433  1
  V  V20  1  0.036527  0.929392  0.853750  1
  V  V21  1  0.963637  0.070732  0.145421  1
  Si  Si22  1  0.597881  0.800692  0.691956  1
  Si  Si23  1  0.218093  0.562368  0.308468  1
  Si  Si24  1  0.780843  0.437261  0.689701  1
  Si  Si25  1  0.399564  0.199468  0.307545  1
  O  O26  1  0.548546  0.900635  0.498418  1
  O  O27  1  0.090234  0.818371  0.119027  1
  O  O28  1  0.594808  0.809890  0.008364  1
  O  O29  1  0.408536  0.743366  0.634334  1
  O  O30  1  0.843452  0.742566  0.631799  1
  O  O31  1  0.967918  0.613548  0.168912  1
  O  O32  1  0.418697  0.613302  0.171306  1
  O  O33  1  0.211881  0.573036  0.620879  1
  O  O34  1  0.726298  0.543471  0.735047  1
  O  O35  1  0.271317  0.456152  0.264071  1
  O  O36  1  0.785854  0.426985  0.377736  1
  O  O37  1  0.032311  0.386429  0.827430  1
  O  O38  1  0.581625  0.385926  0.829356  1
  O  O39  1  0.152791  0.256870  0.364509  1
  O  O40  1  0.588227  0.256533  0.368696  1
  O  O41  1  0.405719  0.190523  0.990374  1
  O  O42  1  0.909724  0.181657  0.879025  1
  O  O43  1  0.448982  0.099480  0.500425  1
  O  O44  1  0.239169  0.000152  -0.000021  1
  O  O45  1  0.761305  0.999905  0.998260  1
