# generated using pymatgen
data_Li2CuP2O7
_symmetry_space_group_name_H-M   'P 1'
_cell_length_a   5.30895620
_cell_length_b   6.27060939
_cell_length_c   8.89029120
_cell_angle_alpha   110.28900917
_cell_angle_beta   91.82641111
_cell_angle_gamma   105.50226231
_symmetry_Int_Tables_number   1
_chemical_formula_structural   Li2CuP2O7
_chemical_formula_sum   'Li4 Cu2 P4 O14'
_cell_volume   264.94737969
_cell_formula_units_Z   2
loop_
 _symmetry_equiv_pos_site_id
 _symmetry_equiv_pos_as_xyz
  1  'x, y, z'
loop_
 _atom_site_type_symbol
 _atom_site_label
 _atom_site_symmetry_multiplicity
 _atom_site_fract_x
 _atom_site_fract_y
 _atom_site_fract_z
 _atom_site_occupancy
  Li  Li0  1  0.081153  0.763383  0.013172  1
  Li  Li1  1  0.328163  0.216380  0.752947  1
  Li  Li2  1  0.671837  0.783620  0.247053  1
  Li  Li3  1  0.918847  0.236617  0.986828  1
  Cu  Cu4  1  0.114378  0.607192  0.378216  1
  Cu  Cu5  1  0.885622  0.392808  0.621784  1
  P  P6  1  0.232232  0.140164  0.390611  1
  P  P7  1  0.591837  0.697194  0.884807  1
  P  P8  1  0.408163  0.302806  0.115193  1
  P  P9  1  0.767768  0.859836  0.609389  1
  O  O10  1  0.059152  0.878627  0.330364  1
  O  O11  1  0.044519  0.301690  0.414908  1
  O  O12  1  0.297351  0.585534  0.872903  1
  O  O13  1  0.259996  0.493501  0.175674  1
  O  O14  1  0.263527  0.123425  0.950450  1
  O  O15  1  0.561402  0.781172  0.465698  1
  O  O16  1  0.628326  0.848820  0.765513  1
  O  O17  1  0.371674  0.151180  0.234487  1
  O  O18  1  0.438598  0.218828  0.534302  1
  O  O19  1  0.736473  0.876575  0.049550  1
  O  O20  1  0.740004  0.506499  0.824326  1
  O  O21  1  0.702649  0.414466  0.127097  1
  O  O22  1  0.955481  0.698310  0.585092  1
  O  O23  1  0.940848  0.121373  0.669636  1
