# generated using pymatgen
data_Li4Nb2Fe3O10
_symmetry_space_group_name_H-M   'P 1'
_cell_length_a   5.41282695
_cell_length_b   5.27570088
_cell_length_c   8.17840680
_cell_angle_alpha   79.45384403
_cell_angle_beta   69.37549979
_cell_angle_gamma   100.93251027
_symmetry_Int_Tables_number   1
_chemical_formula_structural   Li4Nb2Fe3O10
_chemical_formula_sum   'Li4 Nb2 Fe3 O10'
_cell_volume   206.52740583
_cell_formula_units_Z   1
loop_
 _symmetry_equiv_pos_site_id
 _symmetry_equiv_pos_as_xyz
  1  'x, y, z'
loop_
 _atom_site_type_symbol
 _atom_site_label
 _atom_site_symmetry_multiplicity
 _atom_site_fract_x
 _atom_site_fract_y
 _atom_site_fract_z
 _atom_site_occupancy
  Li  Li0  1  0.158584  0.510414  0.600963  1
  Li  Li1  1  0.379627  0.464037  0.211180  1
  Li  Li2  1  0.620373  0.535963  0.788820  1
  Li  Li3  1  0.841416  0.489586  0.399037  1
  Nb  Nb4  1  0.586645  0.964474  0.305803  1
  Nb  Nb5  1  0.413355  0.035526  0.694197  1
  Fe  Fe6  1  0.000000  0.500000  0.000000  1
  Fe  Fe7  1  0.199082  0.994080  0.114445  1
  Fe  Fe8  1  0.800918  0.005920  0.885555  1
  O  O9  1  0.238242  0.734817  0.336780  1
  O  O10  1  0.018662  0.757900  0.771794  1
  O  O11  1  0.435088  0.225831  0.454492  1
  O  O12  1  0.596112  0.222126  0.073436  1
  O  O13  1  0.204073  0.245367  0.837163  1
  O  O14  1  0.795927  0.754633  0.162837  1
  O  O15  1  0.403888  0.777874  0.926564  1
  O  O16  1  0.564912  0.774169  0.545508  1
  O  O17  1  0.981338  0.242100  0.228206  1
  O  O18  1  0.761758  0.265183  0.663220  1
