# generated using pymatgen
data_Sn2N2O
_symmetry_space_group_name_H-M   'P 1'
_cell_length_a   6.45457908
_cell_length_b   6.45457730
_cell_length_c   15.80929768
_cell_angle_alpha   90.00086344
_cell_angle_beta   89.99917139
_cell_angle_gamma   119.99977067
_symmetry_Int_Tables_number   1
_chemical_formula_structural   Sn2N2O
_chemical_formula_sum   'Sn16 N16 O8'
_cell_volume   570.40056126
_cell_formula_units_Z   8
loop_
 _symmetry_equiv_pos_site_id
 _symmetry_equiv_pos_as_xyz
  1  'x, y, z'
loop_
 _atom_site_type_symbol
 _atom_site_label
 _atom_site_symmetry_multiplicity
 _atom_site_fract_x
 _atom_site_fract_y
 _atom_site_fract_z
 _atom_site_occupancy
  Sn  Sn0  1  0.166669  0.833331  0.955071  1
  Sn  Sn1  1  0.166684  0.833316  0.331378  1
  Sn  Sn2  1  0.000000  0.500000  0.500000  1
  Sn  Sn3  1  0.331915  0.668086  0.165215  1
  Sn  Sn4  1  0.163818  0.331914  0.834780  1
  Sn  Sn5  1  0.668086  0.836183  0.834780  1
  Sn  Sn6  1  0.499979  0.500022  0.628678  1
  Sn  Sn7  1  0.000000  0.000000  0.500000  1
  Sn  Sn8  1  0.500021  0.499978  0.371322  1
  Sn  Sn9  1  0.500000  0.500000  0.000000  1
  Sn  Sn10  1  0.331914  0.163817  0.165220  1
  Sn  Sn11  1  0.836182  0.668086  0.165220  1
  Sn  Sn12  1  0.668085  0.331914  0.834785  1
  Sn  Sn13  1  0.500000  0.000000  0.500000  1
  Sn  Sn14  1  0.833316  0.166684  0.668622  1
  Sn  Sn15  1  0.833331  0.166669  0.044929  1
  N  N16  1  0.166671  0.833327  0.088559  1
  N  N17  1  0.321514  0.678485  0.417621  1
  N  N18  1  0.345269  0.654729  0.912703  1
  N  N19  1  0.678490  0.857002  0.582380  1
  N  N20  1  0.142997  0.321510  0.582380  1
  N  N21  1  0.190531  0.345255  0.087299  1
  N  N22  1  0.654746  0.809469  0.087299  1
  N  N23  1  0.499997  0.500004  0.761387  1
  N  N24  1  0.500003  0.499996  0.238613  1
  N  N25  1  0.345254  0.190531  0.912701  1
  N  N26  1  0.809469  0.654745  0.912701  1
  N  N27  1  0.321510  0.142998  0.417620  1
  N  N28  1  0.857003  0.678490  0.417620  1
  N  N29  1  0.654731  0.345271  0.087297  1
  N  N30  1  0.678486  0.321515  0.582379  1
  N  N31  1  0.833329  0.166673  0.911441  1
  O  O32  1  0.023208  0.976792  0.242491  1
  O  O33  1  0.166662  0.833338  0.563660  1
  O  O34  1  0.023193  0.546367  0.242480  1
  O  O35  1  0.453633  0.976808  0.242480  1
  O  O36  1  0.546367  0.023192  0.757520  1
  O  O37  1  0.976807  0.453633  0.757520  1
  O  O38  1  0.833338  0.166662  0.436340  1
  O  O39  1  0.976792  0.023208  0.757509  1
