# generated using pymatgen
data_VOF2
_symmetry_space_group_name_H-M   'P 1'
_cell_length_a   5.18808478
_cell_length_b   13.39848624
_cell_length_c   5.21589938
_cell_angle_alpha   89.61404646
_cell_angle_beta   120.16618701
_cell_angle_gamma   89.83033837
_symmetry_Int_Tables_number   1
_chemical_formula_structural   VOF2
_chemical_formula_sum   'V6 O6 F12'
_cell_volume   313.45223394
_cell_formula_units_Z   6
loop_
 _symmetry_equiv_pos_site_id
 _symmetry_equiv_pos_as_xyz
  1  'x, y, z'
loop_
 _atom_site_type_symbol
 _atom_site_label
 _atom_site_symmetry_multiplicity
 _atom_site_fract_x
 _atom_site_fract_y
 _atom_site_fract_z
 _atom_site_occupancy
  V  V0  1  0.988327  0.493854  0.968215  1
  V  V1  1  0.016559  0.992833  0.023908  1
  V  V2  1  0.644078  0.826133  0.355301  1
  V  V3  1  0.307322  0.659640  0.662054  1
  V  V4  1  0.709621  0.327008  0.368173  1
  V  V5  1  0.368597  0.159158  0.678522  1
  O  O6  1  0.314215  0.918810  0.242801  1
  O  O7  1  0.995056  0.250821  0.580163  1
  O  O8  1  0.092913  0.585947  0.743300  1
  O  O9  1  0.577962  0.750752  0.573794  1
  O  O10  1  0.763835  0.421397  0.675833  1
  O  O11  1  0.657187  0.083895  0.749036  1
  F  F12  1  0.989961  0.751702  0.387887  1
  F  F13  1  0.391829  0.755292  0.982106  1
  F  F14  1  0.350237  0.416982  0.084344  1
  F  F15  1  0.059181  0.083616  0.339177  1
  F  F16  1  0.261459  0.582087  0.325594  1
  F  F17  1  0.592680  0.256596  0.990177  1
  F  F18  1  0.726752  0.916207  0.072269  1
  F  F19  1  0.399036  0.251039  0.398457  1
  F  F20  1  0.940517  0.419579  0.268391  1
  F  F21  1  0.254773  0.089632  0.939422  1
  F  F22  1  0.919745  0.919851  0.656936  1
  F  F23  1  0.678158  0.587169  0.934139  1
