# generated using pymatgen
data_Li3Bi(PO4)2
_symmetry_space_group_name_H-M   'P 1'
_cell_length_a   9.09629651
_cell_length_b   9.22096921
_cell_length_c   9.06647785
_cell_angle_alpha   89.67934050
_cell_angle_beta   112.46249403
_cell_angle_gamma   91.03223454
_symmetry_Int_Tables_number   1
_chemical_formula_structural   Li3Bi(PO4)2
_chemical_formula_sum   'Li12 Bi4 P8 O32'
_cell_volume   702.65456855
_cell_formula_units_Z   4
loop_
 _symmetry_equiv_pos_site_id
 _symmetry_equiv_pos_as_xyz
  1  'x, y, z'
loop_
 _atom_site_type_symbol
 _atom_site_label
 _atom_site_symmetry_multiplicity
 _atom_site_fract_x
 _atom_site_fract_y
 _atom_site_fract_z
 _atom_site_occupancy
  Li  Li0  1  0.376147  0.773101  0.890022  1
  Li  Li1  1  0.131934  0.282386  0.593305  1
  Li  Li2  1  0.063844  0.432648  0.139748  1
  Li  Li3  1  0.593525  0.766908  0.614156  1
  Li  Li4  1  0.058362  0.773107  0.113218  1
  Li  Li5  1  0.404861  0.246833  0.405112  1
  Li  Li6  1  0.917198  0.236643  0.880260  1
  Li  Li7  1  0.946592  0.556376  0.860638  1
  Li  Li8  1  0.119088  0.029821  0.041738  1
  Li  Li9  1  0.880741  0.692999  0.423074  1
  Li  Li10  1  0.596871  0.220446  0.108723  1
  Li  Li11  1  0.687693  0.908741  0.088306  1
  Bi  Bi12  1  0.229923  0.892482  0.494204  1
  Bi  Bi13  1  0.494304  0.436621  0.747968  1
  Bi  Bi14  1  0.502662  0.593521  0.236599  1
  Bi  Bi15  1  0.782504  0.104663  0.509158  1
  P  P16  1  0.037562  0.912168  0.744451  1
  P  P17  1  0.270918  0.416637  0.959614  1
  P  P18  1  0.238711  0.568380  0.431314  1
  P  P19  1  0.571949  0.077013  0.762509  1
  P  P20  1  0.442542  0.921662  0.248767  1
  P  P21  1  0.759545  0.422896  0.563518  1
  P  P22  1  0.736086  0.597205  0.034360  1
  P  P23  1  0.967917  0.095152  0.248990  1
  O  O24  1  0.037931  0.852207  0.902898  1
  O  O25  1  0.096504  0.402639  0.944807  1
  O  O26  1  0.194621  0.860903  0.724975  1
  O  O27  1  0.285204  0.350097  0.807638  1
  O  O28  1  0.088027  0.642017  0.433057  1
  O  O29  1  0.592482  0.074927  0.937420  1
  O  O30  1  0.951962  0.927374  0.218181  1
  O  O31  1  0.664609  0.437490  0.020830  1
  O  O32  1  0.628325  0.681798  0.884033  1
  O  O33  1  0.104660  0.118525  0.421832  1
  O  O34  1  0.491412  0.933820  0.671055  1
  O  O35  1  0.256839  0.405882  0.479424  1
  O  O36  1  0.384228  0.653222  0.557877  1
  O  O37  1  0.460509  0.200799  0.663819  1
  O  O38  1  0.241879  0.583816  0.261123  1
  O  O39  1  0.737639  0.097696  0.749845  1
  O  O40  1  0.263292  0.923970  0.223548  1
  O  O41  1  0.766833  0.430831  0.738616  1
  O  O42  1  0.531767  0.811558  0.384926  1
  O  O43  1  0.612526  0.329654  0.459419  1
  O  O44  1  0.740867  0.577809  0.494255  1
  O  O45  1  0.514292  0.075717  0.299533  1
  O  O46  1  0.893518  0.859581  0.591910  1
  O  O47  1  0.389191  0.346200  0.113993  1
  O  O48  1  0.323104  0.582474  0.965762  1
  O  O49  1  0.036240  0.082083  0.745032  1
  O  O50  1  0.465020  0.861448  0.099437  1
  O  O51  1  0.908658  0.342507  0.564033  1
  O  O52  1  0.728326  0.671374  0.186510  1
  O  O53  1  0.810084  0.149022  0.258776  1
  O  O54  1  0.911577  0.594942  0.051027  1
  O  O55  1  0.009015  0.177980  0.120475  1
