# generated using pymatgen
data_Li2MnV3O8
_symmetry_space_group_name_H-M   'P 1'
_cell_length_a   5.93114883
_cell_length_b   5.93093430
_cell_length_c   9.92888155
_cell_angle_alpha   89.99373422
_cell_angle_beta   90.00313978
_cell_angle_gamma   119.99880034
_symmetry_Int_Tables_number   1
_chemical_formula_structural   Li2MnV3O8
_chemical_formula_sum   'Li4 Mn2 V6 O16'
_cell_volume   302.48103076
_cell_formula_units_Z   2
loop_
 _symmetry_equiv_pos_site_id
 _symmetry_equiv_pos_as_xyz
  1  'x, y, z'
loop_
 _atom_site_type_symbol
 _atom_site_label
 _atom_site_symmetry_multiplicity
 _atom_site_fract_x
 _atom_site_fract_y
 _atom_site_fract_z
 _atom_site_occupancy
  Li  Li0  1  0.333363  0.666655  0.894130  1
  Li  Li1  1  0.999884  0.000018  0.996890  1
  Li  Li2  1  0.000116  0.000135  0.496890  1
  Li  Li3  1  0.666637  0.333293  0.394130  1
  Mn  Mn4  1  0.333386  0.666724  0.497412  1
  Mn  Mn5  1  0.666614  0.333338  0.997412  1
  V  V6  1  0.158222  0.820282  0.214450  1
  V  V7  1  0.179599  0.337972  0.214465  1
  V  V8  1  0.661904  0.841639  0.214468  1
  V  V9  1  0.338096  0.179735  0.714468  1
  V  V10  1  0.841778  0.662061  0.714450  1
  V  V11  1  0.820401  0.158373  0.714465  1
  O  O12  1  0.169245  0.858384  0.609259  1
  O  O13  1  0.033662  0.532725  0.325792  1
  O  O14  1  0.333254  0.666649  0.103107  1
  O  O15  1  0.999903  0.999934  0.313839  1
  O  O16  1  0.000097  0.000032  0.813839  1
  O  O17  1  0.141784  0.310922  0.609268  1
  O  O18  1  0.498972  0.966239  0.325796  1
  O  O19  1  0.467151  0.500871  0.325790  1
  O  O20  1  0.310752  0.141674  0.109254  1
  O  O21  1  0.689248  0.830922  0.609254  1
  O  O22  1  0.501028  0.467268  0.825796  1
  O  O23  1  0.532849  0.033720  0.825790  1
  O  O24  1  0.666746  0.333395  0.603107  1
  O  O25  1  0.830755  0.689138  0.109259  1
  O  O26  1  0.966338  0.499064  0.825792  1
  O  O27  1  0.858216  0.169138  0.109268  1
