# generated using pymatgen
data_Li7MnP4O14F
_symmetry_space_group_name_H-M   'P 1'
_cell_length_a   6.39248216
_cell_length_b   6.39248216
_cell_length_c   14.67585382
_cell_angle_alpha   83.81733539
_cell_angle_beta   96.18266461
_cell_angle_gamma   101.07571623
_symmetry_Int_Tables_number   1
_chemical_formula_structural   Li7MnP4O14F
_chemical_formula_sum   'Li14 Mn2 P8 O28 F2'
_cell_volume   582.78690768
_cell_formula_units_Z   2
loop_
 _symmetry_equiv_pos_site_id
 _symmetry_equiv_pos_as_xyz
  1  'x, y, z'
loop_
 _atom_site_type_symbol
 _atom_site_label
 _atom_site_symmetry_multiplicity
 _atom_site_fract_x
 _atom_site_fract_y
 _atom_site_fract_z
 _atom_site_occupancy
  Li  Li0  1  0.011895  0.394399  0.824002  1
  Li  Li1  1  0.633347  0.825476  0.834992  1
  Li  Li2  1  0.605601  0.988105  0.324002  1
  Li  Li3  1  0.174524  0.366653  0.334992  1
  Li  Li4  1  0.895781  0.949145  0.493668  1
  Li  Li5  1  0.523294  0.326166  0.820976  1
  Li  Li6  1  0.050855  0.104219  0.993668  1
  Li  Li7  1  0.877828  0.581446  0.973985  1
  Li  Li8  1  0.673834  0.476706  0.320976  1
  Li  Li9  1  0.418554  0.122172  0.473985  1
  Li  Li10  1  0.525840  0.036377  0.986216  1
  Li  Li11  1  0.963623  0.474160  0.486216  1
  Li  Li12  1  0.697529  0.133076  0.659382  1
  Li  Li13  1  0.866924  0.302471  0.159382  1
  Mn  Mn14  1  0.279247  0.720831  0.657044  1
  Mn  Mn15  1  0.279169  0.720753  0.157044  1
  P  P16  1  0.137869  0.913471  0.831395  1
  P  P17  1  0.086529  0.862131  0.331395  1
  P  P18  1  0.380161  0.529307  0.981749  1
  P  P19  1  0.470693  0.619839  0.481749  1
  P  P20  1  0.160344  0.191090  0.656253  1
  P  P21  1  0.808910  0.839656  0.156253  1
  P  P22  1  0.749100  0.619407  0.654644  1
  P  P23  1  0.380593  0.250900  0.154644  1
  O  O24  1  0.295039  0.791742  0.797879  1
  O  O25  1  0.208258  0.704961  0.297879  1
  O  O26  1  0.145102  0.420357  0.960620  1
  O  O27  1  0.256090  0.613249  0.518876  1
  O  O28  1  0.579643  0.854898  0.460620  1
  O  O29  1  0.386751  0.743910  0.018876  1
  O  O30  1  0.627407  0.784386  0.683689  1
  O  O31  1  0.261855  0.388177  0.708159  1
  O  O32  1  0.541964  0.537439  0.911022  1
  O  O33  1  0.035968  0.037478  0.737975  1
  O  O34  1  0.215614  0.372593  0.183689  1
  O  O35  1  0.611823  0.738145  0.208159  1
  O  O36  1  0.462561  0.458036  0.411022  1
  O  O37  1  0.962522  0.964032  0.237975  1
  O  O38  1  0.940027  0.769938  0.867958  1
  O  O39  1  0.247518  0.085590  0.893889  1
  O  O40  1  0.613544  0.507694  0.566498  1
  O  O41  1  0.955856  0.727125  0.612964  1
  O  O42  1  0.230062  0.059973  0.367958  1
  O  O43  1  0.332020  0.085342  0.621069  1
  O  O44  1  0.914410  0.752483  0.393889  1
  O  O45  1  0.492306  0.386456  0.066498  1
  O  O46  1  0.764778  0.427975  0.726081  1
  O  O47  1  0.272875  0.044144  0.112964  1
  O  O48  1  0.914658  0.667980  0.121069  1
  O  O49  1  0.572025  0.235222  0.226081  1
  O  O50  1  0.971439  0.211061  0.583725  1
  O  O51  1  0.788939  0.028561  0.083725  1
  F  F52  1  0.708254  0.126422  0.882724  1
  F  F53  1  0.873578  0.291746  0.382724  1
