# generated using pymatgen
data_LiFeF3
_symmetry_space_group_name_H-M   'P 1'
_cell_length_a   8.33340960
_cell_length_b   5.50293396
_cell_length_c   6.58202854
_cell_angle_alpha   96.15514180
_cell_angle_beta   91.45899854
_cell_angle_gamma   124.68196489
_symmetry_Int_Tables_number   1
_chemical_formula_structural   LiFeF3
_chemical_formula_sum   'Li4 Fe4 F12'
_cell_volume   245.39497860
_cell_formula_units_Z   4
loop_
 _symmetry_equiv_pos_site_id
 _symmetry_equiv_pos_as_xyz
  1  'x, y, z'
loop_
 _atom_site_type_symbol
 _atom_site_label
 _atom_site_symmetry_multiplicity
 _atom_site_fract_x
 _atom_site_fract_y
 _atom_site_fract_z
 _atom_site_occupancy
  Li  Li0  1  0.591073  0.793415  0.694929  1
  Li  Li1  1  0.232812  0.532975  0.122623  1
  Li  Li2  1  0.767188  0.467025  0.877377  1
  Li  Li3  1  0.408927  0.206585  0.305071  1
  Fe  Fe4  1  0.089290  0.342955  0.598123  1
  Fe  Fe5  1  0.282285  0.034812  0.794549  1
  Fe  Fe6  1  0.717715  0.965188  0.205451  1
  Fe  Fe7  1  0.910710  0.657045  0.401877  1
  F  F8  1  0.979650  0.597356  0.692874  1
  F  F9  1  0.152109  0.263600  0.871523  1
  F  F10  1  0.183971  0.071124  0.481998  1
  F  F11  1  0.346129  0.744728  0.640371  1
  F  F12  1  0.711652  0.092937  0.930303  1
  F  F13  1  0.459734  0.574569  0.240375  1
  F  F14  1  0.540266  0.425431  0.759625  1
  F  F15  1  0.288348  0.907063  0.069697  1
  F  F16  1  0.653871  0.255272  0.359629  1
  F  F17  1  0.816029  0.928876  0.518002  1
  F  F18  1  0.847891  0.736400  0.128477  1
  F  F19  1  0.020350  0.402644  0.307126  1
