# generated using pymatgen
data_Sb8O11F2
_symmetry_space_group_name_H-M   'P 1'
_cell_length_a   20.83169980
_cell_length_b   4.24416126
_cell_length_c   10.51513788
_cell_angle_alpha   90.00000000
_cell_angle_beta   60.70379622
_cell_angle_gamma   90.00000000
_symmetry_Int_Tables_number   1
_chemical_formula_structural   Sb8O11F2
_chemical_formula_sum   'Sb16 O22 F4'
_cell_volume   810.77189882
_cell_formula_units_Z   2
loop_
 _symmetry_equiv_pos_site_id
 _symmetry_equiv_pos_as_xyz
  1  'x, y, z'
loop_
 _atom_site_type_symbol
 _atom_site_label
 _atom_site_symmetry_multiplicity
 _atom_site_fract_x
 _atom_site_fract_y
 _atom_site_fract_z
 _atom_site_occupancy
  Sb  Sb0  1  0.993101  0.721022  0.671464  1
  Sb  Sb1  1  0.073050  0.187289  0.862603  1
  Sb  Sb2  1  0.254976  0.984378  0.887955  1
  Sb  Sb3  1  0.245024  0.484378  0.612045  1
  Sb  Sb4  1  0.193116  0.448371  0.171545  1
  Sb  Sb5  1  0.306884  0.948371  0.328455  1
  Sb  Sb6  1  0.426950  0.687289  0.637397  1
  Sb  Sb7  1  0.506899  0.221022  0.828536  1
  Sb  Sb8  1  0.493101  0.778978  0.171464  1
  Sb  Sb9  1  0.573050  0.312711  0.362603  1
  Sb  Sb10  1  0.693116  0.051629  0.671545  1
  Sb  Sb11  1  0.806884  0.551629  0.828455  1
  Sb  Sb12  1  0.754976  0.515622  0.387955  1
  Sb  Sb13  1  0.745024  0.015622  0.112045  1
  Sb  Sb14  1  0.926950  0.812711  0.137397  1
  Sb  Sb15  1  0.006899  0.278978  0.328536  1
  O  O16  1  0.014491  0.088382  0.763785  1
  O  O17  1  0.134481  0.503811  0.708842  1
  O  O18  1  0.254876  0.464658  0.948701  1
  O  O19  1  0.000000  0.500000  0.000000  1
  O  O20  1  0.101600  0.408791  0.156649  1
  O  O21  1  0.280373  0.461131  0.397542  1
  O  O22  1  0.245124  0.964658  0.551299  1
  O  O23  1  0.365519  0.003811  0.791158  1
  O  O24  1  0.485509  0.588382  0.736215  1
  O  O25  1  0.219627  0.961131  0.102458  1
  O  O26  1  0.398400  0.908791  0.343351  1
  O  O27  1  0.500000  0.000000  0.500000  1
  O  O28  1  0.601600  0.091209  0.656649  1
  O  O29  1  0.780373  0.038869  0.897542  1
  O  O30  1  0.514491  0.411618  0.263785  1
  O  O31  1  0.634481  0.996189  0.208842  1
  O  O32  1  0.754876  0.035342  0.448701  1
  O  O33  1  0.719627  0.538869  0.602458  1
  O  O34  1  0.898400  0.591209  0.843351  1
  O  O35  1  0.745124  0.535342  0.051299  1
  O  O36  1  0.865519  0.496189  0.291158  1
  O  O37  1  0.985509  0.911618  0.236215  1
  F  F38  1  0.069773  0.017295  0.388370  1
  F  F39  1  0.430227  0.517295  0.111630  1
  F  F40  1  0.569773  0.482705  0.888370  1
  F  F41  1  0.930227  0.982705  0.611630  1
