# generated using pymatgen
data_Sr8Nd2Fe5(MoO6)5
_symmetry_space_group_name_H-M   'P 1'
_cell_length_a   5.66071945
_cell_length_b   5.69713151
_cell_length_c   39.96370788
_cell_angle_alpha   90.14025009
_cell_angle_beta   90.00000000
_cell_angle_gamma   90.00000000
_symmetry_Int_Tables_number   1
_chemical_formula_structural   Sr8Nd2Fe5(MoO6)5
_chemical_formula_sum   'Sr16 Nd4 Fe10 Mo10 O60'
_cell_volume   1288.82024902
_cell_formula_units_Z   2
loop_
 _symmetry_equiv_pos_site_id
 _symmetry_equiv_pos_as_xyz
  1  'x, y, z'
loop_
 _atom_site_type_symbol
 _atom_site_label
 _atom_site_symmetry_multiplicity
 _atom_site_fract_x
 _atom_site_fract_y
 _atom_site_fract_z
 _atom_site_occupancy
  Sr  Sr0  1  0.017586  0.009288  0.048955  1
  Sr  Sr1  1  0.012481  0.012256  0.250997  1
  Sr  Sr2  1  0.015358  0.001136  0.449296  1
  Sr  Sr3  1  0.007495  0.001395  0.848878  1
  Sr  Sr4  1  0.492505  0.501395  0.348878  1
  Sr  Sr5  1  0.482414  0.509288  0.548955  1
  Sr  Sr6  1  0.487519  0.512256  0.750997  1
  Sr  Sr7  1  0.484642  0.501136  0.949296  1
  Sr  Sr8  1  0.507495  0.498605  0.251122  1
  Sr  Sr9  1  0.517586  0.490712  0.051045  1
  Sr  Sr10  1  0.515358  0.498864  0.650704  1
  Sr  Sr11  1  0.512481  0.487744  0.849003  1
  Sr  Sr12  1  0.984642  0.998864  0.150704  1
  Sr  Sr13  1  0.992505  -0.001395  0.751122  1
  Sr  Sr14  1  0.982414  0.990712  0.551045  1
  Sr  Sr15  1  0.987519  0.987744  0.349003  1
  Nd  Nd16  1  0.020996  0.011934  0.651363  1
  Nd  Nd17  1  0.479004  0.511934  0.151363  1
  Nd  Nd18  1  0.520996  0.488066  0.448637  1
  Nd  Nd19  1  0.979004  0.988066  0.948637  1
  Fe  Fe20  1  0.999343  0.494891  0.899634  1
  Fe  Fe21  1  0.500034  -0.000464  0.000089  1
  Fe  Fe22  1  0.499343  0.005109  0.200366  1
  Fe  Fe23  1  0.499966  0.000464  0.599911  1
  Fe  Fe24  1  0.500657  0.994891  0.399634  1
  Fe  Fe25  1  0.500000  0.000000  0.800000  1
  Fe  Fe26  1  0.000034  0.500464  0.099911  1
  Fe  Fe27  1  0.000657  0.505109  0.700366  1
  Fe  Fe28  1  0.999966  0.499536  0.500089  1
  Fe  Fe29  1  0.000000  0.500000  0.300000  1
  Mo  Mo30  1  0.001570  0.499086  0.999555  1
  Mo  Mo31  1  0.998009  0.501778  0.199973  1
  Mo  Mo32  1  0.001991  0.498222  0.400027  1
  Mo  Mo33  1  0.998430  0.500914  0.600445  1
  Mo  Mo34  1  0.000000  0.500000  0.800000  1
  Mo  Mo35  1  0.501570  0.000914  0.100445  1
  Mo  Mo36  1  0.500000  0.000000  0.300000  1
  Mo  Mo37  1  0.498430  0.999086  0.499555  1
  Mo  Mo38  1  0.498009  0.998222  0.900027  1
  Mo  Mo39  1  0.501991  0.001778  0.699973  1
  O  O40  1  0.994431  0.568381  0.049907  1
  O  O41  1  0.998024  0.570388  0.246280  1
  O  O42  1  0.989312  0.558055  0.448726  1
  O  O43  1  0.992914  0.591669  0.649952  1
  O  O44  1  0.993456  0.560577  0.850706  1
  O  O45  1  0.265625  0.269521  0.205467  1
  O  O46  1  0.252821  0.262433  0.609543  1
  O  O47  1  0.272844  0.268106  0.409360  1
  O  O48  1  0.267450  0.275561  0.006315  1
  O  O49  1  0.249710  0.274627  0.805996  1
  O  O50  1  0.264927  0.272425  0.094183  1
  O  O51  1  0.253835  0.258709  0.690370  1
  O  O52  1  0.260948  0.261894  0.293873  1
  O  O53  1  0.271997  0.283792  0.490137  1
  O  O54  1  0.263527  0.259999  0.893694  1
  O  O55  1  0.228003  0.783792  0.990137  1
  O  O56  1  0.246165  0.758709  0.190370  1
  O  O57  1  0.236473  0.759999  0.393694  1
  O  O58  1  0.235073  0.772425  0.594183  1
  O  O59  1  0.239052  0.761894  0.793873  1
  O  O60  1  0.250290  0.774627  0.305996  1
  O  O61  1  0.247179  0.762433  0.109543  1
  O  O62  1  0.234375  0.769521  0.705467  1
  O  O63  1  0.232550  0.775561  0.506315  1
  O  O64  1  0.227156  0.768106  0.909360  1
  O  O65  1  0.510688  0.058055  0.948726  1
  O  O66  1  0.505569  0.068381  0.549907  1
  O  O67  1  0.507086  0.091669  0.149952  1
  O  O68  1  0.506544  0.060577  0.350706  1
  O  O69  1  0.501976  0.070388  0.746280  1
  O  O70  1  0.492914  0.908331  0.450048  1
  O  O71  1  0.493456  0.939423  0.249294  1
  O  O72  1  0.489312  0.941945  0.651274  1
  O  O73  1  0.498024  0.929612  0.853720  1
  O  O74  1  0.494431  0.931619  0.050093  1
  O  O75  1  0.767450  0.224439  0.093685  1
  O  O76  1  0.772844  0.231894  0.690640  1
  O  O77  1  0.752821  0.237567  0.490457  1
  O  O78  1  0.749710  0.225373  0.294004  1
  O  O79  1  0.765625  0.230479  0.894533  1
  O  O80  1  0.763527  0.240001  0.206306  1
  O  O81  1  0.771997  0.216208  0.609863  1
  O  O82  1  0.753835  0.241291  0.409630  1
  O  O83  1  0.764927  0.227575  0.005817  1
  O  O84  1  0.760948  0.238106  0.806127  1
  O  O85  1  0.728003  0.716208  0.109863  1
  O  O86  1  0.736473  0.740001  0.706306  1
  O  O87  1  0.735073  0.727575  0.505817  1
  O  O88  1  0.739052  0.738106  0.306127  1
  O  O89  1  0.746165  0.741291  0.909630  1
  O  O90  1  0.727156  0.731894  0.190640  1
  O  O91  1  0.747179  0.737567  0.990457  1
  O  O92  1  0.732550  0.724439  0.593685  1
  O  O93  1  0.734375  0.730479  0.394533  1
  O  O94  1  0.750290  0.725373  0.794004  1
  O  O95  1  0.001976  0.429612  0.353720  1
  O  O96  1  0.010688  0.441945  0.151274  1
  O  O97  1  0.006544  0.439423  0.749294  1
  O  O98  1  0.005569  0.431619  0.550093  1
  O  O99  1  0.007086  0.408331  0.950048  1
