# generated using pymatgen
data_LiFeSiO4
_symmetry_space_group_name_H-M   'P 1'
_cell_length_a   9.97793190
_cell_length_b   10.20023184
_cell_length_c   17.20849406
_cell_angle_alpha   105.66117792
_cell_angle_beta   106.85274688
_cell_angle_gamma   60.71834601
_symmetry_Int_Tables_number   1
_chemical_formula_structural   LiFeSiO4
_chemical_formula_sum   'Li16 Fe16 Si16 O64'
_cell_volume   1444.70627348
_cell_formula_units_Z   16
loop_
 _symmetry_equiv_pos_site_id
 _symmetry_equiv_pos_as_xyz
  1  'x, y, z'
loop_
 _atom_site_type_symbol
 _atom_site_label
 _atom_site_symmetry_multiplicity
 _atom_site_fract_x
 _atom_site_fract_y
 _atom_site_fract_z
 _atom_site_occupancy
  Li  Li0  1  0.626887  0.993644  0.184731  1
  Li  Li1  1  0.065211  0.987525  0.686729  1
  Li  Li2  1  0.817403  0.883524  0.435711  1
  Li  Li3  1  0.382131  0.820241  0.436870  1
  Li  Li4  1  0.736049  0.884587  0.935638  1
  Li  Li5  1  0.235087  0.820243  0.937272  1
  Li  Li6  1  0.118963  0.565247  0.187996  1
  Li  Li7  1  0.633993  0.487525  0.186729  1
  Li  Li8  1  0.004270  0.555383  0.687442  1
  Li  Li9  1  0.564199  0.493644  0.684731  1
  Li  Li10  1  0.315001  0.384587  0.435638  1
  Li  Li11  1  0.881942  0.320243  0.437272  1
  Li  Li12  1  0.734784  0.383524  0.935711  1
  Li  Li13  1  0.234498  0.320241  0.936870  1
  Li  Li14  1  0.127790  0.055383  0.187442  1
  Li  Li15  1  0.503786  0.065247  0.687995  1
  Fe  Fe16  1  0.497741  0.941066  0.312451  1
  Fe  Fe17  1  0.374082  0.002226  0.812616  1
  Fe  Fe18  1  0.870364  0.944641  0.812768  1
  Fe  Fe19  1  0.764614  0.679522  0.061104  1
  Fe  Fe20  1  0.261434  0.614376  0.062679  1
  Fe  Fe21  1  0.118760  0.682181  0.561890  1
  Fe  Fe22  1  0.686769  0.613148  0.562108  1
  Fe  Fe23  1  0.436308  0.502226  0.312616  1
  Fe  Fe24  1  0.997762  0.444641  0.312768  1
  Fe  Fe25  1  0.369421  0.506917  0.811713  1
  Fe  Fe26  1  0.873644  0.441066  0.812451  1
  Fe  Fe27  1  0.760950  0.182181  0.061890  1
  Fe  Fe28  1  0.262190  0.113148  0.062108  1
  Fe  Fe29  1  0.616968  0.179522  0.561104  1
  Fe  Fe30  1  0.186867  0.114376  0.562679  1
  Fe  Fe31  1  0.935375  0.006917  0.311713  1
  Si  Si32  1  0.939922  0.872108  0.122358  1
  Si  Si33  1  0.442203  0.808719  0.124301  1
  Si  Si34  1  0.811922  0.868666  0.623007  1
  Si  Si35  1  0.374170  0.813170  0.624917  1
  Si  Si36  1  0.124717  0.688959  0.374054  1
  Si  Si37  1  0.686097  0.626596  0.374976  1
  Si  Si38  1  0.562862  0.684589  0.873791  1
  Si  Si39  1  0.060336  0.629166  0.875510  1
  Si  Si40  1  0.942419  0.368666  0.123007  1
  Si  Si41  1  0.437577  0.313170  0.124917  1
  Si  Si42  1  0.310328  0.372108  0.622358  1
  Si  Si43  1  0.873381  0.308719  0.624301  1
  Si  Si44  1  0.626339  0.184589  0.373791  1
  Si  Si45  1  0.186010  0.129166  0.375510  1
  Si  Si46  1  0.560378  0.188959  0.874054  1
  Si  Si47  1  0.062284  0.126596  0.874976  1
  O  O48  1  0.366281  0.994170  0.388726  1
  O  O49  1  0.322791  0.900418  0.046783  1
  O  O50  1  0.861646  0.924574  0.204769  1
  O  O51  1  0.372796  0.916704  0.207603  1
  O  O52  1  0.822296  0.821496  0.045136  1
  O  O53  1  0.619273  0.789971  0.133957  1
  O  O54  1  0.987258  0.864708  0.382685  1
  O  O55  1  0.029016  0.992379  0.888508  1
  O  O56  1  0.321730  0.901475  0.545436  1
  O  O57  1  0.418147  0.927763  0.704875  1
  O  O58  1  0.920930  0.912773  0.708274  1
  O  O59  1  0.113945  0.725766  0.134870  1
  O  O60  1  0.903322  0.824638  0.546839  1
  O  O61  1  0.684166  0.776987  0.355853  1
  O  O62  1  0.227728  0.791322  0.635322  1
  O  O63  1  0.446429  0.640846  0.110415  1
  O  O64  1  0.537150  0.859480  0.882096  1
  O  O65  1  0.280211  0.687704  0.357820  1
  O  O66  1  0.797244  0.721179  0.633720  1
  O  O67  1  0.607921  0.670236  0.456218  1
  O  O68  1  0.892311  0.779790  0.856137  1
  O  O69  1  0.069061  0.577605  0.297031  1
  O  O70  1  0.579078  0.562215  0.297709  1
  O  O71  1  0.169863  0.610727  0.456222  1
  O  O72  1  0.949799  0.516162  0.106466  1
  O  O73  1  0.523134  0.645214  0.611527  1
  O  O74  1  0.389747  0.689708  0.858451  1
  O  O75  1  0.176786  0.672042  0.956784  1
  O  O76  1  0.867112  0.492379  0.388508  1
  O  O77  1  0.322230  0.401475  0.045436  1
  O  O78  1  0.358964  0.427763  0.204875  1
  O  O79  1  0.874572  0.412773  0.208274  1
  O  O80  1  0.150922  0.568149  0.796950  1
  O  O81  1  0.653059  0.569297  0.797755  1
  O  O82  1  0.138324  0.518383  0.605103  1
  O  O83  1  0.676194  0.607906  0.956640  1
  O  O84  1  0.818880  0.324638  0.046839  1
  O  O85  1  0.616273  0.291322  0.135322  1
  O  O86  1  0.028275  0.494170  0.888726  1
  O  O87  1  0.485466  0.359480  0.382096  1
  O  O88  1  0.823573  0.400418  0.546783  1
  O  O89  1  0.418549  0.424574  0.704769  1
  O  O90  1  0.918103  0.416704  0.707603  1
  O  O91  1  0.115297  0.221179  0.133720  1
  O  O92  1  0.184035  0.279790  0.356137  1
  O  O93  1  0.401344  0.321496  0.545136  1
  O  O94  1  0.443178  0.145214  0.111527  1
  O  O95  1  0.724713  0.289971  0.633957  1
  O  O96  1  0.530719  0.364708  0.882685  1
  O  O97  1  0.778996  0.189708  0.358451  1
  O  O98  1  0.295160  0.225766  0.634870  1
  O  O99  1  0.107956  0.172042  0.456784  1
  O  O100  1  0.894701  0.276987  0.855853  1
  O  O101  1  0.077878  0.068149  0.296950  1
  O  O102  1  0.575397  0.069297  0.297755  1
  O  O103  1  0.948396  0.018383  0.105103  1
  O  O104  1  0.672539  0.107906  0.456640  1
  O  O105  1  0.023140  0.140846  0.610415  1
  O  O106  1  0.389905  0.187704  0.857820  1
  O  O107  1  0.178061  0.170236  0.956218  1
  O  O108  1  0.650363  0.077605  0.797031  1
  O  O109  1  0.156416  0.062215  0.797709  1
  O  O110  1  0.675633  0.110727  0.956222  1
  O  O111  1  0.640505  0.016162  0.606466  1
