# generated using pymatgen
data_Zn2P2HNO8
_symmetry_space_group_name_H-M   'P 1'
_cell_length_a   5.32111292
_cell_length_b   8.99689160
_cell_length_c   9.81228913
_cell_angle_alpha   75.51312778
_cell_angle_beta   78.15387591
_cell_angle_gamma   72.67794250
_symmetry_Int_Tables_number   1
_chemical_formula_structural   Zn2P2HNO8
_chemical_formula_sum   'Zn4 P4 H2 N2 O16'
_cell_volume   429.81567909
_cell_formula_units_Z   2
loop_
 _symmetry_equiv_pos_site_id
 _symmetry_equiv_pos_as_xyz
  1  'x, y, z'
loop_
 _atom_site_type_symbol
 _atom_site_label
 _atom_site_symmetry_multiplicity
 _atom_site_fract_x
 _atom_site_fract_y
 _atom_site_fract_z
 _atom_site_occupancy
  Zn  Zn0  1  0.877875  0.387191  0.232281  1
  Zn  Zn1  1  0.122125  0.612809  0.767719  1
  Zn  Zn2  1  0.697123  0.110088  0.112002  1
  Zn  Zn3  1  0.302877  0.889912  0.887998  1
  P  P4  1  0.393341  0.245057  0.388238  1
  P  P5  1  0.606659  0.754943  0.611762  1
  P  P6  1  0.165906  0.243595  0.950565  1
  P  P7  1  0.834094  0.756405  0.049435  1
  H  H8  1  0.441651  0.081157  0.598502  1
  H  H9  1  0.558349  0.918843  0.401498  1
  N  N10  1  0.214743  0.694893  0.329975  1
  N  N11  1  0.785257  0.305107  0.670025  1
  O  O12  1  0.093375  0.290408  0.383676  1
  O  O13  1  0.906625  0.709592  0.616324  1
  O  O14  1  0.922867  0.593998  0.145502  1
  O  O15  1  0.077133  0.406002  0.854498  1
  O  O16  1  0.513979  0.385391  0.315651  1
  O  O17  1  0.486021  0.614609  0.684349  1
  O  O18  1  0.964679  0.236766  0.095457  1
  O  O19  1  0.035321  0.763234  0.904543  1
  O  O20  1  0.533729  0.101443  0.313816  1
  O  O21  1  0.466271  0.898557  0.686184  1
  O  O22  1  0.864375  0.886394  0.117016  1
  O  O23  1  0.135625  0.113606  0.882984  1
  O  O24  1  0.451900  0.217371  0.977489  1
  O  O25  1  0.548100  0.782629  0.022511  1
  O  O26  1  0.442579  0.193838  0.548006  1
  O  O27  1  0.557421  0.806162  0.451994  1
