# generated using pymatgen
data_Ba2Sc2O5
_symmetry_space_group_name_H-M   'P 1'
_cell_length_a   6.13425647
_cell_length_b   16.53159339
_cell_length_c   5.99137469
_cell_angle_alpha   90.00000000
_cell_angle_beta   90.00000000
_cell_angle_gamma   90.00000000
_symmetry_Int_Tables_number   1
_chemical_formula_structural   Ba2Sc2O5
_chemical_formula_sum   'Ba8 Sc8 O20'
_cell_volume   607.57951792
_cell_formula_units_Z   4
loop_
 _symmetry_equiv_pos_site_id
 _symmetry_equiv_pos_as_xyz
  1  'x, y, z'
loop_
 _atom_site_type_symbol
 _atom_site_label
 _atom_site_symmetry_multiplicity
 _atom_site_fract_x
 _atom_site_fract_y
 _atom_site_fract_z
 _atom_site_occupancy
  Ba  Ba0  1  0.015782  0.109008  0.495427  1
  Ba  Ba1  1  0.015782  0.390992  0.495427  1
  Ba  Ba2  1  0.484218  0.109008  0.995427  1
  Ba  Ba3  1  0.484218  0.390992  0.995427  1
  Ba  Ba4  1  0.515782  0.609008  0.004573  1
  Ba  Ba5  1  0.515782  0.890992  0.004573  1
  Ba  Ba6  1  0.984218  0.609008  0.504573  1
  Ba  Ba7  1  0.984218  0.890992  0.504573  1
  Sc  Sc8  1  0.000000  0.000000  0.000000  1
  Sc  Sc9  1  0.000000  0.500000  0.000000  1
  Sc  Sc10  1  0.070581  0.750000  0.036679  1
  Sc  Sc11  1  0.429419  0.750000  0.536679  1
  Sc  Sc12  1  0.500000  0.500000  0.500000  1
  Sc  Sc13  1  0.500000  0.000000  0.500000  1
  Sc  Sc14  1  0.570581  0.250000  0.463321  1
  Sc  Sc15  1  0.929419  0.250000  0.963321  1
  O  O16  1  0.046061  0.137855  0.007092  1
  O  O17  1  0.046061  0.362145  0.007092  1
  O  O18  1  0.153993  0.750000  0.358917  1
  O  O19  1  0.252268  0.506833  0.248170  1
  O  O20  1  0.252268  0.993167  0.248170  1
  O  O21  1  0.247732  0.506833  0.748170  1
  O  O22  1  0.247732  0.993167  0.748170  1
  O  O23  1  0.346007  0.750000  0.858917  1
  O  O24  1  0.453939  0.137855  0.507092  1
  O  O25  1  0.453939  0.362145  0.507092  1
  O  O26  1  0.546061  0.637855  0.492908  1
  O  O27  1  0.546061  0.862145  0.492908  1
  O  O28  1  0.653993  0.250000  0.141083  1
  O  O29  1  0.752268  0.006833  0.251830  1
  O  O30  1  0.752268  0.493167  0.251830  1
  O  O31  1  0.747732  0.006833  0.751830  1
  O  O32  1  0.747732  0.493167  0.751830  1
  O  O33  1  0.846007  0.250000  0.641083  1
  O  O34  1  0.953939  0.637855  0.992908  1
  O  O35  1  0.953939  0.862145  0.992908  1
