# generated using pymatgen
data_Li2Co(CO3)2
_symmetry_space_group_name_H-M   'P 1'
_cell_length_a   7.82624793
_cell_length_b   7.68941865
_cell_length_c   9.59659479
_cell_angle_alpha   89.99868745
_cell_angle_beta   90.00223256
_cell_angle_gamma   110.87463948
_symmetry_Int_Tables_number   1
_chemical_formula_structural   Li2Co(CO3)2
_chemical_formula_sum   'Li8 Co4 C8 O24'
_cell_volume   539.60947295
_cell_formula_units_Z   4
loop_
 _symmetry_equiv_pos_site_id
 _symmetry_equiv_pos_as_xyz
  1  'x, y, z'
loop_
 _atom_site_type_symbol
 _atom_site_label
 _atom_site_symmetry_multiplicity
 _atom_site_fract_x
 _atom_site_fract_y
 _atom_site_fract_z
 _atom_site_occupancy
  Li  Li0  1  0.994508  0.297183  0.867698  1
  Li  Li1  1  0.673945  0.945465  0.360383  1
  Li  Li2  1  0.826043  0.554554  0.860282  1
  Li  Li3  1  0.505504  0.202791  0.367674  1
  Li  Li4  1  0.462152  0.734757  0.634239  1
  Li  Li5  1  0.170197  0.463867  0.136320  1
  Li  Li6  1  0.329755  0.036123  0.636305  1
  Li  Li7  1  0.037846  0.765218  0.134210  1
  Co  Co8  1  0.933557  0.424291  0.374863  1
  Co  Co9  1  0.566505  0.075785  0.874804  1
  Co  Co10  1  0.438891  0.928385  0.117834  1
  Co  Co11  1  0.061185  0.571658  0.617902  1
  C  C12  1  0.762742  0.301818  0.105929  1
  C  C13  1  0.737265  0.198206  0.605952  1
  C  C14  1  0.762307  0.665899  0.505650  1
  C  C15  1  0.737689  0.834083  0.005546  1
  C  C16  1  0.251464  0.156849  0.002037  1
  C  C17  1  0.248537  0.343138  0.502002  1
  C  C18  1  0.268546  0.798812  0.384803  1
  C  C19  1  0.231420  0.701172  0.884783  1
  O  O20  1  0.909084  0.413628  0.164358  1
  O  O21  1  0.874051  0.299390  0.679637  1
  O  O22  1  0.739604  0.204060  0.469222  1
  O  O23  1  0.760418  0.295980  0.969242  1
  O  O24  1  0.625949  0.200536  0.179641  1
  O  O25  1  0.842052  0.645082  0.621897  1
  O  O26  1  0.590868  0.086442  0.664300  1
  O  O27  1  0.788402  0.589196  0.391125  1
  O  O28  1  0.840784  0.736175  0.004703  1
  O  O29  1  0.659254  0.763851  0.504771  1
  O  O30  1  0.711605  0.910816  0.891058  1
  O  O31  1  0.359110  0.168916  0.895879  1
  O  O32  1  0.657911  0.854832  0.121818  1
  O  O33  1  0.345017  0.238658  0.508382  1
  O  O34  1  0.240462  0.038583  0.102913  1
  O  O35  1  0.259539  0.461406  0.602856  1
  O  O36  1  0.154978  0.261324  0.008436  1
  O  O37  1  0.414127  0.922658  0.332853  1
  O  O38  1  0.140863  0.331063  0.395838  1
  O  O39  1  0.255415  0.699158  0.019227  1
  O  O40  1  0.345413  0.820040  0.803548  1
  O  O41  1  0.154569  0.679961  0.303565  1
  O  O42  1  0.244578  0.800886  0.519217  1
  O  O43  1  0.085891  0.577304  0.832881  1
