# generated using pymatgen
data_Ge2As2O7
_symmetry_space_group_name_H-M   'P 1'
_cell_length_a   13.07289856
_cell_length_b   7.21412355
_cell_length_c   7.28262830
_cell_angle_alpha   94.12946808
_cell_angle_beta   90.70419970
_cell_angle_gamma   96.09822516
_symmetry_Int_Tables_number   1
_chemical_formula_structural   Ge2As2O7
_chemical_formula_sum   'Ge8 As8 O28'
_cell_volume   681.02384132
_cell_formula_units_Z   4
loop_
 _symmetry_equiv_pos_site_id
 _symmetry_equiv_pos_as_xyz
  1  'x, y, z'
loop_
 _atom_site_type_symbol
 _atom_site_label
 _atom_site_symmetry_multiplicity
 _atom_site_fract_x
 _atom_site_fract_y
 _atom_site_fract_z
 _atom_site_occupancy
  Ge  Ge0  1  0.120795  0.932300  0.916133  1
  Ge  Ge1  1  0.191197  0.311745  0.509060  1
  Ge  Ge2  1  0.381030  0.662075  0.129389  1
  Ge  Ge3  1  0.405628  0.263395  0.654299  1
  Ge  Ge4  1  0.594372  0.736605  0.345701  1
  Ge  Ge5  1  0.618970  0.337925  0.870611  1
  Ge  Ge6  1  0.808803  0.688255  0.490940  1
  Ge  Ge7  1  0.879205  0.067700  0.083867  1
  As  As8  1  0.026912  0.840021  0.312805  1
  As  As9  1  0.161556  0.398275  0.074591  1
  As  As10  1  0.344755  0.835553  0.734228  1
  As  As11  1  0.335835  0.075070  0.263962  1
  As  As12  1  0.664165  0.924930  0.736038  1
  As  As13  1  0.655245  0.164447  0.265772  1
  As  As14  1  0.838444  0.601725  0.925409  1
  As  As15  1  0.973088  0.159979  0.687195  1
  O  O16  1  0.969120  0.054200  0.268741  1
  O  O17  1  0.055973  0.778540  0.072979  1
  O  O18  1  0.098149  0.305146  0.685415  1
  O  O19  1  0.140947  0.424823  0.325074  1
  O  O20  1  0.217402  0.794853  0.838447  1
  O  O21  1  0.171362  0.143937  0.039670  1
  O  O22  1  0.227457  0.087506  0.428786  1
  O  O23  1  0.307859  0.417570  0.622260  1
  O  O24  1  0.325075  0.821908  0.286409  1
  O  O25  1  0.302073  0.446840  0.089949  1
  O  O26  1  0.367378  0.086395  0.803878  1
  O  O27  1  0.419428  0.770530  0.927837  1
  O  O28  1  0.437527  0.155702  0.437241  1
  O  O29  1  0.489949  0.590083  0.242223  1
  O  O30  1  0.510051  0.409917  0.757777  1
  O  O31  1  0.562473  0.844298  0.562759  1
  O  O32  1  0.580572  0.229470  0.072163  1
  O  O33  1  0.632622  0.913605  0.196122  1
  O  O34  1  0.697927  0.553160  0.910051  1
  O  O35  1  0.674925  0.178092  0.713591  1
  O  O36  1  0.692141  0.582430  0.377741  1
  O  O37  1  0.772543  0.912494  0.571214  1
  O  O38  1  0.828638  0.856063  0.960330  1
  O  O39  1  0.782598  0.205147  0.161553  1
  O  O40  1  0.859054  0.575177  0.674926  1
  O  O41  1  0.901851  0.694854  0.314585  1
  O  O42  1  0.944027  0.221460  0.927021  1
  O  O43  1  0.030880  0.945800  0.731259  1
