# generated using pymatgen
data_Fe4O5F3
_symmetry_space_group_name_H-M   'P 1'
_cell_length_a   4.77356416
_cell_length_b   10.01232688
_cell_length_c   6.06488368
_cell_angle_alpha   72.19201667
_cell_angle_beta   89.85174585
_cell_angle_gamma   85.46441701
_symmetry_Int_Tables_number   1
_chemical_formula_structural   Fe4O5F3
_chemical_formula_sum   'Fe8 O10 F6'
_cell_volume   275.04399661
_cell_formula_units_Z   2
loop_
 _symmetry_equiv_pos_site_id
 _symmetry_equiv_pos_as_xyz
  1  'x, y, z'
loop_
 _atom_site_type_symbol
 _atom_site_label
 _atom_site_symmetry_multiplicity
 _atom_site_fract_x
 _atom_site_fract_y
 _atom_site_fract_z
 _atom_site_occupancy
  Fe  Fe0  1  0.444102  0.235409  0.641770  1
  Fe  Fe1  1  0.500118  0.746575  0.879927  1
  Fe  Fe2  1  0.554910  0.771350  0.360992  1
  Fe  Fe3  1  0.515226  0.271111  0.105691  1
  Fe  Fe4  1  0.027446  0.992104  0.502475  1
  Fe  Fe5  1  0.976086  0.493580  0.757117  1
  Fe  Fe6  1  0.999901  0.006109  0.998519  1
  Fe  Fe7  1  0.989551  0.489095  0.250859  1
  O  O8  1  0.798710  0.409201  0.046027  1
  O  O9  1  0.837713  0.911865  0.292932  1
  O  O10  1  0.697284  0.655582  0.173071  1
  O  O11  1  0.691717  0.152885  0.922646  1
  O  O12  1  0.696691  0.655316  0.671263  1
  O  O13  1  0.317963  0.851228  0.075114  1
  O  O14  1  0.327666  0.845483  0.575115  1
  O  O15  1  0.285757  0.349567  0.825367  1
  O  O16  1  0.300877  0.342950  0.329764  1
  O  O17  1  0.178394  0.087566  0.706362  1
  F  F18  1  0.790001  0.398122  0.549280  1
  F  F19  1  0.808450  0.900901  0.795870  1
  F  F20  1  0.699521  0.148522  0.426313  1
  F  F21  1  0.192880  0.597802  0.952009  1
  F  F22  1  0.204626  0.102224  0.203952  1
  F  F23  1  0.164412  0.585455  0.457565  1
