# generated using pymatgen
data_LiMnF3
_symmetry_space_group_name_H-M   'P 1'
_cell_length_a   5.41345918
_cell_length_b   5.41249589
_cell_length_c   9.86130506
_cell_angle_alpha   90.01258667
_cell_angle_beta   89.97105034
_cell_angle_gamma   120.01148580
_symmetry_Int_Tables_number   1
_chemical_formula_structural   LiMnF3
_chemical_formula_sum   'Li4 Mn4 F12'
_cell_volume   250.19990452
_cell_formula_units_Z   4
loop_
 _symmetry_equiv_pos_site_id
 _symmetry_equiv_pos_as_xyz
  1  'x, y, z'
loop_
 _atom_site_type_symbol
 _atom_site_label
 _atom_site_symmetry_multiplicity
 _atom_site_fract_x
 _atom_site_fract_y
 _atom_site_fract_z
 _atom_site_occupancy
  Li  Li0  1  0.333095  0.666630  0.432606  1
  Li  Li1  1  0.333587  0.666617  0.067019  1
  Li  Li2  1  0.666927  0.333496  0.567365  1
  Li  Li3  1  0.666503  0.333308  0.932962  1
  Mn  Mn4  1  0.000002  -0.000017  0.249773  1
  Mn  Mn5  1  0.000027  0.000013  0.750224  1
  Mn  Mn6  1  0.333362  0.666705  0.750082  1
  Mn  Mn7  1  0.666648  0.333260  0.249909  1
  F  F8  1  0.007318  0.667884  0.869725  1
  F  F9  1  0.332229  0.992772  0.630528  1
  F  F10  1  0.007392  0.339405  0.630554  1
  F  F11  1  0.331951  0.339505  0.869832  1
  F  F12  1  0.660475  0.992481  0.869888  1
  F  F13  1  0.339273  0.332122  0.369375  1
  F  F14  1  0.660674  0.667941  0.630557  1
  F  F15  1  0.339549  0.007387  0.130187  1
  F  F16  1  0.668136  0.660457  0.130105  1
  F  F17  1  0.992398  0.660513  0.369649  1
  F  F18  1  0.667746  0.007215  0.369387  1
  F  F19  1  0.992708  0.332102  0.130275  1
