# generated using pymatgen
data_Li8Fe7Co(PO4)12
_symmetry_space_group_name_H-M   'P 1'
_cell_length_a   8.66337516
_cell_length_b   8.79268724
_cell_length_c   12.22460168
_cell_angle_alpha   90.03181104
_cell_angle_beta   90.00683403
_cell_angle_gamma   89.94156008
_symmetry_Int_Tables_number   1
_chemical_formula_structural   Li8Fe7Co(PO4)12
_chemical_formula_sum   'Li8 Fe7 Co1 P12 O48'
_cell_volume   931.20043069
_cell_formula_units_Z   1
loop_
 _symmetry_equiv_pos_site_id
 _symmetry_equiv_pos_as_xyz
  1  'x, y, z'
loop_
 _atom_site_type_symbol
 _atom_site_label
 _atom_site_symmetry_multiplicity
 _atom_site_fract_x
 _atom_site_fract_y
 _atom_site_fract_z
 _atom_site_occupancy
  Li  Li0  1  0.217230  0.722145  0.181266  1
  Li  Li1  1  0.217371  0.777637  0.818669  1
  Li  Li2  1  0.282213  0.222151  0.319072  1
  Li  Li3  1  0.283045  0.277775  0.681213  1
  Li  Li4  1  0.716905  0.722297  0.318799  1
  Li  Li5  1  0.717285  0.777162  0.681314  1
  Li  Li6  1  0.783082  0.222043  0.181152  1
  Li  Li7  1  0.782666  0.278163  0.818422  1
  Fe  Fe8  1  0.249372  0.959382  0.612889  1
  Fe  Fe9  1  0.248688  0.541462  0.387248  1
  Fe  Fe10  1  0.250862  0.041057  0.112826  1
  Fe  Fe11  1  0.250735  0.458919  0.887233  1
  Fe  Fe12  1  0.749457  0.540849  0.112338  1
  Fe  Fe13  1  0.749105  0.959429  0.887336  1
  Fe  Fe14  1  0.750452  0.040946  0.387219  1
  Co  Co15  1  0.752077  0.458518  0.611575  1
  P  P16  1  0.037698  0.250615  0.499824  1
  P  P17  1  0.460426  0.750008  -0.000023  1
  P  P18  1  0.539821  0.249990  0.000143  1
  P  P19  1  0.960386  0.749289  0.499679  1
  P  P20  1  0.105940  0.393129  0.147106  1
  P  P21  1  0.106098  0.106842  0.852868  1
  P  P22  1  0.395858  0.604830  0.646521  1
  P  P23  1  0.394124  0.893045  0.353062  1
  P  P24  1  0.605869  0.107377  0.646287  1
  P  P25  1  0.606138  0.392523  0.353590  1
  P  P26  1  0.894474  0.606926  0.851892  1
  P  P27  1  0.894033  0.892996  0.147115  1
  O  O28  1  0.056189  0.642131  0.428867  1
  O  O29  1  0.055770  0.856734  0.571390  1
  O  O30  1  0.072927  0.895425  0.155925  1
  O  O31  1  0.073259  0.604233  0.843392  1
  O  O32  1  0.145333  0.164125  0.580527  1
  O  O33  1  0.146413  0.338797  0.421462  1
  O  O34  1  0.156400  0.433820  0.030695  1
  O  O35  1  0.156519  0.066242  0.969339  1
  O  O36  1  0.162389  0.232327  0.180136  1
  O  O37  1  0.162558  0.267526  0.819956  1
  O  O38  1  0.174543  0.513925  0.225904  1
  O  O39  1  0.174607  0.985636  0.774055  1
  O  O40  1  0.325644  0.014083  0.274191  1
  O  O41  1  0.326637  0.485453  0.725883  1
  O  O42  1  0.340420  0.766763  0.680022  1
  O  O43  1  0.337649  0.732380  0.320020  1
  O  O44  1  0.344594  0.565828  0.530255  1
  O  O45  1  0.343171  0.934044  0.469592  1
  O  O46  1  0.352041  0.837611  0.079367  1
  O  O47  1  0.352072  0.662350  0.920770  1
  O  O48  1  0.427190  0.105363  0.655982  1
  O  O49  1  0.427446  0.395397  0.344729  1
  O  O50  1  0.443405  0.142686  0.071169  1
  O  O51  1  0.443447  0.357426  0.928869  1
  O  O52  1  0.556871  0.642566  0.071206  1
  O  O53  1  0.556693  0.857183  0.928836  1
  O  O54  1  0.575605  0.602159  0.655388  1
  O  O55  1  0.572964  0.895569  0.344093  1
  O  O56  1  0.647950  0.337818  0.079379  1
  O  O57  1  0.648016  0.162367  0.920597  1
  O  O58  1  0.656510  0.066525  0.530376  1
  O  O59  1  0.656247  0.434615  0.470291  1
  O  O60  1  0.662752  0.232372  0.319942  1
  O  O61  1  0.663163  0.269480  0.679760  1
  O  O62  1  0.673546  0.514144  0.274803  1
  O  O63  1  0.674642  0.987214  0.725709  1
  O  O64  1  0.825691  0.013782  0.226005  1
  O  O65  1  0.825048  0.485541  0.773652  1
  O  O66  1  0.837381  0.732094  0.179937  1
  O  O67  1  0.837368  0.767848  0.819606  1
  O  O68  1  0.843737  0.565921  0.968295  1
  O  O69  1  0.843320  0.933647  0.030704  1
  O  O70  1  0.851143  0.661750  0.580207  1
  O  O71  1  0.851765  0.837347  0.420922  1
  O  O72  1  0.927056  0.104370  0.844067  1
  O  O73  1  0.926906  0.395933  0.156088  1
  O  O74  1  0.942516  0.142833  0.428984  1
  O  O75  1  0.941080  0.359116  0.572023  1
