# generated using pymatgen
data_Ti(PO3)4
_symmetry_space_group_name_H-M   'P 1'
_cell_length_a   7.20900458
_cell_length_b   7.20886534
_cell_length_c   9.81859461
_cell_angle_alpha   80.16565563
_cell_angle_beta   71.82458645
_cell_angle_gamma   110.02908224
_symmetry_Int_Tables_number   1
_chemical_formula_structural   Ti(PO3)4
_chemical_formula_sum   'Ti2 P8 O24'
_cell_volume   432.88876122
_cell_formula_units_Z   2
loop_
 _symmetry_equiv_pos_site_id
 _symmetry_equiv_pos_as_xyz
  1  'x, y, z'
loop_
 _atom_site_type_symbol
 _atom_site_label
 _atom_site_symmetry_multiplicity
 _atom_site_fract_x
 _atom_site_fract_y
 _atom_site_fract_z
 _atom_site_occupancy
  Ti  Ti0  1  0.189768  0.939764  0.749972  1
  Ti  Ti1  1  0.810232  0.060236  0.250028  1
  P  P2  1  0.019510  0.311272  0.698002  1
  P  P3  1  0.273775  0.731748  0.478687  1
  P  P4  1  0.710400  0.752433  0.021326  1
  P  P5  1  0.490575  0.282449  0.198016  1
  P  P6  1  0.509425  0.717551  0.801984  1
  P  P7  1  0.289600  0.247567  0.978674  1
  P  P8  1  0.726225  0.268252  0.521313  1
  P  P9  1  0.980490  0.688728  0.301998  1
  O  O10  1  0.031580  0.643549  0.158243  1
  O  O11  1  0.095054  0.249289  0.096401  1
  O  O12  1  0.176681  0.713289  0.355327  1
  O  O13  1  0.154286  0.808442  0.596440  1
  O  O14  1  0.227156  0.498355  0.556717  1
  O  O15  1  0.069847  0.123440  0.688530  1
  O  O16  1  0.301159  0.189826  0.341926  1
  O  O17  1  0.444606  0.215847  0.056939  1
  O  O18  1  0.514109  0.850871  0.399280  1
  O  O19  1  0.312410  0.758582  0.811181  1
  O  O20  1  0.568333  0.531868  0.144585  1
  O  O21  1  0.749891  0.913065  0.100989  1
  O  O22  1  0.250109  0.086935  0.899011  1
  O  O23  1  0.431667  0.468132  0.855415  1
  O  O24  1  0.687590  0.241418  0.188819  1
  O  O25  1  0.485891  0.149129  0.600720  1
  O  O26  1  0.555394  0.784153  0.943061  1
  O  O27  1  0.698841  0.810174  0.658074  1
  O  O28  1  0.930153  0.876560  0.311470  1
  O  O29  1  0.772844  0.501645  0.443283  1
  O  O30  1  0.845714  0.191558  0.403560  1
  O  O31  1  0.823319  0.286711  0.644673  1
  O  O32  1  0.904946  0.750711  0.903599  1
  O  O33  1  0.968420  0.356451  0.841757  1
