# generated using pymatgen
data_Na6H2Pd(S2O7)2
_symmetry_space_group_name_H-M   'P 1'
_cell_length_a   13.02670479
_cell_length_b   13.02670479
_cell_length_c   13.02670479
_cell_angle_alpha   100.03213391
_cell_angle_beta   100.03213391
_cell_angle_gamma   130.66227254
_symmetry_Int_Tables_number   1
_chemical_formula_structural   Na6H2Pd(S2O7)2
_chemical_formula_sum   'Na24 H8 Pd4 S16 O56'
_cell_volume   1523.81766480
_cell_formula_units_Z   4
loop_
 _symmetry_equiv_pos_site_id
 _symmetry_equiv_pos_as_xyz
  1  'x, y, z'
loop_
 _atom_site_type_symbol
 _atom_site_label
 _atom_site_symmetry_multiplicity
 _atom_site_fract_x
 _atom_site_fract_y
 _atom_site_fract_z
 _atom_site_occupancy
  Na  Na0  1  0.685601  0.145967  0.582756  1
  Na  Na1  1  0.063211  0.102846  0.917244  1
  Na  Na2  1  0.602846  0.185601  0.039635  1
  Na  Na3  1  0.645967  0.563211  0.460365  1
  Na  Na4  1  0.314399  0.854033  0.417244  1
  Na  Na5  1  0.936789  0.897154  0.082756  1
  Na  Na6  1  0.397154  0.814399  0.960365  1
  Na  Na7  1  0.354033  0.436789  0.539635  1
  Na  Na8  1  0.831519  0.358332  0.873925  1
  Na  Na9  1  0.984407  0.957594  0.626075  1
  Na  Na10  1  0.457594  0.331519  0.973187  1
  Na  Na11  1  0.858332  0.484407  0.526813  1
  Na  Na12  1  0.168481  0.641668  0.126075  1
  Na  Na13  1  0.015593  0.042406  0.373925  1
  Na  Na14  1  0.542406  0.668481  0.026813  1
  Na  Na15  1  0.141668  0.515593  0.473187  1
  Na  Na16  1  0.684841  0.865790  0.423553  1
  Na  Na17  1  0.942237  0.261288  0.076447  1
  Na  Na18  1  0.761288  0.184841  0.319051  1
  Na  Na19  1  0.365790  0.442237  0.180949  1
  Na  Na20  1  0.315159  0.134210  0.576447  1
  Na  Na21  1  0.057763  0.738712  0.923553  1
  Na  Na22  1  0.238712  0.815159  0.680949  1
  Na  Na23  1  0.634210  0.557763  0.819051  1
  H  H24  1  0.455814  0.725473  0.251246  1
  H  H25  1  0.974227  0.204568  0.248754  1
  H  H26  1  0.704568  0.955814  0.230341  1
  H  H27  1  0.225473  0.474227  0.269659  1
  H  H28  1  0.544186  0.274527  0.748754  1
  H  H29  1  0.025773  0.795432  0.751246  1
  H  H30  1  0.295432  0.044186  0.769659  1
  H  H31  1  0.774527  0.525773  0.730341  1
  Pd  Pd32  1  0.375000  0.125000  0.250000  1
  Pd  Pd33  1  0.625000  0.875000  0.750000  1
  Pd  Pd34  1  0.875000  0.625000  0.250000  1
  Pd  Pd35  1  0.125000  0.375000  0.750000  1
  S  S36  1  0.400126  0.965928  0.178798  1
  S  S37  1  0.287129  0.221328  0.321202  1
  S  S38  1  0.721328  0.900126  0.934199  1
  S  S39  1  0.465928  0.787129  0.565801  1
  S  S40  1  0.599874  0.034072  0.821202  1
  S  S41  1  0.712871  0.778672  0.678798  1
  S  S42  1  0.278672  0.099874  0.065801  1
  S  S43  1  0.534072  0.212871  0.434199  1
  S  S44  1  0.950818  0.501681  0.268456  1
  S  S45  1  0.733225  0.682362  0.231544  1
  S  S46  1  0.182362  0.450818  0.949137  1
  S  S47  1  0.001681  0.233225  0.550863  1
  S  S48  1  0.049182  0.498319  0.731544  1
  S  S49  1  0.266775  0.317638  0.768456  1
  S  S50  1  0.817638  0.549182  0.050863  1
  S  S51  1  0.998319  0.766775  0.449136  1
  O  O52  1  0.542251  0.048966  0.161513  1
  O  O53  1  0.387454  0.380738  0.338487  1
  O  O54  1  0.880738  0.042251  0.993285  1
  O  O55  1  0.548966  0.887454  0.506715  1
  O  O56  1  0.457749  0.951034  0.838487  1
  O  O57  1  0.612546  0.619262  0.661513  1
  O  O58  1  0.119262  0.957749  0.006715  1
  O  O59  1  0.451034  0.112546  0.493285  1
  O  O60  1  0.277065  0.845694  0.067791  1
  O  O61  1  0.277903  0.209275  0.432209  1
  O  O62  1  0.709275  0.777065  0.931371  1
  O  O63  1  0.345694  0.777903  0.568629  1
  O  O64  1  0.722935  0.154306  0.932209  1
  O  O65  1  0.722097  0.790725  0.567791  1
  O  O66  1  0.290725  0.222935  0.068629  1
  O  O67  1  0.654306  0.222097  0.431371  1
  O  O68  1  0.392538  0.898140  0.262401  1
  O  O69  1  0.135740  0.130137  0.237599  1
  O  O70  1  0.630137  0.892538  0.994397  1
  O  O71  1  0.398140  0.635740  0.505603  1
  O  O72  1  0.607462  0.101860  0.737599  1
  O  O73  1  0.864260  0.869863  0.762401  1
  O  O74  1  0.369863  0.107462  0.005603  1
  O  O75  1  0.601860  0.364260  0.494397  1
  O  O76  1  0.109977  0.602591  0.286057  1
  O  O77  1  0.816534  0.823920  0.213943  1
  O  O78  1  0.323920  0.609977  0.007386  1
  O  O79  1  0.102591  0.316534  0.492614  1
  O  O80  1  0.890023  0.397409  0.713943  1
  O  O81  1  0.183466  0.176080  0.786057  1
  O  O82  1  0.676080  0.390023  0.992614  1
  O  O83  1  0.897409  0.683466  0.507386  1
  O  O84  1  0.860027  0.367640  0.163739  1
  O  O85  1  0.703901  0.696288  0.336261  1
  O  O86  1  0.196288  0.360027  0.992387  1
  O  O87  1  0.867640  0.203901  0.507613  1
  O  O88  1  0.139973  0.632360  0.836261  1
  O  O89  1  0.296099  0.303712  0.663739  1
  O  O90  1  0.803712  0.639973  0.007613  1
  O  O91  1  0.132360  0.796099  0.492387  1
  O  O92  1  0.929011  0.457100  0.367735  1
  O  O93  1  0.589365  0.561276  0.132265  1
  O  O94  1  0.061276  0.429011  0.971911  1
  O  O95  1  0.957100  0.089365  0.528089  1
  O  O96  1  0.070989  0.542900  0.632265  1
  O  O97  1  0.410635  0.438724  0.867735  1
  O  O98  1  0.938724  0.570989  0.028089  1
  O  O99  1  0.042900  0.910635  0.471911  1
  O  O100  1  0.388231  0.632510  0.262054  1
  O  O101  1  0.870456  0.126177  0.237946  1
  O  O102  1  0.626177  0.888231  0.255721  1
  O  O103  1  0.132510  0.370456  0.244279  1
  O  O104  1  0.611769  0.367490  0.737946  1
  O  O105  1  0.129544  0.873823  0.762054  1
  O  O106  1  0.373823  0.111769  0.744279  1
  O  O107  1  0.867490  0.629544  0.755721  1
