# generated using pymatgen
data_B5PH4Cl
_symmetry_space_group_name_H-M   'P 1'
_cell_length_a   13.61457097
_cell_length_b   12.67229281
_cell_length_c   13.94752437
_cell_angle_alpha   90.00000000
_cell_angle_beta   90.00000000
_cell_angle_gamma   90.00000000
_symmetry_Int_Tables_number   1
_chemical_formula_structural   B5PH4Cl
_chemical_formula_sum   'B80 P16 H64 Cl16'
_cell_volume   2406.33611084
_cell_formula_units_Z   16
loop_
 _symmetry_equiv_pos_site_id
 _symmetry_equiv_pos_as_xyz
  1  'x, y, z'
loop_
 _atom_site_type_symbol
 _atom_site_label
 _atom_site_symmetry_multiplicity
 _atom_site_fract_x
 _atom_site_fract_y
 _atom_site_fract_z
 _atom_site_occupancy
  B  B0  1  0.006351  0.811757  0.366530  1
  B  B1  1  0.006351  0.688243  0.866530  1
  B  B2  1  0.013216  0.183196  0.076486  1
  B  B3  1  0.013216  0.316804  0.576486  1
  B  B4  1  0.020664  0.796559  0.491344  1
  B  B5  1  0.020664  0.703441  0.991344  1
  B  B6  1  0.072214  0.828882  0.019001  1
  B  B7  1  0.072214  0.671118  0.519001  1
  B  B8  1  0.097033  0.600871  0.411639  1
  B  B9  1  0.097033  0.899129  0.911639  1
  B  B10  1  0.110314  0.871966  0.429171  1
  B  B11  1  0.110314  0.628034  0.929171  1
  B  B12  1  0.146927  0.714765  0.022397  1
  B  B13  1  0.146927  0.785235  0.522397  1
  B  B14  1  0.193280  0.671644  0.346819  1
  B  B15  1  0.193280  0.828356  0.846819  1
  B  B16  1  0.194039  0.666274  0.472784  1
  B  B17  1  0.194039  0.833726  0.972784  1
  B  B18  1  0.220511  0.789464  0.417622  1
  B  B19  1  0.220511  0.710536  0.917622  1
  B  B20  1  0.279489  0.289464  0.417622  1
  B  B21  1  0.279489  0.210536  0.917622  1
  B  B22  1  0.305961  0.166274  0.472784  1
  B  B23  1  0.305961  0.333726  0.972784  1
  B  B24  1  0.306720  0.171644  0.346819  1
  B  B25  1  0.306720  0.328356  0.846819  1
  B  B26  1  0.353073  0.285235  0.522397  1
  B  B27  1  0.353073  0.214765  0.022397  1
  B  B28  1  0.389686  0.371966  0.429171  1
  B  B29  1  0.389686  0.128034  0.929171  1
  B  B30  1  0.402967  0.100871  0.411639  1
  B  B31  1  0.402967  0.399129  0.911639  1
  B  B32  1  0.427786  0.171118  0.519001  1
  B  B33  1  0.427786  0.328882  0.019001  1
  B  B34  1  0.479336  0.296559  0.491344  1
  B  B35  1  0.479336  0.203441  0.991344  1
  B  B36  1  0.486784  0.683196  0.076486  1
  B  B37  1  0.486784  0.816804  0.576486  1
  B  B38  1  0.493649  0.311757  0.366530  1
  B  B39  1  0.493649  0.188243  0.866530  1
  B  B40  1  0.506351  0.811757  0.133470  1
  B  B41  1  0.506351  0.688243  0.633470  1
  B  B42  1  0.513216  0.183196  0.423514  1
  B  B43  1  0.513216  0.316804  0.923514  1
  B  B44  1  0.520664  0.703441  0.508656  1
  B  B45  1  0.520664  0.796559  0.008656  1
  B  B46  1  0.572214  0.671118  0.980999  1
  B  B47  1  0.572214  0.828882  0.480999  1
  B  B48  1  0.597033  0.600871  0.088361  1
  B  B49  1  0.597033  0.899129  0.588361  1
  B  B50  1  0.610314  0.628034  0.570829  1
  B  B51  1  0.610314  0.871966  0.070829  1
  B  B52  1  0.646927  0.785235  0.977603  1
  B  B53  1  0.646927  0.714765  0.477603  1
  B  B54  1  0.693279  0.671644  0.153181  1
  B  B55  1  0.693279  0.828356  0.653181  1
  B  B56  1  0.694039  0.666274  0.027216  1
  B  B57  1  0.694039  0.833726  0.527216  1
  B  B58  1  0.720511  0.710536  0.582378  1
  B  B59  1  0.720511  0.789464  0.082378  1
  B  B60  1  0.779489  0.210536  0.582378  1
  B  B61  1  0.779489  0.289464  0.082378  1
  B  B62  1  0.805961  0.166274  0.027216  1
  B  B63  1  0.805961  0.333726  0.527216  1
  B  B64  1  0.806721  0.171644  0.153181  1
  B  B65  1  0.806721  0.328356  0.653181  1
  B  B66  1  0.853073  0.285235  0.977603  1
  B  B67  1  0.853073  0.214765  0.477603  1
  B  B68  1  0.889686  0.128034  0.570829  1
  B  B69  1  0.889686  0.371966  0.070829  1
  B  B70  1  0.902967  0.100871  0.088361  1
  B  B71  1  0.902967  0.399129  0.588361  1
  B  B72  1  0.927786  0.171118  0.980999  1
  B  B73  1  0.927786  0.328882  0.480999  1
  B  B74  1  0.979336  0.203441  0.508656  1
  B  B75  1  0.979336  0.296559  0.008656  1
  B  B76  1  0.986784  0.816804  0.923514  1
  B  B77  1  0.986784  0.683196  0.423514  1
  B  B78  1  0.993649  0.188243  0.633470  1
  B  B79  1  0.993649  0.311757  0.133470  1
  P  P80  1  0.047291  0.672142  0.291329  1
  P  P81  1  0.047291  0.827858  0.791329  1
  P  P82  1  0.145438  0.821513  0.296107  1
  P  P83  1  0.145438  0.678487  0.796107  1
  P  P84  1  0.354562  0.321513  0.296107  1
  P  P85  1  0.354562  0.178487  0.796107  1
  P  P86  1  0.452709  0.172142  0.291329  1
  P  P87  1  0.452709  0.327858  0.791329  1
  P  P88  1  0.547291  0.672142  0.208671  1
  P  P89  1  0.547291  0.827858  0.708671  1
  P  P90  1  0.645438  0.678487  0.703893  1
  P  P91  1  0.645438  0.821513  0.203893  1
  P  P92  1  0.854562  0.178487  0.703893  1
  P  P93  1  0.854562  0.321513  0.203893  1
  P  P94  1  0.952709  0.172142  0.208671  1
  P  P95  1  0.952709  0.327858  0.708671  1
  H  H96  1  0.037243  0.159295  0.458393  1
  H  H97  1  0.037243  0.340705  0.958393  1
  H  H98  1  0.049118  0.623892  0.589655  1
  H  H99  1  0.049118  0.876108  0.089655  1
  H  H100  1  0.093557  0.145330  0.076390  1
  H  H101  1  0.093557  0.354670  0.576390  1
  H  H102  1  0.092502  0.507264  0.403433  1
  H  H103  1  0.092502  0.992736  0.903433  1
  H  H104  1  0.114480  0.966015  0.433134  1
  H  H105  1  0.114480  0.533985  0.933134  1
  H  H106  1  0.178421  0.679140  0.095445  1
  H  H107  1  0.178421  0.820860  0.595445  1
  H  H108  1  0.198842  0.173768  0.914059  1
  H  H109  1  0.198842  0.326232  0.414059  1
  H  H110  1  0.241142  0.116333  0.508290  1
  H  H111  1  0.241142  0.383667  0.008290  1
  H  H112  1  0.258858  0.616333  0.508290  1
  H  H113  1  0.258858  0.883667  0.008290  1
  H  H114  1  0.301158  0.826232  0.414059  1
  H  H115  1  0.301158  0.673768  0.914059  1
  H  H116  1  0.321579  0.179140  0.095445  1
  H  H117  1  0.321579  0.320860  0.595445  1
  H  H118  1  0.385520  0.466015  0.433134  1
  H  H119  1  0.385520  0.033985  0.933134  1
  H  H120  1  0.407498  0.007264  0.403433  1
  H  H121  1  0.407498  0.492736  0.903433  1
  H  H122  1  0.406443  0.645330  0.076390  1
  H  H123  1  0.406443  0.854670  0.576390  1
  H  H124  1  0.450882  0.376108  0.089655  1
  H  H125  1  0.450882  0.123892  0.589655  1
  H  H126  1  0.462757  0.659295  0.458393  1
  H  H127  1  0.462757  0.840705  0.958393  1
  H  H128  1  0.537243  0.159295  0.041607  1
  H  H129  1  0.537243  0.340705  0.541607  1
  H  H130  1  0.549118  0.623892  0.910345  1
  H  H131  1  0.549118  0.876108  0.410346  1
  H  H132  1  0.593557  0.145330  0.423610  1
  H  H133  1  0.593557  0.354670  0.923610  1
  H  H134  1  0.592502  0.507264  0.096567  1
  H  H135  1  0.592502  0.992736  0.596567  1
  H  H136  1  0.614480  0.533985  0.566866  1
  H  H137  1  0.614480  0.966015  0.066866  1
  H  H138  1  0.678421  0.820860  0.904555  1
  H  H139  1  0.678421  0.679140  0.404555  1
  H  H140  1  0.698842  0.173768  0.585941  1
  H  H141  1  0.698842  0.326232  0.085941  1
  H  H142  1  0.741142  0.116333  0.991710  1
  H  H143  1  0.741142  0.383667  0.491710  1
  H  H144  1  0.758858  0.616333  0.991710  1
  H  H145  1  0.758858  0.883667  0.491710  1
  H  H146  1  0.801158  0.673768  0.585941  1
  H  H147  1  0.801158  0.826232  0.085941  1
  H  H148  1  0.821579  0.320860  0.904555  1
  H  H149  1  0.821579  0.179140  0.404555  1
  H  H150  1  0.885520  0.033985  0.566866  1
  H  H151  1  0.885520  0.466015  0.066866  1
  H  H152  1  0.907498  0.007264  0.096567  1
  H  H153  1  0.907498  0.492736  0.596567  1
  H  H154  1  0.906443  0.854670  0.923610  1
  H  H155  1  0.906443  0.645330  0.423610  1
  H  H156  1  0.950882  0.123892  0.910345  1
  H  H157  1  0.950882  0.376108  0.410346  1
  H  H158  1  0.962757  0.659295  0.041607  1
  H  H159  1  0.962757  0.840705  0.541607  1
  Cl  Cl160  1  0.088427  0.387191  0.189253  1
  Cl  Cl161  1  0.088427  0.112809  0.689253  1
  Cl  Cl162  1  0.218532  0.106958  0.272514  1
  Cl  Cl163  1  0.218532  0.393042  0.772514  1
  Cl  Cl164  1  0.281468  0.606958  0.272514  1
  Cl  Cl165  1  0.281468  0.893042  0.772514  1
  Cl  Cl166  1  0.411573  0.887191  0.189253  1
  Cl  Cl167  1  0.411573  0.612809  0.689253  1
  Cl  Cl168  1  0.588427  0.387191  0.310747  1
  Cl  Cl169  1  0.588427  0.112809  0.810747  1
  Cl  Cl170  1  0.718532  0.106958  0.227486  1
  Cl  Cl171  1  0.718532  0.393042  0.727486  1
  Cl  Cl172  1  0.781468  0.606958  0.227486  1
  Cl  Cl173  1  0.781468  0.893042  0.727486  1
  Cl  Cl174  1  0.911573  0.612809  0.810747  1
  Cl  Cl175  1  0.911573  0.887191  0.310747  1
