# generated using pymatgen
data_Li4Fe2Ni3Sn(PO4)6
_symmetry_space_group_name_H-M   'P 1'
_cell_length_a   8.46631422
_cell_length_b   8.60606834
_cell_length_c   8.60338437
_cell_angle_alpha   62.38204903
_cell_angle_beta   62.84222532
_cell_angle_gamma   62.76491841
_symmetry_Int_Tables_number   1
_chemical_formula_structural   Li4Fe2Ni3Sn(PO4)6
_chemical_formula_sum   'Li4 Fe2 Ni3 Sn1 P6 O24'
_cell_volume   469.51241677
_cell_formula_units_Z   1
loop_
 _symmetry_equiv_pos_site_id
 _symmetry_equiv_pos_as_xyz
  1  'x, y, z'
loop_
 _atom_site_type_symbol
 _atom_site_label
 _atom_site_symmetry_multiplicity
 _atom_site_fract_x
 _atom_site_fract_y
 _atom_site_fract_z
 _atom_site_occupancy
  Li  Li0  1  0.745073  0.149492  0.352940  1
  Li  Li1  1  0.298799  0.841900  0.641206  1
  Li  Li2  1  0.637405  0.298926  0.847544  1
  Li  Li3  1  0.848154  0.637933  0.302994  1
  Fe  Fe4  1  0.015011  0.004001  0.000562  1
  Fe  Fe5  1  0.487543  0.502987  0.498068  1
  Ni  Ni6  1  0.142542  0.148457  0.146996  1
  Ni  Ni7  1  0.355939  0.354335  0.352085  1
  Ni  Ni8  1  0.646240  0.647700  0.650699  1
  Sn  Sn9  1  0.853035  0.847383  0.851639  1
  P  P10  1  0.250247  0.541334  0.954576  1
  P  P11  1  0.552648  0.956418  0.250615  1
  P  P12  1  0.944272  0.247584  0.541166  1
  P  P13  1  0.056248  0.744397  0.442815  1
  P  P14  1  0.440230  0.053494  0.747240  1
  P  P15  1  0.745872  0.442217  0.053659  1
  O  O16  1  0.110700  0.299920  0.496277  1
  O  O17  1  0.310350  0.514580  0.107646  1
  O  O18  1  0.053501  0.911600  0.262303  1
  O  O19  1  0.548758  0.103711  0.305399  1
  O  O20  1  0.021238  0.806183  0.605166  1
  O  O21  1  0.249315  0.595976  0.427529  1
  O  O22  1  0.250736  0.075640  0.900514  1
  O  O23  1  0.449674  0.235441  0.584324  1
  O  O24  1  0.174114  0.397237  0.988181  1
  O  O25  1  0.598203  0.426112  0.247933  1
  O  O26  1  0.101439  0.750776  0.917532  1
  O  O27  1  0.393706  0.008034  0.184022  1
  O  O28  1  0.601112  0.011534  0.819133  1
  O  O29  1  0.898503  0.249460  0.076814  1
  O  O30  1  0.407332  0.562060  0.758026  1
  O  O31  1  0.810928  0.602163  0.018516  1
  O  O32  1  0.563743  0.761807  0.409015  1
  O  O33  1  0.758242  0.914496  0.098092  1
  O  O34  1  0.749743  0.408076  0.566758  1
  O  O35  1  0.953535  0.179616  0.401197  1
  O  O36  1  0.474726  0.893828  0.688129  1
  O  O37  1  0.918994  0.097005  0.747071  1
  O  O38  1  0.684078  0.477441  0.895248  1
  O  O39  1  0.898070  0.675742  0.483370  1
