# generated using pymatgen
data_NaZn2HSe2O7
_symmetry_space_group_name_H-M   'P 1'
_cell_length_a   13.57149075
_cell_length_b   6.17704596
_cell_length_c   8.47213172
_cell_angle_alpha   90.00000000
_cell_angle_beta   90.00000000
_cell_angle_gamma   90.00000000
_symmetry_Int_Tables_number   1
_chemical_formula_structural   NaZn2HSe2O7
_chemical_formula_sum   'Na4 Zn8 H4 Se8 O28'
_cell_volume   710.23339202
_cell_formula_units_Z   4
loop_
 _symmetry_equiv_pos_site_id
 _symmetry_equiv_pos_as_xyz
  1  'x, y, z'
loop_
 _atom_site_type_symbol
 _atom_site_label
 _atom_site_symmetry_multiplicity
 _atom_site_fract_x
 _atom_site_fract_y
 _atom_site_fract_z
 _atom_site_occupancy
  Na  Na0  1  0.249665  0.250000  0.127998  1
  Na  Na1  1  0.250335  0.750000  0.627998  1
  Na  Na2  1  0.749665  0.250000  0.372002  1
  Na  Na3  1  0.750335  0.750000  0.872002  1
  Zn  Zn4  1  0.000000  0.000000  0.000000  1
  Zn  Zn5  1  0.000000  0.500000  0.000000  1
  Zn  Zn6  1  0.112814  0.750000  0.289930  1
  Zn  Zn7  1  0.387186  0.250000  0.789930  1
  Zn  Zn8  1  0.500000  0.000000  0.500000  1
  Zn  Zn9  1  0.500000  0.500000  0.500000  1
  Zn  Zn10  1  0.612814  0.750000  0.210070  1
  Zn  Zn11  1  0.887186  0.250000  0.710070  1
  H  H12  1  0.154361  0.750000  0.977596  1
  H  H13  1  0.345639  0.250000  0.477596  1
  H  H14  1  0.654361  0.750000  0.522404  1
  H  H15  1  0.845639  0.250000  0.022404  1
  Se  Se16  1  0.026474  0.250000  0.383336  1
  Se  Se17  1  0.170486  0.250000  0.774272  1
  Se  Se18  1  0.329514  0.750000  0.274272  1
  Se  Se19  1  0.473526  0.750000  0.883336  1
  Se  Se20  1  0.526474  0.250000  0.116664  1
  Se  Se21  1  0.670486  0.250000  0.725728  1
  Se  Se22  1  0.829514  0.750000  0.225728  1
  Se  Se23  1  0.973526  0.750000  0.616664  1
  O  O24  1  0.018151  0.031069  0.254566  1
  O  O25  1  0.018151  0.468931  0.254566  1
  O  O26  1  0.089204  0.750000  0.531859  1
  O  O27  1  0.094891  0.750000  0.041511  1
  O  O28  1  0.110137  0.250000  0.958450  1
  O  O29  1  0.245939  0.541919  0.301226  1
  O  O30  1  0.245939  0.958081  0.301226  1
  O  O31  1  0.254061  0.041919  0.801226  1
  O  O32  1  0.254061  0.458081  0.801226  1
  O  O33  1  0.389863  0.750000  0.458450  1
  O  O34  1  0.405109  0.250000  0.541511  1
  O  O35  1  0.410796  0.250000  0.031859  1
  O  O36  1  0.481849  0.531069  0.754566  1
  O  O37  1  0.481849  0.968931  0.754566  1
  O  O38  1  0.518151  0.031069  0.245434  1
  O  O39  1  0.518151  0.468931  0.245434  1
  O  O40  1  0.589204  0.750000  0.968141  1
  O  O41  1  0.594891  0.750000  0.458489  1
  O  O42  1  0.610137  0.250000  0.541550  1
  O  O43  1  0.745939  0.541919  0.198774  1
  O  O44  1  0.745939  0.958081  0.198774  1
  O  O45  1  0.754061  0.041919  0.698774  1
  O  O46  1  0.754061  0.458081  0.698774  1
  O  O47  1  0.889863  0.750000  0.041550  1
  O  O48  1  0.905109  0.250000  0.958489  1
  O  O49  1  0.910796  0.250000  0.468141  1
  O  O50  1  0.981849  0.531069  0.745434  1
  O  O51  1  0.981849  0.968931  0.745434  1
