# generated using pymatgen
data_Li6Mn5Fe(BO3)6
_symmetry_space_group_name_H-M   'P 1'
_cell_length_a   8.26034014
_cell_length_b   8.86982808
_cell_length_c   6.37662310
_cell_angle_alpha   68.93321862
_cell_angle_beta   90.00000000
_cell_angle_gamma   62.21647318
_symmetry_Int_Tables_number   1
_chemical_formula_structural   Li6Mn5Fe(BO3)6
_chemical_formula_sum   'Li6 Mn5 Fe1 B6 O18'
_cell_volume   377.68585858
_cell_formula_units_Z   1
loop_
 _symmetry_equiv_pos_site_id
 _symmetry_equiv_pos_as_xyz
  1  'x, y, z'
loop_
 _atom_site_type_symbol
 _atom_site_label
 _atom_site_symmetry_multiplicity
 _atom_site_fract_x
 _atom_site_fract_y
 _atom_site_fract_z
 _atom_site_occupancy
  Li  Li0  1  0.715960  0.983058  0.757907  1
  Li  Li1  1  0.715960  0.983058  0.259035  1
  Li  Li2  1  0.981729  0.301502  0.598703  1
  Li  Li3  1  0.981729  0.301502  0.099797  1
  Li  Li4  1  0.301123  0.716480  0.891973  1
  Li  Li5  1  0.301123  0.716480  0.391547  1
  Mn  Mn6  1  0.628775  0.359034  0.820482  1
  Mn  Mn7  1  0.360286  0.012014  0.493993  1
  Mn  Mn8  1  0.359156  0.012184  0.993908  1
  Mn  Mn9  1  0.011858  0.628778  0.185612  1
  Mn  Mn10  1  0.012264  0.627832  0.686084  1
  Fe  Fe11  1  0.630984  0.360507  0.319747  1
  B  B12  1  0.666734  0.665693  0.415215  1
  B  B13  1  0.666734  0.665693  0.919092  1
  B  B14  1  0.334615  0.333525  0.581957  1
  B  B15  1  0.334615  0.333525  0.084517  1
  B  B16  1  0.000079  -0.000125  0.000062  1
  B  B17  1  0.997838  0.000385  0.499808  1
  O  O18  1  0.884254  0.920577  0.539711  1
  O  O19  1  0.884160  0.922164  0.038918  1
  O  O20  1  0.860335  0.580063  0.960008  1
  O  O21  1  0.860335  0.580063  0.459930  1
  O  O22  1  0.922604  0.193199  0.903401  1
  O  O23  1  0.915968  0.194731  0.402635  1
  O  O24  1  0.559188  0.859092  0.320238  1
  O  O25  1  0.559188  0.859092  0.820670  1
  O  O26  1  0.580777  0.557875  0.975014  1
  O  O27  1  0.580777  0.557875  0.467111  1
  O  O28  1  0.528313  0.251798  0.621793  1
  O  O29  1  0.528313  0.251798  0.126410  1
  O  O30  1  0.191717  0.887354  0.556323  1
  O  O31  1  0.193751  0.884182  0.057909  1
  O  O32  1  0.222742  0.527120  0.486108  1
  O  O33  1  0.222742  0.527120  0.986772  1
  O  O34  1  0.251637  0.222388  0.638627  1
  O  O35  1  0.251637  0.222388  0.138986  1
