# generated using pymatgen
data_NaLiV2O6
_symmetry_space_group_name_H-M   'P 1'
_cell_length_a   7.02563011
_cell_length_b   7.02217040
_cell_length_c   11.87344750
_cell_angle_alpha   74.66994071
_cell_angle_beta   105.33835512
_cell_angle_gamma   97.48539695
_symmetry_Int_Tables_number   1
_chemical_formula_structural   NaLiV2O6
_chemical_formula_sum   'Na4 Li4 V8 O24'
_cell_volume   543.66540747
_cell_formula_units_Z   4
loop_
 _symmetry_equiv_pos_site_id
 _symmetry_equiv_pos_as_xyz
  1  'x, y, z'
loop_
 _atom_site_type_symbol
 _atom_site_label
 _atom_site_symmetry_multiplicity
 _atom_site_fract_x
 _atom_site_fract_y
 _atom_site_fract_z
 _atom_site_occupancy
  Na  Na0  1  0.719624  0.719036  0.875430  1
  Na  Na1  1  0.083943  0.081645  0.375876  1
  Na  Na2  1  0.714290  0.714424  0.374555  1
  Na  Na3  1  0.285776  0.282122  0.123251  1
  Li  Li4  1  0.093837  0.092637  0.874657  1
  Li  Li5  1  0.246732  0.247877  0.628073  1
  Li  Li6  1  0.908634  0.907214  0.628452  1
  Li  Li7  1  0.906532  0.908370  0.121517  1
  V  V8  1  0.198610  0.619269  0.875927  1
  V  V9  1  0.388016  0.806915  0.630897  1
  V  V10  1  0.199120  0.619338  0.378346  1
  V  V11  1  0.380118  0.799867  0.126693  1
  V  V12  1  0.614639  0.200236  0.870662  1
  V  V13  1  0.806175  0.383321  0.623340  1
  V  V14  1  0.623408  0.197762  0.374853  1
  V  V15  1  0.799979  0.384587  0.119009  1
  O  O16  1  0.024567  0.787790  0.822549  1
  O  O17  1  0.229413  0.989868  0.587898  1
  O  O18  1  0.017268  0.777893  0.318189  1
  O  O19  1  0.095356  0.388009  0.898843  1
  O  O20  1  0.361923  0.649235  0.774978  1
  O  O21  1  0.213751  0.975757  0.072309  1
  O  O22  1  0.622486  0.899702  0.656103  1
  O  O23  1  0.348379  0.659162  0.521350  1
  O  O24  1  0.100143  0.388998  0.413458  1
  O  O25  1  0.356588  0.645664  0.273305  1
  O  O26  1  0.642995  0.360824  0.973881  1
  O  O27  1  0.611733  0.902340  0.150837  1
  O  O28  1  0.382385  0.099560  0.844590  1
  O  O29  1  0.349779  0.640527  0.023145  1
  O  O30  1  0.644649  0.348533  0.725166  1
  O  O31  1  0.901130  0.617410  0.598557  1
  O  O32  1  0.651616  0.358365  0.477595  1
  O  O33  1  0.393957  0.096169  0.343790  1
  O  O34  1  0.781733  0.024990  0.926029  1
  O  O35  1  0.652446  0.349668  0.229348  1
  O  O36  1  0.901281  0.616525  0.094751  1
  O  O37  1  0.989060  0.222663  0.673067  1
  O  O38  1  0.782765  0.016662  0.433261  1
  O  O39  1  0.975169  0.219066  0.165458  1
