# generated using pymatgen
data_Sr2LaCl7
_symmetry_space_group_name_H-M   'P 1'
_cell_length_a   8.45179860
_cell_length_b   10.60051405
_cell_length_c   9.34670292
_cell_angle_alpha   90.00000000
_cell_angle_beta   52.88348142
_cell_angle_gamma   90.00000000
_symmetry_Int_Tables_number   1
_chemical_formula_structural   Sr2LaCl7
_chemical_formula_sum   'Sr4 La2 Cl14'
_cell_volume   667.75350437
_cell_formula_units_Z   2
loop_
 _symmetry_equiv_pos_site_id
 _symmetry_equiv_pos_as_xyz
  1  'x, y, z'
loop_
 _atom_site_type_symbol
 _atom_site_label
 _atom_site_symmetry_multiplicity
 _atom_site_fract_x
 _atom_site_fract_y
 _atom_site_fract_z
 _atom_site_occupancy
  Sr  Sr0  1  0.470102  0.028824  0.767616  1
  Sr  Sr1  1  0.470102  0.471176  0.767616  1
  Sr  Sr2  1  0.529898  0.528824  0.232384  1
  Sr  Sr3  1  0.529898  0.971176  0.232384  1
  La  La4  1  0.947017  0.250000  0.257975  1
  La  La5  1  0.052983  0.750000  0.742025  1
  Cl  Cl6  1  0.194372  0.250000  0.875951  1
  Cl  Cl7  1  0.236649  0.991237  0.625087  1
  Cl  Cl8  1  0.236649  0.508763  0.625087  1
  Cl  Cl9  1  0.265045  0.076929  0.155226  1
  Cl  Cl10  1  0.265045  0.423071  0.155226  1
  Cl  Cl11  1  0.346012  0.750000  0.806027  1
  Cl  Cl12  1  0.254241  0.750000  0.360491  1
  Cl  Cl13  1  0.745759  0.250000  0.639509  1
  Cl  Cl14  1  0.653988  0.250000  0.193973  1
  Cl  Cl15  1  0.734955  0.576929  0.844774  1
  Cl  Cl16  1  0.734955  0.923071  0.844774  1
  Cl  Cl17  1  0.763351  0.491237  0.374913  1
  Cl  Cl18  1  0.763351  0.008763  0.374913  1
  Cl  Cl19  1  0.805628  0.750000  0.124049  1
