# generated using pymatgen
data_Na2ErPCO7
_symmetry_space_group_name_H-M   'P 1'
_cell_length_a   9.20723618
_cell_length_b   6.95251629
_cell_length_c   5.33177120
_cell_angle_alpha   90.00000000
_cell_angle_beta   91.11824209
_cell_angle_gamma   90.00000000
_symmetry_Int_Tables_number   1
_chemical_formula_structural   Na2ErPCO7
_chemical_formula_sum   'Na4 Er2 P2 C2 O14'
_cell_volume   341.24011843
_cell_formula_units_Z   2
loop_
 _symmetry_equiv_pos_site_id
 _symmetry_equiv_pos_as_xyz
  1  'x, y, z'
loop_
 _atom_site_type_symbol
 _atom_site_label
 _atom_site_symmetry_multiplicity
 _atom_site_fract_x
 _atom_site_fract_y
 _atom_site_fract_z
 _atom_site_occupancy
  Na  Na0  1  0.222835  0.495526  0.233983  1
  Na  Na1  1  0.222835  0.004474  0.233983  1
  Na  Na2  1  0.777165  0.504474  0.766017  1
  Na  Na3  1  0.777165  0.995526  0.766017  1
  Er  Er4  1  0.359334  0.750000  0.772260  1
  Er  Er5  1  0.640666  0.250000  0.227740  1
  P  P6  1  0.418300  0.250000  0.708781  1
  P  P7  1  0.581700  0.750000  0.291219  1
  C  C8  1  0.066801  0.750000  0.731393  1
  C  C9  1  0.933199  0.250000  0.268607  1
  O  O10  1  0.069016  0.250000  0.292087  1
  O  O11  1  0.135153  0.750000  0.951315  1
  O  O12  1  0.154666  0.750000  0.534950  1
  O  O13  1  0.339557  0.067283  0.797584  1
  O  O14  1  0.339557  0.432717  0.797584  1
  O  O15  1  0.420805  0.750000  0.184977  1
  O  O16  1  0.426134  0.250000  0.416042  1
  O  O17  1  0.573866  0.750000  0.583958  1
  O  O18  1  0.579195  0.250000  0.815023  1
  O  O19  1  0.660443  0.567283  0.202416  1
  O  O20  1  0.660443  0.932717  0.202416  1
  O  O21  1  0.845334  0.250000  0.465050  1
  O  O22  1  0.864847  0.250000  0.048685  1
  O  O23  1  0.930984  0.750000  0.707913  1
