# generated using pymatgen
data_NiH48C16S8(NO7)2
_symmetry_space_group_name_H-M   'P 1'
_cell_length_a   9.86981241
_cell_length_b   10.48013744
_cell_length_c   11.41624790
_cell_angle_alpha   63.99315056
_cell_angle_beta   70.30655164
_cell_angle_gamma   87.24368334
_symmetry_Int_Tables_number   1
_chemical_formula_structural   NiH48C16S8(NO7)2
_chemical_formula_sum   'Ni1 H48 C16 S8 N2 O14'
_cell_volume   992.25790513
_cell_formula_units_Z   1
loop_
 _symmetry_equiv_pos_site_id
 _symmetry_equiv_pos_as_xyz
  1  'x, y, z'
loop_
 _atom_site_type_symbol
 _atom_site_label
 _atom_site_symmetry_multiplicity
 _atom_site_fract_x
 _atom_site_fract_y
 _atom_site_fract_z
 _atom_site_occupancy
  Ni  Ni0  1  0.000000  0.000000  0.000000  1
  H  H1  1  0.372929  0.196722  0.537989  1
  H  H2  1  0.627071  0.803278  0.462011  1
  H  H3  1  0.337236  0.064179  0.488330  1
  H  H4  1  0.662764  0.935821  0.511671  1
  H  H5  1  0.201347  0.177823  0.518392  1
  H  H6  1  0.798653  0.822177  0.481608  1
  H  H7  1  0.353343  0.861331  0.864615  1
  H  H8  1  0.646657  0.138669  0.135385  1
  H  H9  1  0.414769  0.865348  0.695944  1
  H  H10  1  0.585231  0.134652  0.304056  1
  H  H11  1  0.459195  0.020118  0.712670  1
  H  H12  1  0.540805  0.979882  0.287330  1
  H  H13  1  0.236937  0.575433  0.072342  1
  H  H14  1  0.763063  0.424567  0.927658  1
  H  H15  1  0.081512  0.446603  0.134161  1
  H  H16  1  0.918488  0.553397  0.865839  1
  H  H17  1  0.134434  0.594098  0.962876  1
  H  H18  1  0.865566  0.405902  0.037124  1
  H  H19  1  0.969852  0.651433  0.361199  1
  H  H20  1  0.030148  0.348567  0.638801  1
  H  H21  1  0.988341  0.478229  0.363376  1
  H  H22  1  0.011659  0.521771  0.636624  1
  H  H23  1  0.146839  0.607241  0.290032  1
  H  H24  1  0.853161  0.392759  0.709968  1
  H  H25  1  0.734437  0.809715  0.806055  1
  H  H26  1  0.265563  0.190285  0.193945  1
  H  H27  1  0.804643  0.954708  0.631480  1
  H  H28  1  0.195357  0.045292  0.368520  1
  H  H29  1  0.926216  0.840943  0.703752  1
  H  H30  1  0.073784  0.159057  0.296248  1
  H  H31  1  0.671167  0.131103  0.883444  1
  H  H32  1  0.328833  0.868897  0.116556  1
  H  H33  1  0.656262  0.120920  0.734826  1
  H  H34  1  0.343738  0.879080  0.265174  1
  H  H35  1  0.598040  0.964846  0.902971  1
  H  H36  1  0.401960  0.035154  0.097029  1
  H  H37  1  0.349857  0.236292  0.817772  1
  H  H38  1  0.650143  0.763708  0.182228  1
  H  H39  1  0.351459  0.418711  0.700550  1
  H  H40  1  0.648541  0.581289  0.299450  1
  H  H41  1  0.521422  0.345337  0.699406  1
  H  H42  1  0.478578  0.654663  0.300594  1
  H  H43  1  0.620891  0.555200  0.712020  1
  H  H44  1  0.379109  0.444800  0.287980  1
  H  H45  1  0.453644  0.634066  0.709551  1
  H  H46  1  0.546356  0.365934  0.290449  1
  H  H47  1  0.528628  0.619634  0.837891  1
  H  H48  1  0.471372  0.380366  0.162109  1
  C  C49  1  0.289727  0.122495  0.549264  1
  C  C50  1  0.710273  0.877505  0.450736  1
  C  C51  1  0.378405  0.929142  0.753081  1
  C  C52  1  0.621595  0.070858  0.246919  1
  C  C53  1  0.129140  0.558530  0.070228  1
  C  C54  1  0.870860  0.441470  0.929772  1
  C  C55  1  0.031610  0.591887  0.306495  1
  C  C56  1  0.968390  0.408113  0.693505  1
  C  C57  1  0.826429  0.890063  0.727443  1
  C  C58  1  0.173571  0.109937  0.272557  1
  C  C59  1  0.675184  0.061807  0.833380  1
  C  C60  1  0.324816  0.938193  0.166620  1
  C  C61  1  0.409494  0.343608  0.763454  1
  C  C62  1  0.590506  0.656392  0.236546  1
  C  C63  1  0.515289  0.569966  0.774846  1
  C  C64  1  0.484711  0.430034  0.225154  1
  S  S65  1  0.213192  0.994001  0.728975  1
  S  S66  1  0.786808  0.005999  0.271025  1
  S  S67  1  0.011959  0.665057  0.138704  1
  S  S68  1  0.988041  0.334943  0.861296  1
  S  S69  1  0.855034  0.010314  0.792800  1
  S  S70  1  0.144966  0.989686  0.207200  1
  S  S71  1  0.411631  0.396820  0.893230  1
  S  S72  1  0.588369  0.603180  0.106770  1
  N  N73  1  0.219926  0.737689  0.583731  1
  N  N74  1  0.780074  0.262311  0.416269  1
  O  O75  1  0.167029  0.086779  0.805323  1
  O  O76  1  0.832971  0.913221  0.194677  1
  O  O77  1  0.099360  0.813988  0.057328  1
  O  O78  1  0.900640  0.186012  0.942672  1
  O  O79  1  0.870966  0.913131  0.933034  1
  O  O80  1  0.129034  0.086869  0.066966  1
  O  O81  1  0.508779  0.304557  0.966804  1
  O  O82  1  0.491221  0.695443  0.033196  1
  O  O83  1  0.345405  0.809395  0.513037  1
  O  O84  1  0.654595  0.190605  0.486963  1
  O  O85  1  0.122104  0.764099  0.529967  1
  O  O86  1  0.877896  0.235901  0.470033  1
  O  O87  1  0.193951  0.641182  0.706688  1
  O  O88  1  0.806049  0.358818  0.293312  1
