# generated using pymatgen
data_B5H8NO12
_symmetry_space_group_name_H-M   'P 1'
_cell_length_a   7.31532522
_cell_length_b   7.31532522
_cell_length_c   11.53330198
_cell_angle_alpha   88.31646921
_cell_angle_beta   91.68353079
_cell_angle_gamma   107.11413950
_symmetry_Int_Tables_number   1
_chemical_formula_structural   B5H8NO12
_chemical_formula_sum   'B10 H16 N2 O24'
_cell_volume   589.47038760
_cell_formula_units_Z   2
loop_
 _symmetry_equiv_pos_site_id
 _symmetry_equiv_pos_as_xyz
  1  'x, y, z'
loop_
 _atom_site_type_symbol
 _atom_site_label
 _atom_site_symmetry_multiplicity
 _atom_site_fract_x
 _atom_site_fract_y
 _atom_site_fract_z
 _atom_site_occupancy
  B  B0  1  0.221848  0.221848  0.750000  1
  B  B1  1  0.778152  0.778152  0.250000  1
  B  B2  1  0.371613  0.267737  0.553725  1
  B  B3  1  0.267737  0.371613  0.946275  1
  B  B4  1  0.628387  0.732263  0.446275  1
  B  B5  1  0.732263  0.628387  0.053725  1
  B  B6  1  0.037549  0.243106  0.565753  1
  B  B7  1  0.243106  0.037549  0.934247  1
  B  B8  1  0.962451  0.756894  0.434247  1
  B  B9  1  0.756894  0.962451  0.065753  1
  H  H10  1  0.801648  0.131555  0.742552  1
  H  H11  1  0.131555  0.801648  0.757448  1
  H  H12  1  0.198352  0.868445  0.257448  1
  H  H13  1  0.868445  0.198352  0.242552  1
  H  H14  1  0.582050  0.122237  0.740758  1
  H  H15  1  0.122237  0.582050  0.759242  1
  H  H16  1  0.417950  0.877763  0.259242  1
  H  H17  1  0.877763  0.417950  0.240758  1
  H  H18  1  0.890439  0.281310  0.424949  1
  H  H19  1  0.281310  0.890439  0.075051  1
  H  H20  1  0.109561  0.718690  0.575051  1
  H  H21  1  0.718690  0.109561  0.924949  1
  H  H22  1  0.640479  0.267160  0.515386  1
  H  H23  1  0.267160  0.640479  0.984614  1
  H  H24  1  0.359521  0.732840  0.484614  1
  H  H25  1  0.732840  0.359521  0.015386  1
  N  N26  1  0.679267  0.679267  0.750000  1
  N  N27  1  0.320733  0.320733  0.250000  1
  O  O28  1  0.518328  0.278887  0.481730  1
  O  O29  1  0.278887  0.518328  0.018270  1
  O  O30  1  0.481672  0.721113  0.518270  1
  O  O31  1  0.721113  0.481672  0.981730  1
  O  O32  1  0.199151  0.268621  0.501463  1
  O  O33  1  0.268621  0.199151  0.998537  1
  O  O34  1  0.800849  0.731379  0.498537  1
  O  O35  1  0.731379  0.800849  0.001463  1
  O  O36  1  0.871911  0.252131  0.510852  1
  O  O37  1  0.252131  0.871911  0.989148  1
  O  O38  1  0.128089  0.747869  0.489148  1
  O  O39  1  0.747869  0.128089  0.010852  1
  O  O40  1  0.387008  0.251026  0.673543  1
  O  O41  1  0.251026  0.387008  0.826457  1
  O  O42  1  0.612992  0.748974  0.326457  1
  O  O43  1  0.748974  0.612992  0.173543  1
  O  O44  1  0.040622  0.206511  0.684169  1
  O  O45  1  0.206511  0.040622  0.815831  1
  O  O46  1  0.959378  0.793489  0.315831  1
  O  O47  1  0.793489  0.959378  0.184169  1
  O  O48  1  0.679642  0.077189  0.783365  1
  O  O49  1  0.077189  0.679642  0.716635  1
  O  O50  1  0.320358  0.922811  0.216635  1
  O  O51  1  0.922811  0.320358  0.283365  1
