# generated using pymatgen
data_NaAlSi3O8
_symmetry_space_group_name_H-M   'P 1'
_cell_length_a   7.82918148
_cell_length_b   7.54327096
_cell_length_c   7.25189033
_cell_angle_alpha   79.35496587
_cell_angle_beta   107.05937547
_cell_angle_gamma   65.26307933
_symmetry_Int_Tables_number   1
_chemical_formula_structural   NaAlSi3O8
_chemical_formula_sum   'Na2 Al2 Si6 O16'
_cell_volume   347.76726046
_cell_formula_units_Z   2
loop_
 _symmetry_equiv_pos_site_id
 _symmetry_equiv_pos_as_xyz
  1  'x, y, z'
loop_
 _atom_site_type_symbol
 _atom_site_label
 _atom_site_symmetry_multiplicity
 _atom_site_fract_x
 _atom_site_fract_y
 _atom_site_fract_z
 _atom_site_occupancy
  Na  Na0  1  0.739236  0.284719  0.853190  1
  Na  Na1  1  0.260764  0.715281  0.146810  1
  Al  Al2  1  0.819621  0.838135  0.790569  1
  Al  Al3  1  0.180379  0.161865  0.209431  1
  Si  Si4  1  0.175766  0.184843  0.763095  1
  Si  Si5  1  0.824234  0.815157  0.236905  1
  Si  Si6  1  0.193734  0.583443  0.681349  1
  Si  Si7  1  0.806266  0.416557  0.318651  1
  Si  Si8  1  0.432187  0.803453  0.638821  1
  Si  Si9  1  0.567813  0.196547  0.361179  1
  O  O10  1  0.861865  0.871229  0.031293  1
  O  O11  1  0.138135  0.128771  0.968707  1
  O  O12  1  0.404159  0.599498  0.717948  1
  O  O13  1  0.595841  0.400502  0.282052  1
  O  O14  1  0.072611  0.698580  0.807541  1
  O  O15  1  0.927389  0.301420  0.192459  1
  O  O16  1  0.327389  0.969824  0.744016  1
  O  O17  1  0.672611  0.030176  0.255984  1
  O  O18  1  0.678870  0.711576  0.729949  1
  O  O19  1  0.321130  0.288424  0.270051  1
  O  O20  1  0.281702  0.331845  0.763721  1
  O  O21  1  0.718298  0.668155  0.236279  1
  O  O22  1  0.685307  0.094965  0.610650  1
  O  O23  1  0.314693  0.905035  0.389350  1
  O  O24  1  0.948631  0.313192  0.567434  1
  O  O25  1  0.051369  0.686808  0.432566  1
