# generated using pymatgen
data_Co2O3F
_symmetry_space_group_name_H-M   'P 1'
_cell_length_a   8.48607830
_cell_length_b   5.29413610
_cell_length_c   5.29413610
_cell_angle_alpha   73.69147136
_cell_angle_beta   89.09836386
_cell_angle_gamma   89.09836386
_symmetry_Int_Tables_number   1
_chemical_formula_structural   Co2O3F
_chemical_formula_sum   'Co8 O12 F4'
_cell_volume   228.23250195
_cell_formula_units_Z   4
loop_
 _symmetry_equiv_pos_site_id
 _symmetry_equiv_pos_as_xyz
  1  'x, y, z'
loop_
 _atom_site_type_symbol
 _atom_site_label
 _atom_site_symmetry_multiplicity
 _atom_site_fract_x
 _atom_site_fract_y
 _atom_site_fract_z
 _atom_site_occupancy
  Co  Co0  1  0.625560  0.857809  0.892910  1
  Co  Co1  1  0.875416  0.625506  0.625077  1
  Co  Co2  1  0.500000  0.516460  0.483540  1
  Co  Co3  1  0.748853  0.273406  0.227402  1
  Co  Co4  1  0.251147  0.772598  0.726594  1
  Co  Co5  1  0.374440  0.107090  0.142191  1
  Co  Co6  1  0.124584  0.374923  0.374494  1
  Co  Co7  1  0.000000  0.968880  0.031120  1
  O  O8  1  0.750136  0.554006  0.944567  1
  O  O9  1  0.970796  0.217545  0.227010  1
  O  O10  1  0.721047  0.478774  0.466020  1
  O  O11  1  0.222536  0.969311  0.977329  1
  O  O12  1  0.474666  0.727997  0.715963  1
  O  O13  1  0.525335  0.284037  0.272003  1
  O  O14  1  0.777464  0.022671  0.030689  1
  O  O15  1  0.029204  0.772990  0.782455  1
  O  O16  1  0.278953  0.533980  0.521226  1
  O  O17  1  0.500000  0.795405  0.204595  1
  O  O18  1  0.249864  0.055433  0.445994  1
  O  O19  1  0.000000  0.690631  0.309369  1
  F  F20  1  0.746023  0.969257  0.540067  1
  F  F21  1  0.500000  0.194025  0.805975  1
  F  F22  1  0.000000  0.277332  0.722668  1
  F  F23  1  0.253977  0.459933  0.030743  1
