# generated using pymatgen
data_Rb2S2O7
_symmetry_space_group_name_H-M   'P 1'
_cell_length_a   13.19959837
_cell_length_b   7.73515004
_cell_length_c   7.84376063
_cell_angle_alpha   92.24587888
_cell_angle_beta   99.81936273
_cell_angle_gamma   91.69380425
_symmetry_Int_Tables_number   1
_chemical_formula_structural   Rb2S2O7
_chemical_formula_sum   'Rb8 S8 O28'
_cell_volume   787.98204311
_cell_formula_units_Z   4
loop_
 _symmetry_equiv_pos_site_id
 _symmetry_equiv_pos_as_xyz
  1  'x, y, z'
loop_
 _atom_site_type_symbol
 _atom_site_label
 _atom_site_symmetry_multiplicity
 _atom_site_fract_x
 _atom_site_fract_y
 _atom_site_fract_z
 _atom_site_occupancy
  Rb  Rb0  1  0.132230  0.115973  0.875463  1
  Rb  Rb1  1  0.154779  0.776734  0.378553  1
  Rb  Rb2  1  0.342481  0.556333  0.795793  1
  Rb  Rb3  1  0.371931  0.215039  0.294426  1
  Rb  Rb4  1  0.628069  0.784961  0.705574  1
  Rb  Rb5  1  0.657519  0.443667  0.204207  1
  Rb  Rb6  1  0.845221  0.223266  0.621447  1
  Rb  Rb7  1  0.867770  0.884027  0.124537  1
  S  S8  1  0.084801  0.658379  0.861113  1
  S  S9  1  0.107118  0.278492  0.386457  1
  S  S10  1  0.391045  0.065485  0.759898  1
  S  S11  1  0.417352  0.702385  0.275377  1
  S  S12  1  0.582648  0.297615  0.724623  1
  S  S13  1  0.608955  0.934515  0.240102  1
  S  S14  1  0.892882  0.721508  0.613543  1
  S  S15  1  0.915199  0.341621  0.138887  1
  O  O16  1  0.023940  0.410447  0.271002  1
  O  O17  1  0.050336  0.191687  0.504160  1
  O  O18  1  0.054041  0.772089  0.994880  1
  O  O19  1  0.126571  0.495174  0.920556  1
  O  O20  1  0.146777  0.750096  0.752786  1
  O  O21  1  0.142592  0.160230  0.260752  1
  O  O22  1  0.185278  0.407131  0.468411  1
  O  O23  1  0.308700  0.029994  0.611999  1
  O  O24  1  0.361731  0.180951  0.893857  1
  O  O25  1  0.343213  0.819335  0.187320  1
  O  O26  1  0.396883  0.649077  0.443140  1
  O  O27  1  0.447478  0.915894  0.822012  1
  O  O28  1  0.471539  0.184407  0.657200  1
  O  O29  1  0.442085  0.558832  0.164035  1
  O  O30  1  0.557915  0.441168  0.835965  1
  O  O31  1  0.528461  0.815593  0.342800  1
  O  O32  1  0.552522  0.084106  0.177988  1
  O  O33  1  0.603117  0.350923  0.556860  1
  O  O34  1  0.656787  0.180665  0.812680  1
  O  O35  1  0.638269  0.819049  0.106143  1
  O  O36  1  0.691300  0.970006  0.388001  1
  O  O37  1  0.814722  0.592869  0.531589  1
  O  O38  1  0.857408  0.839770  0.739248  1
  O  O39  1  0.853223  0.249904  0.247214  1
  O  O40  1  0.873429  0.504826  0.079444  1
  O  O41  1  0.945959  0.227911  0.005120  1
  O  O42  1  0.949664  0.808313  0.495840  1
  O  O43  1  0.976060  0.589553  0.728998  1
