# generated using pymatgen
data_Li2FeO2F
_symmetry_space_group_name_H-M   'P 1'
_cell_length_a   5.12943261
_cell_length_b   5.20405445
_cell_length_c   9.88584268
_cell_angle_alpha   84.95999766
_cell_angle_beta   100.26834197
_cell_angle_gamma   119.52678677
_symmetry_Int_Tables_number   1
_chemical_formula_structural   Li2FeO2F
_chemical_formula_sum   'Li8 Fe4 O8 F4'
_cell_volume   225.94076280
_cell_formula_units_Z   4
loop_
 _symmetry_equiv_pos_site_id
 _symmetry_equiv_pos_as_xyz
  1  'x, y, z'
loop_
 _atom_site_type_symbol
 _atom_site_label
 _atom_site_symmetry_multiplicity
 _atom_site_fract_x
 _atom_site_fract_y
 _atom_site_fract_z
 _atom_site_occupancy
  Li  Li0  1  0.180612  0.877910  0.499183  1
  Li  Li1  1  0.000000  0.500000  0.000000  1
  Li  Li2  1  0.069334  0.138668  0.250000  1
  Li  Li3  1  0.697298  0.877910  0.000817  1
  Li  Li4  1  0.500000  0.500000  0.500000  1
  Li  Li5  1  0.302702  0.122090  0.999183  1
  Li  Li6  1  0.930666  0.861332  0.750000  1
  Li  Li7  1  0.819388  0.122090  0.500817  1
  Fe  Fe8  1  0.248192  0.496385  0.750000  1
  Fe  Fe9  1  0.438747  0.877493  0.250000  1
  Fe  Fe10  1  0.561253  0.122507  0.750000  1
  Fe  Fe11  1  0.751808  0.503615  0.250000  1
  O  O12  1  0.043199  0.807176  0.135725  1
  O  O13  1  0.298955  0.824052  0.867640  1
  O  O14  1  0.525098  0.824052  0.632360  1
  O  O15  1  0.236024  0.192824  0.635725  1
  O  O16  1  0.763976  0.807176  0.364275  1
  O  O17  1  0.474902  0.175948  0.367640  1
  O  O18  1  0.701045  0.175948  0.132360  1
  O  O19  1  0.956801  0.192824  0.864275  1
  F  F20  1  0.125870  0.502311  0.374886  1
  F  F21  1  0.623559  0.497689  0.874886  1
  F  F22  1  0.376441  0.502311  0.125114  1
  F  F23  1  0.874130  0.497689  0.625114  1
