# generated using pymatgen
data_Na10Zn7Sn7H24(S13O6)2
_symmetry_space_group_name_H-M   'P 1'
_cell_length_a   12.77243825
_cell_length_b   12.77243832
_cell_length_c   12.77243775
_cell_angle_alpha   59.96478196
_cell_angle_beta   59.96478180
_cell_angle_gamma   59.96477999
_symmetry_Int_Tables_number   1
_chemical_formula_structural   Na10Zn7Sn7H24(S13O6)2
_chemical_formula_sum   'Na10 Zn7 Sn7 H24 S26 O12'
_cell_volume   1472.17495362
_cell_formula_units_Z   1
loop_
 _symmetry_equiv_pos_site_id
 _symmetry_equiv_pos_as_xyz
  1  'x, y, z'
loop_
 _atom_site_type_symbol
 _atom_site_label
 _atom_site_symmetry_multiplicity
 _atom_site_fract_x
 _atom_site_fract_y
 _atom_site_fract_z
 _atom_site_occupancy
  Na  Na0  1  0.250221  0.250221  0.250221  1
  Na  Na1  1  0.355734  0.355734  0.355734  1
  Na  Na2  1  0.349614  0.351231  0.939662  1
  Na  Na3  1  0.351231  0.939662  0.349614  1
  Na  Na4  1  0.939662  0.349614  0.351231  1
  Na  Na5  1  0.432090  0.858147  0.857273  1
  Na  Na6  1  0.858147  0.857273  0.432090  1
  Na  Na7  1  0.750268  0.750268  0.750268  1
  Na  Na8  1  0.857273  0.432090  0.858147  1
  Na  Na9  1  0.854791  0.854791  0.854791  1
  Zn  Zn10  1  0.075547  0.075547  0.075547  1
  Zn  Zn11  1  0.076518  0.075977  0.775451  1
  Zn  Zn12  1  0.075977  0.775451  0.076518  1
  Zn  Zn13  1  0.775451  0.076518  0.075977  1
  Zn  Zn14  1  0.259584  0.580876  0.578093  1
  Zn  Zn15  1  0.578093  0.259584  0.580876  1
  Zn  Zn16  1  0.580876  0.578093  0.259584  1
  Sn  Sn17  1  0.250092  0.248843  0.750786  1
  Sn  Sn18  1  0.248843  0.750786  0.250092  1
  Sn  Sn19  1  0.750786  0.250092  0.248843  1
  Sn  Sn20  1  0.237887  0.751332  0.760105  1
  Sn  Sn21  1  0.573388  0.573388  0.573388  1
  Sn  Sn22  1  0.760105  0.237887  0.751332  1
  Sn  Sn23  1  0.751332  0.760105  0.237887  1
  H  H24  1  0.076255  0.097387  0.352046  1
  H  H25  1  0.097387  0.352046  0.076255  1
  H  H26  1  0.076190  0.473255  0.097748  1
  H  H27  1  0.097748  0.076190  0.473255  1
  H  H28  1  0.352046  0.076255  0.097387  1
  H  H29  1  0.077074  0.352542  0.473497  1
  H  H30  1  0.100244  0.473887  0.352040  1
  H  H31  1  0.473255  0.097748  0.076190  1
  H  H32  1  0.352542  0.473497  0.077074  1
  H  H33  1  0.352040  0.100244  0.473887  1
  H  H34  1  0.473497  0.077074  0.352542  1
  H  H35  1  0.473887  0.352040  0.100244  1
  H  H36  1  0.578071  0.854102  0.596127  1
  H  H37  1  0.596127  0.578071  0.854102  1
  H  H38  1  0.576590  0.597995  0.974583  1
  H  H39  1  0.597995  0.974583  0.576590  1
  H  H40  1  0.854102  0.596127  0.578071  1
  H  H41  1  0.575849  0.974134  0.852599  1
  H  H42  1  0.595979  0.852758  0.973555  1
  H  H43  1  0.974583  0.576590  0.597995  1
  H  H44  1  0.852599  0.575849  0.974134  1
  H  H45  1  0.852758  0.973555  0.595979  1
  H  H46  1  0.974134  0.852599  0.575849  1
  H  H47  1  0.973555  0.595979  0.852758  1
  S  S48  1  0.000081  0.000081  0.000081  1
  S  S49  1  0.076675  0.692620  0.285760  1
  S  S50  1  0.285760  0.076675  0.692620  1
  S  S51  1  0.076702  0.285201  0.943925  1
  S  S52  1  0.195722  0.442665  0.574948  1
  S  S53  1  0.285201  0.943925  0.076702  1
  S  S54  1  0.194877  0.787926  0.443234  1
  S  S55  1  0.442665  0.574948  0.195722  1
  S  S56  1  0.692620  0.285760  0.076675  1
  S  S57  1  0.199432  0.571910  0.786303  1
  S  S58  1  0.574948  0.195722  0.442665  1
  S  S59  1  0.075687  0.947647  0.692044  1
  S  S60  1  0.443234  0.194877  0.787926  1
  S  S61  1  0.496169  0.496169  0.496169  1
  S  S62  1  0.571910  0.786303  0.199432  1
  S  S63  1  0.286396  0.694879  0.944340  1
  S  S64  1  0.787926  0.443234  0.194877  1
  S  S65  1  0.439560  0.789136  0.578568  1
  S  S66  1  0.943925  0.076702  0.285201  1
  S  S67  1  0.786303  0.199432  0.571910  1
  S  S68  1  0.578568  0.439560  0.789136  1
  S  S69  1  0.692044  0.075687  0.947647  1
  S  S70  1  0.789136  0.578568  0.439560  1
  S  S71  1  0.694879  0.944340  0.286396  1
  S  S72  1  0.947647  0.692044  0.075687  1
  S  S73  1  0.944340  0.286396  0.694879  1
  O  O74  1  0.120806  0.378836  0.120018  1
  O  O75  1  0.120018  0.120806  0.378836  1
  O  O76  1  0.117827  0.380694  0.378811  1
  O  O77  1  0.378836  0.120018  0.120806  1
  O  O78  1  0.378811  0.117827  0.380694  1
  O  O79  1  0.380694  0.378811  0.117827  1
  O  O80  1  0.620479  0.620720  0.880563  1
  O  O81  1  0.620720  0.880563  0.620479  1
  O  O82  1  0.880563  0.620479  0.620720  1
  O  O83  1  0.621156  0.880309  0.879359  1
  O  O84  1  0.880309  0.879359  0.621156  1
  O  O85  1  0.879359  0.621156  0.880309  1
