# generated using pymatgen
data_Li7Sb2P7O24
_symmetry_space_group_name_H-M   'P 1'
_cell_length_a   15.86184343
_cell_length_b   5.27205672
_cell_length_c   12.07162230
_cell_angle_alpha   90.00000000
_cell_angle_beta   96.23951357
_cell_angle_gamma   90.00000000
_symmetry_Int_Tables_number   1
_chemical_formula_structural   Li7Sb2P7O24
_chemical_formula_sum   'Li14 Sb4 P14 O48'
_cell_volume   1003.50390743
_cell_formula_units_Z   2
loop_
 _symmetry_equiv_pos_site_id
 _symmetry_equiv_pos_as_xyz
  1  'x, y, z'
loop_
 _atom_site_type_symbol
 _atom_site_label
 _atom_site_symmetry_multiplicity
 _atom_site_fract_x
 _atom_site_fract_y
 _atom_site_fract_z
 _atom_site_occupancy
  Li  Li0  1  0.054016  0.735309  0.520079  1
  Li  Li1  1  0.136040  0.811617  0.888764  1
  Li  Li2  1  0.054016  0.264691  0.020079  1
  Li  Li3  1  0.136040  0.188383  0.388764  1
  Li  Li4  1  0.417613  0.155866  0.554645  1
  Li  Li5  1  0.417613  0.844134  0.054645  1
  Li  Li6  1  0.500000  0.707372  0.750000  1
  Li  Li7  1  0.500000  0.292628  0.250000  1
  Li  Li8  1  0.582387  0.155866  0.945355  1
  Li  Li9  1  0.582387  0.844134  0.445355  1
  Li  Li10  1  0.863960  0.811617  0.611236  1
  Li  Li11  1  0.945984  0.735309  0.979921  1
  Li  Li12  1  0.863960  0.188383  0.111236  1
  Li  Li13  1  0.945984  0.264691  0.479921  1
  Sb  Sb14  1  0.275250  0.651753  0.693021  1
  Sb  Sb15  1  0.275250  0.348247  0.193021  1
  Sb  Sb16  1  0.724750  0.651753  0.806979  1
  Sb  Sb17  1  0.724750  0.348247  0.306979  1
  P  P18  1  0.000000  0.443102  0.750000  1
  P  P19  1  0.000000  0.556898  0.250000  1
  P  P20  1  0.131153  0.127138  0.656396  1
  P  P21  1  0.131153  0.872862  0.156396  1
  P  P22  1  0.276293  0.383087  0.945731  1
  P  P23  1  0.276293  0.616913  0.445730  1
  P  P24  1  0.399207  0.168388  0.807281  1
  P  P25  1  0.399207  0.831612  0.307281  1
  P  P26  1  0.600793  0.168388  0.692719  1
  P  P27  1  0.600793  0.831612  0.192719  1
  P  P28  1  0.723707  0.383087  0.554269  1
  P  P29  1  0.723707  0.616913  0.054269  1
  P  P30  1  0.868847  0.127138  0.843604  1
  P  P31  1  0.868847  0.872862  0.343604  1
  O  O32  1  0.014525  0.579842  0.860606  1
  O  O33  1  0.014525  0.420158  0.360606  1
  O  O34  1  0.078095  0.250449  0.751582  1
  O  O35  1  0.075362  0.100197  0.546628  1
  O  O36  1  0.078095  0.749551  0.251582  1
  O  O37  1  0.075362  0.899803  0.046628  1
  O  O38  1  0.154897  0.873139  0.715636  1
  O  O39  1  0.204947  0.254058  0.000698  1
  O  O40  1  0.206917  0.301093  0.646515  1
  O  O41  1  0.154897  0.126861  0.215636  1
  O  O42  1  0.204947  0.745942  0.500698  1
  O  O43  1  0.239245  0.590819  0.863914  1
  O  O44  1  0.206917  0.698907  0.146515  1
  O  O45  1  0.239245  0.409181  0.363914  1
  O  O46  1  0.313989  0.158018  0.874114  1
  O  O47  1  0.313989  0.841982  0.374114  1
  O  O48  1  0.375867  0.001415  0.703638  1
  O  O49  1  0.347452  0.513320  0.530384  1
  O  O50  1  0.408902  0.449962  0.776588  1
  O  O51  1  0.375867  0.998585  0.203638  1
  O  O52  1  0.347452  0.486680  0.030384  1
  O  O53  1  0.408902  0.550038  0.276588  1
  O  O54  1  0.469855  0.052649  0.886124  1
  O  O55  1  0.469855  0.947351  0.386124  1
  O  O56  1  0.530145  0.052649  0.613876  1
  O  O57  1  0.530145  0.947351  0.113876  1
  O  O58  1  0.591098  0.449962  0.723412  1
  O  O59  1  0.652548  0.513320  0.969616  1
  O  O60  1  0.624133  0.001415  0.796362  1
  O  O61  1  0.591098  0.550038  0.223412  1
  O  O62  1  0.652548  0.486680  0.469616  1
  O  O63  1  0.624133  0.998585  0.296362  1
  O  O64  1  0.686011  0.158018  0.625886  1
  O  O65  1  0.686011  0.841982  0.125886  1
  O  O66  1  0.760755  0.590819  0.636086  1
  O  O67  1  0.793083  0.301093  0.853485  1
  O  O68  1  0.760755  0.409181  0.136086  1
  O  O69  1  0.795053  0.254058  0.499302  1
  O  O70  1  0.845103  0.873139  0.784364  1
  O  O71  1  0.793083  0.698907  0.353485  1
  O  O72  1  0.795053  0.745942  0.999302  1
  O  O73  1  0.845103  0.126861  0.284364  1
  O  O74  1  0.924638  0.100197  0.953372  1
  O  O75  1  0.921905  0.250449  0.748418  1
  O  O76  1  0.924638  0.899803  0.453372  1
  O  O77  1  0.921905  0.749551  0.248418  1
  O  O78  1  0.985475  0.579842  0.639394  1
  O  O79  1  0.985475  0.420158  0.139394  1
