# generated using pymatgen
data_RbLi2Mn2(BO3)3
_symmetry_space_group_name_H-M   'P 1'
_cell_length_a   6.60934282
_cell_length_b   5.21608509
_cell_length_c   12.57364929
_cell_angle_alpha   90.00000000
_cell_angle_beta   89.98933567
_cell_angle_gamma   90.00000000
_symmetry_Int_Tables_number   1
_chemical_formula_structural   RbLi2Mn2(BO3)3
_chemical_formula_sum   'Rb2 Li4 Mn4 B6 O18'
_cell_volume   433.47522574
_cell_formula_units_Z   2
loop_
 _symmetry_equiv_pos_site_id
 _symmetry_equiv_pos_as_xyz
  1  'x, y, z'
loop_
 _atom_site_type_symbol
 _atom_site_label
 _atom_site_symmetry_multiplicity
 _atom_site_fract_x
 _atom_site_fract_y
 _atom_site_fract_z
 _atom_site_occupancy
  Rb  Rb0  1  0.000000  0.209964  0.750000  1
  Rb  Rb1  1  0.000000  0.790036  0.250000  1
  Li  Li2  1  0.497038  0.154537  0.865410  1
  Li  Li3  1  0.502962  0.154537  0.634590  1
  Li  Li4  1  0.497038  0.845463  0.365410  1
  Li  Li5  1  0.502962  0.845463  0.134590  1
  Mn  Mn6  1  0.232442  0.673238  0.561202  1
  Mn  Mn7  1  0.232442  0.326762  0.061202  1
  Mn  Mn8  1  0.767558  0.673238  0.938798  1
  Mn  Mn9  1  0.767558  0.326762  0.438798  1
  B  B10  1  0.193995  0.810700  0.965870  1
  B  B11  1  0.193995  0.189300  0.465870  1
  B  B12  1  0.500000  0.646989  0.750000  1
  B  B13  1  0.500000  0.353011  0.250000  1
  B  B14  1  0.806005  0.810700  0.534130  1
  B  B15  1  0.806005  0.189300  0.034130  1
  O  O16  1  0.054332  0.685334  0.903956  1
  O  O17  1  0.054332  0.314666  0.403956  1
  O  O18  1  0.241298  0.066301  0.950180  1
  O  O19  1  0.241298  0.933699  0.450180  1
  O  O20  1  0.291984  0.314466  0.548832  1
  O  O21  1  0.291984  0.685534  0.048832  1
  O  O22  1  0.415582  0.797493  0.668180  1
  O  O23  1  0.415582  0.202507  0.168180  1
  O  O24  1  0.500000  0.389364  0.750000  1
  O  O25  1  0.500000  0.610636  0.250000  1
  O  O26  1  0.584418  0.797493  0.831820  1
  O  O27  1  0.584418  0.202507  0.331820  1
  O  O28  1  0.708016  0.314466  0.951168  1
  O  O29  1  0.708016  0.685534  0.451168  1
  O  O30  1  0.758702  0.066301  0.549820  1
  O  O31  1  0.758702  0.933699  0.049820  1
  O  O32  1  0.945668  0.685334  0.596044  1
  O  O33  1  0.945668  0.314666  0.096044  1
