# generated using pymatgen
data_AlPdO3
_symmetry_space_group_name_H-M   'P 1'
_cell_length_a   6.63104878
_cell_length_b   6.63104878
_cell_length_c   5.34455234
_cell_angle_alpha   81.56858582
_cell_angle_beta   98.43141418
_cell_angle_gamma   92.49529892
_symmetry_Int_Tables_number   1
_chemical_formula_structural   AlPdO3
_chemical_formula_sum   'Al4 Pd4 O12'
_cell_volume   229.89359393
_cell_formula_units_Z   4
loop_
 _symmetry_equiv_pos_site_id
 _symmetry_equiv_pos_as_xyz
  1  'x, y, z'
loop_
 _atom_site_type_symbol
 _atom_site_label
 _atom_site_symmetry_multiplicity
 _atom_site_fract_x
 _atom_site_fract_y
 _atom_site_fract_z
 _atom_site_occupancy
  Al  Al0  1  0.222426  0.606776  0.706579  1
  Al  Al1  1  0.393224  0.777574  0.206579  1
  Al  Al2  1  0.606776  0.222426  0.793421  1
  Al  Al3  1  0.777574  0.393224  0.293421  1
  Pd  Pd4  1  0.096187  0.096187  0.750000  1
  Pd  Pd5  1  0.718823  0.718823  0.750000  1
  Pd  Pd6  1  0.281177  0.281177  0.250000  1
  Pd  Pd7  1  0.903813  0.903813  0.250000  1
  O  O8  1  0.024388  0.801850  0.632523  1
  O  O9  1  0.198150  0.975612  0.132523  1
  O  O10  1  0.422915  0.715307  0.904172  1
  O  O11  1  0.144515  0.375157  0.888604  1
  O  O12  1  0.284693  0.577085  0.404172  1
  O  O13  1  0.624843  0.855485  0.388604  1
  O  O14  1  0.375157  0.144515  0.611396  1
  O  O15  1  0.715307  0.422915  0.595828  1
  O  O16  1  0.855485  0.624843  0.111396  1
  O  O17  1  0.577085  0.284693  0.095828  1
  O  O18  1  0.801850  0.024388  0.867477  1
  O  O19  1  0.975612  0.198150  0.367477  1
