# generated using pymatgen
data_Li4Ti3Nb3Cr2O16
_symmetry_space_group_name_H-M   'P 1'
_cell_length_a   6.00364091
_cell_length_b   5.96545256
_cell_length_c   9.93942957
_cell_angle_alpha   90.03250334
_cell_angle_beta   89.46930219
_cell_angle_gamma   119.76577179
_symmetry_Int_Tables_number   1
_chemical_formula_structural   Li4Ti3Nb3Cr2O16
_chemical_formula_sum   'Li4 Ti3 Nb3 Cr2 O16'
_cell_volume   308.99189755
_cell_formula_units_Z   1
loop_
 _symmetry_equiv_pos_site_id
 _symmetry_equiv_pos_as_xyz
  1  'x, y, z'
loop_
 _atom_site_type_symbol
 _atom_site_label
 _atom_site_symmetry_multiplicity
 _atom_site_fract_x
 _atom_site_fract_y
 _atom_site_fract_z
 _atom_site_occupancy
  Li  Li0  1  0.331825  0.666047  0.899687  1
  Li  Li1  1  0.023064  0.011227  0.993381  1
  Li  Li2  1  0.012603  0.006441  0.496985  1
  Li  Li3  1  0.662190  0.330988  0.391101  1
  Ti  Ti4  1  0.169483  0.831240  0.216664  1
  Ti  Ti5  1  0.169775  0.337862  0.216379  1
  Ti  Ti6  1  0.330066  0.165167  0.718303  1
  Nb  Nb7  1  0.667328  0.833573  0.211389  1
  Nb  Nb8  1  0.828112  0.640587  0.709827  1
  Nb  Nb9  1  0.827907  0.187565  0.709759  1
  Cr  Cr10  1  0.338841  0.669368  0.483702  1
  Cr  Cr11  1  0.664625  0.332086  0.989365  1
  O  O12  1  0.163242  0.832546  0.602287  1
  O  O13  1  0.042804  0.521679  0.334861  1
  O  O14  1  0.329699  0.664759  0.104522  1
  O  O15  1  0.011641  0.006275  0.316350  1
  O  O16  1  0.001527  0.000685  0.812273  1
  O  O17  1  0.163008  0.330893  0.602059  1
  O  O18  1  0.478948  0.960863  0.338767  1
  O  O19  1  0.479380  0.518246  0.338464  1
  O  O20  1  0.326371  0.163120  0.107280  1
  O  O21  1  0.673634  0.836954  0.595807  1
  O  O22  1  0.511879  0.477521  0.834217  1
  O  O23  1  0.511798  0.034387  0.834702  1
  O  O24  1  0.625196  0.313092  0.588167  1
  O  O25  1  0.844193  0.678395  0.103770  1
  O  O26  1  0.966676  0.483139  0.853692  1
  O  O27  1  0.844186  0.165594  0.104081  1
