# generated using pymatgen
data_Ag2SnO3
_symmetry_space_group_name_H-M   'P 1'
_cell_length_a   5.75468880
_cell_length_b   5.75500323
_cell_length_c   12.88540757
_cell_angle_alpha   89.99959161
_cell_angle_beta   89.99951701
_cell_angle_gamma   120.00027277
_symmetry_Int_Tables_number   1
_chemical_formula_structural   Ag2SnO3
_chemical_formula_sum   'Ag8 Sn4 O12'
_cell_volume   369.56855576
_cell_formula_units_Z   4
loop_
 _symmetry_equiv_pos_site_id
 _symmetry_equiv_pos_as_xyz
  1  'x, y, z'
loop_
 _atom_site_type_symbol
 _atom_site_label
 _atom_site_symmetry_multiplicity
 _atom_site_fract_x
 _atom_site_fract_y
 _atom_site_fract_z
 _atom_site_occupancy
  Ag  Ag0  1  -0.000001  0.676862  0.499995  1
  Ag  Ag1  1  0.000017  0.323149  0.999987  1
  Ag  Ag2  1  0.333268  0.666630  0.750000  1
  Ag  Ag3  1  0.323134  0.323132  0.500003  1
  Ag  Ag4  1  0.323131  0.999999  -0.000001  1
  Ag  Ag5  1  0.676872  0.676856  0.000013  1
  Ag  Ag6  1  0.666636  0.333369  0.250001  1
  Ag  Ag7  1  0.676873  0.000001  0.499998  1
  Sn  Sn8  1  0.333390  0.666704  0.250009  1
  Sn  Sn9  1  -0.000040  -0.000021  0.250008  1
  Sn  Sn10  1  0.000045  0.000018  0.749991  1
  Sn  Sn11  1  0.666609  0.333297  0.749994  1
  O  O12  1  0.052903  0.719057  0.337473  1
  O  O13  1  0.280968  0.947096  0.162523  1
  O  O14  1  0.052928  0.333856  0.162499  1
  O  O15  1  0.280944  0.333867  0.337489  1
  O  O16  1  0.666145  0.947088  0.337463  1
  O  O17  1  0.333858  0.280943  0.662541  1
  O  O18  1  0.666150  0.719056  0.162541  1
  O  O19  1  0.333868  0.052909  0.837463  1
  O  O20  1  0.719069  0.666131  0.837496  1
  O  O21  1  0.947079  0.666142  0.662510  1
  O  O22  1  0.719050  0.052912  0.662529  1
  O  O23  1  0.947103  0.280946  0.837473  1
