# generated using pymatgen
data_Li2TiVO4
_symmetry_space_group_name_H-M   'P 1'
_cell_length_a   5.18157980
_cell_length_b   6.02492062
_cell_length_c   7.92219955
_cell_angle_alpha   78.14479229
_cell_angle_beta   102.62565999
_cell_angle_gamma   106.68135639
_symmetry_Int_Tables_number   1
_chemical_formula_structural   Li2TiVO4
_chemical_formula_sum   'Li6 Ti3 V3 O12'
_cell_volume   228.47341272
_cell_formula_units_Z   3
loop_
 _symmetry_equiv_pos_site_id
 _symmetry_equiv_pos_as_xyz
  1  'x, y, z'
loop_
 _atom_site_type_symbol
 _atom_site_label
 _atom_site_symmetry_multiplicity
 _atom_site_fract_x
 _atom_site_fract_y
 _atom_site_fract_z
 _atom_site_occupancy
  Li  Li0  1  0.499754  0.831643  0.168290  1
  Li  Li1  1  0.993393  0.670220  0.334763  1
  Li  Li2  1  0.499988  0.499957  0.499990  1
  Li  Li3  1  0.006673  0.329821  0.665231  1
  Li  Li4  1  0.500270  0.168403  0.831713  1
  Li  Li5  1  0.999931  0.999965  0.999994  1
  Ti  Ti6  1  0.499913  0.671835  0.828715  1
  Ti  Ti7  1  0.500105  0.328319  0.171163  1
  Ti  Ti8  1  0.500022  0.999752  0.500245  1
  V  V9  1  0.000292  0.829255  0.670371  1
  V  V10  1  -0.000296  0.170806  0.329571  1
  V  V11  1  -0.000025  0.499977  0.000030  1
  O  O12  1  0.259040  0.813416  0.916473  1
  O  O13  1  0.735624  0.988162  0.747855  1
  O  O14  1  0.739366  0.847912  0.423817  1
  O  O15  1  0.264824  0.672718  0.590031  1
  O  O16  1  0.264835  0.347918  0.924052  1
  O  O17  1  0.740616  0.507409  0.763485  1
  O  O18  1  0.259293  0.492625  0.236455  1
  O  O19  1  0.735185  0.651899  0.076101  1
  O  O20  1  0.734647  0.327025  0.409695  1
  O  O21  1  0.260642  0.152033  0.576272  1
  O  O22  1  0.264884  0.012289  0.252206  1
  O  O23  1  0.741061  0.186637  0.083479  1
