# generated using pymatgen
data_Li2Fe3NiO8
_symmetry_space_group_name_H-M   'P 1'
_cell_length_a   5.84498343
_cell_length_b   5.95352984
_cell_length_c   9.60125581
_cell_angle_alpha   89.87740667
_cell_angle_beta   90.06243558
_cell_angle_gamma   120.61625330
_symmetry_Int_Tables_number   1
_chemical_formula_structural   Li2Fe3NiO8
_chemical_formula_sum   'Li4 Fe6 Ni2 O16'
_cell_volume   287.53120972
_cell_formula_units_Z   2
loop_
 _symmetry_equiv_pos_site_id
 _symmetry_equiv_pos_as_xyz
  1  'x, y, z'
loop_
 _atom_site_type_symbol
 _atom_site_label
 _atom_site_symmetry_multiplicity
 _atom_site_fract_x
 _atom_site_fract_y
 _atom_site_fract_z
 _atom_site_occupancy
  Li  Li0  1  0.341254  0.670770  0.888684  1
  Li  Li1  1  0.008739  0.003511  0.999247  1
  Li  Li2  1  0.991261  0.994772  0.499247  1
  Li  Li3  1  0.658746  0.329516  0.388684  1
  Fe  Fe4  1  0.170135  0.831153  0.215851  1
  Fe  Fe5  1  0.170929  0.339357  0.215338  1
  Fe  Fe6  1  0.661903  0.831492  0.212342  1
  Fe  Fe7  1  0.338097  0.169589  0.712342  1
  Fe  Fe8  1  0.829865  0.661018  0.715851  1
  Fe  Fe9  1  0.829071  0.168429  0.715338  1
  Ni  Ni10  1  0.326686  0.663659  0.489251  1
  Ni  Ni11  1  0.673314  0.336974  0.989251  1
  O  O12  1  0.141034  0.824512  0.602683  1
  O  O13  1  0.033454  0.514921  0.330401  1
  O  O14  1  0.363070  0.682332  0.101790  1
  O  O15  1  0.973165  0.986410  0.314214  1
  O  O16  1  0.026835  0.013245  0.814214  1
  O  O17  1  0.144887  0.315117  0.602781  1
  O  O18  1  0.467441  0.961000  0.336102  1
  O  O19  1  0.472209  0.512003  0.334687  1
  O  O20  1  0.327481  0.165107  0.110549  1
  O  O21  1  0.672519  0.837626  0.610549  1
  O  O22  1  0.532559  0.493558  0.836102  1
  O  O23  1  0.527791  0.039793  0.834687  1
  O  O24  1  0.636930  0.319262  0.601790  1
  O  O25  1  0.858966  0.683478  0.102683  1
  O  O26  1  0.966546  0.481466  0.830401  1
  O  O27  1  0.855113  0.170229  0.102781  1
