# generated using pymatgen
data_FePH5NO4F
_symmetry_space_group_name_H-M   'P 1'
_cell_length_a   6.32693551
_cell_length_b   6.53459114
_cell_length_c   7.11086478
_cell_angle_alpha   89.86684558
_cell_angle_beta   90.16919103
_cell_angle_gamma   95.15950689
_symmetry_Int_Tables_number   1
_chemical_formula_structural   FePH5NO4F
_chemical_formula_sum   'Fe2 P2 H10 N2 O8 F2'
_cell_volume   292.79804921
_cell_formula_units_Z   2
loop_
 _symmetry_equiv_pos_site_id
 _symmetry_equiv_pos_as_xyz
  1  'x, y, z'
loop_
 _atom_site_type_symbol
 _atom_site_label
 _atom_site_symmetry_multiplicity
 _atom_site_fract_x
 _atom_site_fract_y
 _atom_site_fract_z
 _atom_site_occupancy
  Fe  Fe0  1  0.523764  0.507438  0.470278  1
  Fe  Fe1  1  0.023509  0.010673  0.526687  1
  P  P2  1  0.300151  0.066970  0.113994  1
  P  P3  1  0.798292  0.564397  0.884844  1
  H  H4  1  0.656844  0.505214  0.032800  1
  H  H5  1  0.171067  0.504889  0.641187  1
  H  H6  1  0.287488  0.387367  0.791997  1
  H  H7  1  0.431268  0.235534  0.047705  1
  H  H8  1  0.432194  0.904707  0.118595  1
  H  H9  1  0.156202  0.010236  0.966745  1
  H  H10  1  0.781367  0.896653  0.205904  1
  H  H11  1  0.665192  0.997376  0.366802  1
  H  H12  1  0.931788  0.403376  0.878625  1
  H  H13  1  0.928452  0.733469  0.951122  1
  N  N14  1  0.160026  0.581499  0.187409  1
  N  N15  1  0.658882  0.075804  0.813724  1
  O  O16  1  0.252655  0.383924  0.657606  1
  O  O17  1  0.194695  0.109834  0.300486  1
  O  O18  1  0.238161  0.615104  0.352868  1
  O  O19  1  0.791027  0.033497  0.937338  1
  O  O20  1  0.753161  0.883284  0.341351  1
  O  O21  1  0.735587  0.111037  0.648264  1
  O  O22  1  0.689225  0.607300  0.699336  1
  O  O23  1  0.290159  0.534540  0.064673  1
  F  F24  1  0.151175  0.827893  0.693737  1
  F  F25  1  0.657868  0.327986  0.305924  1
