# generated using pymatgen
data_Li8Mn3Fe5(BO3)8
_symmetry_space_group_name_H-M   'P 1'
_cell_length_a   6.00471722
_cell_length_b   5.23466277
_cell_length_c   16.23777984
_cell_angle_alpha   90.59711755
_cell_angle_beta   97.95674295
_cell_angle_gamma   89.42916788
_symmetry_Int_Tables_number   1
_chemical_formula_structural   Li8Mn3Fe5(BO3)8
_chemical_formula_sum   'Li8 Mn3 Fe5 B8 O24'
_cell_volume   505.43695098
_cell_formula_units_Z   1
loop_
 _symmetry_equiv_pos_site_id
 _symmetry_equiv_pos_as_xyz
  1  'x, y, z'
loop_
 _atom_site_type_symbol
 _atom_site_label
 _atom_site_symmetry_multiplicity
 _atom_site_fract_x
 _atom_site_fract_y
 _atom_site_fract_z
 _atom_site_occupancy
  Li  Li0  1  0.069717  0.847478  0.610713  1
  Li  Li1  1  0.431102  0.153774  0.887229  1
  Li  Li2  1  0.185005  0.650870  0.139532  1
  Li  Li3  1  0.314275  0.348496  0.361300  1
  Li  Li4  1  0.683868  0.652231  0.640607  1
  Li  Li5  1  0.809487  0.347582  0.857640  1
  Li  Li6  1  0.568886  0.847248  0.111174  1
  Li  Li7  1  0.930916  0.152258  0.388995  1
  Mn  Mn8  1  0.274223  0.669098  0.959361  1
  Mn  Mn9  1  0.772437  0.669145  0.459525  1
  Mn  Mn10  1  0.726624  0.327784  0.040615  1
  Fe  Fe11  1  0.029929  0.164113  0.211709  1
  Fe  Fe12  1  0.223227  0.323575  0.541288  1
  Fe  Fe13  1  0.525166  0.167412  0.707913  1
  Fe  Fe14  1  0.471882  0.825207  0.288121  1
  Fe  Fe15  1  0.969010  0.828534  0.789702  1
  B  B16  1  0.038499  0.331837  0.703547  1
  B  B17  1  0.284521  0.830189  0.453721  1
  B  B18  1  0.462166  0.672665  0.795878  1
  B  B19  1  0.217205  0.168264  0.048759  1
  B  B20  1  0.783573  0.831003  0.951468  1
  B  B21  1  0.537993  0.326117  0.205750  1
  B  B22  1  0.715745  0.168982  0.547812  1
  B  B23  1  0.962983  0.672427  0.295974  1
  O  O24  1  0.014805  0.594075  0.691963  1
  O  O25  1  0.169189  0.188674  0.653743  1
  O  O26  1  0.176223  0.706269  0.511777  1
  O  O27  1  0.330772  0.287062  0.990617  1
  O  O28  1  0.078560  0.794553  0.238420  1
  O  O29  1  0.326010  0.818321  0.842505  1
  O  O30  1  0.083926  0.315483  0.096391  1
  O  O31  1  0.260160  0.092004  0.441373  1
  O  O32  1  0.486112  0.413332  0.807386  1
  O  O33  1  0.239915  0.908070  0.061535  1
  O  O34  1  0.415219  0.687071  0.403894  1
  O  O35  1  0.420574  0.207597  0.262392  1
  O  O36  1  0.580604  0.799843  0.740279  1
  O  O37  1  0.584277  0.317997  0.595709  1
  O  O38  1  0.760982  0.090478  0.937985  1
  O  O39  1  0.514566  0.588310  0.192570  1
  O  O40  1  0.739881  0.908967  0.561274  1
  O  O41  1  0.915576  0.684053  0.903225  1
  O  O42  1  0.672042  0.181670  0.158084  1
  O  O43  1  0.925870  0.209144  0.760430  1
  O  O44  1  0.671408  0.711890  0.009859  1
  O  O45  1  0.827383  0.287427  0.489014  1
  O  O46  1  0.829968  0.818525  0.343248  1
  O  O47  1  0.987540  0.412899  0.307995  1
