# generated using pymatgen
data_Mn7(PbO5)3
_symmetry_space_group_name_H-M   'P 1'
_cell_length_a   10.18495277
_cell_length_b   13.84538867
_cell_length_c   17.80733508
_cell_angle_alpha   90.00000000
_cell_angle_beta   90.00000000
_cell_angle_gamma   90.00000000
_symmetry_Int_Tables_number   1
_chemical_formula_structural   Mn7(PbO5)3
_chemical_formula_sum   'Mn56 Pb24 O120'
_cell_volume   2511.09476201
_cell_formula_units_Z   8
loop_
 _symmetry_equiv_pos_site_id
 _symmetry_equiv_pos_as_xyz
  1  'x, y, z'
loop_
 _atom_site_type_symbol
 _atom_site_label
 _atom_site_symmetry_multiplicity
 _atom_site_fract_x
 _atom_site_fract_y
 _atom_site_fract_z
 _atom_site_occupancy
  Mn  Mn0  1  0.745309  0.150593  0.082656  1
  Mn  Mn1  1  0.753544  0.997708  0.916582  1
  Mn  Mn2  1  0.745309  0.150593  0.417344  1
  Mn  Mn3  1  0.244603  0.006560  0.250000  1
  Mn  Mn4  1  0.996347  0.492100  0.832564  1
  Mn  Mn5  1  0.245309  0.349407  0.582656  1
  Mn  Mn6  1  0.754691  0.650593  0.082656  1
  Mn  Mn7  1  0.492468  0.492424  0.833907  1
  Mn  Mn8  1  0.241896  0.489359  0.750000  1
  Mn  Mn9  1  0.255397  0.506560  0.250000  1
  Mn  Mn10  1  0.750801  0.857989  0.083991  1
  Mn  Mn11  1  0.744603  0.493440  0.750000  1
  Mn  Mn12  1  0.492468  0.492424  0.666093  1
  Mn  Mn13  1  0.246456  0.002292  0.416582  1
  Mn  Mn14  1  0.749199  0.357989  0.083991  1
  Mn  Mn15  1  0.500000  0.500000  0.000000  1
  Mn  Mn16  1  0.258104  0.989359  0.750000  1
  Mn  Mn17  1  0.245309  0.349407  0.917344  1
  Mn  Mn18  1  0.996347  0.492100  0.667436  1
  Mn  Mn19  1  0.755397  0.993440  0.750000  1
  Mn  Mn20  1  0.007532  0.992424  0.666093  1
  Mn  Mn21  1  0.753544  0.997708  0.583418  1
  Mn  Mn22  1  0.500000  0.000000  0.000000  1
  Mn  Mn23  1  0.758104  0.510641  0.250000  1
  Mn  Mn24  1  0.496347  0.007900  0.332564  1
  Mn  Mn25  1  0.746456  0.497708  0.583418  1
  Mn  Mn26  1  0.000000  0.000000  0.000000  1
  Mn  Mn27  1  0.749199  0.357989  0.416009  1
  Mn  Mn28  1  0.507532  0.507576  0.166093  1
  Mn  Mn29  1  0.254691  0.849407  0.917344  1
  Mn  Mn30  1  0.992468  0.007576  0.166093  1
  Mn  Mn31  1  0.250801  0.642011  0.583991  1
  Mn  Mn32  1  0.246456  0.002292  0.083418  1
  Mn  Mn33  1  0.750801  0.857989  0.416009  1
  Mn  Mn34  1  0.000000  0.000000  0.500000  1
  Mn  Mn35  1  0.253544  0.502292  0.416582  1
  Mn  Mn36  1  0.503653  0.992100  0.667436  1
  Mn  Mn37  1  0.249199  0.142011  0.916009  1
  Mn  Mn38  1  0.000000  0.500000  0.500000  1
  Mn  Mn39  1  0.500000  0.000000  0.500000  1
  Mn  Mn40  1  0.007532  0.992424  0.833907  1
  Mn  Mn41  1  0.249199  0.142011  0.583991  1
  Mn  Mn42  1  0.992468  0.007576  0.333907  1
  Mn  Mn43  1  0.503653  0.992100  0.832564  1
  Mn  Mn44  1  0.253544  0.502292  0.083418  1
  Mn  Mn45  1  0.003653  0.507900  0.167436  1
  Mn  Mn46  1  0.250801  0.642011  0.916009  1
  Mn  Mn47  1  0.754691  0.650593  0.417344  1
  Mn  Mn48  1  0.254691  0.849407  0.582656  1
  Mn  Mn49  1  0.003653  0.507900  0.332564  1
  Mn  Mn50  1  0.500000  0.500000  0.500000  1
  Mn  Mn51  1  0.741896  0.010641  0.250000  1
  Mn  Mn52  1  0.000000  0.500000  0.000000  1
  Mn  Mn53  1  0.507532  0.507576  0.333907  1
  Mn  Mn54  1  0.496347  0.007900  0.167436  1
  Mn  Mn55  1  0.746456  0.497708  0.916582  1
  Pb  Pb56  1  0.889073  0.743106  0.883413  1
  Pb  Pb57  1  0.389073  0.756894  0.383413  1
  Pb  Pb58  1  0.057515  0.747701  0.445251  1
  Pb  Pb59  1  0.557515  0.752299  0.554749  1
  Pb  Pb60  1  0.889073  0.743106  0.616587  1
  Pb  Pb61  1  0.557515  0.752299  0.945251  1
  Pb  Pb62  1  0.057515  0.747701  0.054749  1
  Pb  Pb63  1  0.486455  0.732699  0.750000  1
  Pb  Pb64  1  0.389073  0.756894  0.116587  1
  Pb  Pb65  1  0.110927  0.256894  0.116587  1
  Pb  Pb66  1  0.942485  0.252299  0.945251  1
  Pb  Pb67  1  0.013545  0.232699  0.750000  1
  Pb  Pb68  1  0.513545  0.267301  0.250000  1
  Pb  Pb69  1  0.610927  0.243106  0.616587  1
  Pb  Pb70  1  0.853658  0.261559  0.250000  1
  Pb  Pb71  1  0.442485  0.247701  0.054749  1
  Pb  Pb72  1  0.646342  0.761559  0.250000  1
  Pb  Pb73  1  0.353658  0.238441  0.750000  1
  Pb  Pb74  1  0.146342  0.738441  0.750000  1
  Pb  Pb75  1  0.110927  0.256894  0.383413  1
  Pb  Pb76  1  0.610927  0.243106  0.883413  1
  Pb  Pb77  1  0.986455  0.767301  0.250000  1
  Pb  Pb78  1  0.942485  0.252299  0.554749  1
  Pb  Pb79  1  0.442485  0.247701  0.445251  1
  O  O80  1  0.326246  0.077472  0.166713  1
  O  O81  1  0.835582  0.422948  0.995140  1
  O  O82  1  0.414446  0.563343  0.750000  1
  O  O83  1  0.894378  0.254435  0.075493  1
  O  O84  1  0.911659  0.571113  0.591398  1
  O  O85  1  0.334187  0.412790  0.829277  1
  O  O86  1  0.173754  0.577472  0.333287  1
  O  O87  1  0.589532  0.063561  0.750000  1
  O  O88  1  0.819027  0.764983  0.335910  1
  O  O89  1  0.164418  0.577052  0.495140  1
  O  O90  1  0.153358  0.567276  0.826882  1
  O  O91  1  0.411659  0.928887  0.408602  1
  O  O92  1  0.920600  0.923244  0.582916  1
  O  O93  1  0.411659  0.928887  0.091398  1
  O  O94  1  0.319027  0.735017  0.835910  1
  O  O95  1  0.078124  0.072578  0.585544  1
  O  O96  1  0.838326  0.065972  0.669702  1
  O  O97  1  0.068943  0.414960  0.750000  1
  O  O98  1  0.180973  0.235017  0.664090  1
  O  O99  1  0.673754  0.922528  0.833287  1
  O  O100  1  0.834187  0.087210  0.329277  1
  O  O101  1  0.165813  0.912790  0.829277  1
  O  O102  1  0.568943  0.085040  0.250000  1
  O  O103  1  0.843638  0.744528  0.490727  1
  O  O104  1  0.588341  0.071113  0.591398  1
  O  O105  1  0.680973  0.264983  0.164090  1
  O  O106  1  0.680973  0.264983  0.335910  1
  O  O107  1  0.156362  0.255472  0.990727  1
  O  O108  1  0.394378  0.245565  0.924507  1
  O  O109  1  0.085554  0.063343  0.750000  1
  O  O110  1  0.394378  0.245565  0.575493  1
  O  O111  1  0.819027  0.764983  0.164090  1
  O  O112  1  0.160193  0.923546  0.490476  1
  O  O113  1  0.156362  0.255472  0.509273  1
  O  O114  1  0.661674  0.565972  0.669702  1
  O  O115  1  0.579400  0.423244  0.917084  1
  O  O116  1  0.338326  0.434028  0.330298  1
  O  O117  1  0.081137  0.079043  0.250000  1
  O  O118  1  0.588341  0.071113  0.908602  1
  O  O119  1  0.843638  0.744528  0.009273  1
  O  O120  1  0.930918  0.583182  0.086276  1
  O  O121  1  0.605622  0.754435  0.424507  1
  O  O122  1  0.339807  0.423546  0.490476  1
  O  O123  1  0.338326  0.434028  0.169702  1
  O  O124  1  0.165813  0.912790  0.670723  1
  O  O125  1  0.420600  0.576756  0.417084  1
  O  O126  1  0.673754  0.922528  0.666713  1
  O  O127  1  0.914446  0.936657  0.250000  1
  O  O128  1  0.838326  0.065972  0.830298  1
  O  O129  1  0.430918  0.916818  0.913724  1
  O  O130  1  0.665813  0.587210  0.329277  1
  O  O131  1  0.920600  0.923244  0.917084  1
  O  O132  1  0.661674  0.565972  0.830298  1
  O  O133  1  0.079400  0.076756  0.082916  1
  O  O134  1  0.153358  0.567276  0.673118  1
  O  O135  1  0.088341  0.428887  0.408602  1
  O  O136  1  0.105622  0.745565  0.575493  1
  O  O137  1  0.835582  0.422948  0.504860  1
  O  O138  1  0.569082  0.083182  0.413724  1
  O  O139  1  0.834187  0.087210  0.170723  1
  O  O140  1  0.326246  0.077472  0.333287  1
  O  O141  1  0.420600  0.576756  0.082916  1
  O  O142  1  0.660193  0.576454  0.990476  1
  O  O143  1  0.664418  0.922948  0.995140  1
  O  O144  1  0.105622  0.745565  0.924507  1
  O  O145  1  0.334187  0.412790  0.670723  1
  O  O146  1  0.846642  0.432724  0.326882  1
  O  O147  1  0.431057  0.914960  0.750000  1
  O  O148  1  0.826246  0.422528  0.833287  1
  O  O149  1  0.918863  0.920957  0.750000  1
  O  O150  1  0.319027  0.735017  0.664090  1
  O  O151  1  0.579400  0.423244  0.582916  1
  O  O152  1  0.164418  0.577052  0.004860  1
  O  O153  1  0.839807  0.076454  0.990476  1
  O  O154  1  0.346642  0.067276  0.673118  1
  O  O155  1  0.656362  0.244528  0.490727  1
  O  O156  1  0.430918  0.916818  0.586276  1
  O  O157  1  0.410468  0.936439  0.250000  1
  O  O158  1  0.078124  0.072578  0.914456  1
  O  O159  1  0.653358  0.932724  0.326882  1
  O  O160  1  0.585554  0.436657  0.250000  1
  O  O161  1  0.343638  0.755472  0.509273  1
  O  O162  1  0.578124  0.427422  0.085544  1
  O  O163  1  0.921876  0.927422  0.085544  1
  O  O164  1  0.846642  0.432724  0.173118  1
  O  O165  1  0.173754  0.577472  0.166713  1
  O  O166  1  0.839807  0.076454  0.509524  1
  O  O167  1  0.069082  0.416818  0.913724  1
  O  O168  1  0.894378  0.254435  0.424507  1
  O  O169  1  0.910468  0.563561  0.750000  1
  O  O170  1  0.421876  0.572578  0.914456  1
  O  O171  1  0.343638  0.755472  0.990727  1
  O  O172  1  0.653358  0.932724  0.173118  1
  O  O173  1  0.339807  0.423546  0.009524  1
  O  O174  1  0.931057  0.585040  0.250000  1
  O  O175  1  0.088341  0.428887  0.091398  1
  O  O176  1  0.335582  0.077052  0.495140  1
  O  O177  1  0.656362  0.244528  0.009273  1
  O  O178  1  0.605622  0.754435  0.075493  1
  O  O179  1  0.665813  0.587210  0.170723  1
  O  O180  1  0.421876  0.572578  0.585544  1
  O  O181  1  0.569082  0.083182  0.086276  1
  O  O182  1  0.069082  0.416818  0.586276  1
  O  O183  1  0.089532  0.436439  0.250000  1
  O  O184  1  0.578124  0.427422  0.414456  1
  O  O185  1  0.911659  0.571113  0.908602  1
  O  O186  1  0.161674  0.934028  0.330298  1
  O  O187  1  0.079400  0.076756  0.417084  1
  O  O188  1  0.921876  0.927422  0.414456  1
  O  O189  1  0.161674  0.934028  0.169702  1
  O  O190  1  0.335582  0.077052  0.004860  1
  O  O191  1  0.581137  0.420957  0.750000  1
  O  O192  1  0.660193  0.576454  0.509524  1
  O  O193  1  0.160193  0.923546  0.009524  1
  O  O194  1  0.346642  0.067276  0.826882  1
  O  O195  1  0.418863  0.579043  0.250000  1
  O  O196  1  0.826246  0.422528  0.666713  1
  O  O197  1  0.180973  0.235017  0.835910  1
  O  O198  1  0.930918  0.583182  0.413724  1
  O  O199  1  0.664418  0.922948  0.504860  1
