# generated using pymatgen
data_Na2MnCSO7
_symmetry_space_group_name_H-M   'P 1'
_cell_length_a   9.08266257
_cell_length_b   6.86513514
_cell_length_c   5.29202586
_cell_angle_alpha   90.00000000
_cell_angle_beta   89.74814044
_cell_angle_gamma   90.00000000
_symmetry_Int_Tables_number   1
_chemical_formula_structural   Na2MnCSO7
_chemical_formula_sum   'Na4 Mn2 C2 S2 O14'
_cell_volume   329.97423648
_cell_formula_units_Z   2
loop_
 _symmetry_equiv_pos_site_id
 _symmetry_equiv_pos_as_xyz
  1  'x, y, z'
loop_
 _atom_site_type_symbol
 _atom_site_label
 _atom_site_symmetry_multiplicity
 _atom_site_fract_x
 _atom_site_fract_y
 _atom_site_fract_z
 _atom_site_occupancy
  Na  Na0  1  0.206398  0.510401  0.231518  1
  Na  Na1  1  0.206398  0.989599  0.231518  1
  Na  Na2  1  0.793602  0.489599  0.768482  1
  Na  Na3  1  0.793602  0.010401  0.768482  1
  Mn  Mn4  1  0.358744  0.750000  0.768920  1
  Mn  Mn5  1  0.641256  0.250000  0.231080  1
  C  C6  1  0.072640  0.750000  0.729078  1
  C  C7  1  0.927360  0.250000  0.270922  1
  S  S8  1  0.420911  0.250000  0.714130  1
  S  S9  1  0.579089  0.750000  0.285870  1
  O  O10  1  0.065709  0.250000  0.294861  1
  O  O11  1  0.138013  0.750000  0.950065  1
  O  O12  1  0.163119  0.750000  0.532688  1
  O  O13  1  0.341407  0.073624  0.802182  1
  O  O14  1  0.341407  0.426376  0.802182  1
  O  O15  1  0.424808  0.750000  0.184054  1
  O  O16  1  0.430052  0.250000  0.429151  1
  O  O17  1  0.569948  0.750000  0.570849  1
  O  O18  1  0.575192  0.250000  0.815946  1
  O  O19  1  0.658593  0.573624  0.197818  1
  O  O20  1  0.658593  0.926376  0.197818  1
  O  O21  1  0.836881  0.250000  0.467312  1
  O  O22  1  0.861987  0.250000  0.049935  1
  O  O23  1  0.934291  0.750000  0.705139  1
