# generated using pymatgen
data_K8V2(S2O9)3
_symmetry_space_group_name_H-M   'P 1'
_cell_length_a   13.77063394
_cell_length_b   14.14345847
_cell_length_c   14.26348061
_cell_angle_alpha   90.00000000
_cell_angle_beta   90.38859029
_cell_angle_gamma   90.00000000
_symmetry_Int_Tables_number   1
_chemical_formula_structural   K8V2(S2O9)3
_chemical_formula_sum   'K32 V8 S24 O108'
_cell_volume   2777.95419806
_cell_formula_units_Z   4
loop_
 _symmetry_equiv_pos_site_id
 _symmetry_equiv_pos_as_xyz
  1  'x, y, z'
loop_
 _atom_site_type_symbol
 _atom_site_label
 _atom_site_symmetry_multiplicity
 _atom_site_fract_x
 _atom_site_fract_y
 _atom_site_fract_z
 _atom_site_occupancy
  K  K0  1  0.844738  0.788772  0.226562  1
  K  K1  1  0.138957  0.578400  0.715774  1
  K  K2  1  0.469078  0.174626  0.013981  1
  K  K3  1  0.955500  0.716270  0.484683  1
  K  K4  1  0.044500  0.216270  0.515317  1
  K  K5  1  0.638532  0.580914  0.247437  1
  K  K6  1  0.812117  0.850898  0.949304  1
  K  K7  1  0.187883  0.350898  0.050696  1
  K  K8  1  0.351501  0.759922  0.744644  1
  K  K9  1  0.323551  0.993579  0.450090  1
  K  K10  1  0.322056  0.572282  0.197288  1
  K  K11  1  0.530922  0.674626  0.986019  1
  K  K12  1  0.159833  0.792490  0.291626  1
  K  K13  1  0.836654  0.569701  0.794955  1
  K  K14  1  0.462858  0.697994  0.479080  1
  K  K15  1  0.688708  0.373747  0.958421  1
  K  K16  1  0.840167  0.292490  0.708374  1
  K  K17  1  0.677944  0.072282  0.802712  1
  K  K18  1  0.155262  0.288772  0.773438  1
  K  K19  1  0.339335  0.279974  0.299196  1
  K  K20  1  0.824008  0.994381  0.557884  1
  K  K21  1  0.861043  0.078400  0.284226  1
  K  K22  1  0.948434  0.146251  0.010087  1
  K  K23  1  0.163346  0.069701  0.205045  1
  K  K24  1  0.676449  0.493579  0.549910  1
  K  K25  1  0.175992  0.494381  0.442116  1
  K  K26  1  0.648499  0.259922  0.255356  1
  K  K27  1  0.051566  0.646251  0.989913  1
  K  K28  1  0.361468  0.080914  0.752563  1
  K  K29  1  0.537142  0.197994  0.520920  1
  K  K30  1  0.660665  0.779974  0.700804  1
  K  K31  1  0.311292  0.873747  0.041579  1
  V  V32  1  0.904054  0.421195  0.123227  1
  V  V33  1  0.412056  0.416580  0.875908  1
  V  V34  1  0.587944  0.916580  0.124092  1
  V  V35  1  0.104811  0.919779  0.630795  1
  V  V36  1  0.095946  0.921195  0.876773  1
  V  V37  1  0.594453  0.930797  0.367705  1
  V  V38  1  0.405547  0.430797  0.632295  1
  V  V39  1  0.895189  0.419779  0.369205  1
  S  S40  1  0.030152  0.956380  0.414801  1
  S  S41  1  0.285658  0.248969  0.549349  1
  S  S42  1  0.711458  0.100032  0.049333  1
  S  S43  1  0.288542  0.600032  0.950667  1
  S  S44  1  0.551827  0.570319  0.751647  1
  S  S45  1  0.486328  0.423653  0.095934  1
  S  S46  1  0.051179  0.283135  0.236653  1
  S  S47  1  0.522971  0.939784  0.589837  1
  S  S48  1  0.776766  0.244850  0.469709  1
  S  S49  1  0.948821  0.783135  0.763347  1
  S  S50  1  0.441212  0.781155  0.245513  1
  S  S51  1  0.223234  0.744850  0.530291  1
  S  S52  1  0.513672  0.923653  0.904066  1
  S  S53  1  0.558788  0.281155  0.754487  1
  S  S54  1  0.969848  0.456380  0.585199  1
  S  S55  1  0.978606  0.408858  0.911715  1
  S  S56  1  0.774792  0.601102  0.033094  1
  S  S57  1  0.714342  0.748969  0.450651  1
  S  S58  1  0.477029  0.439784  0.410163  1
  S  S59  1  0.972757  0.084644  0.736760  1
  S  S60  1  0.027243  0.584644  0.263240  1
  S  S61  1  0.021395  0.908858  0.088285  1
  S  S62  1  0.225208  0.101102  0.966906  1
  S  S63  1  0.448173  0.070319  0.248353  1
  O  O64  1  0.148077  0.825925  0.916157  1
  O  O65  1  0.017609  0.053833  0.826893  1
  O  O66  1  0.489741  0.526937  0.111993  1
  O  O67  1  0.459460  0.852416  0.320397  1
  O  O68  1  0.718381  0.174866  0.417230  1
  O  O69  1  0.006285  0.180142  0.711610  1
  O  O70  1  0.020846  0.955018  0.988492  1
  O  O71  1  0.427772  0.876666  0.863662  1
  O  O72  1  0.848913  0.199393  0.532003  1
  O  O73  1  0.653638  0.574849  0.720498  1
  O  O74  1  0.492129  0.301800  0.838490  1
  O  O75  1  0.970937  0.859855  0.837292  1
  O  O76  1  0.481469  0.163514  0.215242  1
  O  O77  1  0.977120  0.819336  0.669655  1
  O  O78  1  0.865587  0.080753  0.740559  1
  O  O79  1  0.033100  0.904032  0.510861  1
  O  O80  1  0.000934  0.695832  0.788425  1
  O  O81  1  0.022880  0.319336  0.330345  1
  O  O82  1  0.123287  0.895456  0.119076  1
  O  O83  1  0.231686  0.193866  0.619572  1
  O  O84  1  0.493692  0.846942  0.627996  1
  O  O85  1  0.969199  0.818046  0.079836  1
  O  O86  1  0.669310  0.179371  0.995861  1
  O  O87  1  0.548295  0.514496  0.390900  1
  O  O88  1  0.264734  0.163959  0.894123  1
  O  O89  1  0.993715  0.680142  0.288390  1
  O  O90  1  0.510259  0.026937  0.888007  1
  O  O91  1  0.629744  0.925678  0.244272  1
  O  O92  1  0.330690  0.679371  0.004139  1
  O  O93  1  0.228170  0.539330  0.011004  1
  O  O94  1  0.370256  0.425678  0.755728  1
  O  O95  1  0.689717  0.983861  0.409135  1
  O  O96  1  0.157595  0.269603  0.232015  1
  O  O97  1  0.496084  0.405377  0.989155  1
  O  O98  1  0.198033  0.007324  0.915767  1
  O  O99  1  0.451705  0.014496  0.609100  1
  O  O100  1  0.801967  0.507324  0.084233  1
  O  O101  1  0.622143  0.042381  0.084364  1
  O  O102  1  0.236547  0.632033  0.865964  1
  O  O103  1  0.541086  0.496638  0.825319  1
  O  O104  1  0.776747  0.816549  0.501021  1
  O  O105  1  0.029063  0.359855  0.162708  1
  O  O106  1  0.660540  0.286427  0.787117  1
  O  O107  1  0.768314  0.693866  0.380428  1
  O  O108  1  0.970030  0.977646  0.147449  1
  O  O109  1  0.318603  0.360507  0.917838  1
  O  O110  1  0.622431  0.966059  0.619556  1
  O  O111  1  0.458914  0.996638  0.174681  1
  O  O112  1  0.281619  0.674866  0.582770  1
  O  O113  1  0.134582  0.916353  0.754479  1
  O  O114  1  0.346362  0.074849  0.279502  1
  O  O115  1  0.310283  0.483861  0.590865  1
  O  O116  1  0.299249  0.074212  0.037340  1
  O  O117  1  0.771830  0.039330  0.988996  1
  O  O118  1  0.763453  0.132033  0.134036  1
  O  O119  1  0.488837  0.544606  0.665425  1
  O  O120  1  0.572228  0.376666  0.136338  1
  O  O121  1  0.518531  0.663514  0.784758  1
  O  O122  1  0.735266  0.663959  0.105877  1
  O  O123  1  0.876713  0.395456  0.880924  1
  O  O124  1  0.028194  0.394228  0.646559  1
  O  O125  1  0.377857  0.542381  0.915636  1
  O  O126  1  0.130028  0.968176  0.379459  1
  O  O127  1  0.518298  0.928129  0.481844  1
  O  O128  1  0.393349  0.382635  0.128084  1
  O  O129  1  0.808907  0.487312  0.406729  1
  O  O130  1  0.681397  0.860507  0.082162  1
  O  O131  1  0.191093  0.987312  0.593271  1
  O  O132  1  0.340246  0.188564  0.483579  1
  O  O133  1  0.134413  0.580753  0.259441  1
  O  O134  1  0.339460  0.786427  0.212883  1
  O  O135  1  0.659754  0.688564  0.516421  1
  O  O136  1  0.606651  0.882635  0.871916  1
  O  O137  1  0.979154  0.455018  0.011508  1
  O  O138  1  0.017855  0.548304  0.568800  1
  O  O139  1  0.971806  0.894228  0.353441  1
  O  O140  1  0.030801  0.318046  0.920164  1
  O  O141  1  0.139013  0.141122  0.012364  1
  O  O142  1  0.166863  0.797663  0.609063  1
  O  O143  1  0.966900  0.404032  0.489139  1
  O  O144  1  0.982391  0.553833  0.173107  1
  O  O145  1  0.860987  0.641122  0.987636  1
  O  O146  1  0.715459  0.311396  0.521949  1
  O  O147  1  0.851923  0.325925  0.083843  1
  O  O148  1  0.842405  0.769603  0.767985  1
  O  O149  1  0.535116  0.185100  0.721292  1
  O  O150  1  0.223253  0.316549  0.498979  1
  O  O151  1  0.507871  0.801800  0.161510  1
  O  O152  1  0.996971  0.517095  0.342359  1
  O  O153  1  0.503916  0.905377  0.010845  1
  O  O154  1  0.865418  0.416353  0.245521  1
  O  O155  1  0.377569  0.466059  0.380444  1
  O  O156  1  0.540540  0.352416  0.679603  1
  O  O157  1  0.481702  0.428129  0.518156  1
  O  O158  1  0.284541  0.811396  0.478052  1
  O  O159  1  0.999066  0.195832  0.211575  1
  O  O160  1  0.833137  0.297663  0.390937  1
  O  O161  1  0.700751  0.574212  0.962660  1
  O  O162  1  0.869972  0.468176  0.620541  1
  O  O163  1  0.506308  0.346942  0.372004  1
  O  O164  1  0.982145  0.048304  0.431200  1
  O  O165  1  0.364823  0.302744  0.607356  1
  O  O166  1  0.635177  0.802744  0.392644  1
  O  O167  1  0.151087  0.699393  0.467997  1
  O  O168  1  0.511163  0.044606  0.334575  1
  O  O169  1  0.464884  0.685100  0.278708  1
  O  O170  1  0.003029  0.017095  0.657641  1
  O  O171  1  0.029970  0.477646  0.852551  1
