# generated using pymatgen
data_Na3Mn2P2(CO7)2
_symmetry_space_group_name_H-M   'P 1'
_cell_length_a   8.97367748
_cell_length_b   6.58601474
_cell_length_c   10.38944181
_cell_angle_alpha   90.00000000
_cell_angle_beta   88.49255465
_cell_angle_gamma   90.00000000
_symmetry_Int_Tables_number   1
_chemical_formula_structural   Na3Mn2P2(CO7)2
_chemical_formula_sum   'Na6 Mn4 P4 C4 O28'
_cell_volume   613.81152878
_cell_formula_units_Z   2
loop_
 _symmetry_equiv_pos_site_id
 _symmetry_equiv_pos_as_xyz
  1  'x, y, z'
loop_
 _atom_site_type_symbol
 _atom_site_label
 _atom_site_symmetry_multiplicity
 _atom_site_fract_x
 _atom_site_fract_y
 _atom_site_fract_z
 _atom_site_occupancy
  Na  Na0  1  0.243655  0.474298  0.623152  1
  Na  Na1  1  0.243655  0.025702  0.123152  1
  Na  Na2  1  0.760814  0.509163  0.876599  1
  Na  Na3  1  0.760017  0.990440  0.879159  1
  Na  Na4  1  0.760017  0.509560  0.379159  1
  Na  Na5  1  0.760814  0.990837  0.376599  1
  Mn  Mn6  1  0.344005  0.747401  0.893845  1
  Mn  Mn7  1  0.344005  0.752599  0.393844  1
  Mn  Mn8  1  0.649798  0.247295  0.608935  1
  Mn  Mn9  1  0.649798  0.252705  0.108935  1
  P  P10  1  0.424003  0.249682  0.856269  1
  P  P11  1  0.424003  0.250318  0.356269  1
  P  P12  1  0.571907  0.747561  0.642717  1
  P  P13  1  0.571907  0.752439  0.142717  1
  C  C14  1  0.075796  0.751782  0.865382  1
  C  C15  1  0.075796  0.748218  0.365382  1
  C  C16  1  0.922744  0.247104  0.634272  1
  C  C17  1  0.922744  0.252896  0.134273  1
  O  O18  1  0.058422  0.248844  0.645275  1
  O  O19  1  0.058422  0.251156  0.145275  1
  O  O20  1  0.139819  0.761108  0.977214  1
  O  O21  1  0.139819  0.738892  0.477214  1
  O  O22  1  0.174305  0.742457  0.769843  1
  O  O23  1  0.174305  0.757543  0.269843  1
  O  O24  1  0.330825  0.062126  0.895331  1
  O  O25  1  0.327613  0.437780  0.885953  1
  O  O26  1  0.327613  0.062220  0.385953  1
  O  O27  1  0.330825  0.437874  0.395331  1
  O  O28  1  0.464880  0.249568  0.708656  1
  O  O29  1  0.424550  0.740944  0.570484  1
  O  O30  1  0.464880  0.250432  0.208656  1
  O  O31  1  0.424550  0.759056  0.070484  1
  O  O32  1  0.575093  0.252643  0.927812  1
  O  O33  1  0.537234  0.748675  0.791920  1
  O  O34  1  0.575093  0.247357  0.427812  1
  O  O35  1  0.537234  0.751325  0.291920  1
  O  O36  1  0.671988  0.561693  0.609215  1
  O  O37  1  0.668692  0.934522  0.606535  1
  O  O38  1  0.668692  0.565478  0.106535  1
  O  O39  1  0.671988  0.938307  0.109215  1
  O  O40  1  0.824036  0.245853  0.732170  1
  O  O41  1  0.824036  0.254147  0.232170  1
  O  O42  1  0.852696  0.247240  0.523272  1
  O  O43  1  0.852696  0.252760  0.023272  1
  O  O44  1  0.937967  0.750718  0.851698  1
  O  O45  1  0.937967  0.749282  0.351698  1
