# generated using pymatgen
data_Ti17(NO4)6
_symmetry_space_group_name_H-M   'P 1'
_cell_length_a   15.00101368
_cell_length_b   7.50097561
_cell_length_c   10.73911837
_cell_angle_alpha   74.20179084
_cell_angle_beta   74.21440631
_cell_angle_gamma   80.26803833
_symmetry_Int_Tables_number   1
_chemical_formula_structural   Ti17(NO4)6
_chemical_formula_sum   'Ti34 N12 O48'
_cell_volume   1112.99158124
_cell_formula_units_Z   2
loop_
 _symmetry_equiv_pos_site_id
 _symmetry_equiv_pos_as_xyz
  1  'x, y, z'
loop_
 _atom_site_type_symbol
 _atom_site_label
 _atom_site_symmetry_multiplicity
 _atom_site_fract_x
 _atom_site_fract_y
 _atom_site_fract_z
 _atom_site_occupancy
  Ti  Ti0  1  0.998751  0.718001  0.925666  1
  Ti  Ti1  1  0.972813  0.549173  0.250140  1
  Ti  Ti2  1  0.829139  0.388435  0.930319  1
  Ti  Ti3  1  0.889456  0.507394  0.569104  1
  Ti  Ti4  1  0.774238  0.823895  0.442909  1
  Ti  Ti5  1  0.834583  0.948666  0.074334  1
  Ti  Ti6  1  0.943878  0.159273  0.430896  1
  Ti  Ti7  1  0.860520  0.117494  0.749860  1
  Ti  Ti8  1  0.640274  0.886272  0.249482  1
  Ti  Ti9  1  0.561143  0.835400  0.577449  1
  Ti  Ti10  1  0.502316  0.722557  0.922528  1
  Ti  Ti11  1  0.722627  0.162146  0.577750  1
  Ti  Ti12  1  0.805998  0.218583  0.250519  1
  Ti  Ti13  1  0.609393  0.497614  0.426028  1
  Ti  Ti14  1  0.525493  0.446305  0.749606  1
  Ti  Ti15  1  0.665875  0.045655  0.922112  1
  Ti  Ti16  1  0.670910  0.619632  0.057530  1
  Ti  Ti17  1  0.390192  0.506300  0.570895  1
  Ti  Ti18  1  0.193060  0.780394  0.750518  1
  Ti  Ti19  1  0.474503  0.555809  0.248777  1
  Ti  Ti20  1  0.330607  0.385163  0.929570  1
  Ti  Ti21  1  0.272191  0.831266  0.422551  1
  Ti  Ti22  1  0.331017  0.944109  0.077472  1
  Ti  Ti23  1  0.443141  0.160366  0.429105  1
  Ti  Ti24  1  0.358830  0.110858  0.751223  1
  Ti  Ti25  1  0.059095  0.842772  0.557091  1
  Ti  Ti26  1  0.502726  0.281503  0.070430  1
  Ti  Ti27  1  0.307840  0.220361  0.250394  1
  Ti  Ti28  1  0.110706  0.504520  0.422250  1
  Ti  Ti29  1  0.027335  0.448084  0.749481  1
  Ti  Ti30  1  0.167459  0.621012  0.077888  1
  Ti  Ti31  1  0.162424  0.047035  0.942470  1
  Ti  Ti32  1  0.223940  0.169052  0.573972  1
  Ti  Ti33  1  0.004195  0.278231  0.069681  1
  N  N34  1  0.907807  0.353053  0.749626  1
  N  N35  1  0.758985  0.981239  0.250538  1
  N  N36  1  0.563027  0.683637  0.749865  1
  N  N37  1  0.925527  0.313614  0.250374  1
  N  N38  1  0.741367  0.040094  0.750388  1
  N  N39  1  0.592781  0.648950  0.249269  1
  N  N40  1  0.405798  0.353994  0.750216  1
  N  N41  1  0.270306  0.983029  0.250135  1
  N  N42  1  0.427535  0.312673  0.249784  1
  N  N43  1  0.074348  0.685428  0.749462  1
  N  N44  1  0.240552  0.017716  0.750731  1
  N  N45  1  0.091966  0.626573  0.249612  1
  O  O46  1  0.912942  0.921101  0.881970  1
  O  O47  1  0.000908  0.622828  0.562813  1
  O  O48  1  0.937714  0.502562  0.931942  1
  O  O49  1  0.597020  0.839357  0.949787  1
  O  O50  1  0.877890  0.659267  0.377482  1
  O  O51  1  0.793196  0.674677  0.609133  1
  O  O52  1  0.745884  0.580005  0.890666  1
  O  O53  1  0.663334  0.972998  0.550657  1
  O  O54  1  0.920391  0.745566  0.118030  1
  O  O55  1  0.833422  0.290538  0.565886  1
  O  O56  1  0.955443  0.007399  0.622518  1
  O  O57  1  0.542150  0.990411  0.379548  1
  O  O58  1  0.414293  0.924274  0.879542  1
  O  O59  1  0.772965  0.164542  0.937152  1
  O  O60  1  0.666271  0.709864  0.437315  1
  O  O61  1  0.728812  0.834190  0.062918  1
  O  O62  1  0.895619  0.164104  0.068058  1
  O  O63  1  0.711189  0.328841  0.380282  1
  O  O64  1  0.578563  0.253172  0.881960  1
  O  O65  1  0.500460  0.621609  0.562656  1
  O  O66  1  0.832425  0.043839  0.437187  1
  O  O67  1  0.753923  0.409892  0.122245  1
  O  O68  1  0.438222  0.497859  0.936437  1
  O  O69  1  0.622205  0.341199  0.618788  1
  O  O70  1  0.167063  0.956803  0.562685  1
  O  O71  1  0.104522  0.832477  0.937082  1
  O  O72  1  0.500393  0.375149  0.434441  1
  O  O73  1  0.419041  0.742393  0.120458  1
  O  O74  1  0.291183  0.676256  0.620452  1
  O  O75  1  0.245210  0.584626  0.879591  1
  O  O76  1  0.562048  0.500359  0.062638  1
  O  O77  1  0.377198  0.657176  0.382164  1
  O  O78  1  0.332940  0.291518  0.565559  1
  O  O79  1  0.456136  0.009491  0.617836  1
  O  O80  1  0.271286  0.166307  0.937362  1
  O  O81  1  0.170000  0.693668  0.449343  1
  O  O82  1  0.236314  0.827310  0.050213  1
  O  O83  1  0.040138  0.991989  0.390867  1
  O  O84  1  0.588123  0.082041  0.120409  1
  O  O85  1  0.332874  0.045057  0.437344  1
  O  O86  1  0.254770  0.413495  0.118040  1
  O  O87  1  0.079411  0.256774  0.877755  1
  O  O88  1  0.122144  0.337826  0.619718  1
  O  O89  1  0.395111  0.168808  0.063563  1
  O  O90  1  0.211128  0.325468  0.381212  1
  O  O91  1  0.999912  0.376128  0.434114  1
  O  O92  1  0.060369  0.502125  0.062848  1
  O  O93  1  0.087450  0.086662  0.109334  1
