# generated using pymatgen
data_LiVF5
_symmetry_space_group_name_H-M   'P 1'
_cell_length_a   7.65578262
_cell_length_b   7.35387105
_cell_length_c   6.84388283
_cell_angle_alpha   90.00000000
_cell_angle_beta   90.00000000
_cell_angle_gamma   90.00000000
_symmetry_Int_Tables_number   1
_chemical_formula_structural   LiVF5
_chemical_formula_sum   'Li4 V4 F20'
_cell_volume   385.30812704
_cell_formula_units_Z   4
loop_
 _symmetry_equiv_pos_site_id
 _symmetry_equiv_pos_as_xyz
  1  'x, y, z'
loop_
 _atom_site_type_symbol
 _atom_site_label
 _atom_site_symmetry_multiplicity
 _atom_site_fract_x
 _atom_site_fract_y
 _atom_site_fract_z
 _atom_site_occupancy
  Li  Li0  1  0.121897  0.250000  0.822529  1
  Li  Li1  1  0.378103  0.750000  0.322529  1
  Li  Li2  1  0.621897  0.250000  0.677471  1
  Li  Li3  1  0.878103  0.750000  0.177471  1
  V  V4  1  0.124438  0.750000  0.745146  1
  V  V5  1  0.375563  0.250000  0.245146  1
  V  V6  1  0.624437  0.750000  0.754854  1
  V  V7  1  0.875563  0.250000  0.254854  1
  F  F8  1  0.089662  0.750000  0.013838  1
  F  F9  1  0.124101  0.001175  0.742008  1
  F  F10  1  0.124101  0.498825  0.742008  1
  F  F11  1  0.126145  0.250000  0.288595  1
  F  F12  1  0.160339  0.750000  0.477276  1
  F  F13  1  0.339661  0.250000  0.977276  1
  F  F14  1  0.373855  0.750000  0.788595  1
  F  F15  1  0.375899  0.501175  0.242008  1
  F  F16  1  0.375899  0.998825  0.242008  1
  F  F17  1  0.410338  0.250000  0.513838  1
  F  F18  1  0.589662  0.750000  0.486162  1
  F  F19  1  0.624101  0.001175  0.757992  1
  F  F20  1  0.624101  0.498825  0.757992  1
  F  F21  1  0.626145  0.250000  0.211405  1
  F  F22  1  0.660339  0.750000  0.022724  1
  F  F23  1  0.839661  0.250000  0.522724  1
  F  F24  1  0.873855  0.750000  0.711405  1
  F  F25  1  0.875899  0.501175  0.257992  1
  F  F26  1  0.875899  0.998825  0.257992  1
  F  F27  1  0.910338  0.250000  0.986162  1
