# generated using pymatgen
data_Li4Mn2Co3Cu3O16
_symmetry_space_group_name_H-M   'P 1'
_cell_length_a   5.78825854
_cell_length_b   5.73890159
_cell_length_c   9.29604395
_cell_angle_alpha   90.00067626
_cell_angle_beta   88.54051631
_cell_angle_gamma   119.71838645
_symmetry_Int_Tables_number   1
_chemical_formula_structural   Li4Mn2Co3Cu3O16
_chemical_formula_sum   'Li4 Mn2 Co3 Cu3 O16'
_cell_volume   268.06749956
_cell_formula_units_Z   1
loop_
 _symmetry_equiv_pos_site_id
 _symmetry_equiv_pos_as_xyz
  1  'x, y, z'
loop_
 _atom_site_type_symbol
 _atom_site_label
 _atom_site_symmetry_multiplicity
 _atom_site_fract_x
 _atom_site_fract_y
 _atom_site_fract_z
 _atom_site_occupancy
  Li  Li0  1  0.326260  0.662811  0.896419  1
  Li  Li1  1  0.999275  0.999498  0.994273  1
  Li  Li2  1  0.997431  0.998936  0.494373  1
  Li  Li3  1  0.675930  0.338201  0.401885  1
  Mn  Mn4  1  0.342506  0.671511  0.492416  1
  Mn  Mn5  1  0.657731  0.328597  0.979766  1
  Co  Co6  1  0.659969  0.829919  0.210984  1
  Co  Co7  1  0.830240  0.659718  0.713334  1
  Co  Co8  1  0.830274  0.170562  0.713352  1
  Cu  Cu9  1  0.170661  0.831382  0.213862  1
  Cu  Cu10  1  0.170458  0.339335  0.213991  1
  Cu  Cu11  1  0.336355  0.168070  0.711866  1
  O  O12  1  0.159703  0.829222  0.593004  1
  O  O13  1  0.051884  0.526480  0.351071  1
  O  O14  1  0.342728  0.671475  0.110054  1
  O  O15  1  0.987052  0.993342  0.302845  1
  O  O16  1  0.990603  0.995552  0.804003  1
  O  O17  1  0.159332  0.331185  0.592857  1
  O  O18  1  0.500598  0.964700  0.344694  1
  O  O19  1  0.499116  0.534963  0.344345  1
  O  O20  1  0.328111  0.163813  0.093521  1
  O  O21  1  0.668961  0.834429  0.601371  1
  O  O22  1  0.525176  0.487737  0.842908  1
  O  O23  1  0.525874  0.036854  0.843024  1
  O  O24  1  0.674823  0.337277  0.613159  1
  O  O25  1  0.814492  0.663238  0.098410  1
  O  O26  1  0.958930  0.479643  0.837226  1
  O  O27  1  0.815526  0.151849  0.098822  1
