# generated using pymatgen
data_Li4Fe(TeO4)3
_symmetry_space_group_name_H-M   'P 1'
_cell_length_a   5.22772543
_cell_length_b   5.04844727
_cell_length_c   8.63835284
_cell_angle_alpha   90.00000000
_cell_angle_beta   90.00000000
_cell_angle_gamma   91.03526091
_symmetry_Int_Tables_number   1
_chemical_formula_structural   Li4Fe(TeO4)3
_chemical_formula_sum   'Li4 Fe1 Te3 O12'
_cell_volume   227.94529678
_cell_formula_units_Z   1
loop_
 _symmetry_equiv_pos_site_id
 _symmetry_equiv_pos_as_xyz
  1  'x, y, z'
loop_
 _atom_site_type_symbol
 _atom_site_label
 _atom_site_symmetry_multiplicity
 _atom_site_fract_x
 _atom_site_fract_y
 _atom_site_fract_z
 _atom_site_occupancy
  Li  Li0  1  0.000000  0.000000  0.712480  1
  Li  Li1  1  0.000000  0.500000  0.848409  1
  Li  Li2  1  0.500000  0.000000  0.299328  1
  Li  Li3  1  0.500000  0.500000  0.178035  1
  Fe  Fe4  1  0.000000  0.000000  0.103508  1
  Te  Te5  1  0.500000  0.500000  0.606879  1
  Te  Te6  1  0.000000  0.500000  0.401051  1
  Te  Te7  1  0.500000  0.000000  0.925187  1
  O  O8  1  0.154792  0.264767  0.256323  1
  O  O9  1  0.162014  0.293591  0.576556  1
  O  O10  1  0.190112  0.199271  0.921008  1
  O  O11  1  0.322555  0.707061  0.427933  1
  O  O12  1  0.328049  0.798806  0.087713  1
  O  O13  1  0.334284  0.765491  0.763570  1
  O  O14  1  0.665716  0.234509  0.763570  1
  O  O15  1  0.671951  0.201194  0.087713  1
  O  O16  1  0.677445  0.292939  0.427933  1
  O  O17  1  0.809888  0.800729  0.921008  1
  O  O18  1  0.837986  0.706409  0.576556  1
  O  O19  1  0.845208  0.735233  0.256323  1
