# generated using pymatgen
data_Li5BiS4
_symmetry_space_group_name_H-M   'P 1'
_cell_length_a   16.62000361
_cell_length_b   16.62000361
_cell_length_c   5.93908222
_cell_angle_alpha   90.00000000
_cell_angle_beta   90.00000000
_cell_angle_gamma   90.00000000
_symmetry_Int_Tables_number   1
_chemical_formula_structural   Li5BiS4
_chemical_formula_sum   'Li40 Bi8 S32'
_cell_volume   1640.52013544
_cell_formula_units_Z   8
loop_
 _symmetry_equiv_pos_site_id
 _symmetry_equiv_pos_as_xyz
  1  'x, y, z'
loop_
 _atom_site_type_symbol
 _atom_site_label
 _atom_site_symmetry_multiplicity
 _atom_site_fract_x
 _atom_site_fract_y
 _atom_site_fract_z
 _atom_site_occupancy
  Li  Li0  1  0.989621  0.010379  0.250000  1
  Li  Li1  1  0.010379  0.989621  0.750000  1
  Li  Li2  1  0.989621  0.489621  0.250000  1
  Li  Li3  1  0.010379  0.510379  0.750000  1
  Li  Li4  1  0.111643  0.363121  0.813073  1
  Li  Li5  1  0.111643  0.136879  0.813073  1
  Li  Li6  1  0.122233  0.622233  0.250000  1
  Li  Li7  1  0.122233  0.877767  0.250000  1
  Li  Li8  1  0.136879  0.111643  0.313073  1
  Li  Li9  1  0.136879  0.388357  0.313073  1
  Li  Li10  1  0.250000  0.250000  0.336407  1
  Li  Li11  1  0.250000  0.750000  0.750000  1
  Li  Li12  1  0.250000  0.750000  0.250000  1
  Li  Li13  1  0.250000  0.250000  0.836407  1
  Li  Li14  1  0.363121  0.111643  0.313073  1
  Li  Li15  1  0.363121  0.388357  0.313073  1
  Li  Li16  1  0.377767  0.622233  0.250000  1
  Li  Li17  1  0.377767  0.877767  0.250000  1
  Li  Li18  1  0.388357  0.136879  0.813073  1
  Li  Li19  1  0.388357  0.363121  0.813073  1
  Li  Li20  1  0.510379  0.489621  0.250000  1
  Li  Li21  1  0.489621  0.510379  0.750000  1
  Li  Li22  1  0.510379  0.010379  0.250000  1
  Li  Li23  1  0.489621  0.989621  0.750000  1
  Li  Li24  1  0.611643  0.636879  0.186927  1
  Li  Li25  1  0.611643  0.863121  0.186927  1
  Li  Li26  1  0.622233  0.122233  0.750000  1
  Li  Li27  1  0.622233  0.377767  0.750000  1
  Li  Li28  1  0.636879  0.611643  0.686927  1
  Li  Li29  1  0.636879  0.888357  0.686927  1
  Li  Li30  1  0.750000  0.250000  0.750000  1
  Li  Li31  1  0.750000  0.250000  0.250000  1
  Li  Li32  1  0.750000  0.750000  0.163593  1
  Li  Li33  1  0.750000  0.750000  0.663593  1
  Li  Li34  1  0.863121  0.611643  0.686927  1
  Li  Li35  1  0.863121  0.888357  0.686927  1
  Li  Li36  1  0.877767  0.122233  0.750000  1
  Li  Li37  1  0.877767  0.377767  0.750000  1
  Li  Li38  1  0.888357  0.636879  0.186927  1
  Li  Li39  1  0.888357  0.863121  0.186927  1
  Bi  Bi40  1  0.017597  0.750000  0.714219  1
  Bi  Bi41  1  0.250000  0.517597  0.785781  1
  Bi  Bi42  1  0.250000  0.982403  0.785781  1
  Bi  Bi43  1  0.482403  0.750000  0.714219  1
  Bi  Bi44  1  0.517597  0.250000  0.285781  1
  Bi  Bi45  1  0.750000  0.017597  0.214219  1
  Bi  Bi46  1  0.750000  0.482403  0.214219  1
  Bi  Bi47  1  0.982403  0.250000  0.285781  1
  S  S48  1  0.009081  0.114860  0.529016  1
  S  S49  1  0.009081  0.385140  0.529016  1
  S  S50  1  0.114860  0.009081  0.029016  1
  S  S51  1  0.114860  0.490919  0.029016  1
  S  S52  1  0.132012  0.250000  0.087117  1
  S  S53  1  0.131831  0.750000  0.024293  1
  S  S54  1  0.250000  0.132012  0.587117  1
  S  S55  1  0.250000  0.631831  0.475707  1
  S  S56  1  0.250000  0.367988  0.587117  1
  S  S57  1  0.250000  0.868169  0.475707  1
  S  S58  1  0.368169  0.750000  0.024293  1
  S  S59  1  0.367988  0.250000  0.087117  1
  S  S60  1  0.385140  0.490919  0.029016  1
  S  S61  1  0.385140  0.009081  0.029016  1
  S  S62  1  0.490919  0.114860  0.529016  1
  S  S63  1  0.490919  0.385140  0.529016  1
  S  S64  1  0.509081  0.614860  0.470984  1
  S  S65  1  0.509081  0.885140  0.470984  1
  S  S66  1  0.614860  0.509081  0.970984  1
  S  S67  1  0.614860  0.990919  0.970984  1
  S  S68  1  0.632012  0.750000  0.912883  1
  S  S69  1  0.631831  0.250000  0.975707  1
  S  S70  1  0.750000  0.131831  0.524293  1
  S  S71  1  0.750000  0.368169  0.524293  1
  S  S72  1  0.750000  0.632012  0.412883  1
  S  S73  1  0.750000  0.867988  0.412883  1
  S  S74  1  0.868169  0.250000  0.975707  1
  S  S75  1  0.867988  0.750000  0.912883  1
  S  S76  1  0.885140  0.509081  0.970984  1
  S  S77  1  0.885140  0.990919  0.970984  1
  S  S78  1  0.990919  0.614860  0.470984  1
  S  S79  1  0.990919  0.885140  0.470984  1
