# generated using pymatgen
data_Li2Ni3SbO8
_symmetry_space_group_name_H-M   'P 1'
_cell_length_a   8.36274981
_cell_length_b   8.36519858
_cell_length_c   8.35479545
_cell_angle_alpha   89.99949207
_cell_angle_beta   90.00148203
_cell_angle_gamma   90.00043315
_symmetry_Int_Tables_number   1
_chemical_formula_structural   Li2Ni3SbO8
_chemical_formula_sum   'Li8 Ni12 Sb4 O32'
_cell_volume   584.46859536
_cell_formula_units_Z   4
loop_
 _symmetry_equiv_pos_site_id
 _symmetry_equiv_pos_as_xyz
  1  'x, y, z'
loop_
 _atom_site_type_symbol
 _atom_site_label
 _atom_site_symmetry_multiplicity
 _atom_site_fract_x
 _atom_site_fract_y
 _atom_site_fract_z
 _atom_site_occupancy
  Li  Li0  1  0.998806  0.998735  0.998673  1
  Li  Li1  1  0.251291  0.251179  0.251259  1
  Li  Li2  1  0.248725  0.748794  0.751283  1
  Li  Li3  1  0.501170  0.001239  0.498685  1
  Li  Li4  1  0.498817  0.501285  0.001316  1
  Li  Li5  1  0.751302  0.248828  0.748748  1
  Li  Li6  1  0.748734  0.751158  0.248718  1
  Li  Li7  1  0.001169  0.498772  0.501319  1
  Ni  Ni8  1  0.122525  0.127471  0.625045  1
  Ni  Ni9  1  0.125313  0.377326  0.872404  1
  Ni  Ni10  1  0.127305  0.625007  0.122561  1
  Ni  Ni11  1  0.372615  0.374987  0.622580  1
  Ni  Ni12  1  0.374830  0.622707  0.372366  1
  Ni  Ni13  1  0.377357  0.872479  0.125091  1
  Ni  Ni14  1  0.622526  0.372545  0.374983  1
  Ni  Ni15  1  0.625310  0.122669  0.127659  1
  Ni  Ni16  1  0.627329  0.874996  0.877456  1
  Ni  Ni17  1  0.872619  0.125088  0.377395  1
  Ni  Ni18  1  0.874734  0.877286  0.627695  1
  Ni  Ni19  1  0.877470  0.627508  0.874930  1
  Sb  Sb20  1  0.125023  0.875097  0.375037  1
  Sb  Sb21  1  0.374989  0.124942  0.875051  1
  Sb  Sb22  1  0.625072  0.624921  0.624943  1
  Sb  Sb23  1  0.874978  0.375065  0.124977  1
  O  O24  1  0.106318  0.115081  0.379987  1
  O  O25  1  0.119743  0.893616  0.615234  1
  O  O26  1  0.109101  0.609226  0.891258  1
  O  O27  1  0.134872  0.143636  0.869956  1
  O  O28  1  0.115096  0.380137  0.106190  1
  O  O29  1  0.141037  0.359286  0.641176  1
  O  O30  1  0.130033  0.634908  0.356086  1
  O  O31  1  0.143615  0.869777  0.134714  1
  O  O32  1  0.356209  0.130215  0.634682  1
  O  O33  1  0.369964  0.365086  0.856227  1
  O  O34  1  0.359107  0.640895  0.141185  1
  O  O35  1  0.384882  0.619853  0.606096  1
  O  O36  1  0.365113  0.856456  0.369952  1
  O  O37  1  0.391021  0.390706  0.391118  1
  O  O38  1  0.380254  0.106252  0.115271  1
  O  O39  1  0.393566  0.884955  0.880020  1
  O  O40  1  0.606257  0.384910  0.620019  1
  O  O41  1  0.619761  0.606391  0.384748  1
  O  O42  1  0.609178  0.890762  0.108716  1
  O  O43  1  0.634853  0.356380  0.130049  1
  O  O44  1  0.615124  0.119878  0.893871  1
  O  O45  1  0.640958  0.140704  0.358798  1
  O  O46  1  0.630038  0.865121  0.643931  1
  O  O47  1  0.643747  0.630250  0.865283  1
  O  O48  1  0.856172  0.369772  0.365317  1
  O  O49  1  0.869968  0.134892  0.143877  1
  O  O50  1  0.859195  0.859205  0.858672  1
  O  O51  1  0.884863  0.880135  0.393974  1
  O  O52  1  0.865102  0.643485  0.630035  1
  O  O53  1  0.891005  0.109371  0.608790  1
  O  O54  1  0.880249  0.393670  0.884744  1
  O  O55  1  0.893587  0.615050  0.119990  1
