# generated using pymatgen
data_LiVSiO4
_symmetry_space_group_name_H-M   'P 1'
_cell_length_a   7.32625807
_cell_length_b   7.32626368
_cell_length_c   7.32625418
_cell_angle_alpha   89.99991436
_cell_angle_beta   90.00006859
_cell_angle_gamma   90.00000931
_symmetry_Int_Tables_number   1
_chemical_formula_structural   LiVSiO4
_chemical_formula_sum   'Li4 V4 Si4 O16'
_cell_volume   393.23008782
_cell_formula_units_Z   4
loop_
 _symmetry_equiv_pos_site_id
 _symmetry_equiv_pos_as_xyz
  1  'x, y, z'
loop_
 _atom_site_type_symbol
 _atom_site_label
 _atom_site_symmetry_multiplicity
 _atom_site_fract_x
 _atom_site_fract_y
 _atom_site_fract_z
 _atom_site_occupancy
  Li  Li0  1  0.251578  0.748422  0.248422  1
  Li  Li1  1  0.248422  0.251578  0.748422  1
  Li  Li2  1  0.751578  0.751578  0.751578  1
  Li  Li3  1  0.748422  0.248422  0.251578  1
  V  V4  1  0.195731  0.695731  0.804268  1
  V  V5  1  0.304269  0.304270  0.304268  1
  V  V6  1  0.695733  0.804269  0.195733  1
  V  V7  1  0.804267  0.195733  0.695732  1
  Si  Si8  1  0.030634  0.030634  0.030634  1
  Si  Si9  1  0.969366  0.530634  0.469365  1
  Si  Si10  1  0.469366  0.969365  0.530635  1
  Si  Si11  1  0.530635  0.469366  0.969366  1
  O  O12  1  0.975129  0.616297  0.678231  1
  O  O13  1  0.157456  0.157456  0.157456  1
  O  O14  1  0.178231  0.524871  0.383703  1
  O  O15  1  0.116298  0.821768  0.024871  1
  O  O16  1  0.383702  0.178231  0.524870  1
  O  O17  1  0.321769  0.475129  0.883703  1
  O  O18  1  0.342543  0.842543  0.657456  1
  O  O19  1  0.524871  0.383702  0.178232  1
  O  O20  1  0.475129  0.883703  0.321769  1
  O  O21  1  0.657456  0.342544  0.842544  1
  O  O22  1  0.678232  0.975130  0.616297  1
  O  O23  1  0.616298  0.678231  0.975130  1
  O  O24  1  0.883703  0.321768  0.475129  1
  O  O25  1  0.821769  0.024872  0.116297  1
  O  O26  1  0.842543  0.657457  0.342543  1
  O  O27  1  0.024871  0.116298  0.821769  1
