# generated using pymatgen
data_Na2CrSiCO7
_symmetry_space_group_name_H-M   'P 1'
_cell_length_a   9.04811238
_cell_length_b   6.47395679
_cell_length_c   5.26686759
_cell_angle_alpha   90.00000000
_cell_angle_beta   88.91382164
_cell_angle_gamma   90.00000000
_symmetry_Int_Tables_number   1
_chemical_formula_structural   Na2CrSiCO7
_chemical_formula_sum   'Na4 Cr2 Si2 C2 O14'
_cell_volume   308.46233306
_cell_formula_units_Z   2
loop_
 _symmetry_equiv_pos_site_id
 _symmetry_equiv_pos_as_xyz
  1  'x, y, z'
loop_
 _atom_site_type_symbol
 _atom_site_label
 _atom_site_symmetry_multiplicity
 _atom_site_fract_x
 _atom_site_fract_y
 _atom_site_fract_z
 _atom_site_occupancy
  Na  Na0  1  0.235551  0.007146  0.238309  1
  Na  Na1  1  0.235551  0.492854  0.238309  1
  Na  Na2  1  0.764449  0.507146  0.761691  1
  Na  Na3  1  0.764449  0.992854  0.761691  1
  Cr  Cr4  1  0.347666  0.750000  0.794648  1
  Cr  Cr5  1  0.652334  0.250000  0.205352  1
  Si  Si6  1  0.428999  0.250000  0.705411  1
  Si  Si7  1  0.571001  0.750000  0.294589  1
  C  C8  1  0.076888  0.750000  0.728167  1
  C  C9  1  0.923112  0.250000  0.271833  1
  O  O10  1  0.059576  0.250000  0.299790  1
  O  O11  1  0.140617  0.750000  0.951253  1
  O  O12  1  0.175214  0.750000  0.538436  1
  O  O13  1  0.331842  0.043117  0.780154  1
  O  O14  1  0.331842  0.456883  0.780154  1
  O  O15  1  0.418074  0.750000  0.129576  1
  O  O16  1  0.463936  0.250000  0.398939  1
  O  O17  1  0.536064  0.750000  0.601061  1
  O  O18  1  0.581926  0.250000  0.870424  1
  O  O19  1  0.668158  0.543117  0.219846  1
  O  O20  1  0.668158  0.956883  0.219846  1
  O  O21  1  0.824786  0.250000  0.461564  1
  O  O22  1  0.859383  0.250000  0.048747  1
  O  O23  1  0.940424  0.750000  0.700210  1
