# generated using pymatgen
data_Li8Mn5Fe3(BO3)8
_symmetry_space_group_name_H-M   'P 1'
_cell_length_a   5.25034177
_cell_length_b   5.24049211
_cell_length_c   20.93706419
_cell_angle_alpha   89.36501036
_cell_angle_beta   90.90966522
_cell_angle_gamma   60.23388145
_symmetry_Int_Tables_number   1
_chemical_formula_structural   Li8Mn5Fe3(BO3)8
_chemical_formula_sum   'Li8 Mn5 Fe3 B8 O24'
_cell_volume   499.88066373
_cell_formula_units_Z   1
loop_
 _symmetry_equiv_pos_site_id
 _symmetry_equiv_pos_as_xyz
  1  'x, y, z'
loop_
 _atom_site_type_symbol
 _atom_site_label
 _atom_site_symmetry_multiplicity
 _atom_site_fract_x
 _atom_site_fract_y
 _atom_site_fract_z
 _atom_site_occupancy
  Li  Li0  1  0.325109  0.650313  0.666454  1
  Li  Li1  1  0.346971  0.678686  0.915694  1
  Li  Li2  1  0.320926  0.650901  0.165964  1
  Li  Li3  1  0.349180  0.677943  0.416468  1
  Li  Li4  1  0.655737  0.333686  0.790424  1
  Li  Li5  1  0.663491  0.348863  0.541898  1
  Li  Li6  1  0.651482  0.337768  0.291321  1
  Li  Li7  1  0.662110  0.348110  0.040887  1
  Mn  Mn8  1  0.329635  0.003395  0.058002  1
  Mn  Mn9  1  0.679423  0.000459  0.932336  1
  Mn  Mn10  1  0.674017  0.002000  0.434659  1
  Mn  Mn11  1  0.996526  0.322631  0.183433  1
  Mn  Mn12  1  0.996052  0.671342  0.308697  1
  Fe  Fe13  1  0.321619  0.004641  0.559826  1
  Fe  Fe14  1  0.010185  0.323794  0.683116  1
  Fe  Fe15  1  0.997660  0.674075  0.807737  1
  B  B16  1  0.003630  0.341444  0.936119  1
  B  B17  1  0.002637  0.340280  0.438208  1
  B  B18  1  0.330416  0.004502  0.810937  1
  B  B19  1  0.334167  0.004157  0.312393  1
  B  B20  1  0.662303  0.998164  0.686945  1
  B  B21  1  0.657904  0.998169  0.187275  1
  B  B22  1  0.991380  0.670802  0.562561  1
  B  B23  1  0.995113  0.665491  0.061990  1
  O  O24  1  0.069817  0.252416  0.791910  1
  O  O25  1  0.070567  0.246533  0.291147  1
  O  O26  1  0.254187  0.070471  0.951483  1
  O  O27  1  0.033397  0.578144  0.915473  1
  O  O28  1  0.252255  0.070396  0.453750  1
  O  O29  1  0.032203  0.578096  0.417222  1
  O  O30  1  0.582650  0.023908  0.825384  1
  O  O31  1  0.264683  0.654415  0.568921  1
  O  O32  1  0.577460  0.038021  0.327829  1
  O  O33  1  0.269056  0.641237  0.069226  1
  O  O34  1  0.347326  0.731789  0.817288  1
  O  O35  1  0.358354  0.731048  0.319848  1
  O  O36  1  0.643736  0.267675  0.693103  1
  O  O37  1  0.628148  0.273224  0.194643  1
  O  O38  1  0.727758  0.370505  0.943556  1
  O  O39  1  0.415755  0.975462  0.667812  1
  O  O40  1  0.726889  0.369519  0.445346  1
  O  O41  1  0.420566  0.966742  0.166408  1
  O  O42  1  0.971583  0.419836  0.577088  1
  O  O43  1  0.962089  0.422179  0.077341  1
  O  O44  1  0.743224  0.931376  0.543503  1
  O  O45  1  0.753354  0.929239  0.040763  1
  O  O46  1  0.927250  0.739865  0.701538  1
  O  O47  1  0.928825  0.747485  0.202276  1
