# generated using pymatgen
data_LiCoSiO4
_symmetry_space_group_name_H-M   'P 1'
_cell_length_a   4.68660700
_cell_length_b   6.10365459
_cell_length_c   10.17497559
_cell_angle_alpha   90.00000000
_cell_angle_beta   90.00000000
_cell_angle_gamma   90.00000000
_symmetry_Int_Tables_number   1
_chemical_formula_structural   LiCoSiO4
_chemical_formula_sum   'Li4 Co4 Si4 O16'
_cell_volume   291.05955532
_cell_formula_units_Z   4
loop_
 _symmetry_equiv_pos_site_id
 _symmetry_equiv_pos_as_xyz
  1  'x, y, z'
loop_
 _atom_site_type_symbol
 _atom_site_label
 _atom_site_symmetry_multiplicity
 _atom_site_fract_x
 _atom_site_fract_y
 _atom_site_fract_z
 _atom_site_occupancy
  Li  Li0  1  0.037600  0.006342  0.219115  1
  Li  Li1  1  0.462400  0.006342  0.719114  1
  Li  Li2  1  0.537600  0.506342  0.280886  1
  Li  Li3  1  0.962400  0.506342  0.780886  1
  Co  Co4  1  0.000030  0.256512  0.500039  1
  Co  Co5  1  0.499970  0.256512  0.000039  1
  Co  Co6  1  0.500030  0.756512  0.999961  1
  Co  Co7  1  0.999970  0.756512  0.499961  1
  Si  Si8  1  0.090761  0.506566  0.087256  1
  Si  Si9  1  0.409239  0.506566  0.587256  1
  Si  Si10  1  0.590761  0.006566  0.412744  1
  Si  Si11  1  0.909239  0.006566  0.912744  1
  O  O12  1  0.266202  0.506495  0.939692  1
  O  O13  1  0.239748  0.280677  0.144592  1
  O  O14  1  0.239713  0.732553  0.144455  1
  O  O15  1  0.247534  0.006556  0.411115  1
  O  O16  1  0.252466  0.006556  0.911115  1
  O  O17  1  0.260287  0.732553  0.644455  1
  O  O18  1  0.260252  0.280677  0.644592  1
  O  O19  1  0.233798  0.506495  0.439692  1
  O  O20  1  0.766202  0.006495  0.560308  1
  O  O21  1  0.739748  0.780677  0.355408  1
  O  O22  1  0.739713  0.232553  0.355545  1
  O  O23  1  0.747534  0.506556  0.088885  1
  O  O24  1  0.752466  0.506556  0.588885  1
  O  O25  1  0.760287  0.232553  0.855545  1
  O  O26  1  0.760252  0.780677  0.855408  1
  O  O27  1  0.733798  0.006495  0.060308  1
