# generated using pymatgen
data_Li5Ni5(SnO6)2
_symmetry_space_group_name_H-M   'P 1'
_cell_length_a   5.21174053
_cell_length_b   5.21174055
_cell_length_c   9.94206968
_cell_angle_alpha   84.82528393
_cell_angle_beta   95.17471409
_cell_angle_gamma   59.90124408
_symmetry_Int_Tables_number   1
_chemical_formula_structural   Li5Ni5(SnO6)2
_chemical_formula_sum   'Li5 Ni5 Sn2 O12'
_cell_volume   229.79194671
_cell_formula_units_Z   1
loop_
 _symmetry_equiv_pos_site_id
 _symmetry_equiv_pos_as_xyz
  1  'x, y, z'
loop_
 _atom_site_type_symbol
 _atom_site_label
 _atom_site_symmetry_multiplicity
 _atom_site_fract_x
 _atom_site_fract_y
 _atom_site_fract_z
 _atom_site_occupancy
  Li  Li0  1  0.184705  0.679747  0.501847  1
  Li  Li1  1  0.323154  0.826471  0.994677  1
  Li  Li2  1  0.679747  0.184705  0.998153  1
  Li  Li3  1  0.826471  0.323154  0.505323  1
  Li  Li4  1  0.913593  0.913593  0.750000  1
  Ni  Ni5  1  0.084327  0.084327  0.250000  1
  Ni  Ni6  1  -0.000085  0.503598  0.996660  1
  Ni  Ni7  1  0.503598  -0.000085  0.503340  1
  Ni  Ni8  1  0.415557  0.415557  0.250000  1
  Ni  Ni9  1  0.581088  0.581088  0.750000  1
  Sn  Sn10  1  0.247642  0.247642  0.750000  1
  Sn  Sn11  1  0.749821  0.749821  0.250000  1
  O  O12  1  0.963966  0.223235  0.875572  1
  O  O13  1  0.223235  0.963966  0.624428  1
  O  O14  1  0.129171  0.371696  0.369490  1
  O  O15  1  0.371696  0.129171  0.130510  1
  O  O16  1  0.301893  0.529050  0.869776  1
  O  O17  1  0.529050  0.301893  0.630224  1
  O  O18  1  0.457576  0.719652  0.370160  1
  O  O19  1  0.719652  0.457576  0.129840  1
  O  O20  1  0.619653  0.852726  0.867482  1
  O  O21  1  0.852726  0.619653  0.632518  1
  O  O22  1  0.781892  0.039871  0.372329  1
  O  O23  1  0.039871  0.781892  0.127671  1
