# generated using pymatgen
data_La3Si2BO10
_symmetry_space_group_name_H-M   'P 1'
_cell_length_a   10.03808956
_cell_length_b   7.32232614
_cell_length_c   23.57613687
_cell_angle_alpha   90.00000000
_cell_angle_beta   90.00000000
_cell_angle_gamma   90.00000000
_symmetry_Int_Tables_number   1
_chemical_formula_structural   La3Si2BO10
_chemical_formula_sum   'La24 Si16 B8 O80'
_cell_volume   1732.89711598
_cell_formula_units_Z   8
loop_
 _symmetry_equiv_pos_site_id
 _symmetry_equiv_pos_as_xyz
  1  'x, y, z'
loop_
 _atom_site_type_symbol
 _atom_site_label
 _atom_site_symmetry_multiplicity
 _atom_site_fract_x
 _atom_site_fract_y
 _atom_site_fract_z
 _atom_site_occupancy
  La  La0  1  0.008798  0.359173  0.428195  1
  La  La1  1  0.008798  0.140827  0.928195  1
  La  La2  1  0.134122  0.828238  0.337313  1
  La  La3  1  0.134122  0.671762  0.837313  1
  La  La4  1  0.232739  0.407073  0.682400  1
  La  La5  1  0.232739  0.092927  0.182400  1
  La  La6  1  0.267261  0.907073  0.682400  1
  La  La7  1  0.267261  0.592927  0.182400  1
  La  La8  1  0.365878  0.328238  0.337313  1
  La  La9  1  0.365878  0.171762  0.837313  1
  La  La10  1  0.491202  0.640827  0.928195  1
  La  La11  1  0.491202  0.859173  0.428195  1
  La  La12  1  0.508798  0.359173  0.071805  1
  La  La13  1  0.508798  0.140827  0.571805  1
  La  La14  1  0.634122  0.828238  0.162687  1
  La  La15  1  0.634122  0.671762  0.662687  1
  La  La16  1  0.732739  0.407073  0.817600  1
  La  La17  1  0.732739  0.092927  0.317600  1
  La  La18  1  0.767261  0.907073  0.817600  1
  La  La19  1  0.767261  0.592927  0.317600  1
  La  La20  1  0.865878  0.328238  0.162687  1
  La  La21  1  0.865878  0.171762  0.662687  1
  La  La22  1  0.991202  0.640827  0.571805  1
  La  La23  1  0.991202  0.859173  0.071805  1
  Si  Si24  1  0.060887  0.318165  0.279114  1
  Si  Si25  1  0.060887  0.181835  0.779114  1
  Si  Si26  1  0.124947  0.354515  0.078246  1
  Si  Si27  1  0.124947  0.145485  0.578246  1
  Si  Si28  1  0.375053  0.854515  0.078246  1
  Si  Si29  1  0.375053  0.645485  0.578246  1
  Si  Si30  1  0.439113  0.818165  0.279114  1
  Si  Si31  1  0.439113  0.681835  0.779114  1
  Si  Si32  1  0.560887  0.318165  0.220886  1
  Si  Si33  1  0.560887  0.181835  0.720886  1
  Si  Si34  1  0.624947  0.145485  0.921754  1
  Si  Si35  1  0.624947  0.354515  0.421754  1
  Si  Si36  1  0.875053  0.854515  0.421754  1
  Si  Si37  1  0.875053  0.645485  0.921754  1
  Si  Si38  1  0.939113  0.818165  0.220886  1
  Si  Si39  1  0.939113  0.681835  0.720886  1
  B  B40  1  0.244675  0.848426  0.971766  1
  B  B41  1  0.244675  0.651574  0.471766  1
  B  B42  1  0.255325  0.151574  0.471766  1
  B  B43  1  0.255325  0.348426  0.971766  1
  B  B44  1  0.744675  0.651574  0.028234  1
  B  B45  1  0.744675  0.848426  0.528234  1
  B  B46  1  0.755325  0.151574  0.028234  1
  B  B47  1  0.755325  0.348426  0.528234  1
  O  O48  1  0.041439  0.533298  0.099511  1
  O  O49  1  0.041439  0.966702  0.599511  1
  O  O50  1  0.049122  0.174874  0.104902  1
  O  O51  1  0.049122  0.325126  0.604902  1
  O  O52  1  0.096900  0.369243  0.212138  1
  O  O53  1  0.096900  0.130757  0.712138  1
  O  O54  1  0.103410  0.798529  0.221148  1
  O  O55  1  0.103410  0.701471  0.721148  1
  O  O56  1  0.107649  0.467972  0.326771  1
  O  O57  1  0.107649  0.032028  0.826771  1
  O  O58  1  0.130027  0.575659  0.491144  1
  O  O59  1  0.130027  0.924341  0.991144  1
  O  O60  1  0.140090  0.338089  0.007792  1
  O  O61  1  0.140090  0.161911  0.507792  1
  O  O62  1  0.151738  0.133532  0.290020  1
  O  O63  1  0.151738  0.366468  0.790020  1
  O  O64  1  0.226773  0.850761  0.109313  1
  O  O65  1  0.226773  0.649239  0.609313  1
  O  O66  1  0.237220  0.222633  0.418367  1
  O  O67  1  0.237220  0.277367  0.918367  1
  O  O68  1  0.262780  0.722633  0.418367  1
  O  O69  1  0.262780  0.777367  0.918367  1
  O  O70  1  0.273227  0.350761  0.109313  1
  O  O71  1  0.273227  0.149239  0.609313  1
  O  O72  1  0.348262  0.633532  0.290020  1
  O  O73  1  0.348262  0.866468  0.790020  1
  O  O74  1  0.359910  0.838089  0.007792  1
  O  O75  1  0.359910  0.661911  0.507792  1
  O  O76  1  0.369973  0.075659  0.491144  1
  O  O77  1  0.369973  0.424341  0.991144  1
  O  O78  1  0.392351  0.967972  0.326771  1
  O  O79  1  0.392351  0.532028  0.826771  1
  O  O80  1  0.396590  0.298529  0.221148  1
  O  O81  1  0.396590  0.201471  0.721148  1
  O  O82  1  0.403100  0.869243  0.212138  1
  O  O83  1  0.403100  0.630757  0.712138  1
  O  O84  1  0.450878  0.674874  0.104902  1
  O  O85  1  0.450878  0.825126  0.604902  1
  O  O86  1  0.458561  0.033298  0.099511  1
  O  O87  1  0.458561  0.466702  0.599511  1
  O  O88  1  0.541439  0.533298  0.400489  1
  O  O89  1  0.541439  0.966702  0.900489  1
  O  O90  1  0.549122  0.174874  0.395098  1
  O  O91  1  0.549122  0.325126  0.895098  1
  O  O92  1  0.596900  0.369243  0.287862  1
  O  O93  1  0.596900  0.130757  0.787862  1
  O  O94  1  0.603410  0.798529  0.278852  1
  O  O95  1  0.603410  0.701471  0.778852  1
  O  O96  1  0.607649  0.467972  0.173229  1
  O  O97  1  0.607649  0.032028  0.673229  1
  O  O98  1  0.630027  0.575659  0.008856  1
  O  O99  1  0.630027  0.924341  0.508856  1
  O  O100  1  0.640090  0.338089  0.492208  1
  O  O101  1  0.640090  0.161911  0.992208  1
  O  O102  1  0.651738  0.133532  0.209980  1
  O  O103  1  0.651738  0.366468  0.709980  1
  O  O104  1  0.726773  0.649239  0.890687  1
  O  O105  1  0.726773  0.850761  0.390687  1
  O  O106  1  0.737220  0.222633  0.081633  1
  O  O107  1  0.737220  0.277367  0.581633  1
  O  O108  1  0.762780  0.722633  0.081633  1
  O  O109  1  0.762780  0.777367  0.581633  1
  O  O110  1  0.773227  0.149239  0.890687  1
  O  O111  1  0.773227  0.350761  0.390687  1
  O  O112  1  0.848262  0.633532  0.209980  1
  O  O113  1  0.848262  0.866468  0.709980  1
  O  O114  1  0.859910  0.838089  0.492208  1
  O  O115  1  0.859910  0.661911  0.992208  1
  O  O116  1  0.869973  0.075659  0.008856  1
  O  O117  1  0.869973  0.424341  0.508856  1
  O  O118  1  0.892351  0.967972  0.173229  1
  O  O119  1  0.892351  0.532028  0.673229  1
  O  O120  1  0.896590  0.298529  0.278852  1
  O  O121  1  0.896590  0.201471  0.778852  1
  O  O122  1  0.903100  0.869243  0.287862  1
  O  O123  1  0.903100  0.630757  0.787862  1
  O  O124  1  0.950878  0.674874  0.395098  1
  O  O125  1  0.950878  0.825126  0.895098  1
  O  O126  1  0.958561  0.033298  0.400489  1
  O  O127  1  0.958561  0.466702  0.900489  1
