# generated using pymatgen
data_V3OF11
_symmetry_space_group_name_H-M   'P 1'
_cell_length_a   5.45281364
_cell_length_b   5.26961110
_cell_length_c   14.76027736
_cell_angle_alpha   90.02615218
_cell_angle_beta   100.32852240
_cell_angle_gamma   90.06896709
_symmetry_Int_Tables_number   1
_chemical_formula_structural   V3OF11
_chemical_formula_sum   'V6 O2 F22'
_cell_volume   417.25191064
_cell_formula_units_Z   2
loop_
 _symmetry_equiv_pos_site_id
 _symmetry_equiv_pos_as_xyz
  1  'x, y, z'
loop_
 _atom_site_type_symbol
 _atom_site_label
 _atom_site_symmetry_multiplicity
 _atom_site_fract_x
 _atom_site_fract_y
 _atom_site_fract_z
 _atom_site_occupancy
  V  V0  1  0.999149  0.009955  0.006160  1
  V  V1  1  0.155407  0.508171  0.334386  1
  V  V2  1  0.333594  0.000227  0.667062  1
  V  V3  1  0.497489  0.504925  0.998720  1
  V  V4  1  0.626016  0.024682  0.330372  1
  V  V5  1  0.833846  0.500344  0.667306  1
  O  O6  1  0.045521  0.080754  0.114538  1
  O  O7  1  0.374835  0.205352  0.310916  1
  F  F8  1  0.023740  0.198477  0.641966  1
  F  F9  1  0.193330  0.292397  0.973745  1
  F  F10  1  0.144626  0.698062  0.691454  1
  F  F11  1  0.215672  0.412128  0.450974  1
  F  F12  1  0.376090  0.087662  0.784447  1
  F  F13  1  0.128683  0.576174  0.215329  1
  F  F14  1  0.293715  0.914331  0.549352  1
  F  F15  1  0.456310  0.582073  0.881219  1
  F  F16  1  0.523448  0.301863  0.642193  1
  F  F17  1  0.697409  0.202931  0.973814  1
  F  F18  1  0.303722  0.798455  0.024916  1
  F  F19  1  0.469937  0.713684  0.357469  1
  F  F20  1  0.643647  0.801495  0.691600  1
  F  F21  1  0.542878  0.410744  0.115566  1
  F  F22  1  0.727263  0.072548  0.449715  1
  F  F23  1  0.875972  0.412672  0.784483  1
  F  F24  1  0.634247  0.906953  0.218220  1
  F  F25  1  0.791438  0.584381  0.549410  1
  F  F26  1  0.959869  0.908194  0.884859  1
  F  F27  1  0.856571  0.289954  0.308518  1
  F  F28  1  0.804153  0.707383  0.024358  1
  F  F29  1  0.971421  0.793029  0.356935  1
