# generated using pymatgen
data_Li9V3P8O29
_symmetry_space_group_name_H-M   'P 1'
_cell_length_a   9.90795480
_cell_length_b   9.93787882
_cell_length_c   13.70865316
_cell_angle_alpha   90.16542210
_cell_angle_beta   90.18423066
_cell_angle_gamma   59.96655312
_symmetry_Int_Tables_number   1
_chemical_formula_structural   Li9V3P8O29
_chemical_formula_sum   'Li18 V6 P16 O58'
_cell_volume   1168.56788132
_cell_formula_units_Z   2
loop_
 _symmetry_equiv_pos_site_id
 _symmetry_equiv_pos_as_xyz
  1  'x, y, z'
loop_
 _atom_site_type_symbol
 _atom_site_label
 _atom_site_symmetry_multiplicity
 _atom_site_fract_x
 _atom_site_fract_y
 _atom_site_fract_z
 _atom_site_occupancy
  Li  Li0  1  0.894013  0.764669  0.064875  1
  Li  Li1  1  0.766956  0.901872  0.562545  1
  Li  Li2  1  0.901627  0.330747  0.561516  1
  Li  Li3  1  0.661861  0.654923  0.376721  1
  Li  Li4  1  0.666969  0.666863  0.879587  1
  Li  Li5  1  0.759998  0.341963  0.071884  1
  Li  Li6  1  0.340626  0.892664  0.065162  1
  Li  Li7  1  0.660066  0.241528  0.426251  1
  Li  Li8  1  0.578080  0.436634  0.255952  1
  Li  Li9  1  0.330846  0.766579  0.561550  1
  Li  Li10  1  0.676640  0.094156  0.935102  1
  Li  Li11  1  0.230429  0.675956  0.935103  1
  Li  Li12  1  0.332993  0.333128  0.618757  1
  Li  Li13  1  0.102370  0.665803  0.434046  1
  Li  Li14  1  0.232821  0.100522  0.434285  1
  Li  Li15  1  0.094855  0.229871  0.934986  1
  Li  Li16  1  0.999194  0.000449  0.000090  1
  Li  Li17  1  0.001765  0.000679  0.493906  1
  V  V18  1  0.435865  0.565839  0.749069  1
  V  V19  1  0.566471  0.998584  0.749247  1
  V  V20  1  0.353164  0.331875  0.131461  1
  V  V21  1  0.434311  0.994266  0.253028  1
  V  V22  1  0.996650  0.566782  0.252486  1
  V  V23  1  0.998598  0.435089  0.749263  1
  P  P24  1  0.910369  0.773214  0.844789  1
  P  P25  1  0.771534  0.912261  0.345555  1
  P  P26  1  0.910639  0.316722  0.346373  1
  P  P27  1  0.669619  0.666267  0.122281  1
  P  P28  1  0.666931  0.666821  0.622408  1
  P  P29  1  0.774080  0.315642  0.845174  1
  P  P30  1  0.684219  0.226133  0.654926  1
  P  P31  1  0.316623  0.910188  0.844632  1
  P  P32  1  0.684977  0.090987  0.153233  1
  P  P33  1  0.320455  0.769828  0.347176  1
  P  P34  1  0.221186  0.686101  0.154992  1
  P  P35  1  0.332827  0.328897  0.375302  1
  P  P36  1  0.333879  0.333281  0.878525  1
  P  P37  1  0.089481  0.683276  0.655544  1
  P  P38  1  0.226119  0.089556  0.655587  1
  P  P39  1  0.094759  0.223492  0.154435  1
  O  O40  1  0.996074  0.771297  0.566230  1
  O  O41  1  0.920993  0.753953  0.345275  1
  O  O42  1  0.771512  0.990971  0.065626  1
  O  O43  1  0.750322  0.922081  0.843898  1
  O  O44  1  0.890603  0.630073  0.834165  1
  O  O45  1  0.812542  0.677877  0.163719  1
  O  O46  1  0.892018  0.480696  0.335499  1
  O  O47  1  0.997413  0.232853  0.065780  1
  O  O48  1  0.922295  0.328233  0.844126  1
  O  O49  1  0.675720  0.810617  0.662388  1
  O  O50  1  0.627890  0.891898  0.336288  1
  O  O51  1  0.810708  0.513794  0.661935  1
  O  O52  1  0.666807  0.682602  0.012047  1
  O  O53  1  0.667806  0.667721  0.512637  1
  O  O54  1  0.678448  0.517138  0.157320  1
  O  O55  1  0.479763  0.890551  0.833896  1
  O  O56  1  0.516664  0.812304  0.163243  1
  O  O57  1  0.756030  0.323383  0.345780  1
  O  O58  1  0.785993  0.213459  0.750463  1
  O  O59  1  0.773388  0.230068  0.566099  1
  O  O60  1  0.774174  0.224159  0.934304  1
  O  O61  1  0.630235  0.478920  0.835073  1
  O  O62  1  0.513883  0.675254  0.661524  1
  O  O63  1  0.657216  0.254282  0.146611  1
  O  O64  1  0.481708  0.630902  0.340678  1
  O  O65  1  0.319997  0.925172  0.343806  1
  O  O66  1  0.779368  0.004002  0.249239  1
  O  O67  1  0.769833  0.006783  0.433674  1
  O  O68  1  0.230841  0.996046  0.566459  1
  O  O69  1  0.671924  0.078248  0.655137  1
  O  O70  1  0.519588  0.369568  0.667382  1
  O  O71  1  0.328397  0.750018  0.843803  1
  O  O72  1  0.480997  0.316871  0.333608  1
  O  O73  1  0.362987  0.518251  0.159037  1
  O  O74  1  0.225912  0.776107  0.066334  1
  O  O75  1  0.220077  0.775650  0.433784  1
  O  O76  1  0.218886  0.777407  0.250313  1
  O  O77  1  0.249743  0.671840  0.655284  1
  O  O78  1  0.486192  0.188130  0.844426  1
  O  O79  1  0.515001  0.111835  0.164161  1
  O  O80  1  0.326566  0.485428  0.844674  1
  O  O81  1  0.332765  0.332681  0.992509  1
  O  O82  1  0.322534  0.332367  0.485559  1
  O  O83  1  0.187087  0.483493  0.334993  1
  O  O84  1  0.369731  0.110310  0.668197  1
  O  O85  1  0.317200  0.187491  0.335046  1
  O  O86  1  0.072833  0.674278  0.154945  1
  O  O87  1  0.000658  0.785767  0.750480  1
  O  O88  1  0.002632  0.771993  0.934317  1
  O  O89  1  0.110611  0.519408  0.668240  1
  O  O90  1  0.188612  0.326100  0.843919  1
  O  O91  1  0.127366  0.363317  0.161939  1
  O  O92  1  0.253674  0.074458  0.152273  1
  O  O93  1  0.226325  0.001626  0.934389  1
  O  O94  1  0.212857  0.000852  0.750572  1
  O  O95  1  0.077632  0.249392  0.655565  1
  O  O96  1  0.009799  0.227142  0.434313  1
  O  O97  1  0.006005  0.218775  0.249215  1
