# generated using pymatgen
data_K2Co2(MoO4)3
_symmetry_space_group_name_H-M   'P 1'
_cell_length_a   8.38793779
_cell_length_b   14.23245281
_cell_length_c   20.11243572
_cell_angle_alpha   105.70454496
_cell_angle_beta   90.00000000
_cell_angle_gamma   90.00000000
_symmetry_Int_Tables_number   1
_chemical_formula_structural   K2Co2(MoO4)3
_chemical_formula_sum   'K16 Co16 Mo24 O96'
_cell_volume   2311.41105479
_cell_formula_units_Z   8
loop_
 _symmetry_equiv_pos_site_id
 _symmetry_equiv_pos_as_xyz
  1  'x, y, z'
loop_
 _atom_site_type_symbol
 _atom_site_label
 _atom_site_symmetry_multiplicity
 _atom_site_fract_x
 _atom_site_fract_y
 _atom_site_fract_z
 _atom_site_occupancy
  K  K0  1  0.680173  0.987090  0.217483  1
  K  K1  1  0.022800  0.289456  0.415562  1
  K  K2  1  0.985776  0.898775  0.411845  1
  K  K3  1  0.522800  0.710544  0.084438  1
  K  K4  1  0.477200  0.289456  0.915562  1
  K  K5  1  0.977200  0.710544  0.584438  1
  K  K6  1  0.983023  0.498601  0.264447  1
  K  K7  1  0.485776  0.101225  0.088155  1
  K  K8  1  0.180173  0.012910  0.282517  1
  K  K9  1  0.516977  0.498601  0.764447  1
  K  K10  1  0.514224  0.898775  0.911845  1
  K  K11  1  0.014224  0.101225  0.588155  1
  K  K12  1  0.483023  0.501399  0.235553  1
  K  K13  1  0.819827  0.987090  0.717483  1
  K  K14  1  0.016977  0.501399  0.735553  1
  K  K15  1  0.319827  0.012910  0.782517  1
  Co  Co16  1  0.953770  0.710134  0.053279  1
  Co  Co17  1  0.624362  0.221377  0.570101  1
  Co  Co18  1  0.046230  0.289866  0.946721  1
  Co  Co19  1  0.453770  0.289866  0.446721  1
  Co  Co20  1  0.170976  0.585918  0.123972  1
  Co  Co21  1  0.932309  0.883184  0.841785  1
  Co  Co22  1  0.829024  0.414082  0.876028  1
  Co  Co23  1  0.875638  0.221377  0.070101  1
  Co  Co24  1  0.670976  0.414082  0.376028  1
  Co  Co25  1  0.432309  0.116816  0.658215  1
  Co  Co26  1  0.546230  0.710134  0.553279  1
  Co  Co27  1  0.124362  0.778623  0.929899  1
  Co  Co28  1  0.329024  0.585918  0.623972  1
  Co  Co29  1  0.375638  0.778623  0.429899  1
  Co  Co30  1  0.067691  0.116816  0.158215  1
  Co  Co31  1  0.567691  0.883184  0.341785  1
  Mo  Mo32  1  0.639482  0.960441  0.549863  1
  Mo  Mo33  1  0.764172  0.257511  0.244115  1
  Mo  Mo34  1  0.373565  0.251121  0.267827  1
  Mo  Mo35  1  0.139482  0.039559  0.950137  1
  Mo  Mo36  1  0.797568  0.120364  0.912338  1
  Mo  Mo37  1  0.235721  0.326900  0.102507  1
  Mo  Mo38  1  0.860518  0.960441  0.049863  1
  Mo  Mo39  1  0.764279  0.673100  0.897493  1
  Mo  Mo40  1  0.873565  0.748879  0.232173  1
  Mo  Mo41  1  0.360518  0.039559  0.450137  1
  Mo  Mo42  1  0.187597  0.534211  0.952940  1
  Mo  Mo43  1  0.235828  0.742489  0.755885  1
  Mo  Mo44  1  0.297568  0.879636  0.587662  1
  Mo  Mo45  1  0.126435  0.251121  0.767827  1
  Mo  Mo46  1  0.702432  0.120364  0.412338  1
  Mo  Mo47  1  0.735721  0.673100  0.397493  1
  Mo  Mo48  1  0.735828  0.257511  0.744115  1
  Mo  Mo49  1  0.626435  0.748879  0.732173  1
  Mo  Mo50  1  0.812403  0.465789  0.047060  1
  Mo  Mo51  1  0.687597  0.465789  0.547060  1
  Mo  Mo52  1  0.264279  0.326900  0.602507  1
  Mo  Mo53  1  0.312403  0.534211  0.452940  1
  Mo  Mo54  1  0.264172  0.742489  0.255885  1
  Mo  Mo55  1  0.202432  0.879636  0.087662  1
  O  O56  1  0.429369  0.299088  0.124310  1
  O  O57  1  0.168340  0.766560  0.111534  1
  O  O58  1  0.770289  0.856845  0.288063  1
  O  O59  1  0.297450  0.833779  0.002851  1
  O  O60  1  0.674356  0.488646  0.113509  1
  O  O61  1  0.647038  0.091443  0.598438  1
  O  O62  1  0.591682  0.347911  0.540531  1
  O  O63  1  0.229711  0.143155  0.711937  1
  O  O64  1  0.328390  0.080565  0.933982  1
  O  O65  1  0.207504  0.704131  0.832299  1
  O  O66  1  0.668340  0.233440  0.388466  1
  O  O67  1  0.561758  0.342064  0.288357  1
  O  O68  1  0.172612  0.242763  0.854005  1
  O  O69  1  0.087478  0.836734  0.759173  1
  O  O70  1  0.938242  0.342064  0.788357  1
  O  O71  1  0.852962  0.091443  0.098438  1
  O  O72  1  0.525377  0.033515  0.364556  1
  O  O73  1  0.183403  0.451179  0.146402  1
  O  O74  1  0.327388  0.242763  0.354005  1
  O  O75  1  0.579749  0.172447  0.224864  1
  O  O76  1  0.070631  0.299088  0.624310  1
  O  O77  1  0.147038  0.908557  0.901562  1
  O  O78  1  0.258163  0.314894  0.510321  1
  O  O79  1  0.638929  0.063464  0.859224  1
  O  O80  1  0.138929  0.936536  0.640776  1
  O  O81  1  0.855032  0.354185  0.315314  1
  O  O82  1  0.412522  0.836734  0.259173  1
  O  O83  1  0.483578  0.160175  0.476549  1
  O  O84  1  0.840430  0.978642  0.963265  1
  O  O85  1  0.671610  0.919435  0.066018  1
  O  O86  1  0.816597  0.548821  0.853598  1
  O  O87  1  0.516422  0.839825  0.523451  1
  O  O88  1  0.144968  0.645815  0.684686  1
  O  O89  1  0.827388  0.757237  0.145995  1
  O  O90  1  0.861071  0.063464  0.359224  1
  O  O91  1  0.672612  0.757237  0.645995  1
  O  O92  1  0.929369  0.700912  0.375690  1
  O  O93  1  0.659570  0.978642  0.463265  1
  O  O94  1  0.828390  0.919435  0.566018  1
  O  O95  1  0.920251  0.172447  0.724864  1
  O  O96  1  0.644968  0.354185  0.815314  1
  O  O97  1  0.316597  0.451179  0.646402  1
  O  O98  1  0.758163  0.685106  0.989679  1
  O  O99  1  0.902847  0.766014  0.881717  1
  O  O100  1  0.792496  0.295869  0.167701  1
  O  O101  1  0.597153  0.766014  0.381717  1
  O  O102  1  0.171610  0.080565  0.433982  1
  O  O103  1  0.025377  0.966485  0.135444  1
  O  O104  1  0.461332  0.432311  0.433984  1
  O  O105  1  0.079749  0.827553  0.275136  1
  O  O106  1  0.402847  0.233986  0.618283  1
  O  O107  1  0.438242  0.657936  0.711643  1
  O  O108  1  0.355032  0.645815  0.184686  1
  O  O109  1  0.038668  0.432311  0.933984  1
  O  O110  1  0.340430  0.021358  0.536735  1
  O  O111  1  0.974623  0.033515  0.864556  1
  O  O112  1  0.205254  0.545241  0.532141  1
  O  O113  1  0.912522  0.163266  0.240827  1
  O  O114  1  0.061758  0.657936  0.211643  1
  O  O115  1  0.361071  0.936536  0.140776  1
  O  O116  1  0.294746  0.545241  0.032141  1
  O  O117  1  0.241837  0.314894  0.010321  1
  O  O118  1  0.794746  0.454759  0.467859  1
  O  O119  1  0.474623  0.966485  0.635444  1
  O  O120  1  0.983578  0.839825  0.023451  1
  O  O121  1  0.420251  0.827553  0.775136  1
  O  O122  1  0.752173  0.656236  0.247807  1
  O  O123  1  0.174356  0.511354  0.386491  1
  O  O124  1  0.683403  0.548821  0.353598  1
  O  O125  1  0.097153  0.233986  0.118283  1
  O  O126  1  0.408318  0.652088  0.459469  1
  O  O127  1  0.159570  0.021358  0.036735  1
  O  O128  1  0.961332  0.567689  0.066016  1
  O  O129  1  0.570631  0.700912  0.875690  1
  O  O130  1  0.538668  0.567689  0.566016  1
  O  O131  1  0.702550  0.166221  0.997150  1
  O  O132  1  0.252173  0.343764  0.252193  1
  O  O133  1  0.587478  0.163266  0.740827  1
  O  O134  1  0.091682  0.652088  0.959469  1
  O  O135  1  0.729711  0.856845  0.788063  1
  O  O136  1  0.247827  0.343764  0.752193  1
  O  O137  1  0.825644  0.488646  0.613509  1
  O  O138  1  0.202550  0.833779  0.502850  1
  O  O139  1  0.831660  0.233440  0.888466  1
  O  O140  1  0.797450  0.166221  0.497150  1
  O  O141  1  0.707504  0.295869  0.667701  1
  O  O142  1  0.741837  0.685106  0.489679  1
  O  O143  1  0.352962  0.908557  0.401562  1
  O  O144  1  0.325644  0.511354  0.886491  1
  O  O145  1  0.292496  0.704131  0.332299  1
  O  O146  1  0.908318  0.347911  0.040531  1
  O  O147  1  0.705254  0.454759  0.967859  1
  O  O148  1  0.331660  0.766560  0.611534  1
  O  O149  1  0.270289  0.143155  0.211937  1
  O  O150  1  0.747827  0.656236  0.747807  1
  O  O151  1  0.016422  0.160175  0.976549  1
