# generated using pymatgen
data_Na7(WO3)9
_symmetry_space_group_name_H-M   'P 1'
_cell_length_a   9.70365135
_cell_length_b   8.83542436
_cell_length_c   6.87050984
_cell_angle_alpha   104.59406781
_cell_angle_beta   90.02013853
_cell_angle_gamma   79.23321027
_symmetry_Int_Tables_number   1
_chemical_formula_structural   Na7(WO3)9
_chemical_formula_sum   'Na7 W9 O27'
_cell_volume   559.33184758
_cell_formula_units_Z   1
loop_
 _symmetry_equiv_pos_site_id
 _symmetry_equiv_pos_as_xyz
  1  'x, y, z'
loop_
 _atom_site_type_symbol
 _atom_site_label
 _atom_site_symmetry_multiplicity
 _atom_site_fract_x
 _atom_site_fract_y
 _atom_site_fract_z
 _atom_site_occupancy
  Na  Na0  1  0.890092  0.666851  0.222115  1
  Na  Na1  1  0.556061  0.667877  0.888489  1
  Na  Na2  1  0.778908  0.330964  0.444230  1
  Na  Na3  1  0.221099  0.665314  0.555415  1
  Na  Na4  1  0.332650  0.002409  0.334183  1
  Na  Na5  1  0.444697  0.331246  0.110030  1
  Na  Na6  1  0.998527  0.002154  0.999608  1
  W  W7  1  0.888815  0.667226  0.722676  1
  W  W8  1  0.779349  0.330477  0.943242  1
  W  W9  1  0.444041  0.332066  0.613008  1
  W  W10  1  0.332612  0.001272  0.834074  1
  W  W11  1  0.557522  0.669619  0.389870  1
  W  W12  1  0.665182  0.001787  0.165198  1
  W  W13  1  0.113404  0.335496  0.278704  1
  W  W14  1  0.999203  0.004019  0.499779  1
  W  W15  1  0.220931  0.663846  0.053272  1
  O  O16  1  0.946312  0.827911  0.613579  1
  O  O17  1  0.832332  0.507385  0.827643  1
  O  O18  1  0.891537  0.160857  0.716511  1
  O  O19  1  0.778195  0.835296  0.958166  1
  O  O20  1  0.937036  0.336713  0.110081  1
  O  O21  1  0.718544  0.661520  0.548333  1
  O  O22  1  0.840656  -0.002624  0.334943  1
  O  O23  1  0.615620  0.341623  0.782066  1
  O  O24  1  0.278330  0.836815  0.939405  1
  O  O25  1  0.607439  0.826635  0.275514  1
  O  O26  1  0.389150  0.164365  0.719926  1
  O  O27  1  0.502491  0.498461  0.499259  1
  O  O28  1  0.339515  0.502335  0.836189  1
  O  O29  1  0.722621  0.169454  0.061494  1
  O  O30  1  0.558122  0.163347  0.383844  1
  O  O31  1  0.442446  0.825829  0.602206  1
  O  O32  1  0.661685  0.504004  0.170552  1
  O  O33  1  0.282292  0.332806  0.440720  1
  O  O34  1  0.388302  0.668059  0.223216  1
  O  O35  1  0.162826  0.992866  0.660447  1
  O  O36  1  0.058649  0.676371  0.895968  1
  O  O37  1  0.495635  -0.000150  0.004747  1
  O  O38  1  0.054450  0.160624  0.385944  1
  O  O39  1  0.169087  0.504075  0.174524  1
  O  O40  1  -0.001834  0.496175  0.488515  1
  O  O41  1  0.109418  0.835187  0.285119  1
  O  O42  1  0.218269  0.168103  0.062755  1
