# generated using pymatgen
data_KRb2YF6
_symmetry_space_group_name_H-M   'P 1'
_cell_length_a   6.58136475
_cell_length_b   6.75063193
_cell_length_c   9.36726036
_cell_angle_alpha   90.00000000
_cell_angle_beta   89.73479935
_cell_angle_gamma   90.00000000
_symmetry_Int_Tables_number   1
_chemical_formula_structural   KRb2YF6
_chemical_formula_sum   'K2 Rb4 Y2 F12'
_cell_volume   416.16766083
_cell_formula_units_Z   2
loop_
 _symmetry_equiv_pos_site_id
 _symmetry_equiv_pos_as_xyz
  1  'x, y, z'
loop_
 _atom_site_type_symbol
 _atom_site_label
 _atom_site_symmetry_multiplicity
 _atom_site_fract_x
 _atom_site_fract_y
 _atom_site_fract_z
 _atom_site_occupancy
  F  F0  1  0.323218  0.232889  0.446169  1
  F  F1  1  0.176782  0.732889  0.053831  1
  F  F2  1  0.676782  0.767111  0.553831  1
  F  F3  1  0.823218  0.267111  0.946169  1
  F  F4  1  0.770961  0.318145  0.541115  1
  F  F5  1  0.729039  0.818145  0.958885  1
  F  F6  1  0.229039  0.681855  0.458885  1
  F  F7  1  0.270961  0.181855  0.041115  1
  F  F8  1  0.910374  0.038813  0.224933  1
  F  F9  1  0.589626  0.538813  0.275067  1
  F  F10  1  0.089626  0.961187  0.775067  1
  F  F11  1  0.410374  0.461187  0.724933  1
  K  K12  1  0.500000  0.500000  0.000000  1
  K  K13  1  0.000000  0.000000  0.500000  1
  Rb  Rb14  1  0.989199  0.543779  0.748138  1
  Rb  Rb15  1  0.489199  0.956221  0.248138  1
  Rb  Rb16  1  0.510801  0.043779  0.751862  1
  Rb  Rb17  1  0.010801  0.456221  0.251862  1
  Y  Y18  1  0.500000  0.500000  0.500000  1
  Y  Y19  1  0.000000  0.000000  0.000000  1
