# generated using pymatgen
data_Cr11Ni40Mo9
_symmetry_space_group_name_H-M   'P 1'
_cell_length_a   6.24319055
_cell_length_b   9.18292821
_cell_length_c   12.58445564
_cell_angle_alpha   87.45481633
_cell_angle_beta   80.19384364
_cell_angle_gamma   77.46480513
_symmetry_Int_Tables_number   1
_chemical_formula_structural   Cr11Ni40Mo9
_chemical_formula_sum   'Cr11 Ni40 Mo9'
_cell_volume   693.96805008
_cell_formula_units_Z   1
loop_
 _symmetry_equiv_pos_site_id
 _symmetry_equiv_pos_as_xyz
  1  'x, y, z'
loop_
 _atom_site_type_symbol
 _atom_site_label
 _atom_site_symmetry_multiplicity
 _atom_site_fract_x
 _atom_site_fract_y
 _atom_site_fract_z
 _atom_site_occupancy
  Cr  Cr0  1  0.088750  0.545297  0.154611  1
  Cr  Cr1  1  0.503927  0.253778  0.251049  1
  Cr  Cr2  1  0.797874  0.399932  0.202802  1
  Cr  Cr3  1  0.111046  0.054894  0.646069  1
  Cr  Cr4  1  0.010191  0.505642  0.495622  1
  Cr  Cr5  1  0.394339  0.194112  0.599976  1
  Cr  Cr6  1  0.299958  0.648456  0.449499  1
  Cr  Cr7  1  0.602264  0.801559  0.400099  1
  Cr  Cr8  1  0.890692  0.944472  0.352654  1
  Cr  Cr9  1  0.298157  0.150363  0.950156  1
  Cr  Cr10  1  0.503143  0.752628  0.746861  1
  Ni  Ni11  1  0.300213  0.985528  0.117691  1
  Ni  Ni12  1  0.504055  0.082641  0.418366  1
  Ni  Ni13  1  0.399890  0.530357  0.270907  1
  Ni  Ni14  1  0.796519  0.234776  0.364936  1
  Ni  Ni15  1  0.702275  0.681272  0.221549  1
  Ni  Ni16  1  0.094714  0.386671  0.317147  1
  Ni  Ni17  1  0.997919  0.834418  0.173152  1
  Ni  Ni18  1  0.399445  0.034198  0.764879  1
  Ni  Ni19  1  0.297043  0.483339  0.612299  1
  Ni  Ni20  1  0.704827  0.183510  0.713491  1
  Ni  Ni21  1  0.598197  0.638107  0.562928  1
  Ni  Ni22  1  0.004954  0.332298  0.664126  1
  Ni  Ni23  1  0.902937  0.780853  0.511175  1
  Ni  Ni24  1  0.200718  0.930924  0.467085  1
  Ni  Ni25  1  0.593402  0.134729  0.072312  1
  Ni  Ni26  1  0.504076  0.585125  0.917637  1
  Ni  Ni27  1  0.899642  0.284443  0.020572  1
  Ni  Ni28  1  0.799303  0.733152  0.865892  1
  Ni  Ni29  1  0.200972  0.433644  0.969963  1
  Ni  Ni30  1  0.101737  0.885261  0.813263  1
  Ni  Ni31  1  0.892579  0.118076  0.185845  1
  Ni  Ni32  1  0.103583  0.216673  0.483204  1
  Ni  Ni33  1  0.002335  0.666252  0.334497  1
  Ni  Ni34  1  0.395263  0.366284  0.431874  1
  Ni  Ni35  1  0.302532  0.813729  0.288792  1
  Ni  Ni36  1  0.697208  0.519510  0.383646  1
  Ni  Ni37  1  0.601298  0.965638  0.238272  1
  Ni  Ni38  1  0.001218  0.166225  0.829578  1
  Ni  Ni39  1  0.898822  0.615081  0.676935  1
  Ni  Ni40  1  0.303026  0.313482  0.779579  1
  Ni  Ni41  1  0.203136  0.766569  0.628639  1
  Ni  Ni42  1  0.601749  0.468577  0.730596  1
  Ni  Ni43  1  0.498407  0.918382  0.581067  1
  Ni  Ni44  1  0.805020  0.064552  0.529006  1
  Ni  Ni45  1  0.196400  0.269270  0.134825  1
  Ni  Ni46  1  0.095346  0.714480  0.984759  1
  Ni  Ni47  1  0.501605  0.414840  0.088368  1
  Ni  Ni48  1  0.401096  0.867072  0.929082  1
  Ni  Ni49  1  0.801254  0.563170  0.038252  1
  Ni  Ni50  1  0.696435  0.016634  0.883937  1
  Mo  Mo51  1  0.003034  0.003157  0.000118  1
  Mo  Mo52  1  0.198854  0.101069  0.302049  1
  Mo  Mo53  1  0.391744  0.696603  0.104607  1
  Mo  Mo54  1  0.698845  0.849418  0.053042  1
  Mo  Mo55  1  0.701468  0.351824  0.546361  1
  Mo  Mo56  1  0.204292  0.601937  0.796575  1
  Mo  Mo57  1  0.594962  0.298398  0.901691  1
  Mo  Mo58  1  0.902888  0.448284  0.849731  1
  Mo  Mo59  1  0.802422  0.898438  0.696308  1
