# generated using pymatgen
data_Na2BSbSO7
_symmetry_space_group_name_H-M   'P 1'
_cell_length_a   9.50845879
_cell_length_b   6.90616480
_cell_length_c   5.57077091
_cell_angle_alpha   90.00000000
_cell_angle_beta   92.27868991
_cell_angle_gamma   90.00000000
_symmetry_Int_Tables_number   1
_chemical_formula_structural   Na2BSbSO7
_chemical_formula_sum   'Na4 B2 Sb2 S2 O14'
_cell_volume   365.52645281
_cell_formula_units_Z   2
loop_
 _symmetry_equiv_pos_site_id
 _symmetry_equiv_pos_as_xyz
  1  'x, y, z'
loop_
 _atom_site_type_symbol
 _atom_site_label
 _atom_site_symmetry_multiplicity
 _atom_site_fract_x
 _atom_site_fract_y
 _atom_site_fract_z
 _atom_site_occupancy
  Na  Na0  1  0.197003  0.497724  0.244122  1
  Na  Na1  1  0.197003  0.002276  0.244122  1
  Na  Na2  1  0.802997  0.502276  0.755878  1
  Na  Na3  1  0.802997  0.997724  0.755878  1
  B  B4  1  0.087319  0.750000  0.741265  1
  B  B5  1  0.912681  0.250000  0.258735  1
  Sb  Sb6  1  0.355136  0.750000  0.772628  1
  Sb  Sb7  1  0.644864  0.250000  0.227372  1
  S  S8  1  0.395347  0.250000  0.723187  1
  S  S9  1  0.604653  0.750000  0.276813  1
  O  O10  1  0.049587  0.250000  0.268671  1
  O  O11  1  0.177035  0.750000  0.959164  1
  O  O12  1  0.181644  0.750000  0.541918  1
  O  O13  1  0.334556  0.077321  0.850070  1
  O  O14  1  0.334556  0.422679  0.850070  1
  O  O15  1  0.447697  0.750000  0.244018  1
  O  O16  1  0.353011  0.250000  0.467059  1
  O  O17  1  0.646989  0.750000  0.532941  1
  O  O18  1  0.552303  0.250000  0.755982  1
  O  O19  1  0.665444  0.577321  0.149930  1
  O  O20  1  0.665444  0.922679  0.149930  1
  O  O21  1  0.818356  0.250000  0.458082  1
  O  O22  1  0.822965  0.250000  0.040835  1
  O  O23  1  0.950413  0.750000  0.731329  1
