# generated using pymatgen
data_ZnCrH15N5Cl4F
_symmetry_space_group_name_H-M   'P 1'
_cell_length_a   9.64013226
_cell_length_b   9.64013226
_cell_length_c   9.17434999
_cell_angle_alpha   90.00000000
_cell_angle_beta   90.00000000
_cell_angle_gamma   49.21975419
_symmetry_Int_Tables_number   1
_chemical_formula_structural   ZnCrH15N5Cl4F
_chemical_formula_sum   'Zn2 Cr2 H30 N10 Cl8 F2'
_cell_volume   645.60001705
_cell_formula_units_Z   2
loop_
 _symmetry_equiv_pos_site_id
 _symmetry_equiv_pos_as_xyz
  1  'x, y, z'
loop_
 _atom_site_type_symbol
 _atom_site_label
 _atom_site_symmetry_multiplicity
 _atom_site_fract_x
 _atom_site_fract_y
 _atom_site_fract_z
 _atom_site_occupancy
  Zn  Zn0  1  0.888877  0.888877  0.522221  1
  Zn  Zn1  1  0.111123  0.111123  0.022221  1
  Cr  Cr2  1  0.600594  0.600594  0.420787  1
  Cr  Cr3  1  0.399406  0.399406  0.920787  1
  H  H4  1  0.279432  0.703696  0.363283  1
  H  H5  1  0.703696  0.279432  0.363283  1
  H  H6  1  0.720568  0.296304  0.863283  1
  H  H7  1  0.296304  0.720568  0.863283  1
  H  H8  1  0.382438  0.662874  0.205689  1
  H  H9  1  0.662874  0.382438  0.205689  1
  H  H10  1  0.617562  0.337126  0.705689  1
  H  H11  1  0.337126  0.617562  0.705689  1
  H  H12  1  0.279758  0.860570  0.292574  1
  H  H13  1  0.860570  0.279758  0.292574  1
  H  H14  1  0.720242  0.139430  0.792574  1
  H  H15  1  0.139430  0.720242  0.792574  1
  H  H16  1  0.782497  0.578225  0.185797  1
  H  H17  1  0.578225  0.782497  0.185797  1
  H  H18  1  0.217503  0.421775  0.685797  1
  H  H19  1  0.421775  0.217503  0.685797  1
  H  H20  1  0.739848  0.739848  0.293114  1
  H  H21  1  0.260152  0.260152  0.793114  1
  H  H22  1  0.857396  0.418869  0.628277  1
  H  H23  1  0.418869  0.857396  0.628277  1
  H  H24  1  0.142604  0.581131  0.128277  1
  H  H25  1  0.581131  0.142604  0.128277  1
  H  H26  1  0.869285  0.566645  0.553844  1
  H  H27  1  0.566645  0.869285  0.553844  1
  H  H28  1  0.130715  0.433355  0.053844  1
  H  H29  1  0.433355  0.130715  0.053844  1
  H  H30  1  0.961264  0.373322  0.469444  1
  H  H31  1  0.373322  0.961264  0.469444  1
  H  H32  1  0.038736  0.626678  0.969444  1
  H  H33  1  0.626678  0.038736  0.969444  1
  N  N34  1  0.358203  0.722184  0.306572  1
  N  N35  1  0.722184  0.358203  0.306572  1
  N  N36  1  0.641797  0.277816  0.806572  1
  N  N37  1  0.277816  0.641797  0.806572  1
  N  N38  1  0.685279  0.685279  0.252168  1
  N  N39  1  0.314721  0.314721  0.752168  1
  N  N40  1  0.850898  0.475079  0.531253  1
  N  N41  1  0.475079  0.850898  0.531253  1
  N  N42  1  0.149102  0.524921  0.031253  1
  N  N43  1  0.524921  0.149102  0.031253  1
  Cl  Cl44  1  0.820689  0.820689  0.744397  1
  Cl  Cl45  1  0.179311  0.179311  0.244397  1
  Cl  Cl46  1  0.015646  0.015646  0.564892  1
  Cl  Cl47  1  0.984354  0.984354  0.064892  1
  Cl  Cl48  1  0.086975  0.608766  0.411580  1
  Cl  Cl49  1  0.608766  0.086975  0.411580  1
  Cl  Cl50  1  0.913025  0.391234  0.911580  1
  Cl  Cl51  1  0.391234  0.913025  0.911580  1
  F  F52  1  0.524048  0.524048  0.570696  1
  F  F53  1  0.475952  0.475952  0.070696  1
