# generated using pymatgen
data_LiBi2PO6
_symmetry_space_group_name_H-M   'P 1'
_cell_length_a   10.10399345
_cell_length_b   5.67074680
_cell_length_c   9.95570780
_cell_angle_alpha   90.00000000
_cell_angle_beta   90.05941397
_cell_angle_gamma   90.00000000
_symmetry_Int_Tables_number   1
_chemical_formula_structural   LiBi2PO6
_chemical_formula_sum   'Li4 Bi8 P4 O24'
_cell_volume   570.43376003
_cell_formula_units_Z   4
loop_
 _symmetry_equiv_pos_site_id
 _symmetry_equiv_pos_as_xyz
  1  'x, y, z'
loop_
 _atom_site_type_symbol
 _atom_site_label
 _atom_site_symmetry_multiplicity
 _atom_site_fract_x
 _atom_site_fract_y
 _atom_site_fract_z
 _atom_site_occupancy
  Li  Li0  1  0.999241  0.756183  0.110644  1
  Li  Li1  1  0.499241  0.743817  0.610644  1
  Li  Li2  1  0.500759  0.256183  0.389356  1
  Li  Li3  1  0.000759  0.243817  0.889356  1
  Bi  Bi4  1  0.249578  0.766164  0.392345  1
  Bi  Bi5  1  0.250516  0.265744  0.609643  1
  Bi  Bi6  1  0.249484  0.765744  0.890357  1
  Bi  Bi7  1  0.250422  0.266164  0.107655  1
  Bi  Bi8  1  0.749578  0.733836  0.892345  1
  Bi  Bi9  1  0.750516  0.234256  0.109643  1
  Bi  Bi10  1  0.749484  0.734256  0.390357  1
  Bi  Bi11  1  0.750422  0.233836  0.607655  1
  P  P12  1  0.001365  0.252219  0.342292  1
  P  P13  1  0.501364  0.247781  0.842292  1
  P  P14  1  0.498636  0.752219  0.157708  1
  P  P15  1  0.998636  0.747781  0.657708  1
  O  O16  1  0.062266  0.941086  0.748647  1
  O  O17  1  0.066378  0.448643  0.254289  1
  O  O18  1  0.110409  0.136096  0.431941  1
  O  O19  1  0.109106  0.634747  0.568591  1
  O  O20  1  0.148368  0.447780  0.952353  1
  O  O21  1  0.147770  0.950159  0.044085  1
  O  O22  1  0.351632  0.947780  0.547647  1
  O  O23  1  0.352230  0.450159  0.455915  1
  O  O24  1  0.390894  0.134747  0.931409  1
  O  O25  1  0.389591  0.636096  0.068059  1
  O  O26  1  0.433622  0.948643  0.245711  1
  O  O27  1  0.437734  0.441086  0.751353  1
  O  O28  1  0.562266  0.558914  0.248647  1
  O  O29  1  0.566378  0.051357  0.754289  1
  O  O30  1  0.610409  0.363904  0.931941  1
  O  O31  1  0.609106  0.865253  0.068591  1
  O  O32  1  0.647770  0.549841  0.544085  1
  O  O33  1  0.648368  0.052220  0.452353  1
  O  O34  1  0.852230  0.049841  0.955915  1
  O  O35  1  0.851632  0.552220  0.047647  1
  O  O36  1  0.890894  0.365253  0.431409  1
  O  O37  1  0.889591  0.863904  0.568059  1
  O  O38  1  0.933622  0.551357  0.745711  1
  O  O39  1  0.937734  0.058914  0.251353  1
