# generated using pymatgen
data_SiO2
_symmetry_space_group_name_H-M   'P 1'
_cell_length_a   5.26284420
_cell_length_b   5.26284405
_cell_length_c   8.53864140
_cell_angle_alpha   90.00000000
_cell_angle_beta   90.00000000
_cell_angle_gamma   120.48346538
_symmetry_Int_Tables_number   1
_chemical_formula_structural   SiO2
_chemical_formula_sum   'Si4 O8'
_cell_volume   203.80929138
_cell_formula_units_Z   4
loop_
 _symmetry_equiv_pos_site_id
 _symmetry_equiv_pos_as_xyz
  1  'x, y, z'
loop_
 _atom_site_type_symbol
 _atom_site_label
 _atom_site_symmetry_multiplicity
 _atom_site_fract_x
 _atom_site_fract_y
 _atom_site_fract_z
 _atom_site_occupancy
  Si  Si0  1  0.293206  0.626640  0.687570  1
  Si  Si1  1  0.373360  0.706794  0.312430  1
  Si  Si2  1  0.706794  0.373360  0.187570  1
  Si  Si3  1  0.626640  0.293206  0.812430  1
  O  O4  1  0.441486  0.944279  0.773331  1
  O  O5  1  0.446798  0.446798  0.750000  1
  O  O6  1  0.055721  0.558514  0.226669  1
  O  O7  1  0.944279  0.441486  0.726669  1
  O  O8  1  0.667231  0.332769  0.000000  1
  O  O9  1  0.332769  0.667231  0.500000  1
  O  O10  1  0.558514  0.055721  0.273331  1
  O  O11  1  0.553202  0.553202  0.250000  1
