# generated using pymatgen
data_Ba4Lu6O13
_symmetry_space_group_name_H-M   'P 1'
_cell_length_a   5.98452639
_cell_length_b   12.56074881
_cell_length_c   12.17591040
_cell_angle_alpha   61.08872249
_cell_angle_beta   90.01252569
_cell_angle_gamma   76.18390820
_symmetry_Int_Tables_number   1
_chemical_formula_structural   Ba4Lu6O13
_chemical_formula_sum   'Ba8 Lu12 O26'
_cell_volume   770.77721639
_cell_formula_units_Z   2
loop_
 _symmetry_equiv_pos_site_id
 _symmetry_equiv_pos_as_xyz
  1  'x, y, z'
loop_
 _atom_site_type_symbol
 _atom_site_label
 _atom_site_symmetry_multiplicity
 _atom_site_fract_x
 _atom_site_fract_y
 _atom_site_fract_z
 _atom_site_occupancy
  Ba  Ba0  1  0.161324  0.680370  0.030065  1
  Ba  Ba1  1  0.337204  0.328384  0.214927  1
  Ba  Ba2  1  0.838488  0.328961  0.458612  1
  Ba  Ba3  1  0.657292  0.681732  0.292307  1
  Ba  Ba4  1  0.341395  0.320005  0.707207  1
  Ba  Ba5  1  0.164643  0.671923  0.543794  1
  Ba  Ba6  1  0.666344  0.672058  0.786504  1
  Ba  Ba7  1  0.845797  0.319340  0.971873  1
  Lu  Lu8  1  0.533965  0.071950  0.091133  1
  Lu  Lu9  1  0.746998  0.505095  0.124008  1
  Lu  Lu10  1  0.967280  0.096487  0.346526  1
  Lu  Lu11  1  0.468318  0.096666  0.558535  1
  Lu  Lu12  1  0.245548  0.507389  0.371240  1
  Lu  Lu13  1  0.105283  0.928747  0.162717  1
  Lu  Lu14  1  0.034359  0.072443  0.836894  1
  Lu  Lu15  1  0.751758  0.495178  0.628428  1
  Lu  Lu16  1  0.562125  0.903787  0.442264  1
  Lu  Lu17  1  0.062207  0.903999  0.654757  1
  Lu  Lu18  1  0.252594  0.495188  0.877403  1
  Lu  Lu19  1  0.606167  0.927968  0.909945  1
  O  O20  1  0.302893  0.999235  0.000574  1
  O  O21  1  0.803578  0.999430  0.000776  1
  O  O22  1  0.374973  0.265377  0.992681  1
  O  O23  1  0.846838  0.060996  0.195257  1
  O  O24  1  0.007924  0.487452  0.007957  1
  O  O25  1  0.831128  0.291753  0.234483  1
  O  O26  1  0.323021  0.097314  0.384450  1
  O  O27  1  0.995753  0.509691  0.245309  1
  O  O28  1  0.492229  0.515209  0.243413  1
  O  O29  1  0.823303  0.097003  0.519673  1
  O  O30  1  0.147184  0.734512  0.259741  1
  O  O31  1  0.334650  0.292058  0.477242  1
  O  O32  1  0.406341  0.940909  0.255329  1
  O  O33  1  0.506256  0.488979  0.504926  1
  O  O34  1  0.992879  0.513837  0.494138  1
  O  O35  1  0.347558  0.059747  0.745158  1
  O  O36  1  0.621266  0.708496  0.524108  1
  O  O37  1  0.881013  0.266909  0.737904  1
  O  O38  1  0.917448  0.903327  0.480586  1
  O  O39  1  0.008307  0.489571  0.753966  1
  O  O40  1  0.509604  0.488458  0.758245  1
  O  O41  1  0.416827  0.903092  0.616139  1
  O  O42  1  0.118593  0.708690  0.767844  1
  O  O43  1  0.494860  0.512086  0.993870  1
  O  O44  1  0.904565  0.942485  0.803284  1
  O  O45  1  0.648621  0.733712  0.007239  1
