# generated using pymatgen
data_Li4V3P8O29
_symmetry_space_group_name_H-M   'P 1'
_cell_length_a   9.77062380
_cell_length_b   9.76946681
_cell_length_c   14.07588371
_cell_angle_alpha   90.03536930
_cell_angle_beta   90.10009226
_cell_angle_gamma   59.93602183
_symmetry_Int_Tables_number   1
_chemical_formula_structural   Li4V3P8O29
_chemical_formula_sum   'Li8 V6 P16 O58'
_cell_volume   1162.83589370
_cell_formula_units_Z   2
loop_
 _symmetry_equiv_pos_site_id
 _symmetry_equiv_pos_as_xyz
  1  'x, y, z'
loop_
 _atom_site_type_symbol
 _atom_site_label
 _atom_site_symmetry_multiplicity
 _atom_site_fract_x
 _atom_site_fract_y
 _atom_site_fract_z
 _atom_site_occupancy
  Li  Li0  1  0.904409  0.763192  0.057348  1
  Li  Li1  1  0.768408  0.328139  0.057782  1
  Li  Li2  1  0.331149  0.902218  0.056495  1
  Li  Li3  1  0.686304  0.226302  0.443066  1
  Li  Li4  1  0.321376  0.771322  0.561813  1
  Li  Li5  1  0.086374  0.687408  0.440988  1
  Li  Li6  1  0.224297  0.094555  0.445518  1
  Li  Li7  1  0.005097  0.999350  0.991903  1
  V  V8  1  0.568358  0.433548  0.248121  1
  V  V9  1  0.432416  0.561523  0.756020  1
  V  V10  1  0.569566  0.000035  0.749769  1
  V  V11  1  0.435687  0.000318  0.248246  1
  V  V12  1  0.999653  0.565546  0.250529  1
  V  V13  1  0.000794  0.432778  0.748437  1
  P  P14  1  0.913852  0.773981  0.841184  1
  P  P15  1  0.769688  0.915701  0.343476  1
  P  P16  1  0.915888  0.314952  0.342627  1
  P  P17  1  0.665584  0.668749  0.127818  1
  P  P18  1  0.662872  0.667640  0.630812  1
  P  P19  1  0.777671  0.311769  0.840674  1
  P  P20  1  0.683243  0.228702  0.658404  1
  P  P21  1  0.314094  0.912652  0.842118  1
  P  P22  1  0.691844  0.082852  0.157287  1
  P  P23  1  0.321082  0.768577  0.342939  1
  P  P24  1  0.225182  0.690008  0.159820  1
  P  P25  1  0.335578  0.332050  0.370052  1
  P  P26  1  0.332472  0.329594  0.870316  1
  P  P27  1  0.088811  0.683496  0.657880  1
  P  P28  1  0.229120  0.088553  0.660184  1
  P  P29  1  0.084079  0.224805  0.157094  1
  O  O30  1  0.009344  0.757119  0.567105  1
  O  O31  1  0.915907  0.747583  0.341493  1
  O  O32  1  0.785504  0.991785  0.072872  1
  O  O33  1  0.742034  0.914683  0.832095  1
  O  O34  1  0.913895  0.617042  0.827584  1
  O  O35  1  0.810123  0.678747  0.166174  1
  O  O36  1  0.905237  0.477126  0.321775  1
  O  O37  1  0.998281  0.208920  0.073485  1
  O  O38  1  0.916323  0.344337  0.831700  1
  O  O39  1  0.657491  0.817808  0.678005  1
  O  O40  1  0.617792  0.905242  0.320673  1
  O  O41  1  0.815345  0.524439  0.676329  1
  O  O42  1  0.650766  0.680154  0.022306  1
  O  O43  1  0.660733  0.672906  0.525684  1
  O  O44  1  0.676948  0.512585  0.166723  1
  O  O45  1  0.469309  0.914071  0.829356  1
  O  O46  1  0.509485  0.815214  0.172650  1
  O  O47  1  0.746088  0.338997  0.339245  1
  O  O48  1  0.795185  0.205672  0.749212  1
  O  O49  1  0.754468  0.238206  0.568068  1
  O  O50  1  0.785897  0.228699  0.931186  1
  O  O51  1  0.619162  0.470536  0.827631  1
  O  O52  1  0.514804  0.664362  0.671697  1
  O  O53  1  0.662216  0.254063  0.158591  1
  O  O54  1  0.481461  0.620986  0.322448  1
  O  O55  1  0.336716  0.919515  0.339258  1
  O  O56  1  0.792990  0.001538  0.251664  1
  O  O57  1  0.753413  0.008671  0.429752  1
  O  O58  1  0.239136  0.999652  0.571333  1
  O  O59  1  0.656916  0.085218  0.666849  1
  O  O60  1  0.523644  0.381257  0.680289  1
  O  O61  1  0.345678  0.740445  0.831593  1
  O  O62  1  0.487129  0.327499  0.329833  1
  O  O63  1  0.382044  0.532186  0.171156  1
  O  O64  1  0.214500  0.791270  0.077819  1
  O  O65  1  0.246737  0.758743  0.434210  1
  O  O66  1  0.203704  0.788520  0.257338  1
  O  O67  1  0.259093  0.659357  0.662886  1
  O  O68  1  0.480670  0.184736  0.825091  1
  O  O69  1  0.531482  0.086201  0.172070  1
  O  O70  1  0.332331  0.481261  0.825955  1
  O  O71  1  0.332374  0.334610  0.975097  1
  O  O72  1  0.335072  0.320192  0.475319  1
  O  O73  1  0.187007  0.485059  0.331098  1
  O  O74  1  0.381437  0.095106  0.677174  1
  O  O75  1  0.331646  0.183581  0.323519  1
  O  O76  1  0.083414  0.659671  0.162114  1
  O  O77  1  0.002341  0.792962  0.749423  1
  O  O78  1  0.987883  0.785774  0.931344  1
  O  O79  1  0.095910  0.523813  0.677632  1
  O  O80  1  0.184328  0.333004  0.824249  1
  O  O81  1  0.086445  0.379273  0.168789  1
  O  O82  1  0.257494  0.080587  0.161386  1
  O  O83  1  0.226243  0.984307  0.931985  1
  O  O84  1  0.204892  0.001046  0.750628  1
  O  O85  1  0.084707  0.257593  0.663673  1
  O  O86  1  0.006111  0.236009  0.429222  1
  O  O87  1  0.001355  0.205086  0.251335  1
