# generated using pymatgen
data_ZnTe2O5
_symmetry_space_group_name_H-M   'P 1'
_cell_length_a   8.81033479
_cell_length_b   8.81033479
_cell_length_c   12.93115464
_cell_angle_alpha   90.00000000
_cell_angle_beta   90.00000000
_cell_angle_gamma   90.00000000
_symmetry_Int_Tables_number   1
_chemical_formula_structural   ZnTe2O5
_chemical_formula_sum   'Zn8 Te16 O40'
_cell_volume   1003.74207398
_cell_formula_units_Z   8
loop_
 _symmetry_equiv_pos_site_id
 _symmetry_equiv_pos_as_xyz
  1  'x, y, z'
loop_
 _atom_site_type_symbol
 _atom_site_label
 _atom_site_symmetry_multiplicity
 _atom_site_fract_x
 _atom_site_fract_y
 _atom_site_fract_z
 _atom_site_occupancy
  Zn  Zn0  1  0.250000  0.250000  0.250000  1
  Zn  Zn1  1  0.250000  0.250000  0.000000  1
  Zn  Zn2  1  0.250000  0.250000  0.500000  1
  Zn  Zn3  1  0.250000  0.250000  0.750000  1
  Zn  Zn4  1  0.750000  0.750000  0.000000  1
  Zn  Zn5  1  0.750000  0.750000  0.250000  1
  Zn  Zn6  1  0.750000  0.750000  0.500000  1
  Zn  Zn7  1  0.750000  0.750000  0.750000  1
  Te  Te8  1  0.036661  0.568669  0.383886  1
  Te  Te9  1  0.036661  0.931331  0.616114  1
  Te  Te10  1  0.068669  0.963339  0.116114  1
  Te  Te11  1  0.068669  0.536661  0.883886  1
  Te  Te12  1  0.431331  0.536661  0.116114  1
  Te  Te13  1  0.431331  0.963339  0.883886  1
  Te  Te14  1  0.463339  0.568669  0.616114  1
  Te  Te15  1  0.463339  0.931331  0.383886  1
  Te  Te16  1  0.536661  0.068669  0.616114  1
  Te  Te17  1  0.536661  0.431331  0.383886  1
  Te  Te18  1  0.568669  0.036661  0.116114  1
  Te  Te19  1  0.568669  0.463339  0.883886  1
  Te  Te20  1  0.931331  0.036661  0.883886  1
  Te  Te21  1  0.931331  0.463339  0.116114  1
  Te  Te22  1  0.963339  0.068669  0.383886  1
  Te  Te23  1  0.963339  0.431331  0.616114  1
  O  O24  1  0.019165  0.125163  0.548085  1
  O  O25  1  0.019165  0.374837  0.451915  1
  O  O26  1  0.051312  0.448688  0.250000  1
  O  O27  1  0.051312  0.051312  0.750000  1
  O  O28  1  0.108686  0.176055  0.133175  1
  O  O29  1  0.108686  0.323945  0.866825  1
  O  O30  1  0.125163  0.480835  0.048085  1
  O  O31  1  0.125163  0.019165  0.951915  1
  O  O32  1  0.176055  0.108686  0.366825  1
  O  O33  1  0.176055  0.391314  0.633175  1
  O  O34  1  0.323945  0.108686  0.633175  1
  O  O35  1  0.323945  0.391314  0.366825  1
  O  O36  1  0.374837  0.019165  0.048085  1
  O  O37  1  0.374837  0.480835  0.951915  1
  O  O38  1  0.391314  0.323945  0.133175  1
  O  O39  1  0.391314  0.176055  0.866825  1
  O  O40  1  0.448688  0.051312  0.250000  1
  O  O41  1  0.448688  0.448688  0.750000  1
  O  O42  1  0.480835  0.125163  0.451915  1
  O  O43  1  0.480835  0.374837  0.548085  1
  O  O44  1  0.519165  0.625163  0.451915  1
  O  O45  1  0.519165  0.874837  0.548085  1
  O  O46  1  0.551312  0.551312  0.250000  1
  O  O47  1  0.551312  0.948688  0.750000  1
  O  O48  1  0.608686  0.676055  0.866825  1
  O  O49  1  0.608686  0.823945  0.133175  1
  O  O50  1  0.625163  0.519165  0.048085  1
  O  O51  1  0.625163  0.980835  0.951915  1
  O  O52  1  0.676055  0.608686  0.633175  1
  O  O53  1  0.676055  0.891314  0.366825  1
  O  O54  1  0.823945  0.608686  0.366825  1
  O  O55  1  0.823945  0.891314  0.633175  1
  O  O56  1  0.874837  0.519165  0.951915  1
  O  O57  1  0.874837  0.980835  0.048085  1
  O  O58  1  0.891314  0.676055  0.133175  1
  O  O59  1  0.891314  0.823945  0.866825  1
  O  O60  1  0.948688  0.551312  0.750000  1
  O  O61  1  0.948688  0.948688  0.250000  1
  O  O62  1  0.980835  0.625163  0.548085  1
  O  O63  1  0.980835  0.874837  0.451915  1
