# generated using pymatgen
data_Mn3Fe2P6WO24
_symmetry_space_group_name_H-M   'P 1'
_cell_length_a   8.65446304
_cell_length_b   8.80228234
_cell_length_c   8.80228203
_cell_angle_alpha   60.00000175
_cell_angle_beta   59.43336843
_cell_angle_gamma   59.43337247
_symmetry_Int_Tables_number   1
_chemical_formula_structural   Mn3Fe2P6WO24
_chemical_formula_sum   'Mn3 Fe2 P6 W1 O24'
_cell_volume   470.04838338
_cell_formula_units_Z   1
loop_
 _symmetry_equiv_pos_site_id
 _symmetry_equiv_pos_as_xyz
  1  'x, y, z'
loop_
 _atom_site_type_symbol
 _atom_site_label
 _atom_site_symmetry_multiplicity
 _atom_site_fract_x
 _atom_site_fract_y
 _atom_site_fract_z
 _atom_site_occupancy
  Mn  Mn0  1  0.056713  0.647762  0.647762  1
  Mn  Mn1  1  0.442181  0.852606  0.852606  1
  Mn  Mn2  1  0.937990  0.354004  0.354004  1
  Fe  Fe3  1  0.027950  0.990683  0.990683  1
  Fe  Fe4  1  0.502362  0.499213  0.499213  1
  P  P5  1  0.250209  0.252987  0.548250  1
  P  P6  1  0.250209  0.948554  0.252987  1
  P  P7  1  0.250209  0.548250  0.948554  1
  P  P8  1  0.742024  0.457685  0.055058  1
  P  P9  1  0.742024  0.055058  0.745233  1
  P  P10  1  0.742024  0.745233  0.457685  1
  W  W11  1  0.572217  0.142594  0.142594  1
  O  O12  1  0.073000  0.095090  0.326732  1
  O  O13  1  0.073000  0.505179  0.095090  1
  O  O14  1  0.073000  0.326732  0.505179  1
  O  O15  1  0.232771  0.093561  0.737878  1
  O  O16  1  0.426357  0.175054  0.381343  1
  O  O17  1  0.305390  0.398744  0.542402  1
  O  O18  1  0.232771  0.935791  0.093561  1
  O  O19  1  0.305390  0.753463  0.398744  1
  O  O20  1  0.563171  0.605752  0.013233  1
  O  O21  1  0.305390  0.542402  0.753463  1
  O  O22  1  0.753191  0.254108  0.081448  1
  O  O23  1  0.563171  0.013233  0.817842  1
  O  O24  1  0.426357  0.017247  0.175054  1
  O  O25  1  0.232771  0.737878  0.935791  1
  O  O26  1  0.712196  0.435987  0.254834  1
  O  O27  1  0.426357  0.381343  0.017247  1
  O  O28  1  0.712196  0.254834  0.596984  1
  O  O29  1  0.753191  0.081448  0.911252  1
  O  O30  1  0.712196  0.596984  0.435987  1
  O  O31  1  0.563171  0.817842  0.605752  1
  O  O32  1  0.753191  0.911252  0.254108  1
  O  O33  1  0.928553  0.691583  0.474923  1
  O  O34  1  0.928553  0.474923  0.904939  1
  O  O35  1  0.928553  0.904939  0.691583  1
