# generated using pymatgen
data_Li6CrCo3(PO4)6
_symmetry_space_group_name_H-M   'P 1'
_cell_length_a   8.45435391
_cell_length_b   8.52825092
_cell_length_c   8.52839755
_cell_angle_alpha   61.98399180
_cell_angle_beta   62.13924646
_cell_angle_gamma   62.23229672
_symmetry_Int_Tables_number   1
_chemical_formula_structural   Li6CrCo3(PO4)6
_chemical_formula_sum   'Li6 Cr1 Co3 P6 O24'
_cell_volume   455.38500617
_cell_formula_units_Z   1
loop_
 _symmetry_equiv_pos_site_id
 _symmetry_equiv_pos_as_xyz
  1  'x, y, z'
loop_
 _atom_site_type_symbol
 _atom_site_label
 _atom_site_symmetry_multiplicity
 _atom_site_fract_x
 _atom_site_fract_y
 _atom_site_fract_z
 _atom_site_occupancy
  Li  Li0  1  0.024894  0.008859  0.997803  1
  Li  Li1  1  0.748903  0.152859  0.346381  1
  Li  Li2  1  0.475003  0.505770  0.493251  1
  Li  Li3  1  0.271048  0.839719  0.648992  1
  Li  Li4  1  0.652578  0.273414  0.836069  1
  Li  Li5  1  0.835533  0.651132  0.272138  1
  Cr  Cr6  1  0.857383  0.855642  0.855536  1
  Co  Co7  1  0.145484  0.146883  0.137248  1
  Co  Co8  1  0.353830  0.361461  0.353386  1
  Co  Co9  1  0.648316  0.650740  0.649887  1
  P  P10  1  0.048679  0.752590  0.450977  1
  P  P11  1  0.451995  0.048585  0.749870  1
  P  P12  1  0.751025  0.453753  0.045560  1
  P  P13  1  0.249991  0.541211  0.956594  1
  P  P14  1  0.543112  0.959747  0.250139  1
  P  P15  1  0.954773  0.249371  0.537727  1
  O  O16  1  0.128820  0.292317  0.498076  1
  O  O17  1  0.304941  0.509269  0.118439  1
  O  O18  1  0.048436  0.920614  0.266778  1
  O  O19  1  0.532316  0.119027  0.296279  1
  O  O20  1  0.236652  0.592468  0.433200  1
  O  O21  1  0.014565  0.808027  0.614514  1
  O  O22  1  0.261087  0.069785  0.905870  1
  O  O23  1  0.455394  0.229563  0.577907  1
  O  O24  1  0.593287  0.433460  0.238935  1
  O  O25  1  0.184882  0.383539  0.995262  1
  O  O26  1  0.096388  0.738640  0.925860  1
  O  O27  1  0.374582  0.006004  0.196568  1
  O  O28  1  0.615586  0.009667  0.809834  1
  O  O29  1  0.905206  0.259260  0.068176  1
  O  O30  1  0.811178  0.614048  0.009899  1
  O  O31  1  0.415309  0.552758  0.766531  1
  O  O32  1  0.550279  0.770786  0.417064  1
  O  O33  1  0.738563  0.921439  0.094644  1
  O  O34  1  0.971616  0.194013  0.382363  1
  O  O35  1  0.768370  0.418131  0.555198  1
  O  O36  1  0.478262  0.884630  0.694671  1
  O  O37  1  0.927150  0.095028  0.735412  1
  O  O38  1  0.690785  0.481543  0.885625  1
  O  O39  1  0.883801  0.693247  0.482337  1
