# generated using pymatgen
data_Na4Co3P4(H3O4)6
_symmetry_space_group_name_H-M   'P 1'
_cell_length_a   7.42932689
_cell_length_b   9.25665932
_cell_length_c   15.29639016
_cell_angle_alpha   90.00000000
_cell_angle_beta   95.51492906
_cell_angle_gamma   90.00000000
_symmetry_Int_Tables_number   1
_chemical_formula_structural   Na4Co3P4(H3O4)6
_chemical_formula_sum   'Na8 Co6 P8 H36 O48'
_cell_volume   1047.07494355
_cell_formula_units_Z   2
loop_
 _symmetry_equiv_pos_site_id
 _symmetry_equiv_pos_as_xyz
  1  'x, y, z'
loop_
 _atom_site_type_symbol
 _atom_site_label
 _atom_site_symmetry_multiplicity
 _atom_site_fract_x
 _atom_site_fract_y
 _atom_site_fract_z
 _atom_site_occupancy
  Na  Na0  1  0.548565  0.392041  0.217030  1
  Na  Na1  1  0.451435  0.892041  0.282970  1
  Na  Na2  1  0.451435  0.607959  0.782970  1
  Na  Na3  1  0.548565  0.107959  0.717030  1
  Na  Na4  1  0.259429  0.484607  0.370203  1
  Na  Na5  1  0.740571  0.984607  0.129797  1
  Na  Na6  1  0.740571  0.515393  0.629797  1
  Na  Na7  1  0.259429  0.015393  0.870203  1
  Co  Co8  1  0.500000  0.500000  0.000000  1
  Co  Co9  1  0.500000  0.000000  0.500000  1
  Co  Co10  1  0.027461  0.260120  0.003902  1
  Co  Co11  1  0.972539  0.760120  0.496098  1
  Co  Co12  1  0.972539  0.739880  0.996098  1
  Co  Co13  1  0.027461  0.239880  0.503902  1
  P  P14  1  0.102759  0.476224  0.882765  1
  P  P15  1  0.897241  0.976224  0.617235  1
  P  P16  1  0.897241  0.523776  0.117235  1
  P  P17  1  0.102759  0.023776  0.382765  1
  P  P18  1  0.753296  0.022876  0.927264  1
  P  P19  1  0.246704  0.522876  0.572736  1
  P  P20  1  0.246704  0.977124  0.072736  1
  P  P21  1  0.753296  0.477124  0.427264  1
  H  H22  1  0.879300  0.495893  0.300896  1
  H  H23  1  0.120700  0.995893  0.199104  1
  H  H24  1  0.120700  0.504107  0.699104  1
  H  H25  1  0.879300  0.004107  0.800896  1
  H  H26  1  0.161531  0.341296  0.200999  1
  H  H27  1  0.838469  0.841296  0.299001  1
  H  H28  1  0.838469  0.658704  0.799001  1
  H  H29  1  0.161531  0.158704  0.700999  1
  H  H30  1  0.231232  0.281361  0.767224  1
  H  H31  1  0.768768  0.781361  0.732776  1
  H  H32  1  0.768768  0.718639  0.232776  1
  H  H33  1  0.231232  0.218639  0.267224  1
  H  H34  1  0.862151  0.245858  0.683177  1
  H  H35  1  0.137849  0.745858  0.816823  1
  H  H36  1  0.137849  0.754142  0.316823  1
  H  H37  1  0.862151  0.254142  0.183177  1
  H  H38  1  0.855641  0.311923  0.777573  1
  H  H39  1  0.144359  0.811923  0.722427  1
  H  H40  1  0.144359  0.688077  0.222427  1
  H  H41  1  0.855641  0.188077  0.277573  1
  H  H42  1  0.636945  0.256789  0.543143  1
  H  H43  1  0.363055  0.756789  0.956857  1
  H  H44  1  0.363055  0.743211  0.456857  1
  H  H45  1  0.636945  0.243211  0.043143  1
  H  H46  1  0.426394  0.264148  0.552779  1
  H  H47  1  0.573606  0.764148  0.947221  1
  H  H48  1  0.573606  0.735852  0.447221  1
  H  H49  1  0.426394  0.235852  0.052779  1
  H  H50  1  0.724565  0.398753  0.887551  1
  H  H51  1  0.275435  0.898753  0.612449  1
  H  H52  1  0.275435  0.601247  0.112449  1
  H  H53  1  0.724565  0.101247  0.387551  1
  H  H54  1  0.547051  0.307585  0.873595  1
  H  H55  1  0.452949  0.807585  0.626405  1
  H  H56  1  0.452949  0.692415  0.126405  1
  H  H57  1  0.547051  0.192415  0.373595  1
  O  O58  1  0.574849  0.057968  0.875192  1
  O  O59  1  0.425151  0.557968  0.624808  1
  O  O60  1  0.425151  0.942032  0.124808  1
  O  O61  1  0.574849  0.442032  0.375192  1
  O  O62  1  0.804969  0.132906  0.002642  1
  O  O63  1  0.195031  0.632906  0.497358  1
  O  O64  1  0.195031  0.867094  0.997358  1
  O  O65  1  0.804969  0.367094  0.502642  1
  O  O66  1  0.236628  0.445320  0.964762  1
  O  O67  1  0.763372  0.945320  0.535238  1
  O  O68  1  0.763372  0.554680  0.035238  1
  O  O69  1  0.236628  0.054680  0.464762  1
  O  O70  1  0.980695  0.368531  0.114276  1
  O  O71  1  0.019305  0.868531  0.385724  1
  O  O72  1  0.019305  0.631469  0.885724  1
  O  O73  1  0.980695  0.131469  0.614276  1
  O  O74  1  0.949531  0.360601  0.889174  1
  O  O75  1  0.050469  0.860601  0.610826  1
  O  O76  1  0.050469  0.639399  0.110826  1
  O  O77  1  0.949531  0.139399  0.389174  1
  O  O78  1  0.245053  0.131295  0.029829  1
  O  O79  1  0.754947  0.631295  0.470171  1
  O  O80  1  0.754947  0.868705  0.970171  1
  O  O81  1  0.245053  0.368705  0.529829  1
  O  O82  1  0.189570  0.458976  0.795884  1
  O  O83  1  0.810430  0.958976  0.704116  1
  O  O84  1  0.810430  0.541024  0.204116  1
  O  O85  1  0.189570  0.041024  0.295884  1
  O  O86  1  0.916000  0.029817  0.865399  1
  O  O87  1  0.084000  0.529817  0.634601  1
  O  O88  1  0.084000  0.970183  0.134601  1
  O  O89  1  0.916000  0.470183  0.365399  1
  O  O90  1  0.251997  0.321618  0.251410  1
  O  O91  1  0.748003  0.821618  0.248590  1
  O  O92  1  0.748003  0.678382  0.748590  1
  O  O93  1  0.251997  0.178382  0.751410  1
  O  O94  1  0.785390  0.303679  0.719598  1
  O  O95  1  0.214610  0.803679  0.780402  1
  O  O96  1  0.214610  0.696321  0.280402  1
  O  O97  1  0.785390  0.196321  0.219598  1
  O  O98  1  0.536192  0.298510  0.065767  1
  O  O99  1  0.463808  0.798510  0.434233  1
  O  O100  1  0.463808  0.701490  0.934233  1
  O  O101  1  0.536192  0.201490  0.565767  1
  O  O102  1  0.589442  0.407939  0.879962  1
  O  O103  1  0.410558  0.907939  0.620038  1
  O  O104  1  0.410558  0.592061  0.120038  1
  O  O105  1  0.589442  0.092061  0.379962  1
