# generated using pymatgen
data_Li4V3Cr3(CuO8)2
_symmetry_space_group_name_H-M   'P 1'
_cell_length_a   5.83872497
_cell_length_b   5.89897128
_cell_length_c   9.75097164
_cell_angle_alpha   86.73981279
_cell_angle_beta   90.61733917
_cell_angle_gamma   120.27603459
_symmetry_Int_Tables_number   1
_chemical_formula_structural   Li4V3Cr3(CuO8)2
_chemical_formula_sum   'Li4 V3 Cr3 Cu2 O16'
_cell_volume   289.50833328
_cell_formula_units_Z   1
loop_
 _symmetry_equiv_pos_site_id
 _symmetry_equiv_pos_as_xyz
  1  'x, y, z'
loop_
 _atom_site_type_symbol
 _atom_site_label
 _atom_site_symmetry_multiplicity
 _atom_site_fract_x
 _atom_site_fract_y
 _atom_site_fract_z
 _atom_site_occupancy
  Li  Li0  1  0.339334  0.656159  0.902417  1
  Li  Li1  1  0.015415  0.033396  0.995319  1
  Li  Li2  1  0.990881  0.015104  0.492579  1
  Li  Li3  1  0.677173  0.323817  0.394584  1
  V  V4  1  0.850951  0.641591  0.726776  1
  V  V5  1  0.674690  0.814599  0.210551  1
  V  V6  1  0.788804  0.117109  0.702777  1
  Cr  Cr7  1  0.192246  0.848106  0.217463  1
  Cr  Cr8  1  0.172784  0.344125  0.213026  1
  Cr  Cr9  1  0.329000  0.179310  0.712958  1
  Cu  Cu10  1  0.311770  0.662811  0.483473  1
  Cu  Cu11  1  0.661863  0.333415  0.000741  1
  O  O12  1  0.137768  0.842474  0.607846  1
  O  O13  1  0.041959  0.514653  0.332839  1
  O  O14  1  0.362551  0.693716  0.105587  1
  O  O15  1  0.996126  0.991435  0.312164  1
  O  O16  1  0.975720  0.985380  0.811430  1
  O  O17  1  0.128455  0.322050  0.605201  1
  O  O18  1  0.500501  0.956708  0.338995  1
  O  O19  1  0.504038  0.518636  0.326176  1
  O  O20  1  0.327358  0.175925  0.101662  1
  O  O21  1  0.660462  0.843670  0.603482  1
  O  O22  1  0.517241  0.478866  0.831529  1
  O  O23  1  0.517526  0.017746  0.819961  1
  O  O24  1  0.676913  0.345981  0.608276  1
  O  O25  1  0.847183  0.703715  0.105621  1
  O  O26  1  0.967609  0.479445  0.838057  1
  O  O27  1  0.833680  0.160357  0.106352  1
