# generated using pymatgen
data_Zn2As2O7
_symmetry_space_group_name_H-M   'P 1'
_cell_length_a   9.75856273
_cell_length_b   11.15925080
_cell_length_c   11.15925080
_cell_angle_alpha   45.23907714
_cell_angle_beta   98.91906083
_cell_angle_gamma   98.91906083
_symmetry_Int_Tables_number   1
_chemical_formula_structural   Zn2As2O7
_chemical_formula_sum   'Zn12 As12 O42'
_cell_volume   850.61250724
_cell_formula_units_Z   6
loop_
 _symmetry_equiv_pos_site_id
 _symmetry_equiv_pos_as_xyz
  1  'x, y, z'
loop_
 _atom_site_type_symbol
 _atom_site_label
 _atom_site_symmetry_multiplicity
 _atom_site_fract_x
 _atom_site_fract_y
 _atom_site_fract_z
 _atom_site_occupancy
  Zn  Zn0  1  0.038097  0.829503  0.201656  1
  Zn  Zn1  1  0.163398  0.846722  0.479595  1
  Zn  Zn2  1  0.208149  0.497000  0.872986  1
  Zn  Zn3  1  0.291851  0.127014  0.503000  1
  Zn  Zn4  1  0.336602  0.520405  0.153278  1
  Zn  Zn5  1  0.461903  0.798344  0.170497  1
  Zn  Zn6  1  0.538097  0.201656  0.829503  1
  Zn  Zn7  1  0.663398  0.479595  0.846722  1
  Zn  Zn8  1  0.708149  0.872986  0.497000  1
  Zn  Zn9  1  0.791851  0.503000  0.127014  1
  Zn  Zn10  1  0.836602  0.153278  0.520405  1
  Zn  Zn11  1  0.961903  0.170497  0.798344  1
  As  As12  1  0.185227  0.895661  0.904252  1
  As  As13  1  0.040247  0.259899  0.222685  1
  As  As14  1  0.134047  0.413932  0.450392  1
  As  As15  1  0.365953  0.549608  0.586068  1
  As  As16  1  0.459753  0.777315  0.740101  1
  As  As17  1  0.314773  0.095748  0.104339  1
  As  As18  1  0.685227  0.904252  0.895661  1
  As  As19  1  0.540247  0.222685  0.259899  1
  As  As20  1  0.634047  0.450392  0.413932  1
  As  As21  1  0.865953  0.586068  0.549608  1
  As  As22  1  0.959753  0.740101  0.777315  1
  As  As23  1  0.814773  0.104339  0.095748  1
  O  O24  1  0.100099  0.975130  0.957731  1
  O  O25  1  0.047818  0.766854  0.908488  1
  O  O26  1  0.076756  0.695960  0.715094  1
  O  O27  1  0.015848  0.247689  0.581255  1
  O  O28  1  0.062429  0.601080  0.295675  1
  O  O29  1  0.203751  0.931768  0.253239  1
  O  O30  1  0.233809  0.275976  0.957277  1
  O  O31  1  0.124162  0.081385  0.392525  1
  O  O32  1  0.267970  0.624912  0.634370  1
  O  O33  1  0.152723  0.428093  0.084611  1
  O  O34  1  0.250000  0.398825  0.601175  1
  O  O35  1  0.347277  0.915389  0.571907  1
  O  O36  1  0.232030  0.365630  0.375088  1
  O  O37  1  0.375838  0.607475  0.918615  1
  O  O38  1  0.266191  0.042723  0.724024  1
  O  O39  1  0.296249  0.746761  0.068232  1
  O  O40  1  0.437571  0.704325  0.398920  1
  O  O41  1  0.600099  0.957731  0.975130  1
  O  O42  1  0.547818  0.908488  0.766854  1
  O  O43  1  0.484152  0.418745  0.752311  1
  O  O44  1  0.576756  0.715094  0.695960  1
  O  O45  1  0.423244  0.284906  0.304040  1
  O  O46  1  0.515848  0.581255  0.247689  1
  O  O47  1  0.452182  0.091512  0.233146  1
  O  O48  1  0.399901  0.042269  0.024870  1
  O  O49  1  0.562429  0.295675  0.601080  1
  O  O50  1  0.703751  0.253239  0.931768  1
  O  O51  1  0.733809  0.957277  0.275976  1
  O  O52  1  0.624162  0.392525  0.081385  1
  O  O53  1  0.767970  0.634370  0.624912  1
  O  O54  1  0.652723  0.084611  0.428093  1
  O  O55  1  0.750000  0.601175  0.398825  1
  O  O56  1  0.847277  0.571907  0.915389  1
  O  O57  1  0.732030  0.375088  0.365630  1
  O  O58  1  0.875838  0.918615  0.607475  1
  O  O59  1  0.766191  0.724024  0.042723  1
  O  O60  1  0.796249  0.068232  0.746761  1
  O  O61  1  0.937571  0.398920  0.704325  1
  O  O62  1  0.984152  0.752311  0.418745  1
  O  O63  1  0.923244  0.304040  0.284906  1
  O  O64  1  0.952182  0.233146  0.091512  1
  O  O65  1  0.899901  0.024870  0.042269  1
