# generated using pymatgen
data_Li15Ti11Nb5O42
_symmetry_space_group_name_H-M   'P 1'
_cell_length_a   5.13792983
_cell_length_b   5.13793073
_cell_length_c   33.16918408
_cell_angle_alpha   89.99998925
_cell_angle_beta   89.99989410
_cell_angle_gamma   120.00003749
_symmetry_Int_Tables_number   1
_chemical_formula_structural   Li15Ti11Nb5O42
_chemical_formula_sum   'Li15 Ti11 Nb5 O42'
_cell_volume   758.30107166
_cell_formula_units_Z   1
loop_
 _symmetry_equiv_pos_site_id
 _symmetry_equiv_pos_as_xyz
  1  'x, y, z'
loop_
 _atom_site_type_symbol
 _atom_site_label
 _atom_site_symmetry_multiplicity
 _atom_site_fract_x
 _atom_site_fract_y
 _atom_site_fract_z
 _atom_site_occupancy
  Li  Li0  1  0.333327  0.666681  0.199006  1
  Li  Li1  1  0.999994  0.999997  0.053784  1
  Li  Li2  1  0.000006  0.000002  0.260851  1
  Li  Li3  1  1.000000  0.000000  0.446127  1
  Li  Li4  1  0.999999  0.999996  0.553488  1
  Li  Li5  1  0.000001  0.000003  0.719544  1
  Li  Li6  1  0.000000  0.999999  0.780455  1
  Li  Li7  1  0.999995  0.999996  0.946457  1
  Li  Li8  1  0.333355  0.666675  0.871286  1
  Li  Li9  1  0.333358  0.666680  0.372391  1
  Li  Li10  1  0.333355  0.666675  0.698565  1
  Li  Li11  1  0.666640  0.333318  0.303061  1
  Li  Li12  1  0.666642  0.333319  0.801417  1
  Li  Li13  1  0.666638  0.333317  0.628682  1
  Li  Li14  1  0.666672  0.333315  0.126897  1
  Ti  Ti15  1  0.333334  0.666663  0.080654  1
  Ti  Ti16  1  0.333330  0.666665  0.989936  1
  Ti  Ti17  1  0.333336  0.666667  0.489870  1
  Ti  Ti18  1  0.333324  0.666660  0.580349  1
  Ti  Ti19  1  0.333339  0.666657  0.286080  1
  Ti  Ti20  1  0.333321  0.666653  0.783136  1
  Ti  Ti21  1  0.666659  0.333328  0.716938  1
  Ti  Ti22  1  0.666664  0.333327  0.510080  1
  Ti  Ti23  1  0.666671  0.333335  0.419256  1
  Ti  Ti24  1  0.666664  0.333333  0.010153  1
  Ti  Ti25  1  0.666667  0.333328  0.919737  1
  Nb  Nb26  1  0.000006  0.999991  0.145546  1
  Nb  Nb27  1  0.000009  0.000005  0.354206  1
  Nb  Nb28  1  0.999992  0.999992  0.643932  1
  Nb  Nb29  1  0.999995  0.999995  0.856078  1
  Nb  Nb30  1  0.666688  0.333346  0.216618  1
  O  O31  1  0.004321  0.624765  0.250396  1
  O  O32  1  0.036414  0.707060  0.107349  1
  O  O33  1  0.048811  0.714438  0.819999  1
  O  O34  1  0.021745  0.632686  0.534437  1
  O  O35  1  0.999896  0.362517  0.749989  1
  O  O36  1  0.296219  0.965383  0.607103  1
  O  O37  1  0.293010  0.954831  0.320175  1
  O  O38  1  0.021787  0.389178  0.034490  1
  O  O39  1  0.034612  0.330840  0.607105  1
  O  O40  1  0.045158  0.338169  0.320174  1
  O  O41  1  0.367389  0.978211  0.034490  1
  O  O42  1  0.610947  0.978254  0.534437  1
  O  O43  1  0.285566  0.334377  0.819999  1
  O  O44  1  0.292927  0.329351  0.107348  1
  O  O45  1  0.367313  0.389050  0.534437  1
  O  O46  1  0.665617  0.951189  0.820000  1
  O  O47  1  0.670637  0.963570  0.107347  1
  O  O48  1  0.375253  0.379559  0.250399  1
  O  O49  1  0.329862  0.293141  0.392240  1
  O  O50  1  0.334292  0.285604  0.680001  1
  O  O51  1  0.388991  0.367149  0.965542  1
  O  O52  1  0.610819  0.632605  0.034491  1
  O  O53  1  0.661817  0.706985  0.320176  1
  O  O54  1  0.669158  0.703772  0.607103  1
  O  O55  1  0.637486  0.637381  0.749989  1
  O  O56  1  0.330803  0.034681  0.892922  1
  O  O57  1  0.339234  0.038843  0.178474  1
  O  O58  1  0.632606  0.610753  0.465420  1
  O  O59  1  0.703878  0.669202  0.892924  1
  O  O60  1  0.362633  0.000120  0.749990  1
  O  O61  1  0.699594  0.660766  0.178475  1
  O  O62  1  0.389249  0.021852  0.465420  1
  O  O63  1  0.632846  0.021842  0.965541  1
  O  O64  1  0.951317  0.665712  0.680003  1
  O  O65  1  0.620453  0.995696  0.250398  1
  O  O66  1  0.963277  0.670133  0.392240  1
  O  O67  1  0.978158  0.611004  0.965541  1
  O  O68  1  0.714390  0.048689  0.680002  1
  O  O69  1  0.706858  0.036725  0.392240  1
  O  O70  1  0.978149  0.367398  0.465420  1
  O  O71  1  0.961165  0.300411  0.178474  1
  O  O72  1  0.965325  0.296128  0.892922  1
