# generated using pymatgen
data_Li2Cu(PO3)3
_symmetry_space_group_name_H-M   'P 1'
_cell_length_a   8.44726354
_cell_length_b   8.78795732
_cell_length_c   9.44362156
_cell_angle_alpha   90.00058914
_cell_angle_beta   90.00017340
_cell_angle_gamma   89.99999149
_symmetry_Int_Tables_number   1
_chemical_formula_structural   Li2Cu(PO3)3
_chemical_formula_sum   'Li8 Cu4 P12 O36'
_cell_volume   701.03961094
_cell_formula_units_Z   4
loop_
 _symmetry_equiv_pos_site_id
 _symmetry_equiv_pos_as_xyz
  1  'x, y, z'
loop_
 _atom_site_type_symbol
 _atom_site_label
 _atom_site_symmetry_multiplicity
 _atom_site_fract_x
 _atom_site_fract_y
 _atom_site_fract_z
 _atom_site_occupancy
  Li  Li0  1  0.952497  0.529021  0.068634  1
  Li  Li1  1  0.835630  0.131026  0.632040  1
  Li  Li2  1  0.664371  0.868970  0.132041  1
  Li  Li3  1  0.547511  0.470970  0.568636  1
  Li  Li4  1  0.452494  0.970975  0.931368  1
  Li  Li5  1  0.335630  0.368974  0.367959  1
  Li  Li6  1  0.164370  0.631029  0.867959  1
  Li  Li7  1  0.047511  0.029028  0.431363  1
  Cu  Cu8  1  0.872430  0.861756  0.840873  1
  Cu  Cu9  1  0.627564  0.138234  0.340877  1
  Cu  Cu10  1  0.372435  0.638240  0.159124  1
  Cu  Cu11  1  0.127565  0.361761  0.659130  1
  P  P12  1  0.976238  0.318521  0.315291  1
  P  P13  1  0.815106  0.475149  0.808900  1
  P  P14  1  0.795214  0.810469  0.429133  1
  P  P15  1  0.704788  0.189531  0.929126  1
  P  P16  1  0.684895  0.524849  0.308905  1
  P  P17  1  0.523764  0.681477  0.815292  1
  P  P18  1  0.476236  0.181477  0.684710  1
  P  P19  1  0.315109  0.024855  0.191101  1
  P  P20  1  0.295216  0.689531  0.570865  1
  P  P21  1  0.204786  0.310469  0.070869  1
  P  P22  1  0.184895  0.975151  0.691093  1
  P  P23  1  0.023763  0.818524  0.184709  1
  O  O24  1  0.963568  0.779919  0.343799  1
  O  O25  1  0.913245  0.598607  0.876660  1
  O  O26  1  0.893182  0.878529  0.094606  1
  O  O27  1  0.869523  0.386001  0.682477  1
  O  O28  1  0.883818  0.184225  0.371754  1
  O  O29  1  0.856471  0.455228  0.263373  1
  O  O30  1  0.843093  0.866839  0.571876  1
  O  O31  1  0.814598  0.100506  0.836462  1
  O  O32  1  0.768075  0.365175  0.941647  1
  O  O33  1  0.731928  0.634824  0.441651  1
  O  O34  1  0.685399  0.899497  0.336460  1
  O  O35  1  0.656903  0.133160  0.071881  1
  O  O36  1  0.643529  0.544770  0.763368  1
  O  O37  1  0.616182  0.815774  0.871755  1
  O  O38  1  0.630476  0.613992  0.182486  1
  O  O39  1  0.606819  0.121475  0.594607  1
  O  O40  1  0.586757  0.401387  0.376666  1
  O  O41  1  0.536429  0.220083  0.843801  1
  O  O42  1  0.463568  0.720082  0.656202  1
  O  O43  1  0.413246  0.901390  0.123343  1
  O  O44  1  0.393182  0.621471  0.905393  1
  O  O45  1  0.369528  0.114008  0.317517  1
  O  O46  1  0.383816  0.315774  0.628246  1
  O  O47  1  0.356471  0.044770  0.736629  1
  O  O48  1  0.343098  0.633159  0.428124  1
  O  O49  1  0.314600  0.399498  0.163541  1
  O  O50  1  0.268075  0.134826  0.058352  1
  O  O51  1  0.231929  0.865175  0.558346  1
  O  O52  1  0.185397  0.600504  0.663539  1
  O  O53  1  0.156902  0.366840  0.928125  1
  O  O54  1  0.143531  0.955232  0.236632  1
  O  O55  1  0.116182  0.684226  0.128247  1
  O  O56  1  0.130476  0.886007  0.817512  1
  O  O57  1  0.106820  0.378526  0.405394  1
  O  O58  1  0.086758  0.098613  0.623332  1
  O  O59  1  0.036430  0.279917  0.156201  1
