# generated using pymatgen
data_Eu2Al4O9
_symmetry_space_group_name_H-M   'P 1'
_cell_length_a   7.53177229
_cell_length_b   8.43920268
_cell_length_c   5.75232775
_cell_angle_alpha   89.99926823
_cell_angle_beta   90.00020188
_cell_angle_gamma   90.01175109
_symmetry_Int_Tables_number   1
_chemical_formula_structural   Eu2Al4O9
_chemical_formula_sum   'Eu4 Al8 O18'
_cell_volume   365.63032841
_cell_formula_units_Z   2
loop_
 _symmetry_equiv_pos_site_id
 _symmetry_equiv_pos_as_xyz
  1  'x, y, z'
loop_
 _atom_site_type_symbol
 _atom_site_label
 _atom_site_symmetry_multiplicity
 _atom_site_fract_x
 _atom_site_fract_y
 _atom_site_fract_z
 _atom_site_occupancy
  Eu  Eu0  1  0.156561  0.184135  0.999998  1
  Eu  Eu1  1  0.343692  0.683913  0.000001  1
  Eu  Eu2  1  0.656704  0.315908  0.999999  1
  Eu  Eu3  1  0.843261  0.815831  0.999990  1
  Al  Al4  1  0.000194  0.500132  0.256585  1
  Al  Al5  1  0.000195  0.500132  0.743417  1
  Al  Al6  1  0.138220  0.835727  0.500001  1
  Al  Al7  1  0.361683  0.335919  0.500001  1
  Al  Al8  1  0.499848  0.999815  0.256371  1
  Al  Al9  1  0.499847  0.999820  0.743633  1
  Al  Al10  1  0.638367  0.664192  0.499999  1
  Al  Al11  1  0.861660  0.164109  0.500000  1
  O  O12  1  0.000020  0.000051  0.500000  1
  O  O13  1  0.099609  0.716935  0.751490  1
  O  O14  1  0.099611  0.716938  0.248513  1
  O  O15  1  0.148631  0.426869  0.500002  1
  O  O16  1  0.158392  0.451137  0.000001  1
  O  O17  1  0.341442  0.951427  -0.000000  1
  O  O18  1  0.351392  0.926967  0.500002  1
  O  O19  1  0.400383  0.216928  0.248516  1
  O  O20  1  0.400380  0.216926  0.751486  1
  O  O21  1  0.500000  0.500015  0.500000  1
  O  O22  1  0.599671  0.783080  0.248509  1
  O  O23  1  0.599676  0.783080  0.751495  1
  O  O24  1  0.648576  0.073109  0.499999  1
  O  O25  1  0.658858  0.048870  0.999996  1
  O  O26  1  0.841132  0.548836  0.999993  1
  O  O27  1  0.851333  0.572997  0.500001  1
  O  O28  1  0.900330  0.283104  0.248451  1
  O  O29  1  0.900332  0.283098  0.751550  1
