# generated using pymatgen
data_Li24Ti5Cr7O36
_symmetry_space_group_name_H-M   'P 1'
_cell_length_a   5.04865391
_cell_length_b   5.06063706
_cell_length_c   29.34848550
_cell_angle_alpha   85.05891891
_cell_angle_beta   94.65865896
_cell_angle_gamma   60.06997344
_symmetry_Int_Tables_number   1
_chemical_formula_structural   Li24Ti5Cr7O36
_chemical_formula_sum   'Li24 Ti5 Cr7 O36'
_cell_volume   640.68721705
_cell_formula_units_Z   1
loop_
 _symmetry_equiv_pos_site_id
 _symmetry_equiv_pos_as_xyz
  1  'x, y, z'
loop_
 _atom_site_type_symbol
 _atom_site_label
 _atom_site_symmetry_multiplicity
 _atom_site_fract_x
 _atom_site_fract_y
 _atom_site_fract_z
 _atom_site_occupancy
  Li  Li0  1  0.005458  0.502852  0.666739  1
  Li  Li1  1  0.249508  0.251853  0.916587  1
  Li  Li2  1  0.163466  0.657684  0.833453  1
  Li  Li3  1  0.000244  0.503005  0.333317  1
  Li  Li4  1  0.247169  0.250951  0.583372  1
  Li  Li5  1  0.505341  0.002218  0.833235  1
  Li  Li6  1  0.154685  0.661979  0.500078  1
  Li  Li7  1  0.002953  0.500335  0.999849  1
  Li  Li8  1  0.253458  0.248008  0.249993  1
  Li  Li9  1  0.507108  0.003690  0.500072  1
  Li  Li10  1  0.340642  0.835177  0.999710  1
  Li  Li11  1  0.170534  0.654040  0.166849  1
  Li  Li12  1  0.499970  0.000179  0.166654  1
  Li  Li13  1  0.660335  0.158920  0.666881  1
  Li  Li14  1  0.335239  0.839600  0.666572  1
  Li  Li15  1  0.653899  0.164298  0.333241  1
  Li  Li16  1  0.345532  0.833783  0.333321  1
  Li  Li17  1  0.831383  0.343930  0.833275  1
  Li  Li18  1  0.656169  0.163543  0.999820  1
  Li  Li19  1  0.749266  0.749886  0.750044  1
  Li  Li20  1  0.840683  0.334811  0.500061  1
  Li  Li21  1  0.751112  0.752212  0.416706  1
  Li  Li22  1  0.829500  0.345602  0.166429  1
  Li  Li23  1  0.746133  0.752176  0.083244  1
  Ti  Ti24  1  0.083199  0.085395  0.750060  1
  Ti  Ti25  1  0.081594  0.079879  0.416537  1
  Ti  Ti26  1  0.086603  0.080412  0.083602  1
  Ti  Ti27  1  0.587342  0.580461  0.583575  1
  Ti  Ti28  1  0.913347  0.919765  0.249801  1
  Cr  Cr29  1  0.419538  0.417003  0.750082  1
  Cr  Cr30  1  0.418586  0.419329  0.416842  1
  Cr  Cr31  1  0.580763  0.588859  0.916533  1
  Cr  Cr32  1  0.413548  0.419273  0.082837  1
  Cr  Cr33  1  0.586315  0.580892  0.250289  1
  Cr  Cr34  1  0.920114  0.916617  0.916736  1
  Cr  Cr35  1  0.914509  0.919034  0.583225  1
  O  O36  1  0.144634  0.355598  0.788858  1
  O  O37  1  0.357704  0.148543  0.711844  1
  O  O38  1  0.147967  0.356312  0.454643  1
  O  O39  1  0.283585  0.570570  0.954269  1
  O  O40  1  0.071349  0.782714  0.712936  1
  O  O41  1  0.356780  0.148003  0.378623  1
  O  O42  1  0.216482  0.923469  0.879200  1
  O  O43  1  0.150074  0.357669  0.121330  1
  O  O44  1  0.280879  0.572980  0.620562  1
  O  O45  1  0.066204  0.790951  0.378498  1
  O  O46  1  0.571282  0.290670  0.879446  1
  O  O47  1  0.432412  0.707768  0.787661  1
  O  O48  1  0.353920  0.141796  0.044028  1
  O  O49  1  0.208327  0.931675  0.545919  1
  O  O50  1  0.291463  0.568068  0.287300  1
  O  O51  1  0.781641  0.072204  0.787709  1
  O  O52  1  0.074307  0.777131  0.045698  1
  O  O53  1  0.575071  0.277102  0.546053  1
  O  O54  1  0.433530  0.703441  0.454403  1
  O  O55  1  0.924764  0.209884  0.953921  1
  O  O56  1  0.218484  0.927240  0.212713  1
  O  O57  1  0.712278  0.430517  0.712310  1
  O  O58  1  0.790434  0.065373  0.454759  1
  O  O59  1  0.647549  0.846069  0.954635  1
  O  O60  1  0.568466  0.284002  0.212054  1
  O  O61  1  0.431109  0.716002  0.121097  1
  O  O62  1  0.930887  0.215175  0.621545  1
  O  O63  1  0.704075  0.433585  0.379197  1
  O  O64  1  0.855631  0.651609  0.878354  1
  O  O65  1  0.781256  0.072914  0.120512  1
  O  O66  1  0.650034  0.857548  0.621623  1
  O  O67  1  0.924211  0.223070  0.287581  1
  O  O68  1  0.707658  0.431395  0.045774  1
  O  O69  1  0.855375  0.641155  0.544512  1
  O  O70  1  0.644862  0.858220  0.288941  1
  O  O71  1  0.850066  0.641928  0.211872  1
