# generated using pymatgen
data_Ga2NiO4
_symmetry_space_group_name_H-M   'P 1'
_cell_length_a   5.93513026
_cell_length_b   5.93513026
_cell_length_c   5.92213507
_cell_angle_alpha   60.07240282
_cell_angle_beta   90.00000000
_cell_angle_gamma   120.14480565
_symmetry_Int_Tables_number   1
_chemical_formula_structural   Ga2NiO4
_chemical_formula_sum   'Ga4 Ni2 O8'
_cell_volume   147.34869297
_cell_formula_units_Z   2
loop_
 _symmetry_equiv_pos_site_id
 _symmetry_equiv_pos_as_xyz
  1  'x, y, z'
loop_
 _atom_site_type_symbol
 _atom_site_label
 _atom_site_symmetry_multiplicity
 _atom_site_fract_x
 _atom_site_fract_y
 _atom_site_fract_z
 _atom_site_occupancy
  Ga  Ga0  1  0.627354  0.255345  0.117302  1
  Ga  Ga1  1  0.627354  0.255345  0.627354  1
  Ga  Ga2  1  0.245837  0.508327  0.245837  1
  Ga  Ga3  1  0.117302  0.745292  0.627354  1
  Ni  Ni4  1  0.002096  0.995807  0.002096  1
  Ni  Ni5  1  0.626794  0.746412  0.626794  1
  O  O6  1  0.852159  0.242546  0.378727  1
  O  O7  1  0.380205  0.239590  0.380205  1
  O  O8  1  0.870973  0.722453  0.406574  1
  O  O9  1  0.864924  0.270152  0.864924  1
  O  O10  1  0.870973  0.722453  0.870973  1
  O  O11  1  0.406574  0.258053  0.870973  1
  O  O12  1  0.378727  0.769114  0.378727  1
  O  O13  1  0.378727  0.769114  0.852159  1
