# generated using pymatgen
data_Li3V(PO4)2
_symmetry_space_group_name_H-M   'P 1'
_cell_length_a   8.62654717
_cell_length_b   5.36663127
_cell_length_c   7.00150567
_cell_angle_alpha   90.00000000
_cell_angle_beta   97.07510805
_cell_angle_gamma   90.00000000
_symmetry_Int_Tables_number   1
_chemical_formula_structural   Li3V(PO4)2
_chemical_formula_sum   'Li6 V2 P4 O16'
_cell_volume   321.67005384
_cell_formula_units_Z   2
loop_
 _symmetry_equiv_pos_site_id
 _symmetry_equiv_pos_as_xyz
  1  'x, y, z'
loop_
 _atom_site_type_symbol
 _atom_site_label
 _atom_site_symmetry_multiplicity
 _atom_site_fract_x
 _atom_site_fract_y
 _atom_site_fract_z
 _atom_site_occupancy
  Li  Li0  1  0.972331  0.750000  0.348383  1
  Li  Li1  1  0.317873  0.250000  0.409918  1
  Li  Li2  1  0.341477  0.750000  0.713737  1
  Li  Li3  1  0.658523  0.250000  0.286263  1
  Li  Li4  1  0.682127  0.750000  0.590082  1
  Li  Li5  1  0.027669  0.250000  0.651617  1
  V  V6  1  0.250394  0.250000  0.974727  1
  V  V7  1  0.749606  0.750000  0.025273  1
  P  P8  1  0.047513  0.750000  0.783513  1
  P  P9  1  0.410436  0.750000  0.256388  1
  P  P10  1  0.589564  0.250000  0.743612  1
  P  P11  1  0.952487  0.250000  0.216487  1
  O  O12  1  0.969903  0.750000  0.967787  1
  O  O13  1  0.073711  0.250000  0.395725  1
  O  O14  1  0.160970  0.521968  0.774228  1
  O  O15  1  0.160970  0.978032  0.774228  1
  O  O16  1  0.324938  0.506873  0.180229  1
  O  O17  1  0.324938  0.993127  0.180229  1
  O  O18  1  0.424006  0.750000  0.477029  1
  O  O19  1  0.425669  0.250000  0.811889  1
  O  O20  1  0.574331  0.750000  0.188111  1
  O  O21  1  0.575994  0.250000  0.522971  1
  O  O22  1  0.675062  0.006873  0.819771  1
  O  O23  1  0.675062  0.493127  0.819771  1
  O  O24  1  0.839030  0.021968  0.225772  1
  O  O25  1  0.839030  0.478032  0.225772  1
  O  O26  1  0.926289  0.750000  0.604275  1
  O  O27  1  0.030097  0.250000  0.032213  1
