# generated using pymatgen
data_LiCoOF2
_symmetry_space_group_name_H-M   'P 1'
_cell_length_a   5.09979905
_cell_length_b   8.89102541
_cell_length_c   9.44460967
_cell_angle_alpha   93.09907180
_cell_angle_beta   90.00000000
_cell_angle_gamma   90.00000000
_symmetry_Int_Tables_number   1
_chemical_formula_structural   LiCoOF2
_chemical_formula_sum   'Li8 Co8 O8 F16'
_cell_volume   427.61539136
_cell_formula_units_Z   8
loop_
 _symmetry_equiv_pos_site_id
 _symmetry_equiv_pos_as_xyz
  1  'x, y, z'
loop_
 _atom_site_type_symbol
 _atom_site_label
 _atom_site_symmetry_multiplicity
 _atom_site_fract_x
 _atom_site_fract_y
 _atom_site_fract_z
 _atom_site_occupancy
  Li  Li0  1  0.180298  0.165579  0.996664  1
  Li  Li1  1  0.160360  0.829526  0.797605  1
  Li  Li2  1  0.339640  0.329526  0.297605  1
  Li  Li3  1  0.319702  0.665579  0.496664  1
  Li  Li4  1  0.674507  0.356452  0.992069  1
  Li  Li5  1  0.664972  0.661376  0.795081  1
  Li  Li6  1  0.835028  0.161376  0.295081  1
  Li  Li7  1  0.825493  0.856452  0.492069  1
  Co  Co8  1  0.199345  0.469500  0.800379  1
  Co  Co9  1  0.227572  0.133256  0.587750  1
  Co  Co10  1  0.272428  0.633256  0.087750  1
  Co  Co11  1  0.300655  0.969500  0.300379  1
  Co  Co12  1  0.655063  0.016090  0.800561  1
  Co  Co13  1  0.654117  0.337303  0.566497  1
  Co  Co14  1  0.845883  0.837303  0.066497  1
  Co  Co15  1  0.844937  0.516090  0.300561  1
  O  O16  1  0.065151  0.022950  0.434009  1
  O  O17  1  0.005005  0.693113  0.953721  1
  O  O18  1  0.156524  0.825790  0.171568  1
  O  O19  1  0.138188  0.501794  0.203738  1
  O  O20  1  0.361812  0.001794  0.703738  1
  O  O21  1  0.343476  0.325790  0.671568  1
  O  O22  1  0.494995  0.193113  0.453721  1
  O  O23  1  0.434849  0.522950  0.934009  1
  F  F24  1  0.016890  0.333912  0.924660  1
  F  F25  1  0.180879  0.155160  0.194793  1
  F  F26  1  0.319121  0.655160  0.694793  1
  F  F27  1  0.483110  0.833912  0.424660  1
  F  F28  1  0.528180  0.169779  0.937581  1
  F  F29  1  0.528547  0.500037  0.427330  1
  F  F30  1  0.542598  0.842635  0.932513  1
  F  F31  1  0.646089  0.660647  0.179617  1
  F  F32  1  0.669206  0.341731  0.194417  1
  F  F33  1  0.661588  0.983369  0.198225  1
  F  F34  1  0.838412  0.483369  0.698225  1
  F  F35  1  0.830794  0.841731  0.694417  1
  F  F36  1  0.853911  0.160647  0.679617  1
  F  F37  1  0.957402  0.342635  0.432513  1
  F  F38  1  0.971453  0.000037  0.927330  1
  F  F39  1  0.971820  0.669779  0.437581  1
