# generated using pymatgen
data_Li3Mn4(BO3)4
_symmetry_space_group_name_H-M   'P 1'
_cell_length_a   9.08358288
_cell_length_b   9.12635803
_cell_length_c   11.53110446
_cell_angle_alpha   89.84625567
_cell_angle_beta   68.11350192
_cell_angle_gamma   60.13167397
_symmetry_Int_Tables_number   1
_chemical_formula_structural   Li3Mn4(BO3)4
_chemical_formula_sum   'Li9 Mn12 B12 O36'
_cell_volume   749.06033843
_cell_formula_units_Z   3
loop_
 _symmetry_equiv_pos_site_id
 _symmetry_equiv_pos_as_xyz
  1  'x, y, z'
loop_
 _atom_site_type_symbol
 _atom_site_label
 _atom_site_symmetry_multiplicity
 _atom_site_fract_x
 _atom_site_fract_y
 _atom_site_fract_z
 _atom_site_occupancy
  Li  Li0  1  0.304187  0.366217  0.172055  1
  Li  Li1  1  0.631161  0.181526  0.402196  1
  Li  Li2  1  0.680840  0.135271  0.651012  1
  Li  Li3  1  0.994017  0.000203  0.169690  1
  Li  Li4  1  0.280625  0.869879  0.417117  1
  Li  Li5  1  0.315315  0.825757  0.672694  1
  Li  Li6  1  0.678291  0.689051  0.154122  1
  Li  Li7  1  0.634400  0.687232  0.902061  1
  Li  Li8  1  0.996290  0.495670  0.678139  1
  Mn  Mn9  1  0.011100  0.164323  0.637754  1
  Mn  Mn10  1  0.006244  0.312181  0.132193  1
  Mn  Mn11  1  0.289439  0.018582  0.877438  1
  Mn  Mn12  1  0.279801  0.211008  0.383597  1
  Mn  Mn13  1  0.372993  0.468559  0.633663  1
  Mn  Mn14  1  0.369035  0.663495  0.126842  1
  Mn  Mn15  1  0.629943  0.333586  0.883694  1
  Mn  Mn16  1  0.644310  0.531609  0.387724  1
  Mn  Mn17  1  0.677612  0.804918  0.624528  1
  Mn  Mn18  1  0.675845  0.018139  0.123476  1
  Mn  Mn19  1  0.995097  0.696541  0.883867  1
  Mn  Mn20  1  0.991835  0.801672  0.378756  1
  B  B21  1  0.361271  0.149025  0.619368  1
  B  B22  1  0.020555  0.653281  0.134976  1
  B  B23  1  0.646636  0.986486  0.862499  1
  B  B24  1  0.317281  0.524491  0.374365  1
  B  B25  1  0.038727  0.806370  0.623452  1
  B  B26  1  0.686188  0.332896  0.132127  1
  B  B27  1  0.316443  0.667859  0.875101  1
  B  B28  1  0.977994  0.162187  0.367754  1
  B  B29  1  0.692504  0.480671  0.630829  1
  B  B30  1  0.358451  0.999158  0.123155  1
  B  B31  1  0.955946  0.362012  0.888170  1
  B  B32  1  0.627824  0.872893  0.369353  1
  O  O33  1  0.202142  0.057408  0.094827  1
  O  O34  1  0.108371  0.113886  0.417737  1
  O  O35  1  0.391422  0.118601  0.162434  1
  O  O36  1  0.205786  0.243910  0.591971  1
  O  O37  1  0.081647  0.488147  0.144061  1
  O  O38  1  0.076994  0.278383  0.948392  1
  O  O39  1  0.576503  0.028967  0.331895  1
  O  O40  1  0.227523  0.450529  0.356355  1
  O  O41  1  0.484169  0.203573  0.598174  1
  O  O42  1  0.077746  0.749406  0.184293  1
  O  O43  1  0.077326  0.667861  0.686477  1
  O  O44  1  0.537774  0.391971  0.096137  1
  O  O45  1  0.785063  0.164627  0.139203  1
  O  O46  1  0.599983  0.142156  0.833166  1
  O  O47  1  0.452348  0.451606  0.421207  1
  O  O48  1  0.261793  0.691467  0.344146  1
  O  O49  1  0.263837  0.555216  0.846244  1
  O  O50  1  0.903443  0.064940  0.362169  1
  O  O51  1  0.128746  0.892856  0.609027  1
  O  O52  1  0.730255  0.452040  0.162151  1
  O  O53  1  0.729594  0.320741  0.658359  1
  O  O54  1  0.543515  0.575715  0.594472  1
  O  O55  1  0.473906  0.822666  0.107271  1
  O  O56  1  0.230228  0.832127  0.857476  1
  O  O57  1  0.453562  0.605665  0.921116  1
  O  O58  1  0.921785  0.315621  0.319119  1
  O  O59  1  0.904481  0.266639  0.838629  1
  O  O60  1  0.552888  0.778935  0.354983  1
  O  O61  1  0.793236  0.549121  0.637469  1
  O  O62  1  0.390320  0.999445  0.665437  1
  O  O63  1  0.894504  0.743176  0.080437  1
  O  O64  1  0.900252  0.528198  0.873334  1
  O  O65  1  0.759265  0.807376  0.421400  1
  O  O66  1  0.583153  0.888815  0.829527  1
  O  O67  1  0.907134  0.849207  0.572036  1
  O  O68  1  0.763083  0.918342  0.926090  1
