# generated using pymatgen
data_FeOF
_symmetry_space_group_name_H-M   'P 1'
_cell_length_a   9.47954670
_cell_length_b   14.21318890
_cell_length_c   3.10702455
_cell_angle_alpha   90.00000000
_cell_angle_beta   90.00000000
_cell_angle_gamma   90.28482207
_symmetry_Int_Tables_number   1
_chemical_formula_structural   FeOF
_chemical_formula_sum   'Fe12 O12 F12'
_cell_volume   418.61850012
_cell_formula_units_Z   12
loop_
 _symmetry_equiv_pos_site_id
 _symmetry_equiv_pos_as_xyz
  1  'x, y, z'
loop_
 _atom_site_type_symbol
 _atom_site_label
 _atom_site_symmetry_multiplicity
 _atom_site_fract_x
 _atom_site_fract_y
 _atom_site_fract_z
 _atom_site_occupancy
  Fe  Fe0  1  0.006101  0.005319  0.000000  1
  Fe  Fe1  1  0.018494  0.330651  0.000000  1
  Fe  Fe2  1  0.009832  0.673520  0.000000  1
  Fe  Fe3  1  0.229598  0.163077  0.500000  1
  Fe  Fe4  1  0.251483  0.482993  0.500000  1
  Fe  Fe5  1  0.228915  0.838281  0.500000  1
  Fe  Fe6  1  0.500559  0.341151  0.000000  1
  Fe  Fe7  1  0.518207  0.002134  0.000000  1
  Fe  Fe8  1  0.517581  0.665434  0.000000  1
  Fe  Fe9  1  0.753748  0.150723  0.500000  1
  Fe  Fe10  1  0.729759  0.496456  0.500000  1
  Fe  Fe11  1  0.724825  0.835406  0.500000  1
  O  O12  1  0.098661  0.270490  0.500000  1
  O  O13  1  0.095904  0.934258  0.500000  1
  O  O14  1  0.157936  0.101884  0.000000  1
  O  O15  1  0.149372  0.766002  0.000000  1
  O  O16  1  0.148849  0.439990  0.000000  1
  O  O17  1  0.406651  0.396495  0.500000  1
  O  O18  1  0.593696  0.937286  0.500000  1
  O  O19  1  0.596664  0.601135  0.500000  1
  O  O20  1  0.650322  0.105352  0.000000  1
  O  O21  1  0.659392  0.431640  0.000000  1
  O  O22  1  0.651994  0.768457  0.000000  1
  O  O23  1  0.904292  0.063533  0.500000  1
  F  F24  1  0.096715  0.602567  0.500000  1
  F  F25  1  0.355888  0.229805  0.000000  1
  F  F26  1  0.343069  0.569572  0.000000  1
  F  F27  1  0.347100  0.900095  0.000000  1
  F  F28  1  0.401348  0.065835  0.500000  1
  F  F29  1  0.399140  0.733254  0.500000  1
  F  F30  1  0.600514  0.267359  0.500000  1
  F  F31  1  0.847365  0.236639  0.000000  1
  F  F32  1  0.846172  0.893046  0.000000  1
  F  F33  1  0.856494  0.568634  0.000000  1
  F  F34  1  0.902722  0.401616  0.500000  1
  F  F35  1  0.900634  0.729909  0.500000  1
