# generated using pymatgen
data_Li2Co2SiO6
_symmetry_space_group_name_H-M   'P 1'
_cell_length_a   5.07399605
_cell_length_b   4.97141216
_cell_length_c   9.97265181
_cell_angle_alpha   90.00000000
_cell_angle_beta   90.00000000
_cell_angle_gamma   59.31502754
_symmetry_Int_Tables_number   1
_chemical_formula_structural   Li2Co2SiO6
_chemical_formula_sum   'Li4 Co4 Si2 O12'
_cell_volume   216.33759971
_cell_formula_units_Z   2
loop_
 _symmetry_equiv_pos_site_id
 _symmetry_equiv_pos_as_xyz
  1  'x, y, z'
loop_
 _atom_site_type_symbol
 _atom_site_label
 _atom_site_symmetry_multiplicity
 _atom_site_fract_x
 _atom_site_fract_y
 _atom_site_fract_z
 _atom_site_occupancy
  Li  Li0  1  0.123222  0.500000  0.750000  1
  Li  Li1  1  0.376778  0.500000  0.250000  1
  Li  Li2  1  0.623222  0.500000  0.750000  1
  Li  Li3  1  0.876778  0.500000  0.250000  1
  Co  Co4  1  0.664164  0.671672  0.000000  1
  Co  Co5  1  0.164164  0.671672  0.500000  1
  Co  Co6  1  0.335836  0.328328  0.000000  1
  Co  Co7  1  0.835836  0.328328  0.500000  1
  Si  Si8  1  0.500000  0.000000  0.500000  1
  Si  Si9  1  0.000000  0.000000  0.000000  1
  O  O10  1  0.518451  0.686995  0.394009  1
  O  O11  1  0.294553  0.686995  0.894009  1
  O  O12  1  0.794553  0.686995  0.605991  1
  O  O13  1  0.018451  0.686995  0.105991  1
  O  O14  1  0.705447  0.313005  0.105991  1
  O  O15  1  0.481549  0.313005  0.605991  1
  O  O16  1  0.981549  0.313005  0.894009  1
  O  O17  1  0.205447  0.313005  0.394009  1
  O  O18  1  0.301011  0.000000  0.091885  1
  O  O19  1  0.198989  0.000000  0.591885  1
  O  O20  1  0.698989  0.000000  0.908115  1
  O  O21  1  0.801011  0.000000  0.408115  1
