# generated using pymatgen
data_GaH12N3(OF2)3
_symmetry_space_group_name_H-M   'P 1'
_cell_length_a   6.58373318
_cell_length_b   7.32449411
_cell_length_c   9.96075449
_cell_angle_alpha   85.65912036
_cell_angle_beta   79.68160499
_cell_angle_gamma   69.41761783
_symmetry_Int_Tables_number   1
_chemical_formula_structural   GaH12N3(OF2)3
_chemical_formula_sum   'Ga2 H24 N6 O6 F12'
_cell_volume   442.35740704
_cell_formula_units_Z   2
loop_
 _symmetry_equiv_pos_site_id
 _symmetry_equiv_pos_as_xyz
  1  'x, y, z'
loop_
 _atom_site_type_symbol
 _atom_site_label
 _atom_site_symmetry_multiplicity
 _atom_site_fract_x
 _atom_site_fract_y
 _atom_site_fract_z
 _atom_site_occupancy
  Ga  Ga0  1  0.000000  0.000000  0.000000  1
  Ga  Ga1  1  0.500000  0.500000  0.500000  1
  H  H2  1  0.367988  0.200159  0.888888  1
  H  H3  1  0.632012  0.799841  0.111112  1
  H  H4  1  0.438896  0.394315  0.815439  1
  H  H5  1  0.561104  0.605685  0.184561  1
  H  H6  1  0.614456  0.221825  0.900713  1
  H  H7  1  0.385544  0.778175  0.099287  1
  H  H8  1  0.249589  0.541567  0.991390  1
  H  H9  1  0.750411  0.458433  0.008610  1
  H  H10  1  0.774348  0.665282  0.668020  1
  H  H11  1  0.225652  0.334718  0.331980  1
  H  H12  1  0.982747  0.726991  0.710108  1
  H  H13  1  0.017253  0.273009  0.289892  1
  H  H14  1  0.791560  0.681232  0.835153  1
  H  H15  1  0.208440  0.318768  0.164847  1
  H  H16  1  0.152778  0.426707  0.683446  1
  H  H17  1  0.847222  0.573293  0.316554  1
  H  H18  1  0.682342  0.889675  0.345101  1
  H  H19  1  0.317658  0.110325  0.654899  1
  H  H20  1  0.908740  0.955476  0.286205  1
  H  H21  1  0.091260  0.044524  0.713795  1
  H  H22  1  0.671149  0.121416  0.369279  1
  H  H23  1  0.328851  0.878584  0.630721  1
  H  H24  1  0.989974  0.810383  0.474061  1
  H  H25  1  0.010026  0.189617  0.525939  1
  N  N26  1  0.447972  0.300788  0.898691  1
  N  N27  1  0.552028  0.699212  0.101309  1
  N  N28  1  0.882573  0.645793  0.737242  1
  N  N29  1  0.117427  0.354207  0.262758  1
  N  N30  1  0.772271  0.973830  0.364739  1
  N  N31  1  0.227729  0.026170  0.635261  1
  O  O32  1  0.345112  0.403743  0.021236  1
  O  O33  1  0.654888  0.596257  0.978764  1
  O  O34  1  0.010359  0.446672  0.747895  1
  O  O35  1  0.989641  0.553328  0.252105  1
  O  O36  1  0.839097  0.913599  0.493459  1
  O  O37  1  0.160903  0.086401  0.506541  1
  F  F38  1  0.872980  0.059310  0.832952  1
  F  F39  1  0.127020  0.940690  0.167048  1
  F  F40  1  0.739909  0.959613  0.095603  1
  F  F41  1  0.260091  0.040387  0.904397  1
  F  F42  1  0.871862  0.269728  0.057435  1
  F  F43  1  0.128138  0.730272  0.942565  1
  F  F44  1  0.587587  0.683896  0.370282  1
  F  F45  1  0.412413  0.316104  0.629718  1
  F  F46  1  0.806364  0.363041  0.495465  1
  F  F47  1  0.193636  0.636959  0.504535  1
  F  F48  1  0.501308  0.348528  0.350638  1
  F  F49  1  0.498692  0.651472  0.649362  1
