# generated using pymatgen
data_Li2Mn3(BO3)3
_symmetry_space_group_name_H-M   'P 1'
_cell_length_a   16.02358927
_cell_length_b   5.26681930
_cell_length_c   5.30666996
_cell_angle_alpha   60.58632367
_cell_angle_beta   96.63629565
_cell_angle_gamma   81.04877616
_symmetry_Int_Tables_number   1
_chemical_formula_structural   Li2Mn3(BO3)3
_chemical_formula_sum   'Li4 Mn6 B6 O18'
_cell_volume   375.65385227
_cell_formula_units_Z   2
loop_
 _symmetry_equiv_pos_site_id
 _symmetry_equiv_pos_as_xyz
  1  'x, y, z'
loop_
 _atom_site_type_symbol
 _atom_site_label
 _atom_site_symmetry_multiplicity
 _atom_site_fract_x
 _atom_site_fract_y
 _atom_site_fract_z
 _atom_site_occupancy
  Li  Li0  1  0.111276  0.395436  0.432930  1
  Li  Li1  1  0.435282  0.377681  0.116042  1
  Li  Li2  1  0.564718  0.622319  0.883958  1
  Li  Li3  1  0.888724  0.604564  0.567070  1
  Mn  Mn4  1  0.084845  0.758954  0.767390  1
  Mn  Mn5  1  0.248783  0.218443  0.915661  1
  Mn  Mn6  1  0.413369  0.747081  0.434062  1
  Mn  Mn7  1  0.586631  0.252919  0.565938  1
  Mn  Mn8  1  0.751217  0.781557  0.084339  1
  Mn  Mn9  1  0.915155  0.241046  0.232610  1
  B  B10  1  0.085029  0.072770  0.109295  1
  B  B11  1  0.244346  0.921720  0.567098  1
  B  B12  1  0.417562  0.074779  0.766999  1
  B  B13  1  0.582438  0.925221  0.233001  1
  B  B14  1  0.755654  0.078280  0.432902  1
  B  B15  1  0.914971  0.927230  0.890706  1
  O  O16  1  0.116472  0.295691  0.881379  1
  O  O17  1  0.055422  0.141127  0.313587  1
  O  O18  1  0.087317  0.804318  0.133759  1
  O  O19  1  0.218723  0.680139  0.772026  1
  O  O20  1  0.234199  0.190544  0.558174  1
  O  O21  1  0.279483  0.903698  0.346337  1
  O  O22  1  0.382388  0.137863  0.968969  1
  O  O23  1  0.433269  0.787962  0.817889  1
  O  O24  1  0.443052  0.299968  0.532732  1
  O  O25  1  0.556948  0.700032  0.467268  1
  O  O26  1  0.566731  0.212038  0.182111  1
  O  O27  1  0.617612  0.862137  0.031031  1
  O  O28  1  0.720517  0.096302  0.653663  1
  O  O29  1  0.765801  0.809456  0.441826  1
  O  O30  1  0.781277  0.319861  0.227974  1
  O  O31  1  0.912683  0.195683  0.866241  1
  O  O32  1  0.944578  0.858873  0.686413  1
  O  O33  1  0.883528  0.704309  0.118621  1
