# generated using pymatgen
data_Li4Ti3Fe2Co3O16
_symmetry_space_group_name_H-M   'P 1'
_cell_length_a   5.77606681
_cell_length_b   5.83056839
_cell_length_c   9.53070013
_cell_angle_alpha   90.09252846
_cell_angle_beta   89.76961978
_cell_angle_gamma   120.57200659
_symmetry_Int_Tables_number   1
_chemical_formula_structural   Li4Ti3Fe2Co3O16
_chemical_formula_sum   'Li4 Ti3 Fe2 Co3 O16'
_cell_volume   276.35209926
_cell_formula_units_Z   1
loop_
 _symmetry_equiv_pos_site_id
 _symmetry_equiv_pos_as_xyz
  1  'x, y, z'
loop_
 _atom_site_type_symbol
 _atom_site_label
 _atom_site_symmetry_multiplicity
 _atom_site_fract_x
 _atom_site_fract_y
 _atom_site_fract_z
 _atom_site_occupancy
  Li  Li0  1  0.339821  0.667980  0.889688  1
  Li  Li1  1  0.979183  0.989570  0.994861  1
  Li  Li2  1  0.989159  0.991640  0.498080  1
  Li  Li3  1  0.672289  0.336183  0.396452  1
  Ti  Ti4  1  0.175107  0.834109  0.215685  1
  Ti  Ti5  1  0.174840  0.341088  0.215059  1
  Ti  Ti6  1  0.345652  0.173107  0.717713  1
  Fe  Fe7  1  0.332986  0.670986  0.493835  1
  Fe  Fe8  1  0.675196  0.339731  0.990177  1
  Co  Co9  1  0.656186  0.828246  0.213224  1
  Co  Co10  1  0.830401  0.660299  0.713155  1
  Co  Co11  1  0.831081  0.168326  0.712269  1
  O  O12  1  0.163563  0.839884  0.601242  1
  O  O13  1  0.036256  0.517501  0.335461  1
  O  O14  1  0.328068  0.664652  0.100509  1
  O  O15  1  0.991528  0.995400  0.310644  1
  O  O16  1  0.991468  0.996261  0.808911  1
  O  O17  1  0.155031  0.321837  0.603372  1
  O  O18  1  0.485808  0.965708  0.338291  1
  O  O19  1  0.484656  0.519510  0.339337  1
  O  O20  1  0.326925  0.163267  0.099473  1
  O  O21  1  0.677229  0.845014  0.610140  1
  O  O22  1  0.520198  0.482616  0.838094  1
  O  O23  1  0.526618  0.036386  0.835118  1
  O  O24  1  0.673160  0.335920  0.604541  1
  O  O25  1  0.836844  0.674894  0.103563  1
  O  O26  1  0.964011  0.478032  0.825912  1
  O  O27  1  0.836738  0.162150  0.103039  1
