# generated using pymatgen
data_LiCoPO4
_symmetry_space_group_name_H-M   'P 1'
_cell_length_a   9.77255178
_cell_length_b   6.17586328
_cell_length_c   4.94745130
_cell_angle_alpha   89.99995409
_cell_angle_beta   89.99929019
_cell_angle_gamma   90.00004142
_symmetry_Int_Tables_number   1
_chemical_formula_structural   LiCoPO4
_chemical_formula_sum   'Li4 Co4 P4 O16'
_cell_volume   298.59819716
_cell_formula_units_Z   4
loop_
 _symmetry_equiv_pos_site_id
 _symmetry_equiv_pos_as_xyz
  1  'x, y, z'
loop_
 _atom_site_type_symbol
 _atom_site_label
 _atom_site_symmetry_multiplicity
 _atom_site_fract_x
 _atom_site_fract_y
 _atom_site_fract_z
 _atom_site_occupancy
  Li  Li0  1  0.999997  0.000000  0.000002  1
  Li  Li1  1  0.999997  0.500000  0.000001  1
  Li  Li2  1  0.499998  0.000004  0.500001  1
  Li  Li3  1  0.499998  0.499995  0.500001  1
  Co  Co4  1  0.160835  0.750000  0.472199  1
  Co  Co5  1  0.339160  0.250000  0.972197  1
  Co  Co6  1  0.660832  0.750000  0.027807  1
  Co  Co7  1  0.839165  0.250000  0.527802  1
  P  P8  1  0.178117  0.250000  0.460781  1
  P  P9  1  0.321893  0.750002  0.960763  1
  P  P10  1  0.678108  0.250000  0.039227  1
  P  P11  1  0.821885  0.750000  0.539227  1
  O  O12  1  0.158292  0.250000  0.772175  1
  O  O13  1  0.109151  0.047323  0.335001  1
  O  O14  1  0.109151  0.452677  0.335002  1
  O  O15  1  0.165458  0.750000  0.882633  1
  O  O16  1  0.334543  0.250001  0.382633  1
  O  O17  1  0.390850  0.952673  0.835005  1
  O  O18  1  0.390850  0.547326  0.835004  1
  O  O19  1  0.341707  0.750000  0.272184  1
  O  O20  1  0.658299  0.250000  0.727819  1
  O  O21  1  0.609154  0.047331  0.164998  1
  O  O22  1  0.609154  0.452669  0.164998  1
  O  O23  1  0.665459  0.749999  0.617370  1
  O  O24  1  0.834547  0.250000  0.117364  1
  O  O25  1  0.890849  0.547327  0.664998  1
  O  O26  1  0.890848  0.952674  0.664998  1
  O  O27  1  0.841703  0.750000  0.227811  1
