# generated using pymatgen
data_Eu(Ni5P3)2
_symmetry_space_group_name_H-M   'P 1'
_cell_length_a   6.46993483
_cell_length_b   8.74014799
_cell_length_c   15.94946874
_cell_angle_alpha   90.00000000
_cell_angle_beta   90.00000000
_cell_angle_gamma   90.00000000
_symmetry_Int_Tables_number   1
_chemical_formula_structural   Eu(Ni5P3)2
_chemical_formula_sum   'Eu4 Ni40 P24'
_cell_volume   901.91355521
_cell_formula_units_Z   4
loop_
 _symmetry_equiv_pos_site_id
 _symmetry_equiv_pos_as_xyz
  1  'x, y, z'
loop_
 _atom_site_type_symbol
 _atom_site_label
 _atom_site_symmetry_multiplicity
 _atom_site_fract_x
 _atom_site_fract_y
 _atom_site_fract_z
 _atom_site_occupancy
  Eu  Eu0  1  0.750000  0.982323  0.748781  1
  Eu  Eu1  1  0.250000  0.017677  0.251219  1
  Eu  Eu2  1  0.750000  0.517677  0.248781  1
  Eu  Eu3  1  0.250000  0.482323  0.751219  1
  Ni  Ni4  1  0.451669  0.011906  0.922732  1
  Ni  Ni5  1  0.750000  0.895065  0.206080  1
  Ni  Ni6  1  0.951669  0.511906  0.577268  1
  Ni  Ni7  1  0.449968  0.549365  0.075159  1
  Ni  Ni8  1  0.750000  0.773521  0.554427  1
  Ni  Ni9  1  0.999173  0.731670  0.916340  1
  Ni  Ni10  1  0.548331  0.511906  0.577268  1
  Ni  Ni11  1  0.250000  0.810225  0.041358  1
  Ni  Ni12  1  0.500827  0.731670  0.916340  1
  Ni  Ni13  1  0.750000  0.136818  0.291622  1
  Ni  Ni14  1  0.000827  0.268330  0.083660  1
  Ni  Ni15  1  0.999173  0.768330  0.416340  1
  Ni  Ni16  1  0.451669  0.488094  0.422732  1
  Ni  Ni17  1  0.048331  0.488094  0.422732  1
  Ni  Ni18  1  0.048331  0.011906  0.922732  1
  Ni  Ni19  1  0.050032  0.950635  0.575159  1
  Ni  Ni20  1  0.750000  0.310225  0.458642  1
  Ni  Ni21  1  0.750000  0.604935  0.706080  1
  Ni  Ni22  1  0.250000  0.273521  0.945573  1
  Ni  Ni23  1  0.750000  0.726479  0.054427  1
  Ni  Ni24  1  0.951669  0.988094  0.077268  1
  Ni  Ni25  1  0.250000  0.104935  0.793920  1
  Ni  Ni26  1  0.750000  0.189775  0.958642  1
  Ni  Ni27  1  0.500827  0.768330  0.416340  1
  Ni  Ni28  1  0.250000  0.636818  0.208378  1
  Ni  Ni29  1  0.550032  0.450635  0.924841  1
  Ni  Ni30  1  0.499173  0.268330  0.083660  1
  Ni  Ni31  1  0.250000  0.395065  0.293920  1
  Ni  Ni32  1  0.550032  0.049365  0.424841  1
  Ni  Ni33  1  0.250000  0.863182  0.708378  1
  Ni  Ni34  1  0.250000  0.689775  0.541358  1
  Ni  Ni35  1  0.050032  0.549365  0.075159  1
  Ni  Ni36  1  0.750000  0.363182  0.791622  1
  Ni  Ni37  1  0.949968  0.450635  0.924841  1
  Ni  Ni38  1  0.949968  0.049365  0.424841  1
  Ni  Ni39  1  0.499173  0.231670  0.583660  1
  Ni  Ni40  1  0.449968  0.950635  0.575159  1
  Ni  Ni41  1  0.250000  0.226479  0.445573  1
  Ni  Ni42  1  0.000827  0.231670  0.583660  1
  Ni  Ni43  1  0.548331  0.988094  0.077268  1
  P  P44  1  0.750000  0.445014  0.042487  1
  P  P45  1  0.991850  0.230938  0.853809  1
  P  P46  1  0.750000  0.918232  0.959975  1
  P  P47  1  0.750000  0.609182  0.841997  1
  P  P48  1  0.250000  0.081768  0.040025  1
  P  P49  1  0.008150  0.730938  0.646191  1
  P  P50  1  0.250000  0.554986  0.957513  1
  P  P51  1  0.991850  0.269062  0.353809  1
  P  P52  1  0.750000  0.581768  0.459975  1
  P  P53  1  0.491850  0.769062  0.146191  1
  P  P54  1  0.250000  0.418232  0.540025  1
  P  P55  1  0.250000  0.945014  0.457513  1
  P  P56  1  0.508150  0.230938  0.853809  1
  P  P57  1  0.250000  0.854590  0.844298  1
  P  P58  1  0.008150  0.769062  0.146191  1
  P  P59  1  0.750000  0.354590  0.655702  1
  P  P60  1  0.491850  0.730938  0.646191  1
  P  P61  1  0.250000  0.645410  0.344298  1
  P  P62  1  0.750000  0.054986  0.542487  1
  P  P63  1  0.250000  0.109182  0.658003  1
  P  P64  1  0.508150  0.269062  0.353809  1
  P  P65  1  0.750000  0.890818  0.341997  1
  P  P66  1  0.250000  0.390818  0.158003  1
  P  P67  1  0.750000  0.145410  0.155702  1
