# generated using pymatgen
data_Li5CoOF5
_symmetry_space_group_name_H-M   'P 1'
_cell_length_a   2.91605822
_cell_length_b   2.91597697
_cell_length_c   12.56938693
_cell_angle_alpha   89.99670002
_cell_angle_beta   90.04163718
_cell_angle_gamma   90.00040809
_symmetry_Int_Tables_number   1
_chemical_formula_structural   Li5CoOF5
_chemical_formula_sum   'Li5 Co1 O1 F5'
_cell_volume   106.87946225
_cell_formula_units_Z   1
loop_
 _symmetry_equiv_pos_site_id
 _symmetry_equiv_pos_as_xyz
  1  'x, y, z'
loop_
 _atom_site_type_symbol
 _atom_site_label
 _atom_site_symmetry_multiplicity
 _atom_site_fract_x
 _atom_site_fract_y
 _atom_site_fract_z
 _atom_site_occupancy
  Li  Li0  1  0.000084  0.999994  0.993005  1
  Li  Li1  1  0.999915  0.000006  0.340328  1
  Li  Li2  1  0.499990  0.500000  0.505840  1
  Li  Li3  1  0.000000  0.000000  0.666667  1
  Li  Li4  1  0.500010  0.499999  0.827493  1
  Co  Co5  1  0.500000  0.500000  0.166666  1
  O  O6  1  1.000000  0.000000  0.166667  1
  F  F7  1  0.500305  0.499978  0.988369  1
  F  F8  1  0.499695  0.500022  0.344966  1
  F  F9  1  0.000028  -0.000005  0.505166  1
  F  F10  1  0.500000  0.500000  0.666665  1
  F  F11  1  -0.000029  0.000005  0.828167  1
