# generated using pymatgen
data_Li2TiFeO4
_symmetry_space_group_name_H-M   'P 1'
_cell_length_a   4.20163983
_cell_length_b   4.09150163
_cell_length_c   9.31782580
_cell_angle_alpha   77.53086133
_cell_angle_beta   76.67711793
_cell_angle_gamma   90.05459970
_symmetry_Int_Tables_number   1
_chemical_formula_structural   Li2TiFeO4
_chemical_formula_sum   'Li4 Ti2 Fe2 O8'
_cell_volume   151.97834321
_cell_formula_units_Z   2
loop_
 _symmetry_equiv_pos_site_id
 _symmetry_equiv_pos_as_xyz
  1  'x, y, z'
loop_
 _atom_site_type_symbol
 _atom_site_label
 _atom_site_symmetry_multiplicity
 _atom_site_fract_x
 _atom_site_fract_y
 _atom_site_fract_z
 _atom_site_occupancy
  Li  Li0  1  0.871205  0.374159  0.253180  1
  Li  Li1  1  0.629953  0.124352  0.746547  1
  Li  Li2  1  0.490302  0.479663  0.033598  1
  Li  Li3  1  0.259992  0.267268  0.471009  1
  Ti  Ti4  1  0.728326  0.785978  0.493546  1
  Ti  Ti5  1  0.034236  0.993953  0.003435  1
  Fe  Fe6  1  0.372068  0.871935  0.252361  1
  Fe  Fe7  1  0.123398  0.620084  0.753607  1
  O  O8  1  0.870577  0.867428  0.258255  1
  O  O9  1  0.646679  0.635246  0.711518  1
  O  O10  1  0.755007  0.232033  0.495455  1
  O  O11  1  0.264881  0.745669  0.502125  1
  O  O12  1  0.372549  0.371850  0.252573  1
  O  O13  1  0.098602  0.100014  0.793183  1
  O  O14  1  0.475469  -0.003898  0.002788  1
  O  O15  1  -0.008232  0.493379  0.008759  1
