# generated using pymatgen
data_Bi12Cl5O16
_symmetry_space_group_name_H-M   'P 1'
_cell_length_a   10.06109893
_cell_length_b   15.50029811
_cell_length_c   3.95916490
_cell_angle_alpha   97.33742683
_cell_angle_beta   90.00000000
_cell_angle_gamma   89.23595254
_symmetry_Int_Tables_number   1
_chemical_formula_structural   Bi12Cl5O16
_chemical_formula_sum   'Bi12 Cl5 O16'
_cell_volume   612.32053734
_cell_formula_units_Z   1
loop_
 _symmetry_equiv_pos_site_id
 _symmetry_equiv_pos_as_xyz
  1  'x, y, z'
loop_
 _atom_site_type_symbol
 _atom_site_label
 _atom_site_symmetry_multiplicity
 _atom_site_fract_x
 _atom_site_fract_y
 _atom_site_fract_z
 _atom_site_occupancy
  Bi  Bi0  1  0.076487  0.117934  0.058967  1
  Bi  Bi1  1  0.070999  0.696554  0.348277  1
  Bi  Bi2  1  0.237982  0.348580  0.174290  1
  Bi  Bi3  1  0.235858  0.933061  0.466531  1
  Bi  Bi4  1  0.400295  0.170748  0.585374  1
  Bi  Bi5  1  0.437312  0.592646  0.296323  1
  Bi  Bi6  1  0.562688  0.407354  0.703677  1
  Bi  Bi7  1  0.599705  0.829252  0.414626  1
  Bi  Bi8  1  0.764142  0.066939  0.533469  1
  Bi  Bi9  1  0.762018  0.651420  0.825710  1
  Bi  Bi10  1  0.929001  0.303446  0.651723  1
  Bi  Bi11  1  0.923513  0.882066  0.941033  1
  Cl  Cl12  1  0.195817  0.560238  0.780119  1
  Cl  Cl13  1  0.346349  0.774916  0.887458  1
  Cl  Cl14  1  0.500000  0.000000  0.000000  1
  Cl  Cl15  1  0.653651  0.225084  0.112542  1
  Cl  Cl16  1  0.804183  0.439762  0.219881  1
  O  O17  1  0.027844  0.269071  0.134535  1
  O  O18  1  0.054018  0.850007  0.425004  1
  O  O19  1  0.121458  0.361080  0.680540  1
  O  O20  1  0.134181  0.960992  0.980497  1
  O  O21  1  0.219382  0.082561  0.541280  1
  O  O22  1  0.297465  0.205084  0.102542  1
  O  O23  1  0.387369  0.316709  0.658354  1
  O  O24  1  0.462650  0.445500  0.222749  1
  O  O25  1  0.537350  0.554500  0.777251  1
  O  O26  1  0.612631  0.683291  0.341646  1
  O  O27  1  0.702535  0.794916  0.897458  1
  O  O28  1  0.780618  0.917439  0.458720  1
  O  O29  1  0.865819  0.039008  0.019503  1
  O  O30  1  0.878542  0.638920  0.319460  1
  O  O31  1  0.945982  0.149993  0.574996  1
  O  O32  1  0.972156  0.730929  0.865465  1
