# generated using pymatgen
data_Li2VSi3O8
_symmetry_space_group_name_H-M   'P 1'
_cell_length_a   8.04996311
_cell_length_b   8.04996812
_cell_length_c   8.05035660
_cell_angle_alpha   90.00001160
_cell_angle_beta   90.00002221
_cell_angle_gamma   90.00007744
_symmetry_Int_Tables_number   1
_chemical_formula_structural   Li2VSi3O8
_chemical_formula_sum   'Li8 V4 Si12 O32'
_cell_volume   521.67877692
_cell_formula_units_Z   4
loop_
 _symmetry_equiv_pos_site_id
 _symmetry_equiv_pos_as_xyz
  1  'x, y, z'
loop_
 _atom_site_type_symbol
 _atom_site_label
 _atom_site_symmetry_multiplicity
 _atom_site_fract_x
 _atom_site_fract_y
 _atom_site_fract_z
 _atom_site_occupancy
  Li  Li0  1  0.008789  0.008792  0.008790  1
  Li  Li1  1  0.241203  0.241210  0.241210  1
  Li  Li2  1  0.258796  0.758798  0.741212  1
  Li  Li3  1  0.491211  0.991213  0.508793  1
  Li  Li4  1  0.508788  0.491210  0.991213  1
  Li  Li5  1  0.741203  0.258797  0.758794  1
  Li  Li6  1  0.758796  0.741208  0.258797  1
  Li  Li7  1  0.991209  0.508795  0.491213  1
  V  V8  1  0.125033  0.874984  0.374982  1
  V  V9  1  0.374967  0.125030  0.874973  1
  V  V10  1  0.625022  0.625026  0.625030  1
  V  V11  1  0.874981  0.374985  0.125026  1
  Si  Si12  1  0.110128  0.139862  0.625003  1
  Si  Si13  1  0.125001  0.389859  0.860169  1
  Si  Si14  1  0.139846  0.625001  0.110160  1
  Si  Si15  1  0.360150  0.375000  0.610161  1
  Si  Si16  1  0.374999  0.610141  0.360175  1
  Si  Si17  1  0.389872  0.860144  0.125000  1
  Si  Si18  1  0.610130  0.360146  0.375006  1
  Si  Si19  1  0.625001  0.110141  0.139832  1
  Si  Si20  1  0.639845  0.875001  0.889847  1
  Si  Si21  1  0.860155  0.125000  0.389846  1
  Si  Si22  1  0.875000  0.889862  0.639828  1
  Si  Si23  1  0.889870  0.639859  0.875000  1
  O  O24  1  0.080163  0.137965  0.401609  1
  O  O25  1  0.098388  0.919835  0.637945  1
  O  O26  1  0.120887  0.620893  0.879123  1
  O  O27  1  0.112059  0.169830  0.848389  1
  O  O28  1  0.137963  0.401615  0.080171  1
  O  O29  1  0.129110  0.370889  0.629123  1
  O  O30  1  0.151617  0.612062  0.330178  1
  O  O31  1  0.169827  0.848386  0.112084  1
  O  O32  1  0.330173  0.151617  0.612081  1
  O  O33  1  0.348384  0.387940  0.830179  1
  O  O34  1  0.370891  0.629115  0.129126  1
  O  O35  1  0.362036  0.598392  0.580172  1
  O  O36  1  0.387943  0.830173  0.348393  1
  O  O37  1  0.379115  0.379115  0.379123  1
  O  O38  1  0.401611  0.080168  0.137946  1
  O  O39  1  0.419841  0.862038  0.901616  1
  O  O40  1  0.580165  0.362042  0.598391  1
  O  O41  1  0.598389  0.580167  0.362061  1
  O  O42  1  0.620886  0.879114  0.120884  1
  O  O43  1  0.612059  0.330173  0.151615  1
  O  O44  1  0.637965  0.098389  0.919834  1
  O  O45  1  0.629109  0.129117  0.370880  1
  O  O46  1  0.651617  0.887946  0.669827  1
  O  O47  1  0.669828  0.651618  0.887925  1
  O  O48  1  0.830173  0.348388  0.387919  1
  O  O49  1  0.848383  0.112060  0.169823  1
  O  O50  1  0.870892  0.870889  0.870881  1
  O  O51  1  0.862037  0.901616  0.419832  1
  O  O52  1  0.887940  0.669833  0.651616  1
  O  O53  1  0.879110  0.120892  0.620880  1
  O  O54  1  0.901610  0.419837  0.862058  1
  O  O55  1  0.919838  0.637961  0.098395  1
