# generated using pymatgen
data_Li2ErPCO7
_symmetry_space_group_name_H-M   'P 1'
_cell_length_a   9.08848440
_cell_length_b   6.73949818
_cell_length_c   4.90761580
_cell_angle_alpha   90.00000000
_cell_angle_beta   86.65094382
_cell_angle_gamma   90.00000000
_symmetry_Int_Tables_number   1
_chemical_formula_structural   Li2ErPCO7
_chemical_formula_sum   'Li4 Er2 P2 C2 O14'
_cell_volume   300.08704324
_cell_formula_units_Z   2
loop_
 _symmetry_equiv_pos_site_id
 _symmetry_equiv_pos_as_xyz
  1  'x, y, z'
loop_
 _atom_site_type_symbol
 _atom_site_label
 _atom_site_symmetry_multiplicity
 _atom_site_fract_x
 _atom_site_fract_y
 _atom_site_fract_z
 _atom_site_occupancy
  Li  Li0  1  0.200669  0.486416  0.203018  1
  Li  Li1  1  0.200669  0.013584  0.203018  1
  Li  Li2  1  0.799331  0.513584  0.796982  1
  Li  Li3  1  0.799331  0.986416  0.796982  1
  Er  Er4  1  0.363471  0.750000  0.742888  1
  Er  Er5  1  0.636529  0.250000  0.257112  1
  P  P6  1  0.407223  0.250000  0.724664  1
  P  P7  1  0.592777  0.750000  0.275336  1
  C  C8  1  0.063497  0.750000  0.742137  1
  C  C9  1  0.936503  0.250000  0.257863  1
  O  O10  1  0.075577  0.250000  0.272252  1
  O  O11  1  0.128179  0.750000  0.975106  1
  O  O12  1  0.154700  0.750000  0.520948  1
  O  O13  1  0.333549  0.064164  0.853985  1
  O  O14  1  0.333549  0.435836  0.853985  1
  O  O15  1  0.422554  0.750000  0.232373  1
  O  O16  1  0.396947  0.250000  0.409481  1
  O  O17  1  0.603053  0.750000  0.590519  1
  O  O18  1  0.577446  0.250000  0.767627  1
  O  O19  1  0.666451  0.564164  0.146015  1
  O  O20  1  0.666451  0.935836  0.146015  1
  O  O21  1  0.845300  0.250000  0.479052  1
  O  O22  1  0.871821  0.250000  0.024894  1
  O  O23  1  0.924423  0.750000  0.727748  1
