# generated using pymatgen
data_Li2VFeP2(HO5)2
_symmetry_space_group_name_H-M   'P 1'
_cell_length_a   5.44240135
_cell_length_b   14.48130266
_cell_length_c   7.50872776
_cell_angle_alpha   95.21348131
_cell_angle_beta   69.27636220
_cell_angle_gamma   87.40815684
_symmetry_Int_Tables_number   1
_chemical_formula_structural   Li2VFeP2(HO5)2
_chemical_formula_sum   'Li6 V3 Fe3 P6 H6 O30'
_cell_volume   549.30119162
_cell_formula_units_Z   3
loop_
 _symmetry_equiv_pos_site_id
 _symmetry_equiv_pos_as_xyz
  1  'x, y, z'
loop_
 _atom_site_type_symbol
 _atom_site_label
 _atom_site_symmetry_multiplicity
 _atom_site_fract_x
 _atom_site_fract_y
 _atom_site_fract_z
 _atom_site_occupancy
  Li  Li0  1  0.734165  0.692713  0.868341  1
  Li  Li1  1  0.934061  0.641271  0.464319  1
  Li  Li2  1  0.599556  0.974639  0.797360  1
  Li  Li3  1  0.400122  0.025665  0.202692  1
  Li  Li4  1  0.066669  0.358570  0.536369  1
  Li  Li5  1  0.266033  0.307108  0.131140  1
  V  V6  1  0.666226  0.333601  0.334370  1
  V  V7  1  0.000369  0.499455  -0.000003  1
  V  V8  1  0.999793  0.000202  0.999589  1
  Fe  Fe9  1  0.666300  0.833838  0.333584  1
  Fe  Fe10  1  0.333473  0.666232  0.666007  1
  Fe  Fe11  1  0.333416  0.166759  0.666638  1
  P  P12  1  0.980582  0.147927  0.380564  1
  P  P13  1  0.686632  0.185729  0.953108  1
  P  P14  1  0.648188  0.481337  0.714296  1
  P  P15  1  0.353384  0.518557  0.286974  1
  P  P16  1  0.313141  0.814490  0.046217  1
  P  P17  1  0.018069  0.852240  0.619360  1
  H  H18  1  0.955160  0.325688  0.986251  1
  H  H19  1  0.713789  0.007556  0.345384  1
  H  H20  1  0.620562  0.659727  0.320313  1
  H  H21  1  0.379178  0.340873  0.679072  1
  H  H22  1  0.286483  0.992332  0.654541  1
  H  H23  1  0.044446  0.673162  0.013136  1
  O  O24  1  0.917164  0.900739  0.827547  1
  O  O25  1  0.958427  0.218691  0.838259  1
  O  O26  1  0.862730  0.450081  0.792033  1
  O  O27  1  0.802838  0.882931  0.540395  1
  O  O28  1  0.704547  0.077822  0.957377  1
  O  O29  1  0.963629  0.255764  0.374643  1
  O  O30  1  0.632013  0.589018  0.709117  1
  O  O31  1  0.747878  0.432296  0.506434  1
  O  O32  1  0.951298  0.371900  0.093884  1
  O  O33  1  0.708592  0.115094  0.495620  1
  O  O34  1  0.713834  0.961683  0.238268  1
  O  O35  1  0.410457  0.765858  0.837255  1
  O  O36  1  0.470245  0.215024  0.874686  1
  O  O37  1  0.621416  0.704682  0.428122  1
  O  O38  1  0.375757  0.448890  0.828690  1
  O  O39  1  0.625619  0.550586  0.172221  1
  O  O40  1  0.379918  0.294727  0.572596  1
  O  O41  1  0.529788  0.785270  0.124396  1
  O  O42  1  0.586256  0.233883  0.161584  1
  O  O43  1  0.285738  0.038553  0.761247  1
  O  O44  1  0.290725  0.884868  0.504270  1
  O  O45  1  0.047800  0.627919  0.904165  1
  O  O46  1  0.255918  0.567764  0.495448  1
  O  O47  1  0.369230  0.410668  0.292371  1
  O  O48  1  0.034762  0.744619  0.624511  1
  O  O49  1  0.295562  0.922476  0.042099  1
  O  O50  1  0.196225  0.118500  0.459655  1
  O  O51  1  0.138543  0.548451  0.209064  1
  O  O52  1  0.041391  0.781851  0.162103  1
  O  O53  1  0.081908  0.099725  0.172320  1
