# generated using pymatgen
data_Li5Fe2(BO4)2
_symmetry_space_group_name_H-M   'P 1'
_cell_length_a   5.20760429
_cell_length_b   6.68222786
_cell_length_c   10.70702883
_cell_angle_alpha   82.48792468
_cell_angle_beta   90.00000000
_cell_angle_gamma   90.00000000
_symmetry_Int_Tables_number   1
_chemical_formula_structural   Li5Fe2(BO4)2
_chemical_formula_sum   'Li10 Fe4 B4 O16'
_cell_volume   369.38966042
_cell_formula_units_Z   2
loop_
 _symmetry_equiv_pos_site_id
 _symmetry_equiv_pos_as_xyz
  1  'x, y, z'
loop_
 _atom_site_type_symbol
 _atom_site_label
 _atom_site_symmetry_multiplicity
 _atom_site_fract_x
 _atom_site_fract_y
 _atom_site_fract_z
 _atom_site_occupancy
  Li  Li0  1  0.402162  0.133033  0.211376  1
  Li  Li1  1  0.097838  0.133033  0.711376  1
  Li  Li2  1  0.169585  0.219697  0.420257  1
  Li  Li3  1  0.330415  0.219697  0.920257  1
  Li  Li4  1  0.663048  0.774404  0.080802  1
  Li  Li5  1  0.836952  0.774404  0.580802  1
  Li  Li6  1  0.093559  0.887617  0.162821  1
  Li  Li7  1  0.820621  0.897791  0.314675  1
  Li  Li8  1  0.406441  0.887617  0.662821  1
  Li  Li9  1  0.679379  0.897791  0.814675  1
  Fe  Fe10  1  0.147736  0.490549  0.139874  1
  Fe  Fe11  1  0.652805  0.499156  0.345174  1
  Fe  Fe12  1  0.352264  0.490549  0.639874  1
  Fe  Fe13  1  0.847195  0.499156  0.845174  1
  B  B14  1  0.836648  0.185204  0.061867  1
  B  B15  1  0.663352  0.185204  0.561867  1
  B  B16  1  0.315005  0.813696  0.430475  1
  B  B17  1  0.184995  0.813696  0.930475  1
  O  O18  1  0.728033  0.039242  0.147859  1
  O  O19  1  0.771967  0.039242  0.647859  1
  O  O20  1  0.103496  0.219923  0.070776  1
  O  O21  1  0.810373  0.290684  0.465799  1
  O  O22  1  0.396504  0.219923  0.570776  1
  O  O23  1  0.367541  0.375824  0.286237  1
  O  O24  1  0.689627  0.290684  0.965799  1
  O  O25  1  0.132459  0.375824  0.786237  1
  O  O26  1  0.863364  0.633815  0.218783  1
  O  O27  1  0.307541  0.749379  0.044011  1
  O  O28  1  0.636636  0.633815  0.718783  1
  O  O29  1  0.573138  0.747703  0.422729  1
  O  O30  1  0.192459  0.749379  0.544011  1
  O  O31  1  0.926862  0.747703  0.922729  1
  O  O32  1  0.199857  0.941406  0.336240  1
  O  O33  1  0.300143  0.941406  0.836240  1
