# generated using pymatgen
data_Bi3BO6
_symmetry_space_group_name_H-M   'P 1'
_cell_length_a   12.42981697
_cell_length_b   9.84630559
_cell_length_c   4.94767474
_cell_angle_alpha   90.00000000
_cell_angle_beta   90.00000000
_cell_angle_gamma   90.00000000
_symmetry_Int_Tables_number   1
_chemical_formula_structural   Bi3BO6
_chemical_formula_sum   'Bi12 B4 O24'
_cell_volume   605.53490936
_cell_formula_units_Z   4
loop_
 _symmetry_equiv_pos_site_id
 _symmetry_equiv_pos_as_xyz
  1  'x, y, z'
loop_
 _atom_site_type_symbol
 _atom_site_label
 _atom_site_symmetry_multiplicity
 _atom_site_fract_x
 _atom_site_fract_y
 _atom_site_fract_z
 _atom_site_occupancy
  Bi  Bi0  1  0.076275  0.750000  0.488820  1
  Bi  Bi1  1  0.137262  0.063614  0.985710  1
  Bi  Bi2  1  0.137262  0.436386  0.985710  1
  Bi  Bi3  1  0.362738  0.563614  0.485710  1
  Bi  Bi4  1  0.362738  0.936386  0.485710  1
  Bi  Bi5  1  0.423725  0.250000  0.988820  1
  Bi  Bi6  1  0.576275  0.750000  0.011180  1
  Bi  Bi7  1  0.637262  0.063614  0.514290  1
  Bi  Bi8  1  0.637262  0.436386  0.514290  1
  Bi  Bi9  1  0.862738  0.563614  0.014290  1
  Bi  Bi10  1  0.862738  0.936386  0.014290  1
  Bi  Bi11  1  0.923725  0.250000  0.511180  1
  B  B12  1  0.217584  0.250000  0.426747  1
  B  B13  1  0.282416  0.750000  0.926747  1
  B  B14  1  0.717584  0.250000  0.073253  1
  B  B15  1  0.782416  0.750000  0.573253  1
  O  O16  1  0.035487  0.590226  0.214826  1
  O  O17  1  0.035487  0.909774  0.214826  1
  O  O18  1  0.100732  0.250000  0.312269  1
  O  O19  1  0.232969  0.876274  0.802353  1
  O  O20  1  0.232969  0.623726  0.802353  1
  O  O21  1  0.226719  0.250000  0.718653  1
  O  O22  1  0.273281  0.750000  0.218653  1
  O  O23  1  0.267031  0.123726  0.302353  1
  O  O24  1  0.267031  0.376274  0.302353  1
  O  O25  1  0.399268  0.750000  0.812269  1
  O  O26  1  0.464513  0.090226  0.714826  1
  O  O27  1  0.464513  0.409774  0.714826  1
  O  O28  1  0.535487  0.590226  0.285174  1
  O  O29  1  0.535487  0.909774  0.285174  1
  O  O30  1  0.600732  0.250000  0.187731  1
  O  O31  1  0.732969  0.623726  0.697647  1
  O  O32  1  0.732969  0.876274  0.697647  1
  O  O33  1  0.726719  0.250000  0.781347  1
  O  O34  1  0.773281  0.750000  0.281347  1
  O  O35  1  0.767031  0.123726  0.197647  1
  O  O36  1  0.767031  0.376274  0.197647  1
  O  O37  1  0.899268  0.750000  0.687731  1
  O  O38  1  0.964513  0.090226  0.785174  1
  O  O39  1  0.964513  0.409774  0.785174  1
