# generated using pymatgen
data_Li3MnV(PO4)3
_symmetry_space_group_name_H-M   'P 1'
_cell_length_a   8.43032596
_cell_length_b   8.81357392
_cell_length_c   12.31456758
_cell_angle_alpha   90.00000000
_cell_angle_beta   88.19793146
_cell_angle_gamma   90.00000000
_symmetry_Int_Tables_number   1
_chemical_formula_structural   Li3MnV(PO4)3
_chemical_formula_sum   'Li12 Mn4 V4 P12 O48'
_cell_volume   914.53586333
_cell_formula_units_Z   4
loop_
 _symmetry_equiv_pos_site_id
 _symmetry_equiv_pos_as_xyz
  1  'x, y, z'
loop_
 _atom_site_type_symbol
 _atom_site_label
 _atom_site_symmetry_multiplicity
 _atom_site_fract_x
 _atom_site_fract_y
 _atom_site_fract_z
 _atom_site_occupancy
  Li  Li0  1  0.003282  0.999540  -0.000317  1
  Li  Li1  1  0.006143  0.101279  0.250271  1
  Li  Li2  1  0.003282  0.000460  0.499683  1
  Li  Li3  1  0.006143  0.898721  0.750271  1
  Li  Li4  1  0.292471  0.806886  0.046401  1
  Li  Li5  1  0.292471  0.193114  0.546401  1
  Li  Li6  1  0.503913  0.501043  -0.000186  1
  Li  Li7  1  0.503416  0.399846  0.251111  1
  Li  Li8  1  0.503913  0.498957  0.499814  1
  Li  Li9  1  0.503416  0.600154  0.751111  1
  Li  Li10  1  0.707775  0.803539  0.448929  1
  Li  Li11  1  0.707775  0.196461  0.948929  1
  Mn  Mn12  1  0.288937  0.993264  0.357497  1
  Mn  Mn13  1  0.288937  0.006736  0.857497  1
  Mn  Mn14  1  0.789836  0.502297  0.352728  1
  Mn  Mn15  1  0.789836  0.497703  0.852728  1
  V  V16  1  0.213424  0.499300  0.144656  1
  V  V17  1  0.213424  0.500700  0.644656  1
  V  V18  1  0.715663  0.997755  0.141275  1
  V  V19  1  0.715663  0.002245  0.641275  1
  P  P20  1  0.001845  0.800118  0.250148  1
  P  P21  1  0.001845  0.199882  0.750148  1
  P  P22  1  0.150750  0.356367  0.395838  1
  P  P23  1  0.150750  0.643633  0.895838  1
  P  P24  1  0.349320  0.147529  0.104338  1
  P  P25  1  0.349320  0.852471  0.604338  1
  P  P26  1  0.503562  0.706343  0.249199  1
  P  P27  1  0.503562  0.293657  0.749199  1
  P  P28  1  0.646422  0.145579  0.396550  1
  P  P29  1  0.646422  0.854421  0.896550  1
  P  P30  1  0.841922  0.353296  0.104760  1
  P  P31  1  0.841922  0.646704  0.604760  1
  O  O32  1  0.015455  0.409886  0.106235  1
  O  O33  1  0.015455  0.590114  0.606235  1
  O  O34  1  0.076515  0.910932  0.334664  1
  O  O35  1  0.076515  0.089068  0.834664  1
  O  O36  1  0.126241  0.702143  0.188781  1
  O  O37  1  0.126241  0.297857  0.688781  1
  O  O38  1  0.141283  0.181676  0.410013  1
  O  O39  1  0.141283  0.818324  0.910013  1
  O  O40  1  0.244342  0.407141  0.291580  1
  O  O41  1  0.251044  0.063054  0.019156  1
  O  O42  1  0.250368  0.412754  0.493147  1
  O  O43  1  0.244342  0.592859  0.791580  1
  O  O44  1  0.251044  0.936946  0.519156  1
  O  O45  1  0.272446  0.097913  0.212807  1
  O  O46  1  0.250368  0.587246  0.993147  1
  O  O47  1  0.272446  0.902087  0.712807  1
  O  O48  1  0.347651  0.323518  0.091377  1
  O  O49  1  0.347651  0.676482  0.591377  1
  O  O50  1  0.385664  0.798199  0.316464  1
  O  O51  1  0.385664  0.201801  0.816464  1
  O  O52  1  0.428003  0.597696  0.163107  1
  O  O53  1  0.428003  0.402304  0.663107  1
  O  O54  1  0.466855  0.103930  0.409005  1
  O  O55  1  0.466855  0.896070  0.909005  1
  O  O56  1  0.526716  0.107743  0.092957  1
  O  O57  1  0.526716  0.892257  0.592957  1
  O  O58  1  0.579447  0.597648  0.333450  1
  O  O59  1  0.579447  0.402352  0.833450  1
  O  O60  1  0.617814  0.805606  0.183730  1
  O  O61  1  0.617814  0.194394  0.683730  1
  O  O62  1  0.644912  0.318606  0.409565  1
  O  O63  1  0.644912  0.681394  0.909565  1
  O  O64  1  0.720502  0.091995  0.287948  1
  O  O65  1  0.745467  0.406886  0.007746  1
  O  O66  1  0.720502  0.908005  0.787948  1
  O  O67  1  0.744413  0.059743  0.481916  1
  O  O68  1  0.749220  0.400428  0.207515  1
  O  O69  1  0.745467  0.593114  0.507746  1
  O  O70  1  0.744413  0.940257  0.981916  1
  O  O71  1  0.749220  0.599572  0.707515  1
  O  O72  1  0.856094  0.176889  0.091745  1
  O  O73  1  0.856094  0.823111  0.591745  1
  O  O74  1  0.875478  0.713289  0.313995  1
  O  O75  1  0.875478  0.286711  0.813995  1
  O  O76  1  0.933604  0.909632  0.163739  1
  O  O77  1  0.933604  0.090368  0.663739  1
  O  O78  1  0.981784  0.411771  0.396162  1
  O  O79  1  0.981784  0.588229  0.896162  1
