# generated using pymatgen
data_LiMnV(PO4)3
_symmetry_space_group_name_H-M   'P 1'
_cell_length_a   8.83210510
_cell_length_b   8.28599863
_cell_length_c   8.37376308
_cell_angle_alpha   59.39821713
_cell_angle_beta   64.15102523
_cell_angle_gamma   90.20136855
_symmetry_Int_Tables_number   1
_chemical_formula_structural   LiMnV(PO4)3
_chemical_formula_sum   'Li2 Mn2 V2 P6 O24'
_cell_volume   454.13750083
_cell_formula_units_Z   2
loop_
 _symmetry_equiv_pos_site_id
 _symmetry_equiv_pos_as_xyz
  1  'x, y, z'
loop_
 _atom_site_type_symbol
 _atom_site_label
 _atom_site_symmetry_multiplicity
 _atom_site_fract_x
 _atom_site_fract_y
 _atom_site_fract_z
 _atom_site_occupancy
  Li  Li0  1  0.869820  0.682377  0.055848  1
  Li  Li1  1  0.882198  0.242061  0.819225  1
  Mn  Mn2  1  0.563581  0.861531  0.296624  1
  Mn  Mn3  1  0.428703  0.136768  0.713927  1
  V  V4  1  0.054222  0.348666  0.296457  1
  V  V5  1  0.954249  0.659350  0.683336  1
  P  P6  1  0.251151  0.042996  0.212002  1
  P  P7  1  0.250809  0.464884  0.501812  1
  P  P8  1  0.247618  0.751816  0.794837  1
  P  P9  1  0.753682  0.254214  0.204796  1
  P  P10  1  0.744259  0.530958  0.499615  1
  P  P11  1  0.752118  0.962316  0.776896  1
  O  O12  1  0.107255  0.833669  0.394767  1
  O  O13  1  0.255774  0.121601  0.005175  1
  O  O14  1  0.185879  0.177439  0.296170  1
  O  O15  1  0.179797  0.471121  0.355532  1
  O  O16  1  0.095498  0.477682  0.681092  1
  O  O17  1  0.089972  0.772418  0.749803  1
  O  O18  1  0.425981  0.025570  0.202174  1
  O  O19  1  0.270599  0.261372  0.616812  1
  O  O20  1  0.417003  0.631696  0.362826  1
  O  O21  1  0.178628  0.536680  0.007132  1
  O  O22  1  0.256287  0.890135  0.861051  1
  O  O23  1  0.412635  0.771650  0.617199  1
  O  O24  1  0.583523  0.222153  0.386524  1
  O  O25  1  0.746490  0.119351  0.130375  1
  O  O26  1  0.819999  0.471895  -0.000240  1
  O  O27  1  0.574268  0.367290  0.643603  1
  O  O28  1  0.724663  0.735942  0.383305  1
  O  O29  1  0.575568  0.974418  0.794311  1
  O  O30  1  0.901675  0.222576  0.266741  1
  O  O31  1  0.888775  0.516464  0.317395  1
  O  O32  1  0.815890  0.514854  0.649925  1
  O  O33  1  0.817689  0.825274  0.696139  1
  O  O34  1  0.746349  0.875557  0.989916  1
  O  O35  1  0.894240  0.168414  0.615813  1
