# generated using pymatgen
data_LiNiPO4
_symmetry_space_group_name_H-M   'P 1'
_cell_length_a   5.90917389
_cell_length_b   10.17436516
_cell_length_c   4.71766696
_cell_angle_alpha   90.00000000
_cell_angle_beta   90.25556577
_cell_angle_gamma   90.00000000
_symmetry_Int_Tables_number   1
_chemical_formula_structural   LiNiPO4
_chemical_formula_sum   'Li4 Ni4 P4 O16'
_cell_volume   283.63318988
_cell_formula_units_Z   4
loop_
 _symmetry_equiv_pos_site_id
 _symmetry_equiv_pos_as_xyz
  1  'x, y, z'
loop_
 _atom_site_type_symbol
 _atom_site_label
 _atom_site_symmetry_multiplicity
 _atom_site_fract_x
 _atom_site_fract_y
 _atom_site_fract_z
 _atom_site_occupancy
  Li  Li0  1  0.251397  0.295843  0.255613  1
  Li  Li1  1  0.244885  0.801708  0.749804  1
  Li  Li2  1  0.755115  0.301708  0.250196  1
  Li  Li3  1  0.748603  0.795843  0.744387  1
  Ni  Ni4  1  0.991935  0.021135  0.261234  1
  Ni  Ni5  1  0.494496  0.072608  0.760415  1
  Ni  Ni6  1  0.505504  0.572608  0.239585  1
  Ni  Ni7  1  0.008065  0.521135  0.738766  1
  P  P8  1  0.996221  0.201825  0.830524  1
  P  P9  1  0.495721  0.891776  0.325165  1
  P  P10  1  0.504279  0.391776  0.674835  1
  P  P11  1  0.003779  0.701825  0.169476  1
  O  O12  1  0.008231  0.343775  0.952517  1
  O  O13  1  0.995490  0.197766  0.505555  1
  O  O14  1  0.215055  0.634768  0.028970  1
  O  O15  1  0.200320  0.125488  0.968875  1
  O  O16  1  0.286549  0.961132  0.465170  1
  O  O17  1  0.497721  0.249705  0.553663  1
  O  O18  1  0.494054  0.896470  0.000347  1
  O  O19  1  0.297965  0.464920  0.533123  1
  O  O20  1  0.702035  0.964920  0.466877  1
  O  O21  1  0.505946  0.396470  0.999653  1
  O  O22  1  0.502279  0.749705  0.446337  1
  O  O23  1  0.713451  0.461132  0.534830  1
  O  O24  1  0.799680  0.625488  0.031125  1
  O  O25  1  0.784945  0.134768  0.971030  1
  O  O26  1  0.004510  0.697766  0.494445  1
  O  O27  1  0.991769  0.843775  0.047483  1
