# generated using pymatgen
data_Fe5O7F3
_symmetry_space_group_name_H-M   'P 1'
_cell_length_a   4.67802803
_cell_length_b   4.67802803
_cell_length_c   15.20995193
_cell_angle_alpha   89.92339939
_cell_angle_beta   89.92339939
_cell_angle_gamma   91.56056527
_symmetry_Int_Tables_number   1
_chemical_formula_structural   Fe5O7F3
_chemical_formula_sum   'Fe10 O14 F6'
_cell_volume   332.72970286
_cell_formula_units_Z   2
loop_
 _symmetry_equiv_pos_site_id
 _symmetry_equiv_pos_as_xyz
  1  'x, y, z'
loop_
 _atom_site_type_symbol
 _atom_site_label
 _atom_site_symmetry_multiplicity
 _atom_site_fract_x
 _atom_site_fract_y
 _atom_site_fract_z
 _atom_site_occupancy
  Fe  Fe0  1  0.006129  0.003978  0.000874  1
  Fe  Fe1  1  0.968690  0.982436  0.205975  1
  Fe  Fe2  1  0.017564  0.031310  0.394025  1
  Fe  Fe3  1  0.996022  0.993871  0.599126  1
  Fe  Fe4  1  0.010188  0.989812  0.800000  1
  Fe  Fe5  1  0.540531  0.479699  0.093465  1
  Fe  Fe6  1  0.520301  0.459469  0.506535  1
  Fe  Fe7  1  0.494107  0.505893  0.300000  1
  Fe  Fe8  1  0.475004  0.523053  0.701249  1
  Fe  Fe9  1  0.476947  0.524996  0.898751  1
  O  O10  1  0.196144  0.803856  0.300000  1
  O  O11  1  0.178612  0.815772  0.697518  1
  O  O12  1  0.184228  0.821388  0.902482  1
  O  O13  1  0.308352  0.307319  0.997995  1
  O  O14  1  0.323550  0.317645  0.400060  1
  O  O15  1  0.297928  0.301330  0.603906  1
  O  O16  1  0.295610  0.319512  0.799924  1
  O  O17  1  0.698670  0.702072  0.996094  1
  O  O18  1  0.682355  0.676450  0.199940  1
  O  O19  1  0.692681  0.691648  0.602005  1
  O  O20  1  0.680488  0.704390  0.800076  1
  O  O21  1  0.818162  0.173746  0.098952  1
  O  O22  1  0.826254  0.181838  0.501048  1
  O  O23  1  0.797423  0.202577  0.300000  1
  F  F24  1  0.198100  0.786301  0.103357  1
  F  F25  1  0.213699  0.801900  0.496643  1
  F  F26  1  0.300328  0.288467  0.196291  1
  F  F27  1  0.711533  0.699672  0.403709  1
  F  F28  1  0.798485  0.208082  0.898353  1
  F  F29  1  0.791918  0.201515  0.701647  1
