# generated using pymatgen
data_V6O7F5
_symmetry_space_group_name_H-M   'P 1'
_cell_length_a   7.48984934
_cell_length_b   5.63473985
_cell_length_c   5.63473985
_cell_angle_alpha   70.43309102
_cell_angle_beta   70.84754279
_cell_angle_gamma   70.84754279
_symmetry_Int_Tables_number   1
_chemical_formula_structural   V6O7F5
_chemical_formula_sum   'V6 O7 F5'
_cell_volume   205.21034759
_cell_formula_units_Z   1
loop_
 _symmetry_equiv_pos_site_id
 _symmetry_equiv_pos_as_xyz
  1  'x, y, z'
loop_
 _atom_site_type_symbol
 _atom_site_label
 _atom_site_symmetry_multiplicity
 _atom_site_fract_x
 _atom_site_fract_y
 _atom_site_fract_z
 _atom_site_occupancy
  V  V0  1  0.842714  0.679960  0.694309  1
  V  V1  1  0.679499  0.329821  0.338968  1
  V  V2  1  0.320501  0.661032  0.670179  1
  V  V3  1  0.157286  0.305691  0.320040  1
  V  V4  1  0.500000  0.996132  0.003868  1
  V  V5  1  0.000000  0.026232  0.973768  1
  O  O6  1  0.665271  0.028900  0.642181  1
  O  O7  1  0.334729  0.357819  0.971100  1
  O  O8  1  0.965833  0.226051  0.225138  1
  O  O9  1  0.034167  0.774862  0.773949  1
  O  O10  1  0.000000  0.321324  0.678676  1
  O  O11  1  0.665502  0.635615  0.046288  1
  O  O12  1  0.334498  0.953711  0.364385  1
  F  F13  1  0.630729  0.568476  0.576598  1
  F  F14  1  0.299446  0.899755  0.894081  1
  F  F15  1  0.700554  0.105919  0.100245  1
  F  F16  1  0.369271  0.423402  0.431524  1
  F  F17  1  0.000000  0.705295  0.294704  1
