# generated using pymatgen
data_Ca12Mn8Si7(H5O16)3
_symmetry_space_group_name_H-M   'P 1'
_cell_length_a   11.56961202
_cell_length_b   12.13331448
_cell_length_c   12.17433959
_cell_angle_alpha   122.46219976
_cell_angle_beta   117.52739281
_cell_angle_gamma   91.44858945
_symmetry_Int_Tables_number   1
_chemical_formula_structural   Ca12Mn8Si7(H5O16)3
_chemical_formula_sum   'Ca12 Mn8 Si7 H15 O48'
_cell_volume   1190.33478607
_cell_formula_units_Z   1
loop_
 _symmetry_equiv_pos_site_id
 _symmetry_equiv_pos_as_xyz
  1  'x, y, z'
loop_
 _atom_site_type_symbol
 _atom_site_label
 _atom_site_symmetry_multiplicity
 _atom_site_fract_x
 _atom_site_fract_y
 _atom_site_fract_z
 _atom_site_occupancy
  Ca  Ca0  1  0.153448  0.830758  0.937453  1
  Ca  Ca1  1  0.146167  0.473145  0.768402  1
  Ca  Ca2  1  0.243195  0.646592  0.423999  1
  Ca  Ca3  1  0.248967  0.106188  0.864547  1
  Ca  Ca4  1  0.658336  0.874554  0.766765  1
  Ca  Ca5  1  0.321884  0.203973  0.629963  1
  Ca  Ca6  1  0.553903  0.642516  0.351646  1
  Ca  Ca7  1  0.469220  0.156925  0.341604  1
  Ca  Ca8  1  0.731130  0.891315  0.124309  1
  Ca  Ca9  1  0.816598  0.494228  0.648638  1
  Ca  Ca10  1  0.810529  0.553058  0.222976  1
  Ca  Ca11  1  0.828102  0.220772  0.158708  1
  Mn  Mn12  1  0.979693  0.476713  0.058916  1
  Mn  Mn13  1  0.003976  0.073578  0.003416  1
  Mn  Mn14  1  0.448652  0.522663  0.538138  1
  Mn  Mn15  1  0.510687  0.548355  0.997146  1
  Mn  Mn16  1  0.527187  0.958036  0.511004  1
  Mn  Mn17  1  0.476430  0.959442  0.929992  1
  Mn  Mn18  1  0.010861  0.609909  0.539582  1
  Mn  Mn19  1  0.982625  0.051663  0.500629  1
  Si  Si20  1  0.196246  0.261737  0.396188  1
  Si  Si21  1  0.373286  0.774132  0.136002  1
  Si  Si22  1  0.314786  0.329607  0.168107  1
  Si  Si23  1  0.663740  0.591173  0.857062  1
  Si  Si24  1  0.737392  0.213957  0.883200  1
  Si  Si25  1  0.869865  0.864223  0.625055  1
  Si  Si26  1  0.820991  0.222534  0.463852  1
  H  H27  1  0.152867  0.317566  0.213024  1
  H  H28  1  0.756176  0.411751  0.810915  1
  H  H29  1  0.309902  0.929922  0.694836  1
  H  H30  1  0.010736  0.907800  0.569482  1
  H  H31  1  0.658166  0.042217  0.445308  1
  H  H32  1  0.323294  0.402516  0.963146  1
  H  H33  1  0.000351  0.265799  0.440397  1
  H  H34  1  0.686628  0.657191  0.717976  1
  H  H35  1  0.228457  0.830596  0.750811  1
  H  H36  1  0.588600  0.349595  0.914417  1
  H  H37  1  0.425887  0.929385  0.631173  1
  H  H38  1  0.035800  0.034191  0.317303  1
  H  H39  1  0.467763  0.923696  0.103915  1
  H  H40  1  0.159212  0.438848  0.021637  1
  H  H41  1  0.882909  0.855521  0.960094  1
  O  O42  1  0.008121  0.972081  0.812066  1
  O  O43  1  0.102237  0.499008  0.017983  1
  O  O44  1  0.139700  0.717611  0.562795  1
  O  O45  1  0.280573  0.907225  0.868253  1
  O  O46  1  0.935961  0.335456  0.653271  1
  O  O47  1  0.387989  0.217107  0.161050  1
  O  O48  1  0.160947  0.296636  0.526617  1
  O  O49  1  0.718041  0.315418  0.026046  1
  O  O50  1  0.916803  0.461172  0.349300  1
  O  O51  1  0.330193  0.434757  0.904421  1
  O  O52  1  0.977976  0.970935  0.313259  1
  O  O53  1  0.417169  0.854937  0.532236  1
  O  O54  1  0.056973  0.446065  0.189265  1
  O  O55  1  0.821483  0.118617  0.922027  1
  O  O56  1  0.276758  0.338104  0.027336  1
  O  O57  1  0.715599  0.864949  0.589045  1
  O  O58  1  0.438161  0.786676  0.297563  1
  O  O59  1  0.164919  0.089785  0.639820  1
  O  O60  1  0.539041  0.937485  0.083011  1
  O  O61  1  0.258953  0.405823  0.422975  1
  O  O62  1  0.523802  0.378832  0.855458  1
  O  O63  1  0.154098  0.251523  0.118337  1
  O  O64  1  0.388650  0.492079  0.335873  1
  O  O65  1  0.442820  0.693584  0.632913  1
  O  O66  1  0.686714  0.269594  0.424266  1
  O  O67  1  0.505199  0.500496  0.691352  1
  O  O68  1  0.924213  0.883085  0.918833  1
  O  O69  1  0.474452  0.712261  0.073634  1
  O  O70  1  0.638114  0.593244  0.598942  1
  O  O71  1  0.400599  0.006256  0.784736  1
  O  O72  1  0.797787  0.058812  0.401018  1
  O  O73  1  0.584178  0.115961  0.715593  1
  O  O74  1  0.305196  0.179379  0.410749  1
  O  O75  1  0.599550  0.556756  0.168559  1
  O  O76  1  0.375455  0.923972  0.164893  1
  O  O77  1  0.758281  0.493816  0.810804  1
  O  O78  1  0.602050  0.078230  0.487977  1
  O  O79  1  0.923770  0.926667  0.548992  1
  O  O80  1  0.665348  0.641900  0.013364  1
  O  O81  1  0.028106  0.605888  0.690001  1
  O  O82  1  0.209676  0.678731  0.990769  1
  O  O83  1  0.855689  0.700857  0.516163  1
  O  O84  1  0.733605  0.737280  0.896809  1
  O  O85  1  0.948902  0.620386  0.156585  1
  O  O86  1  0.660048  0.000178  0.986207  1
  O  O87  1  0.893874  0.242631  0.380848  1
  O  O88  1  0.828847  0.322072  0.880848  1
  O  O89  1  0.042736  0.162453  0.214518  1
