# generated using pymatgen
data_Li2Ti(BO3)2
_symmetry_space_group_name_H-M   'P 1'
_cell_length_a   5.17088526
_cell_length_b   8.95214126
_cell_length_c   9.99448311
_cell_angle_alpha   89.50972310
_cell_angle_beta   92.68373499
_cell_angle_gamma   91.10036476
_symmetry_Int_Tables_number   1
_chemical_formula_structural   Li2Ti(BO3)2
_chemical_formula_sum   'Li8 Ti4 B8 O24'
_cell_volume   462.04333627
_cell_formula_units_Z   4
loop_
 _symmetry_equiv_pos_site_id
 _symmetry_equiv_pos_as_xyz
  1  'x, y, z'
loop_
 _atom_site_type_symbol
 _atom_site_label
 _atom_site_symmetry_multiplicity
 _atom_site_fract_x
 _atom_site_fract_y
 _atom_site_fract_z
 _atom_site_occupancy
  Li  Li0  1  0.316036  0.490489  0.421012  1
  Li  Li1  1  0.360526  0.468948  0.813577  1
  Li  Li2  1  0.651142  0.529005  0.166108  1
  Li  Li3  1  0.695109  0.522987  0.607225  1
  Li  Li4  1  0.661962  0.854582  0.111298  1
  Li  Li5  1  0.855027  0.038348  0.912544  1
  Li  Li6  1  0.829438  0.342305  0.385376  1
  Li  Li7  1  0.855924  0.023627  0.321157  1
  Ti  Ti8  1  0.145879  0.319573  0.122023  1
  Ti  Ti9  1  0.346161  0.823111  0.368939  1
  Ti  Ti10  1  0.637197  0.178728  0.631293  1
  Ti  Ti11  1  0.874425  0.706580  0.872888  1
  B  B12  1  0.178091  0.313305  0.612249  1
  B  B13  1  0.162717  0.657139  0.130774  1
  B  B14  1  0.320859  0.800723  0.887071  1
  B  B15  1  0.339996  0.161232  0.372566  1
  B  B16  1  0.653445  0.842390  0.628964  1
  B  B17  1  0.659807  0.182998  0.126421  1
  B  B18  1  0.844949  0.357101  0.867464  1
  B  B19  1  0.824724  0.677387  0.372608  1
  O  O20  1  0.085168  0.337496  0.932761  1
  O  O21  1  0.092511  0.666908  0.388262  1
  O  O22  1  0.105187  0.888896  0.889220  1
  O  O23  1  0.226349  0.018021  0.357555  1
  O  O24  1  0.195753  0.285060  0.333413  1
  O  O25  1  0.239648  0.652127  0.865415  1
  O  O26  1  0.277256  0.169919  0.632690  1
  O  O27  1  0.321273  0.773766  0.173823  1
  O  O28  1  0.273573  0.513425  0.143074  1
  O  O29  1  0.352582  0.430018  0.614121  1
  O  O30  1  0.432567  0.815770  0.551443  1
  O  O31  1  0.393167  0.177925  0.106237  1
  O  O32  1  0.579068  0.839607  0.910661  1
  O  O33  1  0.595831  0.173008  0.422191  1
  O  O34  1  0.671456  0.551822  0.380756  1
  O  O35  1  0.744208  0.497632  0.851601  1
  O  O36  1  0.710797  0.232105  0.818041  1
  O  O37  1  0.720051  0.818316  0.343556  1
  O  O38  1  0.779976  0.324986  0.152834  1
  O  O39  1  0.785626  0.723040  0.684672  1
  O  O40  1  0.744253  0.987125  0.651506  1
  O  O41  1  0.806362  0.061434  0.123987  1
  O  O42  1  0.911802  0.331466  0.589335  1
  O  O43  1  0.909120  0.671769  0.081295  1
