# generated using pymatgen
data_Mn6O5F7
_symmetry_space_group_name_H-M   'P 1'
_cell_length_a   7.36258401
_cell_length_b   5.74061056
_cell_length_c   5.74061056
_cell_angle_alpha   73.43690362
_cell_angle_beta   72.75656274
_cell_angle_gamma   72.75656274
_symmetry_Int_Tables_number   1
_chemical_formula_structural   Mn6O5F7
_chemical_formula_sum   'Mn6 O5 F7'
_cell_volume   216.07656216
_cell_formula_units_Z   1
loop_
 _symmetry_equiv_pos_site_id
 _symmetry_equiv_pos_as_xyz
  1  'x, y, z'
loop_
 _atom_site_type_symbol
 _atom_site_label
 _atom_site_symmetry_multiplicity
 _atom_site_fract_x
 _atom_site_fract_y
 _atom_site_fract_z
 _atom_site_occupancy
  Mn  Mn0  1  0.831212  0.692450  0.692450  1
  Mn  Mn1  1  0.668821  0.338275  0.338275  1
  Mn  Mn2  1  0.316731  0.651039  0.651039  1
  Mn  Mn3  1  0.164894  0.330081  0.330081  1
  Mn  Mn4  1  0.513375  0.982192  0.982192  1
  Mn  Mn5  1  0.999719  0.007547  0.007547  1
  O  O6  1  0.670695  0.021875  0.647149  1
  O  O7  1  0.967418  0.232070  0.232070  1
  O  O8  1  0.032880  0.777227  0.777227  1
  O  O9  1  0.367336  0.426867  0.426867  1
  O  O10  1  0.670695  0.647149  0.021875  1
  F  F11  1  0.348425  0.333943  0.962544  1
  F  F12  1  0.294105  0.885699  0.885699  1
  F  F13  1  0.624614  0.579531  0.579531  1
  F  F14  1  0.705868  0.101154  0.101154  1
  F  F15  1  0.348425  0.962544  0.333943  1
  F  F16  1  0.987395  0.330135  0.700219  1
  F  F17  1  0.987395  0.700219  0.330135  1
