# generated using pymatgen
data_CoH8(ClO2)2
_symmetry_space_group_name_H-M   'P 1'
_cell_length_a   12.29002564
_cell_length_b   10.37952751
_cell_length_c   6.02168893
_cell_angle_alpha   90.00000000
_cell_angle_beta   96.55121587
_cell_angle_gamma   90.00000000
_symmetry_Int_Tables_number   1
_chemical_formula_structural   CoH8(ClO2)2
_chemical_formula_sum   'Co4 H32 Cl8 O16'
_cell_volume   763.13885230
_cell_formula_units_Z   4
loop_
 _symmetry_equiv_pos_site_id
 _symmetry_equiv_pos_as_xyz
  1  'x, y, z'
loop_
 _atom_site_type_symbol
 _atom_site_label
 _atom_site_symmetry_multiplicity
 _atom_site_fract_x
 _atom_site_fract_y
 _atom_site_fract_z
 _atom_site_occupancy
  Co  Co0  1  0.245030  0.388274  0.811467  1
  Co  Co1  1  0.254970  0.888274  0.188533  1
  Co  Co2  1  0.754970  0.611726  0.188533  1
  Co  Co3  1  0.745030  0.111726  0.811467  1
  H  H4  1  0.388436  0.282945  0.533104  1
  H  H5  1  0.111564  0.782945  0.466896  1
  H  H6  1  0.611564  0.717055  0.466896  1
  H  H7  1  0.888436  0.217055  0.533104  1
  H  H8  1  0.311961  0.251061  0.124885  1
  H  H9  1  0.188039  0.751061  0.875115  1
  H  H10  1  0.688039  0.748939  0.875115  1
  H  H11  1  0.811961  0.248939  0.124885  1
  H  H12  1  0.288121  0.664704  0.968579  1
  H  H13  1  0.211879  0.164704  0.031421  1
  H  H14  1  0.711879  0.335296  0.031421  1
  H  H15  1  0.788121  0.835296  0.968579  1
  H  H16  1  0.043450  0.377762  0.868438  1
  H  H17  1  0.456550  0.877762  0.131562  1
  H  H18  1  0.956550  0.622238  0.131562  1
  H  H19  1  0.543450  0.122238  0.868438  1
  H  H20  1  0.417471  0.641844  0.627858  1
  H  H21  1  0.082529  0.141844  0.372142  1
  H  H22  1  0.582529  0.358156  0.372142  1
  H  H23  1  0.917471  0.858156  0.627858  1
  H  H24  1  0.469765  0.502434  0.004793  1
  H  H25  1  0.030235  0.002434  0.995207  1
  H  H26  1  0.530235  0.497566  0.995207  1
  H  H27  1  0.969765  0.997566  0.004793  1
  H  H28  1  0.941167  0.489726  0.255677  1
  H  H29  1  0.558833  0.989726  0.744323  1
  H  H30  1  0.058833  0.510274  0.744323  1
  H  H31  1  0.441167  0.010274  0.255677  1
  H  H32  1  0.205519  0.684600  0.420824  1
  H  H33  1  0.294481  0.184600  0.579176  1
  H  H34  1  0.794481  0.315400  0.579176  1
  H  H35  1  0.705519  0.815400  0.420824  1
  Cl  Cl36  1  0.137078  0.068622  0.531202  1
  Cl  Cl37  1  0.362922  0.568622  0.468798  1
  Cl  Cl38  1  0.862922  0.931378  0.468798  1
  Cl  Cl39  1  0.637078  0.431378  0.531202  1
  Cl  Cl40  1  0.477132  0.207946  0.215108  1
  Cl  Cl41  1  0.022868  0.707946  0.784892  1
  Cl  Cl42  1  0.522868  0.792054  0.784892  1
  Cl  Cl43  1  0.977132  0.292054  0.215108  1
  O  O44  1  0.327424  0.268084  0.623887  1
  O  O45  1  0.172576  0.768084  0.376113  1
  O  O46  1  0.672576  0.731916  0.376113  1
  O  O47  1  0.827424  0.231916  0.623887  1
  O  O48  1  0.234280  0.259337  0.055597  1
  O  O49  1  0.265720  0.759337  0.944403  1
  O  O50  1  0.765720  0.740663  0.944403  1
  O  O51  1  0.734280  0.240663  0.055597  1
  O  O52  1  0.291307  0.518329  0.954809  1
  O  O53  1  0.208693  0.018329  0.045191  1
  O  O54  1  0.708693  0.481671  0.045191  1
  O  O55  1  0.791307  0.981671  0.954809  1
  O  O56  1  0.079167  0.416651  0.746091  1
  O  O57  1  0.420833  0.916651  0.253909  1
  O  O58  1  0.920833  0.583349  0.253909  1
  O  O59  1  0.579167  0.083349  0.746091  1
