# generated using pymatgen
data_CrOF4
_symmetry_space_group_name_H-M   'P 1'
_cell_length_a   5.76482245
_cell_length_b   9.98284416
_cell_length_c   14.58682883
_cell_angle_alpha   106.74332645
_cell_angle_beta   101.39686428
_cell_angle_gamma   73.21767434
_symmetry_Int_Tables_number   1
_chemical_formula_structural   CrOF4
_chemical_formula_sum   'Cr8 O8 F32'
_cell_volume   763.61750667
_cell_formula_units_Z   8
loop_
 _symmetry_equiv_pos_site_id
 _symmetry_equiv_pos_as_xyz
  1  'x, y, z'
loop_
 _atom_site_type_symbol
 _atom_site_label
 _atom_site_symmetry_multiplicity
 _atom_site_fract_x
 _atom_site_fract_y
 _atom_site_fract_z
 _atom_site_occupancy
  Cr  Cr0  1  0.532205  0.956629  0.177381  1
  Cr  Cr1  1  0.946826  0.878569  0.607445  1
  Cr  Cr2  1  0.311452  0.543371  0.322619  1
  Cr  Cr3  1  0.782051  0.378569  0.107445  1
  Cr  Cr4  1  0.217949  0.621431  0.892555  1
  Cr  Cr5  1  0.688548  0.456629  0.677381  1
  Cr  Cr6  1  0.053174  0.121431  0.392555  1
  Cr  Cr7  1  0.467795  0.043371  0.822619  1
  O  O8  1  0.744086  0.858413  0.117653  1
  O  O9  1  0.724691  0.870177  0.526685  1
  O  O10  1  0.484845  0.641587  0.382347  1
  O  O11  1  0.931818  0.370177  0.026685  1
  O  O12  1  0.068182  0.629823  0.973315  1
  O  O13  1  0.515155  0.358413  0.617653  1
  O  O14  1  0.275309  0.129823  0.473315  1
  O  O15  1  0.255914  0.141587  0.882347  1
  F  F16  1  0.291499  0.871723  0.130485  1
  F  F17  1  0.086060  0.934627  0.345549  1
  F  F18  1  0.577930  0.882799  0.277185  1
  F  F19  1  0.181405  0.878990  0.546648  1
  F  F20  1  0.337591  0.904474  0.742719  1
  F  F21  1  0.831332  0.881758  0.712605  1
  F  F22  1  0.620880  0.915000  0.889048  1
  F  F23  1  0.183545  0.617201  0.222815  1
  F  F24  1  0.675138  0.565373  0.154451  1
  F  F25  1  0.032738  0.628277  0.369515  1
  F  F26  1  0.185046  0.802603  0.895369  1
  F  F27  1  0.092280  0.697397  0.604631  1
  F  F28  1  0.646833  0.585000  0.610952  1
  F  F29  1  0.486253  0.378990  0.046648  1
  F  F30  1  0.000485  0.618242  0.787395  1
  F  F31  1  0.499346  0.595526  0.757281  1
  F  F32  1  0.500654  0.404474  0.242719  1
  F  F33  1  0.999515  0.381758  0.212605  1
  F  F34  1  0.513747  0.621010  0.953352  1
  F  F35  1  0.353167  0.415000  0.389048  1
  F  F36  1  0.907720  0.302603  0.395369  1
  F  F37  1  0.814954  0.197397  0.104631  1
  F  F38  1  0.967262  0.371723  0.630485  1
  F  F39  1  0.324862  0.434627  0.845549  1
  F  F40  1  0.816455  0.382799  0.777185  1
  F  F41  1  0.379120  0.085000  0.110952  1
  F  F42  1  0.168668  0.118242  0.287395  1
  F  F43  1  0.662409  0.095526  0.257281  1
  F  F44  1  0.818595  0.121010  0.453352  1
  F  F45  1  0.422070  0.117201  0.722815  1
  F  F46  1  0.913940  0.065373  0.654451  1
  F  F47  1  0.708501  0.128277  0.869515  1
