# generated using pymatgen
data_Na2Co6O7
_symmetry_space_group_name_H-M   'P 1'
_cell_length_a   10.87697643
_cell_length_b   10.83470840
_cell_length_c   3.24817091
_cell_angle_alpha   90.01436465
_cell_angle_beta   90.00011922
_cell_angle_gamma   89.99552825
_symmetry_Int_Tables_number   1
_chemical_formula_structural   Na2Co6O7
_chemical_formula_sum   'Na4 Co12 O14'
_cell_volume   382.79325090
_cell_formula_units_Z   2
loop_
 _symmetry_equiv_pos_site_id
 _symmetry_equiv_pos_as_xyz
  1  'x, y, z'
loop_
 _atom_site_type_symbol
 _atom_site_label
 _atom_site_symmetry_multiplicity
 _atom_site_fract_x
 _atom_site_fract_y
 _atom_site_fract_z
 _atom_site_occupancy
  Na  Na0  1  0.139244  0.861259  0.984788  1
  Na  Na1  1  0.360158  0.361184  0.484669  1
  Na  Na2  1  0.639965  0.638884  0.484620  1
  Na  Na3  1  0.860428  0.138835  0.984488  1
  Co  Co4  1  0.088270  0.345473  0.988159  1
  Co  Co5  1  0.117712  0.121693  0.497277  1
  Co  Co6  1  0.154332  0.587917  0.488300  1
  Co  Co7  1  0.345660  0.087758  0.988344  1
  Co  Co8  1  0.382576  0.621729  0.996734  1
  Co  Co9  1  0.411487  0.845276  0.487999  1
  Co  Co10  1  0.588369  0.154704  0.488015  1
  Co  Co11  1  0.617728  0.378452  0.997181  1
  Co  Co12  1  0.654369  0.912188  0.988215  1
  Co  Co13  1  0.845703  0.412026  0.488318  1
  Co  Co14  1  0.881625  0.878728  0.497758  1
  Co  Co15  1  0.911981  0.654447  0.988101  1
  O  O16  1  -0.000165  0.000026  0.635967  1
  O  O17  1  0.010432  0.696629  0.488082  1
  O  O18  1  0.196074  0.488958  0.988539  1
  O  O19  1  0.197375  0.195593  0.002981  1
  O  O20  1  0.302601  0.695545  0.503396  1
  O  O21  1  0.303985  0.988966  0.488559  1
  O  O22  1  0.489596  0.196622  0.988038  1
  O  O23  1  0.500104  0.500034  0.138009  1
  O  O24  1  0.510480  0.803307  0.987962  1
  O  O25  1  0.696057  0.011003  0.488515  1
  O  O26  1  0.697390  0.304355  0.503527  1
  O  O27  1  0.802852  0.804262  0.002779  1
  O  O28  1  0.803953  0.510948  0.988689  1
  O  O29  1  0.989657  0.303198  0.488090  1
