# generated using pymatgen
data_LiMn2P2(O4F)2
_symmetry_space_group_name_H-M   'P 1'
_cell_length_a   12.80474506
_cell_length_b   5.07142316
_cell_length_c   12.88022733
_cell_angle_alpha   89.99800758
_cell_angle_beta   59.96722315
_cell_angle_gamma   90.11181966
_symmetry_Int_Tables_number   1
_chemical_formula_structural   LiMn2P2(O4F)2
_chemical_formula_sum   'Li4 Mn8 P8 O32 F8'
_cell_volume   724.11957544
_cell_formula_units_Z   4
loop_
 _symmetry_equiv_pos_site_id
 _symmetry_equiv_pos_as_xyz
  1  'x, y, z'
loop_
 _atom_site_type_symbol
 _atom_site_label
 _atom_site_symmetry_multiplicity
 _atom_site_fract_x
 _atom_site_fract_y
 _atom_site_fract_z
 _atom_site_occupancy
  Li  Li0  1  0.097149  0.774676  0.328621  1
  Li  Li1  1  0.400755  0.272751  0.422530  1
  Li  Li2  1  0.581183  0.759353  0.076906  1
  Li  Li3  1  0.668985  0.260785  0.160987  1
  Mn  Mn4  1  0.066929  0.739723  0.117239  1
  Mn  Mn5  1  0.065553  0.779591  0.622032  1
  Mn  Mn6  1  0.423232  0.217310  0.180628  1
  Mn  Mn7  1  0.577261  0.721126  0.321780  1
  Mn  Mn8  1  0.432281  0.282087  0.686386  1
  Mn  Mn9  1  0.563968  0.780020  0.810607  1
  Mn  Mn10  1  0.930768  0.233246  0.383192  1
  Mn  Mn11  1  0.932495  0.274730  0.877123  1
  P  P12  1  0.153965  0.276490  0.431100  1
  P  P13  1  0.340689  0.716292  0.077881  1
  P  P14  1  0.155029  0.236295  0.931915  1
  P  P15  1  0.343527  0.777115  0.587254  1
  P  P16  1  0.660955  0.221237  0.420698  1
  P  P17  1  0.844667  0.774009  0.063946  1
  P  P18  1  0.656115  0.273081  0.916770  1
  P  P19  1  0.842239  0.727646  0.571606  1
  O  O20  1  0.126575  0.407444  0.042309  1
  O  O21  1  0.204526  0.788979  0.139963  1
  O  O22  1  0.089017  0.158869  0.365993  1
  O  O23  1  0.126705  0.573073  0.454356  1
  O  O24  1  0.122074  0.124279  0.545401  1
  O  O25  1  0.358912  0.422746  0.092100  1
  O  O26  1  0.390048  0.866835  0.150412  1
  O  O27  1  0.292551  0.233327  0.346399  1
  O  O28  1  0.210381  0.738047  0.629079  1
  O  O29  1  0.082301  0.323553  0.872548  1
  O  O30  1  0.126848  0.943044  0.974131  1
  O  O31  1  0.414777  0.671023  0.455379  1
  O  O32  1  0.375657  0.078019  0.588386  1
  O  O33  1  0.594071  0.161733  0.050478  1
  O  O34  1  0.374972  0.615393  0.667843  1
  O  O35  1  0.289605  0.252626  0.840629  1
  O  O36  1  0.707709  0.714673  0.151785  1
  O  O37  1  0.621892  0.367478  0.337414  1
  O  O38  1  0.403600  0.808404  0.947317  1
  O  O39  1  0.645749  0.928984  0.407863  1
  O  O40  1  0.587505  0.331155  0.549194  1
  O  O41  1  0.853765  0.075790  0.032936  1
  O  O42  1  0.912517  0.697647  0.129814  1
  O  O43  1  0.793811  0.304760  0.370389  1
  O  O44  1  0.707789  0.754457  0.657743  1
  O  O45  1  0.613633  0.115416  0.844128  1
  O  O46  1  0.623487  0.566998  0.922520  1
  O  O47  1  0.879977  0.893282  0.456368  1
  O  O48  1  0.874656  0.435144  0.528058  1
  O  O49  1  0.911138  0.813557  0.635467  1
  O  O50  1  0.791932  0.221223  0.863992  1
  O  O51  1  0.875830  0.606765  0.953570  1
  F  F52  1  0.006792  0.537198  0.279073  1
  F  F53  1  0.995288  0.972753  0.787893  1
  F  F54  1  0.497393  0.505532  0.219875  1
  F  F55  1  0.516350  0.020803  0.274800  1
  F  F56  1  0.488681  0.980831  0.720240  1
  F  F57  1  0.503575  0.469143  0.768943  1
  F  F58  1  0.999699  0.033269  0.226233  1
  F  F59  1  0.001000  0.465013  0.727576  1
