# generated using pymatgen
data_LiMnV(P2O7)2
_symmetry_space_group_name_H-M   'P 1'
_cell_length_a   13.98293147
_cell_length_b   8.16343354
_cell_length_c   7.03505267
_cell_angle_alpha   92.03464986
_cell_angle_beta   80.13272569
_cell_angle_gamma   90.10506114
_symmetry_Int_Tables_number   1
_chemical_formula_structural   LiMnV(P2O7)2
_chemical_formula_sum   'Li3 Mn3 V3 P12 O42'
_cell_volume   790.65706334
_cell_formula_units_Z   3
loop_
 _symmetry_equiv_pos_site_id
 _symmetry_equiv_pos_as_xyz
  1  'x, y, z'
loop_
 _atom_site_type_symbol
 _atom_site_label
 _atom_site_symmetry_multiplicity
 _atom_site_fract_x
 _atom_site_fract_y
 _atom_site_fract_z
 _atom_site_occupancy
  Li  Li0  1  0.389108  0.863272  0.282979  1
  Li  Li1  1  0.723386  0.863106  0.947893  1
  Li  Li2  1  0.942194  0.358031  0.386563  1
  Mn  Mn3  1  0.260648  0.006992  0.005959  1
  Mn  Mn4  1  0.594044  0.006861  0.671925  1
  Mn  Mn5  1  0.931256  0.992933  0.346963  1
  V  V6  1  0.073173  0.505825  0.652099  1
  V  V7  1  0.401137  0.493878  0.317912  1
  V  V8  1  0.734230  0.495399  0.984896  1
  P  P9  1  0.133602  0.175071  0.384591  1
  P  P10  1  0.073395  0.780917  0.016883  1
  P  P11  1  0.261300  0.286268  0.652449  1
  P  P12  1  0.201488  0.678568  0.282855  1
  P  P13  1  0.405861  0.781280  0.685948  1
  P  P14  1  0.534032  0.679386  0.950122  1
  P  P15  1  0.468095  0.176418  0.052331  1
  P  P16  1  0.594777  0.287454  0.319840  1
  P  P17  1  0.802113  0.177076  0.720568  1
  P  P18  1  0.739884  0.781656  0.352525  1
  P  P19  1  0.929566  0.290703  0.979872  1
  P  P20  1  0.866283  0.682012  0.617364  1
  O  O21  1  0.014964  0.339275  0.824425  1
  O  O22  1  0.045480  0.679058  0.848387  1
  O  O23  1  0.133174  0.932129  0.956818  1
  O  O24  1  0.059139  0.038313  0.410968  1
  O  O25  1  0.083331  0.344848  0.429653  1
  O  O26  1  0.130199  0.662395  0.475958  1
  O  O27  1  0.197030  0.440154  0.710757  1
  O  O28  1  0.199365  0.152211  0.548806  1
  O  O29  1  0.136156  0.652395  0.117597  1
  O  O30  1  0.294463  0.200190  0.812755  1
  O  O31  1  0.200682  0.174871  0.189908  1
  O  O32  1  0.314722  0.825275  0.830702  1
  O  O33  1  0.249955  0.844102  0.262461  1
  O  O34  1  0.273924  0.535131  0.253098  1
  O  O35  1  0.347906  0.336011  0.496158  1
  O  O36  1  0.380059  0.686512  0.508642  1
  O  O37  1  0.469765  0.652645  0.781616  1
  O  O38  1  0.465910  0.932127  0.618815  1
  O  O39  1  0.533009  0.172617  0.855652  1
  O  O40  1  0.393523  0.038631  0.088929  1
  O  O41  1  0.421930  0.347619  0.094445  1
  O  O42  1  0.583755  0.844432  0.925399  1
  O  O43  1  0.605970  0.535543  0.922057  1
  O  O44  1  0.462332  0.672055  0.143597  1
  O  O45  1  0.528697  0.439413  0.372942  1
  O  O46  1  0.535192  0.150075  0.215119  1
  O  O47  1  0.628165  0.202239  0.480666  1
  O  O48  1  0.648208  0.827648  0.495158  1
  O  O49  1  0.728254  0.038839  0.753293  1
  O  O50  1  0.755312  0.347692  0.762003  1
  O  O51  1  0.795320  0.669476  0.811660  1
  O  O52  1  0.681503  0.338056  0.164034  1
  O  O53  1  0.713269  0.689671  0.174275  1
  O  O54  1  0.869087  0.150387  0.883014  1
  O  O55  1  0.800723  0.648944  0.448840  1
  O  O56  1  0.802322  0.931217  0.289604  1
  O  O57  1  0.867658  0.176499  0.522529  1
  O  O58  1  0.910753  0.848251  0.595578  1
  O  O59  1  0.938488  0.537362  0.580745  1
  O  O60  1  0.862320  0.441279  0.039306  1
  O  O61  1  0.959102  0.214291  0.152451  1
  O  O62  1  0.980192  0.821844  0.158691  1
