# generated using pymatgen
data_FeOF
_symmetry_space_group_name_H-M   'P 1'
_cell_length_a   4.72082363
_cell_length_b   14.01885315
_cell_length_c   3.02474924
_cell_angle_alpha   89.72873430
_cell_angle_beta   90.03061868
_cell_angle_gamma   90.69239726
_symmetry_Int_Tables_number   1
_chemical_formula_structural   FeOF
_chemical_formula_sum   'Fe6 O6 F6'
_cell_volume   200.16263452
_cell_formula_units_Z   6
loop_
 _symmetry_equiv_pos_site_id
 _symmetry_equiv_pos_as_xyz
  1  'x, y, z'
loop_
 _atom_site_type_symbol
 _atom_site_label
 _atom_site_symmetry_multiplicity
 _atom_site_fract_x
 _atom_site_fract_y
 _atom_site_fract_z
 _atom_site_occupancy
  Fe  Fe0  1  0.959978  0.995544  0.999888  1
  Fe  Fe1  1  0.103229  0.333765  -0.001520  1
  Fe  Fe2  1  0.964422  0.667990  -0.000471  1
  Fe  Fe3  1  0.532277  0.168771  0.499624  1
  Fe  Fe4  1  0.532937  0.496679  0.501292  1
  Fe  Fe5  1  0.401819  0.832745  0.500053  1
  O  O6  1  0.260645  0.269769  0.496712  1
  O  O7  1  0.145727  0.931224  0.501699  1
  O  O8  1  0.241143  0.768811  -0.004930  1
  O  O9  1  0.361265  0.433586  0.001817  1
  O  O10  1  0.696876  0.564807  -0.000829  1
  O  O11  1  0.796223  0.066962  0.500196  1
  F  F12  1  0.175302  0.604879  0.499883  1
  F  F13  1  0.317308  0.103928  0.999897  1
  F  F14  1  0.754577  0.235266  0.000134  1
  F  F15  1  0.622376  0.896153  0.005061  1
  F  F16  1  0.889312  0.394720  0.502998  1
  F  F17  1  0.744586  0.734399  0.498495  1
