# generated using pymatgen
data_Ho(ClO4)3
_symmetry_space_group_name_H-M   'P 1'
_cell_length_a   9.26824166
_cell_length_b   9.26835551
_cell_length_c   5.71198653
_cell_angle_alpha   90.00000000
_cell_angle_beta   90.00000000
_cell_angle_gamma   119.99994210
_symmetry_Int_Tables_number   1
_chemical_formula_structural   Ho(ClO4)3
_chemical_formula_sum   'Ho2 Cl6 O24'
_cell_volume   424.93068416
_cell_formula_units_Z   2
loop_
 _symmetry_equiv_pos_site_id
 _symmetry_equiv_pos_as_xyz
  1  'x, y, z'
loop_
 _atom_site_type_symbol
 _atom_site_label
 _atom_site_symmetry_multiplicity
 _atom_site_fract_x
 _atom_site_fract_y
 _atom_site_fract_z
 _atom_site_occupancy
  Ho  Ho0  1  0.333366  0.666686  0.750000  1
  Ho  Ho1  1  0.666691  0.333339  0.250000  1
  Cl  Cl2  1  0.090954  0.707646  0.250000  1
  Cl  Cl3  1  0.292358  0.383312  0.250000  1
  Cl  Cl4  1  0.616709  0.909053  0.250000  1
  Cl  Cl5  1  0.383298  0.090951  0.750000  1
  Cl  Cl6  1  0.707644  0.616685  0.750000  1
  Cl  Cl7  1  0.909051  0.292355  0.750000  1
  O  O8  1  0.019987  0.812379  0.250000  1
  O  O9  1  0.034875  0.470273  0.750000  1
  O  O10  1  0.197706  0.741578  0.043091  1
  O  O11  1  0.197706  0.741578  0.456909  1
  O  O12  1  0.435397  0.965121  0.750000  1
  O  O13  1  0.258423  0.456127  0.456909  1
  O  O14  1  0.258423  0.456127  0.043091  1
  O  O15  1  0.187614  0.207606  0.250000  1
  O  O16  1  0.543884  0.802298  0.043092  1
  O  O17  1  0.543884  0.802298  0.456908  1
  O  O18  1  0.207603  0.019990  0.750000  1
  O  O19  1  0.470281  0.435403  0.250000  1
  O  O20  1  0.529725  0.564595  0.750000  1
  O  O21  1  0.792402  0.980010  0.250000  1
  O  O22  1  0.456122  0.197701  0.543088  1
  O  O23  1  0.456122  0.197701  0.956912  1
  O  O24  1  0.812383  0.792394  0.750000  1
  O  O25  1  0.741580  0.543873  0.956905  1
  O  O26  1  0.741580  0.543873  0.543095  1
  O  O27  1  0.564604  0.034876  0.250000  1
  O  O28  1  0.802296  0.258418  0.956908  1
  O  O29  1  0.802296  0.258418  0.543092  1
  O  O30  1  0.965132  0.529725  0.250000  1
  O  O31  1  0.980007  0.187612  0.750000  1
