# generated using pymatgen
data_Li24TiCr11O36
_symmetry_space_group_name_H-M   'P 1'
_cell_length_a   8.74853065
_cell_length_b   8.71956380
_cell_length_c   10.60670400
_cell_angle_alpha   114.27019978
_cell_angle_beta   97.44078827
_cell_angle_gamma   60.10946308
_symmetry_Int_Tables_number   1
_chemical_formula_structural   Li24TiCr11O36
_chemical_formula_sum   'Li24 Ti1 Cr11 O36'
_cell_volume   636.57467525
_cell_formula_units_Z   1
loop_
 _symmetry_equiv_pos_site_id
 _symmetry_equiv_pos_as_xyz
  1  'x, y, z'
loop_
 _atom_site_type_symbol
 _atom_site_label
 _atom_site_symmetry_multiplicity
 _atom_site_fract_x
 _atom_site_fract_y
 _atom_site_fract_z
 _atom_site_occupancy
  Li  Li0  1  0.164150  0.008614  0.999791  1
  Li  Li1  1  0.084181  0.082246  0.750002  1
  Li  Li2  1  0.999636  0.498739  0.500845  1
  Li  Li3  1  0.333678  0.170350  0.499961  1
  Li  Li4  1  0.250807  0.250964  0.248101  1
  Li  Li5  1  0.499655  0.337401  0.000039  1
  Li  Li6  1  0.171571  0.325141  0.001165  1
  Li  Li7  1  0.500666  0.000616  0.999133  1
  Li  Li8  1  0.416667  0.415950  0.750000  1
  Li  Li9  1  0.329906  0.496578  0.499392  1
  Li  Li10  1  0.668480  0.162563  0.498363  1
  Li  Li11  1  0.003096  0.839684  0.501064  1
  Li  Li12  1  0.164853  0.666012  0.001637  1
  Li  Li13  1  0.000044  0.160451  0.501322  1
  Li  Li14  1  0.332667  0.835483  0.500867  1
  Li  Li15  1  0.669183  0.506306  0.500209  1
  Li  Li16  1  0.582527  0.587003  0.251899  1
  Li  Li17  1  0.830237  0.675049  0.998936  1
  Li  Li18  1  0.503427  0.660424  0.000608  1
  Li  Li19  1  0.833698  0.330863  0.999155  1
  Li  Li20  1  0.749152  0.749757  0.749998  1
  Li  Li21  1  0.661763  0.828880  0.498835  1
  Li  Li22  1  0.916667  0.916892  0.250000  1
  Li  Li23  1  0.833290  0.992506  0.998678  1
  Ti  Ti24  1  0.916667  0.584097  0.250000  1
  Cr  Cr25  1  0.076577  0.414546  0.749783  1
  Cr  Cr26  1  0.416667  0.088715  0.750000  1
  Cr  Cr27  1  0.090478  0.742294  0.749590  1
  Cr  Cr28  1  0.756756  0.074675  0.750217  1
  Cr  Cr29  1  0.252779  0.582056  0.247581  1
  Cr  Cr30  1  0.584984  0.249835  0.243782  1
  Cr  Cr31  1  0.416667  0.753511  0.750000  1
  Cr  Cr32  1  0.742855  0.416515  0.750410  1
  Cr  Cr33  1  0.248349  0.924370  0.256218  1
  Cr  Cr34  1  0.916667  0.245197  0.250000  1
  Cr  Cr35  1  0.580555  0.920588  0.252419  1
  O  O36  1  0.308707  0.028447  0.864311  1
  O  O37  1  0.211546  0.146223  0.637543  1
  O  O38  1  0.122361  0.191575  0.363646  1
  O  O39  1  0.286862  0.355563  0.861889  1
  O  O40  1  0.024322  0.302855  0.134724  1
  O  O41  1  0.621787  0.053561  0.862457  1
  O  O42  1  0.190975  0.474622  0.635556  1
  O  O43  1  0.546471  0.113869  0.638111  1
  O  O44  1  0.120543  0.551138  0.362647  1
  O  O45  1  0.477009  0.190936  0.362000  1
  O  O46  1  0.952898  0.024487  0.862060  1
  O  O47  1  0.051401  0.616056  0.136829  1
  O  O48  1  0.280352  0.720257  0.862970  1
  O  O49  1  0.642359  0.363375  0.864444  1
  O  O50  1  0.380814  0.302367  0.134227  1
  O  O51  1  0.219754  0.784494  0.637942  1
  O  O52  1  0.854560  0.136158  0.635500  1
  O  O53  1  0.552981  0.470971  0.637030  1
  O  O54  1  0.448700  0.522880  0.360121  1
  O  O55  1  0.140923  0.866643  0.365999  1
  O  O56  1  0.788582  0.218492  0.361817  1
  O  O57  1  0.613579  0.699639  0.862058  1
  O  O58  1  0.356324  0.639279  0.138000  1
  O  O59  1  0.710973  0.283623  0.136354  1
  O  O60  1  0.946131  0.386936  0.861786  1
  O  O61  1  0.044752  0.978591  0.138183  1
  O  O62  1  0.524627  0.806175  0.635689  1
  O  O63  1  0.880436  0.448659  0.637940  1
  O  O64  1  0.452519  0.882288  0.365773  1
  O  O65  1  0.809011  0.525787  0.365276  1
  O  O66  1  0.384633  0.944792  0.139879  1
  O  O67  1  0.978774  0.688550  0.864500  1
  O  O68  1  0.712791  0.642367  0.137353  1
  O  O69  1  0.887202  0.804614  0.638214  1
  O  O70  1  0.781932  0.863962  0.363171  1
  O  O71  1  0.692410  0.974901  0.134001  1
