# generated using pymatgen
data_Li5Fe5(SbO6)2
_symmetry_space_group_name_H-M   'P 1'
_cell_length_a   5.35545930
_cell_length_b   5.35545860
_cell_length_c   10.26561408
_cell_angle_alpha   84.24271004
_cell_angle_beta   95.75729548
_cell_angle_gamma   60.24510265
_symmetry_Int_Tables_number   1
_chemical_formula_structural   Li5Fe5(SbO6)2
_chemical_formula_sum   'Li5 Fe5 Sb2 O12'
_cell_volume   250.45050955
_cell_formula_units_Z   1
loop_
 _symmetry_equiv_pos_site_id
 _symmetry_equiv_pos_as_xyz
  1  'x, y, z'
loop_
 _atom_site_type_symbol
 _atom_site_label
 _atom_site_symmetry_multiplicity
 _atom_site_fract_x
 _atom_site_fract_y
 _atom_site_fract_z
 _atom_site_occupancy
  Li  Li0  1  0.158034  0.674732  0.506264  1
  Li  Li1  1  0.328534  0.830277  0.994586  1
  Li  Li2  1  0.674732  0.158034  0.993736  1
  Li  Li3  1  0.830277  0.328534  0.505414  1
  Li  Li4  1  0.918528  0.918528  0.750000  1
  Fe  Fe5  1  0.082394  0.082394  0.250000  1
  Fe  Fe6  1  0.005587  0.497285  0.996417  1
  Fe  Fe7  1  0.497285  0.005587  0.503583  1
  Fe  Fe8  1  0.417350  0.417350  0.250000  1
  Fe  Fe9  1  0.585694  0.585694  0.750000  1
  Sb  Sb10  1  0.249711  0.249711  0.750000  1
  Sb  Sb11  1  0.750729  0.750729  0.250000  1
  O  O12  1  0.983311  0.209445  0.866025  1
  O  O13  1  0.209445  0.983311  0.633975  1
  O  O14  1  0.114059  0.385410  0.372378  1
  O  O15  1  0.385410  0.114059  0.127622  1
  O  O16  1  0.292185  0.513907  0.867888  1
  O  O17  1  0.513907  0.292185  0.632112  1
  O  O18  1  0.453924  0.731748  0.375280  1
  O  O19  1  0.731748  0.453924  0.124720  1
  O  O20  1  0.600965  0.891803  0.865034  1
  O  O21  1  0.891803  0.600965  0.634966  1
  O  O22  1  0.773872  0.050516  0.372639  1
  O  O23  1  0.050516  0.773872  0.127361  1
