# generated using pymatgen
data_K3LiMn4(MoO4)6
_symmetry_space_group_name_H-M   'P 1'
_cell_length_a   10.88054964
_cell_length_b   10.88054944
_cell_length_c   10.88054930
_cell_angle_alpha   85.72036372
_cell_angle_beta   85.72036380
_cell_angle_gamma   85.72035990
_symmetry_Int_Tables_number   1
_chemical_formula_structural   K3LiMn4(MoO4)6
_chemical_formula_sum   'K6 Li2 Mn8 Mo12 O48'
_cell_volume   1277.84318797
_cell_formula_units_Z   2
loop_
 _symmetry_equiv_pos_site_id
 _symmetry_equiv_pos_as_xyz
  1  'x, y, z'
loop_
 _atom_site_type_symbol
 _atom_site_label
 _atom_site_symmetry_multiplicity
 _atom_site_fract_x
 _atom_site_fract_y
 _atom_site_fract_z
 _atom_site_occupancy
  K  K0  1  0.200678  0.698820  0.434910  1
  K  K1  1  0.198820  0.700678  0.934910  1
  K  K2  1  0.434910  0.200678  0.698820  1
  K  K3  1  0.698820  0.434910  0.200678  1
  K  K4  1  0.700678  0.934910  0.198820  1
  K  K5  1  0.934910  0.198820  0.700678  1
  Li  Li6  1  0.249139  0.249139  0.249139  1
  Li  Li7  1  0.749139  0.749139  0.749139  1
  Mn  Mn8  1  0.003118  0.003118  0.003118  1
  Mn  Mn9  1  0.035176  0.462918  0.250072  1
  Mn  Mn10  1  0.250072  0.035176  0.462918  1
  Mn  Mn11  1  0.462918  0.250072  0.035176  1
  Mn  Mn12  1  0.503118  0.503118  0.503118  1
  Mn  Mn13  1  0.535176  0.750072  0.962918  1
  Mn  Mn14  1  0.750072  0.962918  0.535176  1
  Mn  Mn15  1  0.962918  0.535176  0.750072  1
  Mo  Mo16  1  0.037982  0.851137  0.687509  1
  Mo  Mo17  1  0.149355  0.312433  0.959996  1
  Mo  Mo18  1  0.187509  0.351137  0.537982  1
  Mo  Mo19  1  0.312433  0.959996  0.149355  1
  Mo  Mo20  1  0.351137  0.537982  0.187509  1
  Mo  Mo21  1  0.459996  0.812433  0.649355  1
  Mo  Mo22  1  0.537982  0.187509  0.351137  1
  Mo  Mo23  1  0.649355  0.459996  0.812433  1
  Mo  Mo24  1  0.687509  0.037982  0.851137  1
  Mo  Mo25  1  0.812433  0.649355  0.459996  1
  Mo  Mo26  1  0.851137  0.687509  0.037982  1
  Mo  Mo27  1  0.959996  0.149355  0.312433  1
  O  O28  1  0.050512  0.415895  0.618443  1
  O  O29  1  0.124113  0.330559  0.123584  1
  O  O30  1  0.123584  0.124113  0.330559  1
  O  O31  1  0.077037  0.177258  0.922522  1
  O  O32  1  0.084495  0.450619  0.881567  1
  O  O33  1  0.086339  0.688381  0.696165  1
  O  O34  1  0.073954  0.919905  0.824666  1
  O  O35  1  0.170568  0.379700  0.374720  1
  O  O36  1  0.118443  0.915895  0.550512  1
  O  O37  1  0.188381  0.586339  0.196165  1
  O  O38  1  0.196165  0.188381  0.586339  1
  O  O39  1  0.177258  0.922522  0.077037  1
  O  O40  1  0.330559  0.123584  0.124113  1
  O  O41  1  0.324666  0.419905  0.573954  1
  O  O42  1  0.301553  0.913939  0.312562  1
  O  O43  1  0.312562  0.301553  0.913939  1
  O  O44  1  0.374720  0.170568  0.379700  1
  O  O45  1  0.379700  0.374720  0.170568  1
  O  O46  1  0.415895  0.618443  0.050512  1
  O  O47  1  0.419905  0.573954  0.324666  1
  O  O48  1  0.381567  0.950619  0.584495  1
  O  O49  1  0.422522  0.677258  0.577037  1
  O  O50  1  0.450619  0.881567  0.084495  1
  O  O51  1  0.413939  0.801553  0.812562  1
  O  O52  1  0.586339  0.196165  0.188381  1
  O  O53  1  0.550512  0.118443  0.915895  1
  O  O54  1  0.573954  0.324666  0.419905  1
  O  O55  1  0.618443  0.050512  0.415895  1
  O  O56  1  0.577037  0.422522  0.677258  1
  O  O57  1  0.584495  0.381567  0.950619  1
  O  O58  1  0.624113  0.623584  0.830559  1
  O  O59  1  0.623584  0.830559  0.624113  1
  O  O60  1  0.688381  0.696165  0.086339  1
  O  O61  1  0.696165  0.086339  0.688381  1
  O  O62  1  0.677258  0.577037  0.422522  1
  O  O63  1  0.670568  0.874720  0.879700  1
  O  O64  1  0.824666  0.073954  0.919905  1
  O  O65  1  0.801553  0.812562  0.413939  1
  O  O66  1  0.812562  0.413939  0.801553  1
  O  O67  1  0.881567  0.084495  0.450619  1
  O  O68  1  0.830559  0.624113  0.623584  1
  O  O69  1  0.922522  0.077037  0.177258  1
  O  O70  1  0.913939  0.312562  0.301553  1
  O  O71  1  0.915895  0.550512  0.118443  1
  O  O72  1  0.919905  0.824666  0.073954  1
  O  O73  1  0.874720  0.879700  0.670568  1
  O  O74  1  0.879700  0.670568  0.874720  1
  O  O75  1  0.950619  0.584495  0.381567  1
