# generated using pymatgen
data_Ba5Y3F19
_symmetry_space_group_name_H-M   'P 1'
_cell_length_a   12.43853765
_cell_length_b   11.69693182
_cell_length_c   11.83845183
_cell_angle_alpha   95.74119932
_cell_angle_beta   97.78370551
_cell_angle_gamma   140.21009797
_symmetry_Int_Tables_number   1
_chemical_formula_structural   Ba5Y3F19
_chemical_formula_sum   'Ba10 Y6 F38'
_cell_volume   1034.01488672
_cell_formula_units_Z   2
loop_
 _symmetry_equiv_pos_site_id
 _symmetry_equiv_pos_as_xyz
  1  'x, y, z'
loop_
 _atom_site_type_symbol
 _atom_site_label
 _atom_site_symmetry_multiplicity
 _atom_site_fract_x
 _atom_site_fract_y
 _atom_site_fract_z
 _atom_site_occupancy
  Ba  Ba0  1  0.718488  0.256539  0.480136  1
  Ba  Ba1  1  0.741373  0.569399  0.273816  1
  Ba  Ba2  1  0.729878  0.060504  0.806080  1
  Ba  Ba3  1  0.429132  0.709639  0.173252  1
  Ba  Ba4  1  0.051805  0.237067  0.323263  1
  Ba  Ba5  1  0.948195  0.762933  0.676737  1
  Ba  Ba6  1  0.570868  0.290361  0.826748  1
  Ba  Ba7  1  0.270122  0.939496  0.193920  1
  Ba  Ba8  1  0.258627  0.430601  0.726184  1
  Ba  Ba9  1  0.281512  0.743461  0.519864  1
  Y  Y10  1  0.838717  0.321912  0.164849  1
  Y  Y11  1  0.258329  0.254844  0.012635  1
  Y  Y12  1  0.335713  0.173730  0.485942  1
  Y  Y13  1  0.664287  0.826270  0.514058  1
  Y  Y14  1  0.741671  0.745156  0.987365  1
  Y  Y15  1  0.161283  0.678088  0.835151  1
  F  F16  1  0.719885  0.056260  0.158631  1
  F  F17  1  0.728787  0.241910  0.969961  1
  F  F18  1  0.912551  0.059131  0.666640  1
  F  F19  1  0.955633  0.397786  0.359091  1
  F  F20  1  0.981036  0.604146  0.212568  1
  F  F21  1  0.635902  0.244015  0.229147  1
  F  F22  1  0.387803  0.209415  0.091171  1
  F  F23  1  0.797032  0.619287  0.051500  1
  F  F24  1  0.646344  0.998757  0.561986  1
  F  F25  1  0.500000  0.500000  0.000000  1
  F  F26  1  0.000000  0.000000  0.000000  1
  F  F27  1  0.865987  0.577381  0.464130  1
  F  F28  1  0.458482  0.276229  0.346262  1
  F  F29  1  0.317857  0.397503  0.191273  1
  F  F30  1  0.800703  0.866287  0.173412  1
  F  F31  1  0.560620  0.096359  0.693177  1
  F  F32  1  0.610558  0.372715  0.608086  1
  F  F33  1  0.252280  0.048711  0.627961  1
  F  F34  1  0.071697  0.413195  0.162288  1
  F  F35  1  0.739766  0.710883  0.485118  1
  F  F36  1  0.260234  0.289117  0.514882  1
  F  F37  1  0.928303  0.586805  0.837712  1
  F  F38  1  0.747720  0.951289  0.372039  1
  F  F39  1  0.389442  0.627285  0.391914  1
  F  F40  1  0.439380  0.903641  0.306823  1
  F  F41  1  0.199297  0.133713  0.826588  1
  F  F42  1  0.682143  0.602497  0.808727  1
  F  F43  1  0.541518  0.723771  0.653738  1
  F  F44  1  0.134013  0.422619  0.535870  1
  F  F45  1  0.353656  0.001243  0.438014  1
  F  F46  1  0.202968  0.380713  0.948500  1
  F  F47  1  0.612197  0.790585  0.908829  1
  F  F48  1  0.364098  0.755985  0.770853  1
  F  F49  1  0.018964  0.395854  0.787432  1
  F  F50  1  0.044367  0.602214  0.640909  1
  F  F51  1  0.087449  0.940869  0.333360  1
  F  F52  1  0.271213  0.758090  0.030040  1
  F  F53  1  0.280115  0.943741  0.841369  1
