# generated using pymatgen
data_Co29O40
_symmetry_space_group_name_H-M   'P 1'
_cell_length_a   29.48595837
_cell_length_b   15.62337161
_cell_length_c   10.22471296
_cell_angle_alpha   29.11395912
_cell_angle_beta   30.06387922
_cell_angle_gamma   19.16130805
_symmetry_Int_Tables_number   1
_chemical_formula_structural   Co29O40
_chemical_formula_sum   'Co29 O40'
_cell_volume   727.97691504
_cell_formula_units_Z   1
loop_
 _symmetry_equiv_pos_site_id
 _symmetry_equiv_pos_as_xyz
  1  'x, y, z'
loop_
 _atom_site_type_symbol
 _atom_site_label
 _atom_site_symmetry_multiplicity
 _atom_site_fract_x
 _atom_site_fract_y
 _atom_site_fract_z
 _atom_site_occupancy
  Co  Co0  1  0.141677  0.136519  0.130705  1
  Co  Co1  1  0.198041  -0.003276  0.512304  1
  Co  Co2  1  0.002660  0.494915  0.500371  1
  Co  Co3  1  0.351369  0.120912  0.131436  1
  Co  Co4  1  0.099828  0.494965  0.511259  1
  Co  Co5  1  0.401943  0.997365  0.499179  1
  Co  Co6  1  0.194810  0.511969  0.493742  1
  Co  Co7  1  0.102504  0.502062  0.990827  1
  Co  Co8  1  0.549559  0.127418  0.118564  1
  Co  Co9  1  0.298723  0.505029  0.497101  1
  Co  Co10  1  0.599113  0.005960  0.496342  1
  Co  Co11  1  0.050739  0.873221  0.882487  1
  Co  Co12  1  0.402009  0.490850  0.506269  1
  Co  Co13  1  0.302556  0.491341  0.007380  1
  Co  Co14  1  0.752896  0.123369  0.119004  1
  Co  Co15  1  0.499902  0.500099  0.501166  1
  Co  Co16  1  0.249311  0.875675  0.874834  1
  Co  Co17  1  0.800697  -0.002806  0.501487  1
  Co  Co18  1  0.600168  0.499914  0.496602  1
  Co  Co19  1  0.498356  0.498951  0.003421  1
  Co  Co20  1  0.704406  0.497665  0.485987  1
  Co  Co21  1  0.996195  0.011622  0.489571  1
  Co  Co22  1  0.453030  0.868587  0.876023  1
  Co  Co23  1  0.798243  0.505605  0.498398  1
  Co  Co24  1  0.710652  0.485150  -0.001837  1
  Co  Co25  1  0.904003  0.499044  0.492938  1
  Co  Co26  1  0.656099  0.863033  0.875770  1
  Co  Co27  1  0.897741  0.503682  0.001013  1
  Co  Co28  1  0.849114  0.873979  0.876179  1
  O  O29  1  0.088858  0.269429  0.265868  1
  O  O30  1  0.004240  0.280410  0.685056  1
  O  O31  1  0.188365  0.261996  0.261170  1
  O  O32  1  0.084448  0.278221  0.762001  1
  O  O33  1  0.306616  0.248500  0.254869  1
  O  O34  1  0.129027  0.691735  0.248295  1
  O  O35  1  0.202432  0.258117  0.727151  1
  O  O36  1  0.390601  0.254950  0.254538  1
  O  O37  1  0.008482  0.749224  0.733223  1
  O  O38  1  0.195255  0.744064  0.276508  1
  O  O39  1  0.286961  0.277474  0.743062  1
  O  O40  1  0.097174  0.754173  0.740476  1
  O  O41  1  0.496565  0.258515  0.256428  1
  O  O42  1  0.307770  0.730056  0.257264  1
  O  O43  1  0.405343  0.251389  0.728383  1
  O  O44  1  0.589384  0.263723  0.251559  1
  O  O45  1  0.216393  0.721334  0.762539  1
  O  O46  1  0.396335  0.739078  0.289176  1
  O  O47  1  0.486521  0.275615  0.756907  1
  O  O48  1  0.300529  0.725813  0.768189  1
  O  O49  1  0.699573  0.248093  0.267095  1
  O  O50  1  0.511711  0.715959  0.271688  1
  O  O51  1  0.596337  0.280005  0.711747  1
  O  O52  1  0.772953  0.276481  0.276839  1
  O  O53  1  0.416787  0.739500  0.721388  1
  O  O54  1  0.602253  0.718707  0.281233  1
  O  O55  1  0.685663  0.281674  0.732413  1
  O  O56  1  0.504007  0.745640  0.726628  1
  O  O57  1  0.893999  0.274302  0.254016  1
  O  O58  1  0.713180  0.727896  0.237005  1
  O  O59  1  0.799368  0.278750  0.712785  1
  O  O60  1  0.974234  0.289650  0.256340  1
  O  O61  1  0.619164  0.724797  0.744678  1
  O  O62  1  0.801770  0.724255  0.288405  1
  O  O63  1  0.897900  0.276813  0.735333  1
  O  O64  1  0.717739  0.730030  0.719195  1
  O  O65  1  0.910272  0.720871  0.251591  1
  O  O66  1  0.819420  0.723605  0.743951  1
  O  O67  1  -0.001134  0.725774  0.290524  1
  O  O68  1  0.900071  0.740714  0.746460  1
