# generated using pymatgen
data_Li4Mn3Fe(BO3)4
_symmetry_space_group_name_H-M   'P 1'
_cell_length_a   5.25101068
_cell_length_b   5.23854252
_cell_length_c   20.93088882
_cell_angle_alpha   89.23970710
_cell_angle_beta   91.11298575
_cell_angle_gamma   60.20589173
_symmetry_Int_Tables_number   1
_chemical_formula_structural   Li4Mn3Fe(BO3)4
_chemical_formula_sum   'Li8 Mn6 Fe2 B8 O24'
_cell_volume   499.38493991
_cell_formula_units_Z   2
loop_
 _symmetry_equiv_pos_site_id
 _symmetry_equiv_pos_as_xyz
  1  'x, y, z'
loop_
 _atom_site_type_symbol
 _atom_site_label
 _atom_site_symmetry_multiplicity
 _atom_site_fract_x
 _atom_site_fract_y
 _atom_site_fract_z
 _atom_site_occupancy
  Li  Li0  1  0.321194  0.650986  0.666283  1
  Li  Li1  1  0.347404  0.678690  0.916374  1
  Li  Li2  1  0.321673  0.651973  0.165960  1
  Li  Li3  1  0.348754  0.678660  0.415925  1
  Li  Li4  1  0.652182  0.335291  0.791159  1
  Li  Li5  1  0.661773  0.348667  0.541259  1
  Li  Li6  1  0.653163  0.338220  0.291558  1
  Li  Li7  1  0.662085  0.348726  0.041244  1
  Mn  Mn8  1  0.329328  0.003884  0.558574  1
  Mn  Mn9  1  0.326532  0.006526  0.058893  1
  Mn  Mn10  1  0.678377  0.000470  0.932934  1
  Mn  Mn11  1  0.676651  0.002428  0.433359  1
  Mn  Mn12  1  0.998025  0.324621  0.684328  1
  Mn  Mn13  1  0.996069  0.669588  0.307504  1
  Fe  Fe14  1  0.994897  0.317729  0.183734  1
  Fe  Fe15  1  0.999697  0.675750  0.808622  1
  B  B16  1  0.003499  0.340523  0.936435  1
  B  B17  1  0.002795  0.341411  0.436996  1
  B  B18  1  0.331900  0.005912  0.811843  1
  B  B19  1  0.334651  0.003577  0.311481  1
  B  B20  1  0.659382  0.997670  0.687804  1
  B  B21  1  0.660807  0.996629  0.186839  1
  B  B22  1  0.995290  0.665574  0.562161  1
  B  B23  1  0.994139  0.666325  0.062814  1
  O  O24  1  0.068192  0.254581  0.792718  1
  O  O25  1  0.070231  0.245983  0.290324  1
  O  O26  1  0.253782  0.069513  0.951838  1
  O  O27  1  0.033759  0.578457  0.915869  1
  O  O28  1  0.253270  0.069585  0.452085  1
  O  O29  1  0.033739  0.578792  0.416308  1
  O  O30  1  0.581461  0.026842  0.826215  1
  O  O31  1  0.269140  0.640673  0.569441  1
  O  O32  1  0.577504  0.037552  0.326792  1
  O  O33  1  0.268479  0.641331  0.069635  1
  O  O34  1  0.349144  0.732230  0.818172  1
  O  O35  1  0.358911  0.729655  0.319062  1
  O  O36  1  0.629972  0.273257  0.694693  1
  O  O37  1  0.639699  0.271428  0.193717  1
  O  O38  1  0.728358  0.370549  0.943788  1
  O  O39  1  0.422041  0.966487  0.667002  1
  O  O40  1  0.727832  0.371318  0.444216  1
  O  O41  1  0.415274  0.977793  0.168017  1
  O  O42  1  0.961816  0.422517  0.577593  1
  O  O43  1  0.961423  0.422764  0.078333  1
  O  O44  1  0.752668  0.930453  0.541057  1
  O  O45  1  0.751679  0.930241  0.041432  1
  O  O46  1  0.930746  0.747382  0.703198  1
  O  O47  1  0.929409  0.741987  0.200615  1
