# generated using pymatgen
data_Li2MnVP2(HO5)2
_symmetry_space_group_name_H-M   'P 1'
_cell_length_a   5.43506875
_cell_length_b   10.35007116
_cell_length_c   10.10055952
_cell_angle_alpha   79.64856078
_cell_angle_beta   79.30865156
_cell_angle_gamma   83.65623011
_symmetry_Int_Tables_number   1
_chemical_formula_structural   Li2MnVP2(HO5)2
_chemical_formula_sum   'Li6 Mn3 V3 P6 H6 O30'
_cell_volume   547.48720818
_cell_formula_units_Z   3
loop_
 _symmetry_equiv_pos_site_id
 _symmetry_equiv_pos_as_xyz
  1  'x, y, z'
loop_
 _atom_site_type_symbol
 _atom_site_label
 _atom_site_symmetry_multiplicity
 _atom_site_fract_x
 _atom_site_fract_y
 _atom_site_fract_z
 _atom_site_occupancy
  Li  Li0  1  0.793182  0.637460  0.808254  1
  Li  Li1  1  0.872935  0.699337  0.525231  1
  Li  Li2  1  0.536172  0.033445  0.856324  1
  Li  Li3  1  0.463828  0.966555  0.143676  1
  Li  Li4  1  0.127065  0.300663  0.474769  1
  Li  Li5  1  0.206818  0.362540  0.191746  1
  Mn  Mn6  1  0.667407  0.334781  0.333673  1
  Mn  Mn7  1  0.332593  0.665219  0.666327  1
  Mn  Mn8  1  0.500000  0.000000  0.500000  1
  V  V9  1  0.828691  0.666520  0.168930  1
  V  V10  1  0.171309  0.333480  0.831070  1
  V  V11  1  0.000000  0.000000  0.000000  1
  P  P12  1  0.934196  0.929884  0.695378  1
  P  P13  1  0.730955  0.404670  0.635669  1
  P  P14  1  0.387979  0.738063  0.968624  1
  P  P15  1  0.612021  0.261937  0.031376  1
  P  P16  1  0.269045  0.595329  0.364331  1
  P  P17  1  0.065804  0.070116  0.304622  1
  H  H18  1  0.826598  0.894541  0.235044  1
  H  H19  1  0.834651  0.437250  0.102093  1
  H  H20  1  0.499318  0.767955  0.437014  1
  H  H21  1  0.500682  0.232045  0.562986  1
  H  H22  1  0.165349  0.562750  0.897907  1
  H  H23  1  0.173402  0.105459  0.764956  1
  O  O24  1  0.882507  0.926644  0.852396  1
  O  O25  1  0.978726  0.788241  0.663410  1
  O  O26  1  0.977145  0.332631  0.678365  1
  O  O27  1  0.840373  0.343724  0.964813  1
  O  O28  1  0.843395  0.985031  0.368982  1
  O  O29  1  0.679832  0.999104  0.651780  1
  O  O30  1  0.806173  0.871068  0.146385  1
  O  O31  1  0.664780  0.117720  0.999504  1
  O  O32  1  0.686889  0.545498  0.669854  1
  O  O33  1  0.775202  0.409850  0.477744  1
  O  O34  1  0.859761  0.459686  0.190171  1
  O  O35  1  0.436486  0.742339  0.811510  1
  O  O36  1  0.523000  0.789635  0.525716  1
  O  O37  1  0.500912  0.322397  0.700517  1
  O  O38  1  0.635225  0.671060  0.013732  1
  O  O39  1  0.364775  0.328940  0.986268  1
  O  O40  1  0.499088  0.677603  0.299483  1
  O  O41  1  0.477000  0.210365  0.474284  1
  O  O42  1  0.563514  0.257661  0.188490  1
  O  O43  1  0.140239  0.540314  0.809829  1
  O  O44  1  0.224798  0.590150  0.522256  1
  O  O45  1  0.313111  0.454502  0.330146  1
  O  O46  1  0.335220  0.882280  0.000496  1
  O  O47  1  0.193827  0.128932  0.853615  1
  O  O48  1  0.320168  0.000896  0.348220  1
  O  O49  1  0.156605  0.014969  0.631018  1
  O  O50  1  0.159627  0.656276  0.035187  1
  O  O51  1  0.022855  0.667369  0.321635  1
  O  O52  1  0.021274  0.211759  0.336590  1
  O  O53  1  0.117493  0.073356  0.147604  1
