# generated using pymatgen
data_Li2Si4NiO10
_symmetry_space_group_name_H-M   'P 1'
_cell_length_a   6.67399168
_cell_length_b   9.96408946
_cell_length_c   14.12815868
_cell_angle_alpha   90.00000000
_cell_angle_beta   88.24783805
_cell_angle_gamma   90.00000000
_symmetry_Int_Tables_number   1
_chemical_formula_structural   Li2Si4NiO10
_chemical_formula_sum   'Li8 Si16 Ni4 O40'
_cell_volume   939.08679927
_cell_formula_units_Z   4
loop_
 _symmetry_equiv_pos_site_id
 _symmetry_equiv_pos_as_xyz
  1  'x, y, z'
loop_
 _atom_site_type_symbol
 _atom_site_label
 _atom_site_symmetry_multiplicity
 _atom_site_fract_x
 _atom_site_fract_y
 _atom_site_fract_z
 _atom_site_occupancy
  Li  Li0  1  0.095004  0.623458  0.930744  1
  Li  Li1  1  0.210003  0.415111  0.263212  1
  Li  Li2  1  0.289997  0.915111  0.236788  1
  Li  Li3  1  0.404996  0.123458  0.569256  1
  Li  Li4  1  0.595004  0.876542  0.430744  1
  Li  Li5  1  0.710003  0.084889  0.763212  1
  Li  Li6  1  0.789997  0.584889  0.736788  1
  Li  Li7  1  0.904996  0.376542  0.069256  1
  Si  Si8  1  0.983713  0.772243  0.368456  1
  Si  Si9  1  0.001535  0.051806  0.341695  1
  Si  Si10  1  0.248859  0.471544  0.666634  1
  Si  Si11  1  0.252889  0.235881  0.954651  1
  Si  Si12  1  0.247111  0.735881  0.545349  1
  Si  Si13  1  0.251141  0.971544  0.833366  1
  Si  Si14  1  0.483713  0.727757  0.868456  1
  Si  Si15  1  0.501535  0.448194  0.841695  1
  Si  Si16  1  0.498465  0.551806  0.158305  1
  Si  Si17  1  0.516287  0.272243  0.131544  1
  Si  Si18  1  0.748859  0.028456  0.166634  1
  Si  Si19  1  0.752889  0.264119  0.454651  1
  Si  Si20  1  0.747111  0.764119  0.045349  1
  Si  Si21  1  0.751141  0.528456  0.333366  1
  Si  Si22  1  0.998465  0.948194  0.658305  1
  Si  Si23  1  0.016287  0.227757  0.631544  1
  Ni  Ni24  1  0.040351  0.636810  0.172150  1
  Ni  Ni25  1  0.459649  0.136810  0.327850  1
  Ni  Ni26  1  0.540351  0.863190  0.672150  1
  Ni  Ni27  1  0.959649  0.363190  0.827850  1
  O  O28  1  0.046412  0.950355  0.772320  1
  O  O29  1  0.074517  0.804259  0.616062  1
  O  O30  1  0.052166  0.327920  0.956702  1
  O  O31  1  0.056149  0.504769  0.734488  1
  O  O32  1  0.119308  0.077262  0.605320  1
  O  O33  1  0.078823  0.777912  0.262208  1
  O  O34  1  0.216236  0.323496  0.614319  1
  O  O35  1  0.210783  0.083877  0.916044  1
  O  O36  1  0.157764  0.725443  0.439694  1
  O  O37  1  0.289217  0.583877  0.583956  1
  O  O38  1  0.283764  0.823496  0.885681  1
  O  O39  1  0.266144  0.521577  0.144365  1
  O  O40  1  0.233856  0.021577  0.355635  1
  O  O41  1  0.342236  0.225443  0.060306  1
  O  O42  1  0.380692  0.577263  0.894680  1
  O  O43  1  0.443850  0.004769  0.765512  1
  O  O44  1  0.447834  0.827920  0.543298  1
  O  O45  1  0.425483  0.304259  0.883938  1
  O  O46  1  0.453588  0.450355  0.727680  1
  O  O47  1  0.421177  0.277912  0.237792  1
  O  O48  1  0.578823  0.722088  0.762208  1
  O  O49  1  0.546412  0.549645  0.272320  1
  O  O50  1  0.574517  0.695741  0.116062  1
  O  O51  1  0.552166  0.172080  0.456702  1
  O  O52  1  0.556149  0.995231  0.234488  1
  O  O53  1  0.619308  0.422737  0.105320  1
  O  O54  1  0.657764  0.774557  0.939694  1
  O  O55  1  0.766144  0.978423  0.644365  1
  O  O56  1  0.733856  0.478423  0.855635  1
  O  O57  1  0.716236  0.176504  0.114319  1
  O  O58  1  0.710783  0.416123  0.416044  1
  O  O59  1  0.842236  0.274557  0.560306  1
  O  O60  1  0.789217  0.916123  0.083956  1
  O  O61  1  0.783764  0.676504  0.385681  1
  O  O62  1  0.921177  0.222088  0.737792  1
  O  O63  1  0.880692  0.922737  0.394680  1
  O  O64  1  0.943851  0.495231  0.265512  1
  O  O65  1  0.947834  0.672080  0.043298  1
  O  O66  1  0.925483  0.195741  0.383938  1
  O  O67  1  0.953588  0.049645  0.227680  1
