# generated using pymatgen
data_LiMnF3
_symmetry_space_group_name_H-M   'P 1'
_cell_length_a   7.88107045
_cell_length_b   10.18673632
_cell_length_c   7.13317655
_cell_angle_alpha   90.00000000
_cell_angle_beta   114.47354868
_cell_angle_gamma   90.00000000
_symmetry_Int_Tables_number   1
_chemical_formula_structural   LiMnF3
_chemical_formula_sum   'Li8 Mn8 F24'
_cell_volume   521.21568008
_cell_formula_units_Z   8
loop_
 _symmetry_equiv_pos_site_id
 _symmetry_equiv_pos_as_xyz
  1  'x, y, z'
loop_
 _atom_site_type_symbol
 _atom_site_label
 _atom_site_symmetry_multiplicity
 _atom_site_fract_x
 _atom_site_fract_y
 _atom_site_fract_z
 _atom_site_occupancy
  Li  Li0  1  0.158632  0.017768  0.752115  1
  Li  Li1  1  0.158632  0.482232  0.252115  1
  Li  Li2  1  0.510895  0.742378  0.788820  1
  Li  Li3  1  0.489105  0.242378  0.711180  1
  Li  Li4  1  0.510895  0.757622  0.288820  1
  Li  Li5  1  0.489105  0.257622  0.211180  1
  Li  Li6  1  0.841368  0.517768  0.747885  1
  Li  Li7  1  0.841368  0.982232  0.247885  1
  Mn  Mn8  1  0.010167  0.235819  0.968769  1
  Mn  Mn9  1  0.010167  0.264181  0.468769  1
  Mn  Mn10  1  0.275270  0.491289  0.848393  1
  Mn  Mn11  1  0.275270  0.008711  0.348393  1
  Mn  Mn12  1  0.724730  0.991289  0.651607  1
  Mn  Mn13  1  0.724730  0.508711  0.151607  1
  Mn  Mn14  1  0.989833  0.735819  0.531231  1
  Mn  Mn15  1  0.989833  0.764181  0.031231  1
  F  F16  1  0.075913  0.602178  0.911917  1
  F  F17  1  0.994812  0.867156  0.767153  1
  F  F18  1  0.220021  0.098125  0.017503  1
  F  F19  1  0.075913  0.897822  0.411917  1
  F  F20  1  0.994812  0.632844  0.267153  1
  F  F21  1  0.220021  0.401875  0.517502  1
  F  F22  1  0.267610  0.666091  0.678974  1
  F  F23  1  0.282211  0.126631  0.624924  1
  F  F24  1  0.510378  0.375042  0.911074  1
  F  F25  1  0.267610  0.833909  0.178974  1
  F  F26  1  0.282211  0.373369  0.124924  1
  F  F27  1  0.489622  0.875042  0.588926  1
  F  F28  1  0.510378  0.124958  0.411074  1
  F  F29  1  0.717789  0.626631  0.875076  1
  F  F30  1  0.732390  0.166091  0.821026  1
  F  F31  1  0.489622  0.624958  0.088926  1
  F  F32  1  0.717789  0.873369  0.375076  1
  F  F33  1  0.732390  0.333909  0.321026  1
  F  F34  1  0.779979  0.598125  0.482498  1
  F  F35  1  0.005188  0.367156  0.732847  1
  F  F36  1  0.924087  0.102178  0.588083  1
  F  F37  1  0.779979  0.901875  0.982498  1
  F  F38  1  0.005188  0.132844  0.232847  1
  F  F39  1  0.924087  0.397822  0.088083  1
