# generated using pymatgen
data_H8C2BrN
_symmetry_space_group_name_H-M   'P 1'
_cell_length_a   5.56159518
_cell_length_b   7.60338563
_cell_length_c   13.63188323
_cell_angle_alpha   87.19086516
_cell_angle_beta   90.00000000
_cell_angle_gamma   68.54739295
_symmetry_Int_Tables_number   1
_chemical_formula_structural   H8C2BrN
_chemical_formula_sum   'H32 C8 Br4 N4'
_cell_volume   535.77019461
_cell_formula_units_Z   4
loop_
 _symmetry_equiv_pos_site_id
 _symmetry_equiv_pos_as_xyz
  1  'x, y, z'
loop_
 _atom_site_type_symbol
 _atom_site_label
 _atom_site_symmetry_multiplicity
 _atom_site_fract_x
 _atom_site_fract_y
 _atom_site_fract_z
 _atom_site_occupancy
  H  H0  1  0.087836  0.996781  0.640538  1
  H  H1  1  0.915382  0.996781  0.140538  1
  H  H2  1  0.762891  0.867936  0.570629  1
  H  H3  1  0.374677  0.831119  0.700266  1
  H  H4  1  0.338114  0.839979  0.568905  1
  H  H5  1  0.369173  0.867936  0.070629  1
  H  H6  1  0.794204  0.831119  0.200266  1
  H  H7  1  0.821907  0.839979  0.068905  1
  H  H8  1  0.020174  0.721563  0.715713  1
  H  H9  1  0.015591  0.720310  0.496499  1
  H  H10  1  0.258263  0.721563  0.215713  1
  H  H11  1  0.264099  0.720310  0.996499  1
  H  H12  1  0.845093  0.616414  0.577625  1
  H  H13  1  0.255278  0.574690  0.648067  1
  H  H14  1  0.538492  0.616414  0.077625  1
  H  H15  1  0.170032  0.574690  0.148067  1
  H  H16  1  0.829968  0.425310  0.851933  1
  H  H17  1  0.461508  0.383586  0.922375  1
  H  H18  1  0.744722  0.425310  0.351933  1
  H  H19  1  0.154907  0.383586  0.422375  1
  H  H20  1  0.735901  0.279690  0.003501  1
  H  H21  1  0.741737  0.278437  0.784287  1
  H  H22  1  0.984409  0.279690  0.503501  1
  H  H23  1  0.979826  0.278437  0.284287  1
  H  H24  1  0.178093  0.160021  0.931095  1
  H  H25  1  0.205796  0.168881  0.799734  1
  H  H26  1  0.630827  0.132064  0.929371  1
  H  H27  1  0.661886  0.160021  0.431095  1
  H  H28  1  0.625323  0.168881  0.299734  1
  H  H29  1  0.237109  0.132064  0.429371  1
  H  H30  1  0.084618  0.003219  0.859462  1
  H  H31  1  0.912164  0.003219  0.359462  1
  C  C32  1  0.236875  0.855148  0.638671  1
  C  C33  1  0.907977  0.855148  0.138671  1
  C  C34  1  0.920646  0.730626  0.567437  1
  C  C35  1  0.348728  0.730626  0.067437  1
  C  C36  1  0.651272  0.269374  0.932563  1
  C  C37  1  0.079354  0.269374  0.432563  1
  C  C38  1  0.092023  0.144852  0.861329  1
  C  C39  1  0.763125  0.144852  0.361329  1
  Br  Br40  1  0.806350  0.729726  0.859786  1
  Br  Br41  1  0.463924  0.729726  0.359786  1
  Br  Br42  1  0.536076  0.270274  0.640214  1
  Br  Br43  1  0.193650  0.270274  0.140214  1
  N  N44  1  0.112429  0.711661  0.647583  1
  N  N45  1  0.175910  0.711661  0.147583  1
  N  N46  1  0.824090  0.288339  0.852417  1
  N  N47  1  0.887571  0.288339  0.352417  1
