# generated using pymatgen
data_Na3SiBiCO7
_symmetry_space_group_name_H-M   'P 1'
_cell_length_a   9.42214040
_cell_length_b   7.20646551
_cell_length_c   5.23394027
_cell_angle_alpha   90.00000000
_cell_angle_beta   90.65036627
_cell_angle_gamma   90.00000000
_symmetry_Int_Tables_number   1
_chemical_formula_structural   Na3SiBiCO7
_chemical_formula_sum   'Na6 Si2 Bi2 C2 O14'
_cell_volume   355.36337586
_cell_formula_units_Z   2
loop_
 _symmetry_equiv_pos_site_id
 _symmetry_equiv_pos_as_xyz
  1  'x, y, z'
loop_
 _atom_site_type_symbol
 _atom_site_label
 _atom_site_symmetry_multiplicity
 _atom_site_fract_x
 _atom_site_fract_y
 _atom_site_fract_z
 _atom_site_occupancy
  Na  Na0  1  0.086902  0.250000  0.764140  1
  Na  Na1  1  0.255426  0.012838  0.246790  1
  Na  Na2  1  0.255426  0.487162  0.246790  1
  Na  Na3  1  0.744574  0.512838  0.753210  1
  Na  Na4  1  0.744574  0.987162  0.753210  1
  Na  Na5  1  0.913098  0.750000  0.235860  1
  Si  Si6  1  0.403529  0.250000  0.705526  1
  Si  Si7  1  0.596471  0.750000  0.294474  1
  Bi  Bi8  1  0.366301  0.750000  0.773170  1
  Bi  Bi9  1  0.633699  0.250000  0.226830  1
  C  C10  1  0.051807  0.750000  0.732455  1
  C  C11  1  0.948192  0.250000  0.267545  1
  O  O12  1  0.084953  0.250000  0.282064  1
  O  O13  1  0.115838  0.750000  0.955190  1
  O  O14  1  0.126406  0.750000  0.523440  1
  O  O15  1  0.313754  0.068007  0.804055  1
  O  O16  1  0.313754  0.431993  0.804055  1
  O  O17  1  0.408339  0.250000  0.389885  1
  O  O18  1  0.426245  0.750000  0.195657  1
  O  O19  1  0.573755  0.250000  0.804343  1
  O  O20  1  0.591661  0.750000  0.610115  1
  O  O21  1  0.686246  0.568007  0.195945  1
  O  O22  1  0.686246  0.931993  0.195945  1
  O  O23  1  0.873594  0.250000  0.476560  1
  O  O24  1  0.884162  0.250000  0.044810  1
  O  O25  1  0.915047  0.750000  0.717936  1
