# generated using pymatgen
data_LiMn2(PO4)2
_symmetry_space_group_name_H-M   'P 1'
_cell_length_a   6.71416983
_cell_length_b   12.34530472
_cell_length_c   10.91738938
_cell_angle_alpha   89.99999707
_cell_angle_beta   95.84457903
_cell_angle_gamma   89.99999936
_symmetry_Int_Tables_number   1
_chemical_formula_structural   LiMn2(PO4)2
_chemical_formula_sum   'Li6 Mn12 P12 O48'
_cell_volume   900.22172718
_cell_formula_units_Z   6
loop_
 _symmetry_equiv_pos_site_id
 _symmetry_equiv_pos_as_xyz
  1  'x, y, z'
loop_
 _atom_site_type_symbol
 _atom_site_label
 _atom_site_symmetry_multiplicity
 _atom_site_fract_x
 _atom_site_fract_y
 _atom_site_fract_z
 _atom_site_occupancy
  Li  Li0  1  0.501481  0.999780  0.499072  1
  Li  Li1  1  0.501481  0.500220  0.999072  1
  Li  Li2  1  0.250000  0.488569  0.500000  1
  Li  Li3  1  0.250000  0.011431  0.000000  1
  Li  Li4  1  0.998519  0.999780  0.500928  1
  Li  Li5  1  0.998519  0.500220  0.000928  1
  Mn  Mn6  1  0.913537  0.841782  0.778072  1
  Mn  Mn7  1  0.913537  0.658218  0.278072  1
  Mn  Mn8  1  0.750000  0.235530  0.500000  1
  Mn  Mn9  1  0.750000  0.264470  1.000000  1
  Mn  Mn10  1  0.586463  0.658218  0.721928  1
  Mn  Mn11  1  0.586463  0.841782  0.221928  1
  Mn  Mn12  1  0.423081  0.158895  0.775122  1
  Mn  Mn13  1  0.423081  0.341105  0.275122  1
  Mn  Mn14  1  0.250000  0.769847  0.500000  1
  Mn  Mn15  1  0.250000  0.730153  0.000000  1
  Mn  Mn16  1  0.076919  0.341105  0.724878  1
  Mn  Mn17  1  0.076919  0.158895  0.224878  1
  P  P18  1  0.892501  0.108340  0.762083  1
  P  P19  1  0.892501  0.391660  0.262083  1
  P  P20  1  0.750000  0.790740  0.500000  1
  P  P21  1  0.750000  0.709260  0.000000  1
  P  P22  1  0.607499  0.391660  0.737917  1
  P  P23  1  0.607499  0.108340  0.237917  1
  P  P24  1  0.390327  0.892605  0.763940  1
  P  P25  1  0.390327  0.607395  0.263940  1
  P  P26  1  0.250000  0.209807  0.500000  1
  P  P27  1  0.250000  0.290193  1.000000  1
  P  P28  1  0.109673  0.607395  0.736060  1
  P  P29  1  0.109673  0.892605  0.236060  1
  O  O30  1  0.955305  0.000347  0.823892  1
  O  O31  1  0.955305  0.499653  0.323892  1
  O  O32  1  0.916945  0.780035  0.952486  1
  O  O33  1  0.916945  0.719965  0.452486  1
  O  O34  1  0.914075  0.676893  0.723023  1
  O  O35  1  0.914075  0.823107  0.223023  1
  O  O36  1  0.858640  0.870269  0.595628  1
  O  O37  1  0.858640  0.629731  0.095628  1
  O  O38  1  0.816771  0.096819  0.624665  1
  O  O39  1  0.816771  0.403181  0.124665  1
  O  O40  1  0.765361  0.335245  0.664807  1
  O  O41  1  0.765361  0.164755  0.164807  1
  O  O42  1  0.734639  0.164755  0.835193  1
  O  O43  1  0.734639  0.335245  0.335193  1
  O  O44  1  0.683229  0.403181  0.875335  1
  O  O45  1  0.683229  0.096819  0.375335  1
  O  O46  1  0.641360  0.629731  0.904372  1
  O  O47  1  0.641360  0.870269  0.404372  1
  O  O48  1  0.585925  0.823107  0.776977  1
  O  O49  1  0.585925  0.676893  0.276977  1
  O  O50  1  0.583055  0.719965  0.547514  1
  O  O51  1  0.583055  0.780035  0.047514  1
  O  O52  1  0.544695  0.499653  0.676108  1
  O  O53  1  0.544695  0.000347  0.176108  1
  O  O54  1  0.427243  0.005448  0.828029  1
  O  O55  1  0.427243  0.494552  0.328029  1
  O  O56  1  0.413746  0.216084  0.952913  1
  O  O57  1  0.413746  0.283916  0.452913  1
  O  O58  1  0.414689  0.316405  0.725307  1
  O  O59  1  0.414689  0.183595  0.225307  1
  O  O60  1  0.359220  0.130169  0.594953  1
  O  O61  1  0.359220  0.369831  0.094953  1
  O  O62  1  0.316533  0.905284  0.626523  1
  O  O63  1  0.316533  0.594716  0.126523  1
  O  O64  1  0.263563  0.664595  0.660624  1
  O  O65  1  0.263563  0.835405  0.160624  1
  O  O66  1  0.236437  0.835405  0.839376  1
  O  O67  1  0.236437  0.664595  0.339376  1
  O  O68  1  0.183467  0.594716  0.873477  1
  O  O69  1  0.183467  0.905284  0.373477  1
  O  O70  1  0.140780  0.369831  0.905047  1
  O  O71  1  0.140780  0.130169  0.405047  1
  O  O72  1  0.085311  0.183595  0.774693  1
  O  O73  1  0.085311  0.316405  0.274693  1
  O  O74  1  0.086254  0.283916  0.547087  1
  O  O75  1  0.086254  0.216084  0.047087  1
  O  O76  1  0.072757  0.494552  0.671971  1
  O  O77  1  0.072757  0.005448  0.171971  1
