# generated using pymatgen
data_Li3Mn3O3F5
_symmetry_space_group_name_H-M   'P 1'
_cell_length_a   6.08404790
_cell_length_b   6.15239576
_cell_length_c   5.86603918
_cell_angle_alpha   118.47060934
_cell_angle_beta   89.99870540
_cell_angle_gamma   61.47356231
_symmetry_Int_Tables_number   1
_chemical_formula_structural   Li3Mn3O3F5
_chemical_formula_sum   'Li3 Mn3 O3 F5'
_cell_volume   162.05008324
_cell_formula_units_Z   1
loop_
 _symmetry_equiv_pos_site_id
 _symmetry_equiv_pos_as_xyz
  1  'x, y, z'
loop_
 _atom_site_type_symbol
 _atom_site_label
 _atom_site_symmetry_multiplicity
 _atom_site_fract_x
 _atom_site_fract_y
 _atom_site_fract_z
 _atom_site_occupancy
  Li  Li0  1  0.357909  0.780142  0.390067  1
  Li  Li1  1  0.753960  0.472382  0.736188  1
  Li  Li2  1  0.025900  0.010081  0.005043  1
  Mn  Mn3  1  0.872552  0.750578  0.375304  1
  Mn  Mn4  1  0.364741  0.251005  0.382625  1
  Mn  Mn5  1  0.364732  0.251011  0.868384  1
  O  O6  1  0.147466  0.284618  0.142319  1
  O  O7  1  0.595522  0.216396  0.608190  1
  O  O8  1  0.161685  0.237361  0.618686  1
  F  F9  1  0.612569  0.748291  0.620964  1
  F  F10  1  0.612606  0.748301  0.127323  1
  F  F11  1  0.142245  0.748294  0.131833  1
  F  F12  1  0.142217  0.748300  0.616469  1
  F  F13  1  0.595894  0.253238  0.126606  1
