# generated using pymatgen
data_Ba4Ta2O9
_symmetry_space_group_name_H-M   'P 1'
_cell_length_a   6.26480212
_cell_length_b   6.26485085
_cell_length_c   15.93120212
_cell_angle_alpha   89.99978591
_cell_angle_beta   90.00039279
_cell_angle_gamma   119.99978226
_symmetry_Int_Tables_number   1
_chemical_formula_structural   Ba4Ta2O9
_chemical_formula_sum   'Ba8 Ta4 O18'
_cell_volume   541.49970754
_cell_formula_units_Z   2
loop_
 _symmetry_equiv_pos_site_id
 _symmetry_equiv_pos_as_xyz
  1  'x, y, z'
loop_
 _atom_site_type_symbol
 _atom_site_label
 _atom_site_symmetry_multiplicity
 _atom_site_fract_x
 _atom_site_fract_y
 _atom_site_fract_z
 _atom_site_occupancy
  Ba  Ba0  1  0.333331  0.666657  0.032173  1
  Ba  Ba1  1  0.333302  0.666657  0.294717  1
  Ba  Ba2  1  0.333352  0.666672  0.794716  1
  Ba  Ba3  1  0.333328  0.666667  0.532172  1
  Ba  Ba4  1  0.666632  0.333331  0.205284  1
  Ba  Ba5  1  0.666677  0.333338  0.705283  1
  Ba  Ba6  1  0.666660  0.333335  0.467826  1
  Ba  Ba7  1  0.666689  0.333337  0.967825  1
  Ta  Ta8  1  0.999963  0.999997  0.152537  1
  Ta  Ta9  1  0.999969  0.999996  0.347462  1
  Ta  Ta10  1  0.000002  0.999999  0.652540  1
  Ta  Ta11  1  0.000030  0.000010  0.847463  1
  O  O12  1  0.000020  0.764974  0.750000  1
  O  O13  1  0.036312  0.742298  0.402458  1
  O  O14  1  0.257721  0.963674  0.902462  1
  O  O15  1  0.036362  0.294043  0.902459  1
  O  O16  1  0.999958  0.235024  0.250000  1
  O  O17  1  0.235044  0.235035  0.750001  1
  O  O18  1  0.257683  0.294024  0.402455  1
  O  O19  1  0.705940  0.963658  0.402462  1
  O  O20  1  0.294002  0.257689  0.097542  1
  O  O21  1  0.234997  0.999996  0.250001  1
  O  O22  1  0.705985  0.742315  0.902458  1
  O  O23  1  0.294043  0.036340  0.597542  1
  O  O24  1  0.742297  0.705970  0.597542  1
  O  O25  1  0.764931  0.764966  0.249998  1
  O  O26  1  0.963651  0.705966  0.097545  1
  O  O27  1  0.742270  0.036333  0.097538  1
  O  O28  1  0.764984  0.000004  0.749999  1
  O  O29  1  0.963666  0.257697  0.597540  1
