# generated using pymatgen
data_Mn8O13F3
_symmetry_space_group_name_H-M   'P 1'
_cell_length_a   7.16515474
_cell_length_b   7.04808329
_cell_length_c   4.98112354
_cell_angle_alpha   89.89700154
_cell_angle_beta   89.68309396
_cell_angle_gamma   101.77883067
_symmetry_Int_Tables_number   1
_chemical_formula_structural   Mn8O13F3
_chemical_formula_sum   'Mn8 O13 F3'
_cell_volume   246.24798326
_cell_formula_units_Z   1
loop_
 _symmetry_equiv_pos_site_id
 _symmetry_equiv_pos_as_xyz
  1  'x, y, z'
loop_
 _atom_site_type_symbol
 _atom_site_label
 _atom_site_symmetry_multiplicity
 _atom_site_fract_x
 _atom_site_fract_y
 _atom_site_fract_z
 _atom_site_occupancy
  Mn  Mn0  1  0.428891  0.065931  0.268068  1
  Mn  Mn1  1  0.084576  0.419704  0.741091  1
  Mn  Mn2  1  0.933494  0.077454  0.238496  1
  Mn  Mn3  1  0.569392  0.432811  0.722486  1
  Mn  Mn4  1  0.422228  0.588488  0.240844  1
  Mn  Mn5  1  0.086505  0.919377  0.756088  1
  Mn  Mn6  1  0.566193  0.930364  0.768143  1
  Mn  Mn7  1  0.932006  0.577596  0.260796  1
  O  O8  1  0.058950  0.168572  0.916689  1
  O  O9  1  0.171658  0.060528  0.424404  1
  O  O10  1  0.672507  0.061622  0.088685  1
  O  O11  1  0.056055  0.667824  0.580871  1
  O  O12  1  0.167055  0.556587  0.073069  1
  O  O13  1  0.560914  0.174696  0.585835  1
  O  O14  1  0.333614  0.443006  0.562064  1
  O  O15  1  0.560044  0.672497  0.911287  1
  O  O16  1  0.672381  0.560752  0.406435  1
  O  O17  1  0.336394  0.938009  0.942866  1
  O  O18  1  0.438324  0.834629  0.442268  1
  O  O19  1  0.938555  0.325932  0.419108  1
  O  O20  1  0.939770  0.826115  0.081640  1
  F  F21  1  0.437763  0.316408  0.067583  1
  F  F22  1  0.815753  0.439961  0.924885  1
  F  F23  1  0.816977  0.941136  0.576299  1
