# generated using pymatgen
data_Li4Nb3Fe3(TeO8)2
_symmetry_space_group_name_H-M   'P 1'
_cell_length_a   6.24875548
_cell_length_b   6.06277387
_cell_length_c   10.50667817
_cell_angle_alpha   89.71135694
_cell_angle_beta   90.76884350
_cell_angle_gamma   118.92403268
_symmetry_Int_Tables_number   1
_chemical_formula_structural   Li4Nb3Fe3(TeO8)2
_chemical_formula_sum   'Li4 Nb3 Fe3 Te2 O16'
_cell_volume   348.36023464
_cell_formula_units_Z   1
loop_
 _symmetry_equiv_pos_site_id
 _symmetry_equiv_pos_as_xyz
  1  'x, y, z'
loop_
 _atom_site_type_symbol
 _atom_site_label
 _atom_site_symmetry_multiplicity
 _atom_site_fract_x
 _atom_site_fract_y
 _atom_site_fract_z
 _atom_site_occupancy
  Li  Li0  1  0.334407  0.665181  0.903100  1
  Li  Li1  1  0.007437  0.003114  0.994990  1
  Li  Li2  1  0.994463  0.998118  0.484615  1
  Li  Li3  1  0.672901  0.336174  0.403677  1
  Nb  Nb4  1  0.636216  0.817278  0.234650  1
  Nb  Nb5  1  0.807109  0.645330  0.720856  1
  Nb  Nb6  1  0.812941  0.166835  0.721442  1
  Fe  Fe7  1  0.172124  0.830031  0.214469  1
  Fe  Fe8  1  0.172070  0.341840  0.214384  1
  Fe  Fe9  1  0.329599  0.162593  0.706632  1
  Te  Te10  1  0.282203  0.642627  0.496471  1
  Te  Te11  1  0.660803  0.330821  0.018335  1
  O  O12  1  0.139369  0.817040  0.591413  1
  O  O13  1  0.038315  0.519915  0.357987  1
  O  O14  1  0.371466  0.684308  0.101826  1
  O  O15  1  0.975768  0.988439  0.302209  1
  O  O16  1  0.000030  0.000303  0.811721  1
  O  O17  1  0.140100  0.319895  0.592342  1
  O  O18  1  0.505496  0.987407  0.331846  1
  O  O19  1  0.505901  0.517255  0.331939  1
  O  O20  1  0.337542  0.167711  0.098939  1
  O  O21  1  0.722711  0.863658  0.604052  1
  O  O22  1  0.522420  0.512060  0.818076  1
  O  O23  1  0.527356  0.016017  0.819759  1
  O  O24  1  0.680013  0.339739  0.597198  1
  O  O25  1  0.830128  0.660376  0.105139  1
  O  O26  1  0.991889  0.498159  0.825807  1
  O  O27  1  0.829226  0.168075  0.103967  1
