# generated using pymatgen
data_H3Os4C12ClO12
_symmetry_space_group_name_H-M   'P 1'
_cell_length_a   9.64752161
_cell_length_b   16.88775068
_cell_length_c   13.10934866
_cell_angle_alpha   90.00000000
_cell_angle_beta   97.32501922
_cell_angle_gamma   90.00000000
_symmetry_Int_Tables_number   1
_chemical_formula_structural   H3Os4C12ClO12
_chemical_formula_sum   'H12 Os16 C48 Cl4 O48'
_cell_volume   2118.40895892
_cell_formula_units_Z   4
loop_
 _symmetry_equiv_pos_site_id
 _symmetry_equiv_pos_as_xyz
  1  'x, y, z'
loop_
 _atom_site_type_symbol
 _atom_site_label
 _atom_site_symmetry_multiplicity
 _atom_site_fract_x
 _atom_site_fract_y
 _atom_site_fract_z
 _atom_site_occupancy
  H  H0  1  0.837682  0.280586  0.342000  1
  H  H1  1  0.337682  0.219414  0.842000  1
  H  H2  1  0.162318  0.719414  0.658000  1
  H  H3  1  0.662318  0.780586  0.158000  1
  H  H4  1  0.505845  0.230800  0.498623  1
  H  H5  1  0.005845  0.269200  0.998623  1
  H  H6  1  0.494155  0.769200  0.501377  1
  H  H7  1  0.994155  0.730800  0.001377  1
  H  H8  1  0.525386  0.252439  0.271738  1
  H  H9  1  0.025386  0.247561  0.771738  1
  H  H10  1  0.474614  0.747561  0.728262  1
  H  H11  1  0.974614  0.752439  0.228262  1
  Os  Os12  1  0.784060  0.350411  0.430601  1
  Os  Os13  1  0.284060  0.149589  0.930601  1
  Os  Os14  1  0.215940  0.649589  0.569399  1
  Os  Os15  1  0.715940  0.850411  0.069399  1
  Os  Os16  1  0.490061  0.301428  0.389965  1
  Os  Os17  1  0.990061  0.198572  0.889965  1
  Os  Os18  1  0.509939  0.698572  0.610035  1
  Os  Os19  1  0.009939  0.801428  0.110035  1
  Os  Os20  1  0.634509  0.155840  0.490455  1
  Os  Os21  1  0.134509  0.344160  0.990455  1
  Os  Os22  1  0.365491  0.844160  0.509545  1
  Os  Os23  1  0.865491  0.655840  0.009545  1
  Os  Os24  1  0.698982  0.208833  0.290750  1
  Os  Os25  1  0.198982  0.291167  0.790750  1
  Os  Os26  1  0.301018  0.791167  0.709250  1
  Os  Os27  1  0.801018  0.708833  0.209250  1
  C  C28  1  0.982169  0.370427  0.450074  1
  C  C29  1  0.482169  0.129573  0.950074  1
  C  C30  1  0.017831  0.629573  0.549926  1
  C  C31  1  0.517831  0.870427  0.049926  1
  C  C32  1  0.749110  0.420416  0.319370  1
  C  C33  1  0.249110  0.079584  0.819370  1
  C  C34  1  0.250890  0.579584  0.680630  1
  C  C35  1  0.750890  0.920416  0.180630  1
  C  C36  1  0.736008  0.424765  0.530624  1
  C  C37  1  0.236008  0.075235  0.030624  1
  C  C38  1  0.263992  0.575235  0.469376  1
  C  C39  1  0.763992  0.924765  0.969376  1
  C  C40  1  0.445798  0.386201  0.294899  1
  C  C41  1  0.945798  0.113799  0.794899  1
  C  C42  1  0.554202  0.613799  0.705101  1
  C  C43  1  0.054202  0.886201  0.205101  1
  C  C44  1  0.445299  0.363565  0.502742  1
  C  C45  1  0.945299  0.136435  0.002742  1
  C  C46  1  0.554701  0.636435  0.497258  1
  C  C47  1  0.054701  0.863565  0.997258  1
  C  C48  1  0.308666  0.253418  0.355233  1
  C  C49  1  0.808666  0.246582  0.855233  1
  C  C50  1  0.691334  0.746582  0.644767  1
  C  C51  1  0.191334  0.753418  0.144767  1
  C  C52  1  0.767509  0.070554  0.489866  1
  C  C53  1  0.267509  0.429446  0.989866  1
  C  C54  1  0.232491  0.929446  0.510134  1
  C  C55  1  0.732491  0.570554  0.010134  1
  C  C56  1  0.487346  0.094531  0.425865  1
  C  C57  1  0.987346  0.405469  0.925865  1
  C  C58  1  0.512654  0.905469  0.574135  1
  C  C59  1  0.012654  0.594531  0.074135  1
  C  C60  1  0.586528  0.135342  0.625791  1
  C  C61  1  0.086528  0.364658  0.125791  1
  C  C62  1  0.413472  0.864658  0.374209  1
  C  C63  1  0.913472  0.635342  0.874209  1
  C  C64  1  0.590935  0.124122  0.227071  1
  C  C65  1  0.090935  0.375878  0.727071  1
  C  C66  1  0.409065  0.875878  0.772929  1
  C  C67  1  0.909065  0.624122  0.272929  1
  C  C68  1  0.866673  0.145764  0.307057  1
  C  C69  1  0.366673  0.354236  0.807057  1
  C  C70  1  0.133326  0.854236  0.692943  1
  C  C71  1  0.633327  0.645764  0.192943  1
  C  C72  1  0.723553  0.260959  0.163938  1
  C  C73  1  0.223553  0.239041  0.663938  1
  C  C74  1  0.276447  0.739041  0.836062  1
  C  C75  1  0.776447  0.760959  0.336062  1
  Cl  Cl76  1  0.820518  0.248381  0.568995  1
  Cl  Cl77  1  0.320518  0.251619  0.068995  1
  Cl  Cl78  1  0.179482  0.751619  0.431005  1
  Cl  Cl79  1  0.679482  0.748381  0.931005  1
  O  O80  1  0.100834  0.384700  0.460957  1
  O  O81  1  0.600834  0.115300  0.960957  1
  O  O82  1  0.899166  0.615300  0.539043  1
  O  O83  1  0.399166  0.884700  0.039043  1
  O  O84  1  0.733569  0.460766  0.246850  1
  O  O85  1  0.233569  0.039234  0.746850  1
  O  O86  1  0.266431  0.539234  0.753150  1
  O  O87  1  0.766431  0.960766  0.253150  1
  O  O88  1  0.712212  0.468748  0.594230  1
  O  O89  1  0.212212  0.031252  0.094230  1
  O  O90  1  0.287788  0.531252  0.405770  1
  O  O91  1  0.787788  0.968748  0.905770  1
  O  O92  1  0.408616  0.435694  0.236294  1
  O  O93  1  0.908616  0.064306  0.736294  1
  O  O94  1  0.591384  0.564306  0.763706  1
  O  O95  1  0.091384  0.935694  0.263706  1
  O  O96  1  0.412031  0.401124  0.570202  1
  O  O97  1  0.912031  0.098876  0.070202  1
  O  O98  1  0.587969  0.598876  0.429798  1
  O  O99  1  0.087969  0.901124  0.929798  1
  O  O100  1  0.196954  0.228440  0.332737  1
  O  O101  1  0.696954  0.271560  0.832737  1
  O  O102  1  0.803046  0.771560  0.667263  1
  O  O103  1  0.303046  0.728440  0.167263  1
  O  O104  1  0.841061  0.016584  0.491165  1
  O  O105  1  0.341061  0.483416  0.991165  1
  O  O106  1  0.158939  0.983416  0.508835  1
  O  O107  1  0.658939  0.516584  0.008835  1
  O  O108  1  0.392464  0.057585  0.388200  1
  O  O109  1  0.892464  0.442415  0.888200  1
  O  O110  1  0.607536  0.942415  0.611800  1
  O  O111  1  0.107536  0.557585  0.111800  1
  O  O112  1  0.552936  0.120023  0.705442  1
  O  O113  1  0.052936  0.379977  0.205442  1
  O  O114  1  0.447064  0.879977  0.294558  1
  O  O115  1  0.947064  0.620023  0.794558  1
  O  O116  1  0.526682  0.072943  0.184400  1
  O  O117  1  0.026682  0.427057  0.684400  1
  O  O118  1  0.473318  0.927057  0.815600  1
  O  O119  1  0.973318  0.572943  0.315600  1
  O  O120  1  0.967125  0.107450  0.315196  1
  O  O121  1  0.467125  0.392550  0.815196  1
  O  O122  1  0.032875  0.892550  0.684804  1
  O  O123  1  0.532875  0.607450  0.184804  1
  O  O124  1  0.739049  0.290937  0.086268  1
  O  O125  1  0.239049  0.209063  0.586268  1
  O  O126  1  0.260951  0.709063  0.913732  1
  O  O127  1  0.760951  0.790937  0.413732  1
