# generated using pymatgen
data_Na3Ni2P2(CO7)2
_symmetry_space_group_name_H-M   'P 1'
_cell_length_a   10.16177871
_cell_length_b   10.43515911
_cell_length_c   6.51938368
_cell_angle_alpha   90.74965749
_cell_angle_beta   90.86376949
_cell_angle_gamma   60.20510911
_symmetry_Int_Tables_number   1
_chemical_formula_structural   Na3Ni2P2(CO7)2
_chemical_formula_sum   'Na6 Ni4 P4 C4 O28'
_cell_volume   599.84840289
_cell_formula_units_Z   2
loop_
 _symmetry_equiv_pos_site_id
 _symmetry_equiv_pos_as_xyz
  1  'x, y, z'
loop_
 _atom_site_type_symbol
 _atom_site_label
 _atom_site_symmetry_multiplicity
 _atom_site_fract_x
 _atom_site_fract_y
 _atom_site_fract_z
 _atom_site_occupancy
  Na  Na0  1  0.005807  0.250422  0.030502  1
  Na  Na1  1  0.495620  0.250277  0.989558  1
  Na  Na2  1  0.498453  0.247344  0.515547  1
  Na  Na3  1  0.504380  0.749723  0.010442  1
  Na  Na4  1  0.501547  0.752656  0.484453  1
  Na  Na5  1  0.994193  0.749578  0.969498  1
  Ni  Ni6  1  0.277195  0.065261  0.744347  1
  Ni  Ni7  1  0.214131  0.439356  0.254700  1
  Ni  Ni8  1  0.785869  0.560644  0.745300  1
  Ni  Ni9  1  0.722805  0.934739  0.255653  1
  P  P10  1  0.353285  0.069221  0.249879  1
  P  P11  1  0.147255  0.425872  0.750706  1
  P  P12  1  0.852745  0.574128  0.249294  1
  P  P13  1  0.646715  0.930779  0.750121  1
  C  C14  1  0.821075  0.107705  0.251021  1
  C  C15  1  0.319509  0.606025  0.250491  1
  C  C16  1  0.680490  0.393975  0.749509  1
  C  C17  1  0.178925  0.892295  0.748979  1
  O  O18  1  0.092697  0.034238  0.750006  1
  O  O19  1  0.267390  0.054946  0.060780  1
  O  O20  1  0.274790  0.048900  0.436594  1
  O  O21  1  0.145094  0.279266  0.758865  1
  O  O22  1  0.019215  0.445103  0.243285  1
  O  O23  1  0.478103  0.060214  0.753708  1
  O  O24  1  0.354091  0.217317  0.250980  1
  O  O25  1  0.233875  0.442694  0.938406  1
  O  O26  1  0.234816  0.434086  0.564467  1
  O  O27  1  0.675595  0.149922  0.254237  1
  O  O28  1  0.175746  0.649955  0.249890  1
  O  O29  1  0.402726  0.462504  0.256700  1
  O  O30  1  0.626741  0.308311  0.755048  1
  O  O31  1  0.131437  0.802892  0.751157  1
  O  O32  1  0.868563  0.197108  0.248843  1
  O  O33  1  0.373259  0.691689  0.244952  1
  O  O34  1  0.597274  0.537496  0.743300  1
  O  O35  1  0.824254  0.350045  0.750110  1
  O  O36  1  0.324405  0.850078  0.745763  1
  O  O37  1  0.766125  0.557306  0.061594  1
  O  O38  1  0.765184  0.565914  0.435533  1
  O  O39  1  0.645909  0.782683  0.749020  1
  O  O40  1  0.521897  0.939786  0.246292  1
  O  O41  1  0.980785  0.554897  0.756715  1
  O  O42  1  0.854906  0.720734  0.241135  1
  O  O43  1  0.725210  0.951100  0.563406  1
  O  O44  1  0.732610  0.945054  0.939220  1
  O  O45  1  0.907303  0.965762  0.249994  1
