# generated using pymatgen
data_RbLiMnP3HO10
_symmetry_space_group_name_H-M   'P 1'
_cell_length_a   7.45926639
_cell_length_b   7.45914498
_cell_length_c   9.59117402
_cell_angle_alpha   104.87339583
_cell_angle_beta   75.12778670
_cell_angle_gamma   104.99222563
_symmetry_Int_Tables_number   1
_chemical_formula_structural   RbLiMnP3HO10
_chemical_formula_sum   'Rb2 Li2 Mn2 P6 H2 O20'
_cell_volume   487.75859331
_cell_formula_units_Z   2
loop_
 _symmetry_equiv_pos_site_id
 _symmetry_equiv_pos_as_xyz
  1  'x, y, z'
loop_
 _atom_site_type_symbol
 _atom_site_label
 _atom_site_symmetry_multiplicity
 _atom_site_fract_x
 _atom_site_fract_y
 _atom_site_fract_z
 _atom_site_occupancy
  Rb  Rb0  1  0.454551  0.462601  0.264671  1
  Rb  Rb1  1  0.537396  0.545453  0.764678  1
  Li  Li2  1  0.930968  0.853210  0.518050  1
  Li  Li3  1  0.146786  0.069033  0.018055  1
  Mn  Mn4  1  0.999029  0.507089  0.999827  1
  Mn  Mn5  1  0.492907  0.000948  0.499830  1
  P  P6  1  0.282908  0.851480  0.188874  1
  P  P7  1  0.876846  0.873944  0.255995  1
  P  P8  1  0.148503  0.717079  0.688899  1
  P  P9  1  0.849332  0.283774  0.307038  1
  P  P10  1  0.126037  0.123176  0.756067  1
  P  P11  1  0.716252  0.150704  0.807089  1
  H  H12  1  0.996167  0.485119  0.479657  1
  H  H13  1  0.514876  0.003831  0.979663  1
  O  O14  1  0.071229  0.874948  0.301430  1
  O  O15  1  0.125058  0.928767  0.801426  1
  O  O16  1  0.406655  0.873083  0.296351  1
  O  O17  1  0.251510  0.654977  0.090525  1
  O  O18  1  0.627823  0.983121  0.893703  1
  O  O19  1  0.345048  0.748495  0.590508  1
  O  O20  1  0.737596  0.856166  0.400837  1
  O  O21  1  0.847479  0.735787  0.116175  1
  O  O22  1  0.126926  0.593355  0.796332  1
  O  O23  1  0.016877  0.372182  0.393703  1
  O  O24  1  0.985449  0.671184  0.604563  1
  O  O25  1  0.860332  0.385119  0.188079  1
  O  O26  1  0.143837  0.262376  0.900822  1
  O  O27  1  0.264252  0.152529  0.616156  1
  O  O28  1  0.657506  0.248142  0.407363  1
  O  O29  1  0.328819  0.014551  0.104567  1
  O  O30  1  0.751840  0.342455  0.907346  1
  O  O31  1  0.614868  0.139656  0.688056  1
  O  O32  1  0.913100  0.080652  0.215864  1
  O  O33  1  0.919357  0.086907  0.715865  1
