# generated using pymatgen
data_H9C2N7O6
_symmetry_space_group_name_H-M   'P 1'
_cell_length_a   14.23136015
_cell_length_b   6.98958620
_cell_length_c   9.10706881
_cell_angle_alpha   90.00000000
_cell_angle_beta   90.00000000
_cell_angle_gamma   90.00000000
_symmetry_Int_Tables_number   1
_chemical_formula_structural   H9C2N7O6
_chemical_formula_sum   'H36 C8 N28 O24'
_cell_volume   905.89214231
_cell_formula_units_Z   4
loop_
 _symmetry_equiv_pos_site_id
 _symmetry_equiv_pos_as_xyz
  1  'x, y, z'
loop_
 _atom_site_type_symbol
 _atom_site_label
 _atom_site_symmetry_multiplicity
 _atom_site_fract_x
 _atom_site_fract_y
 _atom_site_fract_z
 _atom_site_occupancy
  H  H0  1  0.249239  0.879634  0.636268  1
  H  H1  1  0.750761  0.120366  0.136268  1
  H  H2  1  0.250761  0.879634  0.136268  1
  H  H3  1  0.749239  0.120366  0.636268  1
  H  H4  1  0.130030  0.937425  0.605742  1
  H  H5  1  0.869970  0.062575  0.105742  1
  H  H6  1  0.369970  0.937425  0.105742  1
  H  H7  1  0.630030  0.062575  0.605742  1
  H  H8  1  0.333721  0.063368  0.799373  1
  H  H9  1  0.666279  0.936632  0.299373  1
  H  H10  1  0.166279  0.063368  0.299373  1
  H  H11  1  0.833721  0.936632  0.799373  1
  H  H12  1  0.307177  0.308330  0.821819  1
  H  H13  1  0.692823  0.691670  0.321819  1
  H  H14  1  0.192823  0.308330  0.321819  1
  H  H15  1  0.807177  0.691670  0.821819  1
  H  H16  1  0.092319  0.256512  0.611168  1
  H  H17  1  0.907681  0.743488  0.111168  1
  H  H18  1  0.407681  0.256512  0.111168  1
  H  H19  1  0.592319  0.743488  0.611168  1
  H  H20  1  0.044083  0.676667  0.800876  1
  H  H21  1  0.955917  0.323333  0.300876  1
  H  H22  1  0.455917  0.676667  0.300876  1
  H  H23  1  0.544083  0.323333  0.800876  1
  H  H24  1  0.075938  0.591498  0.623447  1
  H  H25  1  0.924062  0.408502  0.123447  1
  H  H26  1  0.424062  0.591498  0.123447  1
  H  H27  1  0.575938  0.408502  0.623447  1
  H  H28  1  0.146227  0.281005  0.981985  1
  H  H29  1  0.853773  0.718995  0.481985  1
  H  H30  1  0.353773  0.281005  0.481985  1
  H  H31  1  0.646227  0.718995  0.981985  1
  H  H32  1  0.128535  0.527325  0.002666  1
  H  H33  1  0.871465  0.472675  0.502666  1
  H  H34  1  0.371465  0.527325  0.502666  1
  H  H35  1  0.628535  0.472675  0.002666  1
  C  C36  1  0.208929  0.140727  0.711989  1
  C  C37  1  0.791071  0.859273  0.211989  1
  C  C38  1  0.291071  0.140727  0.211989  1
  C  C39  1  0.708929  0.859273  0.711989  1
  C  C40  1  0.117480  0.424533  0.793040  1
  C  C41  1  0.882520  0.575467  0.293040  1
  C  C42  1  0.382520  0.424533  0.293040  1
  C  C43  1  0.617480  0.575467  0.793040  1
  N  N44  1  0.195615  0.976771  0.641843  1
  N  N45  1  0.804385  0.023229  0.141843  1
  N  N46  1  0.304385  0.976771  0.141843  1
  N  N47  1  0.695615  0.023229  0.641843  1
  N  N48  1  0.288297  0.175451  0.783496  1
  N  N49  1  0.711703  0.824549  0.283496  1
  N  N50  1  0.211703  0.175451  0.283496  1
  N  N51  1  0.788297  0.824549  0.783496  1
  N  N52  1  0.138701  0.276294  0.698896  1
  N  N53  1  0.861299  0.723706  0.198896  1
  N  N54  1  0.361299  0.276294  0.198896  1
  N  N55  1  0.638701  0.723706  0.698896  1
  N  N56  1  0.072355  0.572047  0.735023  1
  N  N57  1  0.927645  0.427953  0.235023  1
  N  N58  1  0.427645  0.572047  0.235023  1
  N  N59  1  0.572355  0.427953  0.735023  1
  N  N60  1  0.139221  0.413354  0.935037  1
  N  N61  1  0.860779  0.586646  0.435037  1
  N  N62  1  0.360779  0.413354  0.435037  1
  N  N63  1  0.639221  0.586646  0.935037  1
  N  N64  1  0.543847  0.043816  0.022506  1
  N  N65  1  0.456153  0.956184  0.522506  1
  N  N66  1  0.956153  0.043816  0.522506  1
  N  N67  1  0.043847  0.956184  0.022506  1
  N  N68  1  0.860658  0.341056  0.821099  1
  N  N69  1  0.139342  0.658944  0.321099  1
  N  N70  1  0.639342  0.341056  0.321099  1
  N  N71  1  0.360658  0.658944  0.821099  1
  O  O72  1  0.625257  0.018247  0.971974  1
  O  O73  1  0.374743  0.981753  0.471974  1
  O  O74  1  0.874743  0.018247  0.471974  1
  O  O75  1  0.125257  0.981753  0.971974  1
  O  O76  1  0.507133  0.925132  0.108918  1
  O  O77  1  0.492867  0.074868  0.608918  1
  O  O78  1  0.992867  0.925132  0.608918  1
  O  O79  1  0.007133  0.074868  0.108918  1
  O  O80  1  0.497841  0.195070  0.984753  1
  O  O81  1  0.502159  0.804930  0.484753  1
  O  O82  1  0.002159  0.195070  0.484753  1
  O  O83  1  0.997841  0.804930  0.984753  1
  O  O84  1  0.872036  0.470177  0.918117  1
  O  O85  1  0.127964  0.529823  0.418117  1
  O  O86  1  0.627964  0.470177  0.418117  1
  O  O87  1  0.372036  0.529823  0.918117  1
  O  O88  1  0.896806  0.177957  0.838223  1
  O  O89  1  0.103194  0.822043  0.338223  1
  O  O90  1  0.603194  0.177957  0.338223  1
  O  O91  1  0.396806  0.822043  0.838223  1
  O  O92  1  0.812485  0.379168  0.706841  1
  O  O93  1  0.187515  0.620832  0.206841  1
  O  O94  1  0.687515  0.379168  0.206841  1
  O  O95  1  0.312485  0.620832  0.706841  1
