# generated using pymatgen
data_Lu2GeO5
_symmetry_space_group_name_H-M   'P 1'
_cell_length_a   9.18041257
_cell_length_b   6.86989479
_cell_length_c   6.63448820
_cell_angle_alpha   90.00000000
_cell_angle_beta   101.78879388
_cell_angle_gamma   90.00000000
_symmetry_Int_Tables_number   1
_chemical_formula_structural   Lu2GeO5
_chemical_formula_sum   'Lu8 Ge4 O20'
_cell_volume   409.60128200
_cell_formula_units_Z   4
loop_
 _symmetry_equiv_pos_site_id
 _symmetry_equiv_pos_as_xyz
  1  'x, y, z'
loop_
 _atom_site_type_symbol
 _atom_site_label
 _atom_site_symmetry_multiplicity
 _atom_site_fract_x
 _atom_site_fract_y
 _atom_site_fract_z
 _atom_site_occupancy
  Lu  Lu0  1  0.029193  0.126026  0.727153  1
  Lu  Lu1  1  0.029193  0.373974  0.227153  1
  Lu  Lu2  1  0.353652  0.139849  0.512177  1
  Lu  Lu3  1  0.353652  0.360151  0.012177  1
  Lu  Lu4  1  0.646348  0.639849  0.987823  1
  Lu  Lu5  1  0.646348  0.860151  0.487823  1
  Lu  Lu6  1  0.970807  0.626026  0.772847  1
  Lu  Lu7  1  0.970807  0.873974  0.272847  1
  Ge  Ge8  1  0.301459  0.597775  0.510423  1
  Ge  Ge9  1  0.301459  0.902225  0.010423  1
  Ge  Ge10  1  0.698541  0.097775  0.989577  1
  Ge  Ge11  1  0.698541  0.402225  0.489577  1
  O  O12  1  0.105548  0.856693  0.988379  1
  O  O13  1  0.107066  0.384565  0.919812  1
  O  O14  1  0.105548  0.643307  0.488379  1
  O  O15  1  0.107066  0.115435  0.419812  1
  O  O16  1  0.278811  0.078445  0.802288  1
  O  O17  1  0.397750  0.688330  0.987864  1
  O  O18  1  0.278811  0.421555  0.302288  1
  O  O19  1  0.380413  0.424393  0.694797  1
  O  O20  1  0.397750  0.811670  0.487864  1
  O  O21  1  0.380413  0.075607  0.194797  1
  O  O22  1  0.619587  0.924393  0.805203  1
  O  O23  1  0.602250  0.188330  0.512136  1
  O  O24  1  0.619587  0.575607  0.305203  1
  O  O25  1  0.721189  0.578445  0.697712  1
  O  O26  1  0.602250  0.311670  0.012136  1
  O  O27  1  0.721189  0.921555  0.197712  1
  O  O28  1  0.892934  0.884565  0.580188  1
  O  O29  1  0.894452  0.356693  0.511621  1
  O  O30  1  0.892934  0.615435  0.080188  1
  O  O31  1  0.894452  0.143307  0.011621  1
