# generated using pymatgen
data_H2S2O7
_symmetry_space_group_name_H-M   'P 1'
_cell_length_a   9.97591933
_cell_length_b   9.97591933
_cell_length_c   12.88472482
_cell_angle_alpha   77.50925005
_cell_angle_beta   102.49074995
_cell_angle_gamma   79.47216244
_symmetry_Int_Tables_number   1
_chemical_formula_structural   H2S2O7
_chemical_formula_sum   'H16 S16 O56'
_cell_volume   1186.34037591
_cell_formula_units_Z   8
loop_
 _symmetry_equiv_pos_site_id
 _symmetry_equiv_pos_as_xyz
  1  'x, y, z'
loop_
 _atom_site_type_symbol
 _atom_site_label
 _atom_site_symmetry_multiplicity
 _atom_site_fract_x
 _atom_site_fract_y
 _atom_site_fract_z
 _atom_site_occupancy
  H  H0  1  0.810555  0.039002  0.896175  1
  H  H1  1  0.039002  0.810555  0.603825  1
  H  H2  1  0.189445  0.960998  0.103825  1
  H  H3  1  0.960998  0.189445  0.396175  1
  H  H4  1  0.956695  0.378815  0.599035  1
  H  H5  1  0.378815  0.956695  0.900965  1
  H  H6  1  0.043305  0.621185  0.400965  1
  H  H7  1  0.621185  0.043305  0.099035  1
  H  H8  1  0.836441  0.554701  0.910470  1
  H  H9  1  0.554701  0.836441  0.589530  1
  H  H10  1  0.163559  0.445299  0.089530  1
  H  H11  1  0.445299  0.163559  0.410470  1
  H  H12  1  0.577895  0.547725  0.441634  1
  H  H13  1  0.547725  0.577895  0.058366  1
  H  H14  1  0.422105  0.452275  0.558366  1
  H  H15  1  0.452275  0.422105  0.941634  1
  S  S16  1  0.812663  0.359110  0.863107  1
  S  S17  1  0.359110  0.812663  0.636893  1
  S  S18  1  0.187337  0.640890  0.136893  1
  S  S19  1  0.640890  0.187337  0.363107  1
  S  S20  1  0.638251  0.359521  0.652731  1
  S  S21  1  0.359521  0.638251  0.847269  1
  S  S22  1  0.361749  0.640479  0.347269  1
  S  S23  1  0.640479  0.361749  0.152731  1
  S  S24  1  0.165018  0.184811  0.358463  1
  S  S25  1  0.184811  0.165018  0.141537  1
  S  S26  1  0.834982  0.815189  0.641537  1
  S  S27  1  0.815189  0.834982  0.858463  1
  S  S28  1  0.185755  0.347740  0.631794  1
  S  S29  1  0.347740  0.185755  0.868206  1
  S  S30  1  0.814245  0.652260  0.368206  1
  S  S31  1  0.652260  0.814245  0.131794  1
  O  O32  1  0.668857  0.434794  0.753350  1
  O  O33  1  0.434794  0.668857  0.746650  1
  O  O34  1  0.331143  0.565206  0.246650  1
  O  O35  1  0.565206  0.331143  0.253350  1
  O  O36  1  0.121906  0.121906  0.250000  1
  O  O37  1  0.878094  0.878094  0.750000  1
  O  O38  1  0.216959  0.216959  0.750000  1
  O  O39  1  0.783041  0.783041  0.250000  1
  O  O40  1  0.935177  0.355350  0.823222  1
  O  O41  1  0.355350  0.935177  0.676778  1
  O  O42  1  0.064823  0.644650  0.176778  1
  O  O43  1  0.644650  0.064823  0.323222  1
  O  O44  1  0.783586  0.234115  0.923890  1
  O  O45  1  0.234115  0.783586  0.576110  1
  O  O46  1  0.216414  0.765885  0.076110  1
  O  O47  1  0.765885  0.216414  0.423890  1
  O  O48  1  0.786646  0.474778  0.924860  1
  O  O49  1  0.474778  0.786646  0.575140  1
  O  O50  1  0.213354  0.525222  0.075140  1
  O  O51  1  0.525222  0.213354  0.424860  1
  O  O52  1  0.671127  0.446787  0.560033  1
  O  O53  1  0.446787  0.671127  0.939967  1
  O  O54  1  0.328873  0.553213  0.439967  1
  O  O55  1  0.553213  0.328873  0.060033  1
  O  O56  1  0.476062  0.382620  0.632094  1
  O  O57  1  0.382620  0.476062  0.867906  1
  O  O58  1  0.523938  0.617380  0.367906  1
  O  O59  1  0.617380  0.523938  0.132094  1
  O  O60  1  0.706640  0.213148  0.691481  1
  O  O61  1  0.213148  0.706640  0.808519  1
  O  O62  1  0.293360  0.786852  0.308520  1
  O  O63  1  0.786852  0.293360  0.191480  1
  O  O64  1  0.303447  0.100643  0.422894  1
  O  O65  1  0.100643  0.303447  0.077106  1
  O  O66  1  0.696553  0.899357  0.577106  1
  O  O67  1  0.899357  0.696553  0.922894  1
  O  O68  1  0.139792  0.334971  0.321101  1
  O  O69  1  0.334971  0.139792  0.178899  1
  O  O70  1  0.860208  0.665029  0.678899  1
  O  O71  1  0.665029  0.860208  0.821101  1
  O  O72  1  0.060960  0.132564  0.421614  1
  O  O73  1  0.132564  0.060960  0.078386  1
  O  O74  1  0.939040  0.867436  0.578386  1
  O  O75  1  0.867436  0.939040  0.921614  1
  O  O76  1  0.043234  0.054177  0.700748  1
  O  O77  1  0.054177  0.043234  0.799252  1
  O  O78  1  0.956766  0.945823  0.299252  1
  O  O79  1  0.945823  0.956766  0.200748  1
  O  O80  1  0.032205  0.326865  0.574346  1
  O  O81  1  0.326865  0.032205  0.925654  1
  O  O82  1  0.967795  0.673135  0.425654  1
  O  O83  1  0.673135  0.967795  0.074346  1
  O  O84  1  0.164636  0.482393  0.659587  1
  O  O85  1  0.482393  0.164636  0.840413  1
  O  O86  1  0.835364  0.517607  0.340413  1
  O  O87  1  0.517607  0.835364  0.159587  1
