# generated using pymatgen
data_Ti3Cr2Sb(PO4)6
_symmetry_space_group_name_H-M   'P 1'
_cell_length_a   8.71474297
_cell_length_b   8.71474294
_cell_length_c   8.71474313
_cell_angle_alpha   60.16582053
_cell_angle_beta   60.16581597
_cell_angle_gamma   60.16582019
_symmetry_Int_Tables_number   1
_chemical_formula_structural   Ti3Cr2Sb(PO4)6
_chemical_formula_sum   'Ti3 Cr2 Sb1 P6 O24'
_cell_volume   469.76075167
_cell_formula_units_Z   1
loop_
 _symmetry_equiv_pos_site_id
 _symmetry_equiv_pos_as_xyz
  1  'x, y, z'
loop_
 _atom_site_type_symbol
 _atom_site_label
 _atom_site_symmetry_multiplicity
 _atom_site_fract_x
 _atom_site_fract_y
 _atom_site_fract_z
 _atom_site_occupancy
  Ti  Ti0  1  0.145400  0.145400  0.145400  1
  Ti  Ti1  1  0.353163  0.353163  0.353163  1
  Ti  Ti2  1  0.645743  0.645743  0.645743  1
  Cr  Cr3  1  0.000517  0.000517  0.000517  1
  Cr  Cr4  1  0.498363  0.498363  0.498363  1
  Sb  Sb5  1  0.852181  0.852181  0.852181  1
  P  P6  1  0.050696  0.750465  0.442053  1
  P  P7  1  0.442053  0.050696  0.750465  1
  P  P8  1  0.261462  0.536184  0.956795  1
  P  P9  1  0.536184  0.956795  0.261462  1
  P  P10  1  0.956795  0.261462  0.536184  1
  P  P11  1  0.750465  0.442053  0.050696  1
  O  O12  1  0.110669  0.337703  0.476083  1
  O  O13  1  0.337703  0.476083  0.110669  1
  O  O14  1  0.061289  0.914570  0.252832  1
  O  O15  1  0.476083  0.110669  0.337703  1
  O  O16  1  0.038254  0.804485  0.589780  1
  O  O17  1  0.240230  0.587809  0.414061  1
  O  O18  1  0.252832  0.061289  0.914570  1
  O  O19  1  0.414061  0.240230  0.587809  1
  O  O20  1  0.191199  0.383705  0.998187  1
  O  O21  1  0.587809  0.414061  0.240230  1
  O  O22  1  0.106659  0.728357  0.954632  1
  O  O23  1  0.383705  0.998187  0.191199  1
  O  O24  1  0.589780  0.038254  0.804485  1
  O  O25  1  0.914570  0.252832  0.061289  1
  O  O26  1  0.420740  0.553371  0.764242  1
  O  O27  1  0.804485  0.589780  0.038254  1
  O  O28  1  0.553371  0.764242  0.420740  1
  O  O29  1  0.728357  0.954632  0.106659  1
  O  O30  1  0.764242  0.420740  0.553371  1
  O  O31  1  0.998187  0.191199  0.383705  1
  O  O32  1  0.499704  0.878581  0.699839  1
  O  O33  1  0.954632  0.106659  0.728357  1
  O  O34  1  0.699839  0.499704  0.878581  1
  O  O35  1  0.878581  0.699839  0.499704  1
