# generated using pymatgen
data_LiFe2(BO3)2
_symmetry_space_group_name_H-M   'P 1'
_cell_length_a   5.24191953
_cell_length_b   9.05851752
_cell_length_c   11.39505402
_cell_angle_alpha   66.93139811
_cell_angle_beta   77.42443732
_cell_angle_gamma   89.89454034
_symmetry_Int_Tables_number   1
_chemical_formula_structural   LiFe2(BO3)2
_chemical_formula_sum   'Li4 Fe8 B8 O24'
_cell_volume   483.76949330
_cell_formula_units_Z   4
loop_
 _symmetry_equiv_pos_site_id
 _symmetry_equiv_pos_as_xyz
  1  'x, y, z'
loop_
 _atom_site_type_symbol
 _atom_site_label
 _atom_site_symmetry_multiplicity
 _atom_site_fract_x
 _atom_site_fract_y
 _atom_site_fract_z
 _atom_site_occupancy
  Li  Li0  1  0.727934  0.727867  0.882523  1
  Li  Li1  1  0.513034  0.490936  0.663098  1
  Li  Li2  1  0.745292  0.756887  0.154112  1
  Li  Li3  1  0.469549  0.463697  0.404541  1
  Fe  Fe4  1  0.976861  0.659126  0.383536  1
  Fe  Fe5  1  0.739401  0.072670  0.876240  1
  Fe  Fe6  1  0.509727  0.848161  0.631857  1
  Fe  Fe7  1  0.748985  0.429145  0.130202  1
  Fe  Fe8  1  0.231684  0.546519  0.890673  1
  Fe  Fe9  1  0.479954  0.143801  0.373573  1
  Fe  Fe10  1  0.028527  0.339269  0.630633  1
  Fe  Fe11  1  0.266059  0.940926  0.130370  1
  B  B12  1  0.985872  0.315909  0.375814  1
  B  B13  1  0.732711  0.397358  0.873249  1
  B  B14  1  0.533493  0.187881  0.622991  1
  B  B15  1  0.770800  0.097121  0.130760  1
  B  B16  1  0.472008  0.813510  0.376744  1
  B  B17  1  0.233129  0.894753  0.881390  1
  B  B18  1  0.005645  0.678071  0.636277  1
  B  B19  1  0.261662  0.614518  0.125579  1
  O  O20  1  0.969037  0.901015  0.886838  1
  O  O21  1  0.886442  0.280836  0.847562  1
  O  O22  1  0.832663  0.500436  0.919950  1
  O  O23  1  0.848347  0.790641  0.658544  1
  O  O24  1  0.910811  0.569315  0.593403  1
  O  O25  1  0.739242  0.154567  0.685811  1
  O  O26  1  0.733331  0.327207  0.347710  1
  O  O27  1  0.489975  0.408303  0.849016  1
  O  O28  1  0.379918  0.795191  0.829829  1
  O  O29  1  0.555357  0.912725  0.432062  1
  O  O30  1  0.606220  0.686742  0.367147  1
  O  O31  1  0.364282  0.983786  0.930012  1
  O  O32  1  0.650512  0.996555  0.085050  1
  O  O33  1  0.416237  0.328888  0.602834  1
  O  O34  1  0.450748  0.077532  0.577839  1
  O  O35  1  0.616520  0.191709  0.181797  1
  O  O36  1  0.528158  0.617957  0.119760  1
  O  O37  1  0.259430  0.668236  0.658262  1
  O  O38  1  0.252908  0.849971  0.325221  1
  O  O39  1  0.077380  0.427945  0.416876  1
  O  O40  1  0.135123  0.194863  0.369029  1
  O  O41  1  0.137611  0.512895  0.088916  1
  O  O42  1  0.112891  0.725796  0.164089  1
  O  O43  1  0.028860  0.093096  0.126764  1
