# generated using pymatgen
data_Li32Ti3Cr13O48
_symmetry_space_group_name_H-M   'P 1'
_cell_length_a   5.05093725
_cell_length_b   8.73635371
_cell_length_c   19.53713300
_cell_angle_alpha   98.52491739
_cell_angle_beta   94.85465397
_cell_angle_gamma   90.11996223
_symmetry_Int_Tables_number   1
_chemical_formula_structural   Li32Ti3Cr13O48
_chemical_formula_sum   'Li32 Ti3 Cr13 O48'
_cell_volume   849.43329429
_cell_formula_units_Z   1
loop_
 _symmetry_equiv_pos_site_id
 _symmetry_equiv_pos_as_xyz
  1  'x, y, z'
loop_
 _atom_site_type_symbol
 _atom_site_label
 _atom_site_symmetry_multiplicity
 _atom_site_fract_x
 _atom_site_fract_y
 _atom_site_fract_z
 _atom_site_occupancy
  Li  Li0  1  0.993880  0.171939  0.249969  1
  Li  Li1  1  0.875429  0.376238  0.375112  1
  Li  Li2  1  0.748912  0.249447  0.000189  1
  Li  Li3  1  0.741968  0.918722  0.001060  1
  Li  Li4  1  0.993809  0.169679  0.750395  1
  Li  Li5  1  0.759396  0.580578  0.500175  1
  Li  Li6  1  0.877292  0.374828  0.874365  1
  Li  Li7  1  0.742947  0.252420  0.499958  1
  Li  Li8  1  0.744825  0.919516  0.499893  1
  Li  Li9  1  0.624545  0.125346  0.125019  1
  Li  Li10  1  0.757939  0.581975  0.000609  1
  Li  Li11  1  0.508193  0.332380  0.249247  1
  Li  Li12  1  0.625533  0.125666  0.625149  1
  Li  Li13  1  0.501466  0.998821  0.250256  1
  Li  Li14  1  0.492100  0.667005  0.249655  1
  Li  Li15  1  0.510251  0.331592  0.750499  1
  Li  Li16  1  0.377217  0.874878  0.374532  1
  Li  Li17  1  0.493527  0.002372  0.749958  1
  Li  Li18  1  0.246452  0.752187  0.000258  1
  Li  Li19  1  0.493412  0.668535  0.749457  1
  Li  Li20  1  0.241237  0.418479  0.999821  1
  Li  Li21  1  0.375825  0.875864  0.875155  1
  Li  Li22  1  0.256447  0.079545  0.499877  1
  Li  Li23  1  0.250534  0.747711  0.500368  1
  Li  Li24  1  0.125201  0.624649  0.124993  1
  Li  Li25  1  0.244887  0.421206  0.500640  1
  Li  Li26  1  0.007006  0.830214  0.250860  1
  Li  Li27  1  0.263042  0.079480  0.999877  1
  Li  Li28  1  0.127181  0.625037  0.624455  1
  Li  Li29  1  0.996092  0.499993  0.249680  1
  Li  Li30  1  0.007333  0.830872  0.750296  1
  Li  Li31  1  0.000712  0.498057  0.750333  1
  Ti  Ti32  1  0.877945  0.039032  0.876883  1
  Ti  Ti33  1  0.377007  0.538922  0.376022  1
  Ti  Ti34  1  0.127798  0.289031  0.626349  1
  Cr  Cr35  1  0.877944  0.711814  0.374944  1
  Cr  Cr36  1  0.872126  0.047104  0.374047  1
  Cr  Cr37  1  0.871472  0.703190  0.874776  1
  Cr  Cr38  1  0.615716  0.788520  0.123694  1
  Cr  Cr39  1  0.634198  0.461006  0.126135  1
  Cr  Cr40  1  0.621601  0.796638  0.624101  1
  Cr  Cr41  1  0.628955  0.461711  0.625108  1
  Cr  Cr42  1  0.372454  0.203163  0.374524  1
  Cr  Cr43  1  0.370955  0.546982  0.874199  1
  Cr  Cr44  1  0.378797  0.211875  0.875245  1
  Cr  Cr45  1  0.115266  0.960260  0.123988  1
  Cr  Cr46  1  0.135185  0.289918  0.126211  1
  Cr  Cr47  1  0.122041  0.952951  0.624673  1
  O  O48  1  0.966893  0.101856  0.068575  1
  O  O49  1  0.921143  0.782118  0.068897  1
  O  O50  1  0.922286  0.424771  0.068396  1
  O  O51  1  0.964725  0.102745  0.568456  1
  O  O52  1  0.828270  0.961692  0.180504  1
  O  O53  1  0.828057  0.320114  0.182070  1
  O  O54  1  0.935020  0.787586  0.568678  1
  O  O55  1  0.920624  0.428481  0.567653  1
  O  O56  1  0.784378  0.638965  0.181171  1
  O  O57  1  0.713190  0.860972  0.318635  1
  O  O58  1  0.815498  0.959817  0.681500  1
  O  O59  1  0.825407  0.321575  0.683546  1
  O  O60  1  0.681136  0.536750  0.318530  1
  O  O61  1  0.683576  0.174435  0.317249  1
  O  O62  1  0.783546  0.642053  0.679755  1
  O  O63  1  0.714738  0.853104  0.818710  1
  O  O64  1  0.464312  0.610097  0.068317  1
  O  O65  1  0.576118  0.716871  0.431103  1
  O  O66  1  0.564541  0.075463  0.431977  1
  O  O67  1  0.684473  0.537625  0.818690  1
  O  O68  1  0.670302  0.178415  0.817882  1
  O  O69  1  0.422080  0.929657  0.067998  1
  O  O70  1  0.423423  0.288420  0.069654  1
  O  O71  1  0.536620  0.390243  0.431244  1
  O  O72  1  0.463504  0.610844  0.568773  1
  O  O73  1  0.565205  0.709615  0.931345  1
  O  O74  1  0.574892  0.071784  0.933922  1
  O  O75  1  0.328395  0.824961  0.181281  1
  O  O76  1  0.327830  0.467956  0.181154  1
  O  O77  1  0.433179  0.924620  0.567386  1
  O  O78  1  0.431111  0.286858  0.568678  1
  O  O79  1  0.532306  0.392096  0.930105  1
  O  O80  1  0.284767  0.148437  0.181493  1
  O  O81  1  0.214764  0.353192  0.318606  1
  O  O82  1  0.314529  0.825369  0.682074  1
  O  O83  1  0.325772  0.467165  0.681181  1
  O  O84  1  0.170466  0.678545  0.317252  1
  O  O85  1  0.185168  0.037548  0.318348  1
  O  O86  1  0.286564  0.140172  0.681353  1
  O  O87  1  0.213685  0.360827  0.818846  1
  O  O88  1  0.075139  0.571785  0.433393  1
  O  O89  1  0.065726  0.210148  0.431359  1
  O  O90  1  0.182718  0.674953  0.817442  1
  O  O91  1  0.180653  0.036893  0.818898  1
  O  O92  1  0.033522  0.892367  0.429600  1
  O  O93  1  0.064049  0.575332  0.932102  1
  O  O94  1  0.075054  0.217166  0.931599  1
  O  O95  1  0.036580  0.890191  0.931613  1
