# generated using pymatgen
data_Li6V3P8O29
_symmetry_space_group_name_H-M   'P 1'
_cell_length_a   9.80944976
_cell_length_b   9.79129583
_cell_length_c   13.94363200
_cell_angle_alpha   89.82256475
_cell_angle_beta   89.63558905
_cell_angle_gamma   60.37603970
_symmetry_Int_Tables_number   1
_chemical_formula_structural   Li6V3P8O29
_chemical_formula_sum   'Li12 V6 P16 O58'
_cell_volume   1164.16832439
_cell_formula_units_Z   2
loop_
 _symmetry_equiv_pos_site_id
 _symmetry_equiv_pos_as_xyz
  1  'x, y, z'
loop_
 _atom_site_type_symbol
 _atom_site_label
 _atom_site_symmetry_multiplicity
 _atom_site_fract_x
 _atom_site_fract_y
 _atom_site_fract_z
 _atom_site_occupancy
  Li  Li0  1  0.912350  0.773156  0.061601  1
  Li  Li1  1  0.765834  0.903089  0.557909  1
  Li  Li2  1  0.898606  0.338145  0.558082  1
  Li  Li3  1  0.772818  0.321781  0.062214  1
  Li  Li4  1  0.318876  0.904756  0.059426  1
  Li  Li5  1  0.333231  0.769470  0.558128  1
  Li  Li6  1  0.690580  0.083671  0.940202  1
  Li  Li7  1  0.340036  0.329382  0.611263  1
  Li  Li8  1  0.335463  0.335516  0.114435  1
  Li  Li9  1  0.092556  0.676042  0.436859  1
  Li  Li10  1  0.087987  0.222501  0.940070  1
  Li  Li11  1  0.987773  0.038418  0.491093  1
  V  V12  1  0.562729  0.436534  0.252788  1
  V  V13  1  0.433886  0.566882  0.752178  1
  V  V14  1  0.566981  0.996250  0.748958  1
  V  V15  1  0.433387  0.000789  0.254755  1
  V  V16  1  0.000201  0.566193  0.251323  1
  V  V17  1  0.997875  0.431930  0.751918  1
  P  P18  1  0.912826  0.768334  0.842370  1
  P  P19  1  0.772054  0.913648  0.343273  1
  P  P20  1  0.912139  0.312834  0.341536  1
  P  P21  1  0.665023  0.670255  0.128568  1
  P  P22  1  0.667879  0.664591  0.626556  1
  P  P23  1  0.763994  0.320492  0.843711  1
  P  P24  1  0.690349  0.223581  0.657784  1
  P  P25  1  0.316772  0.912388  0.844419  1
  P  P26  1  0.681032  0.090204  0.158262  1
  P  P27  1  0.312587  0.772129  0.344372  1
  P  P28  1  0.229212  0.681816  0.158863  1
  P  P29  1  0.332727  0.334794  0.371834  1
  P  P30  1  0.335312  0.329376  0.871829  1
  P  P31  1  0.090970  0.682971  0.657717  1
  P  P32  1  0.222604  0.088013  0.659293  1
  P  P33  1  0.093322  0.227740  0.157895  1
  O  O34  1  0.997915  0.768325  0.569881  1
  O  O35  1  0.919231  0.746761  0.337066  1
  O  O36  1  0.759201  0.995136  0.069723  1
  O  O37  1  0.747608  0.915997  0.837148  1
  O  O38  1  0.903206  0.617200  0.819062  1
  O  O39  1  0.814955  0.668303  0.168597  1
  O  O40  1  0.916645  0.468457  0.326573  1
  O  O41  1  0.996732  0.247546  0.069858  1
  O  O42  1  0.917468  0.329955  0.841313  1
  O  O43  1  0.673823  0.811362  0.667375  1
  O  O44  1  0.620220  0.906148  0.331749  1
  O  O45  1  0.812777  0.512003  0.666379  1
  O  O46  1  0.660589  0.671333  0.021918  1
  O  O47  1  0.665515  0.667528  0.519666  1
  O  O48  1  0.659745  0.522499  0.170690  1
  O  O49  1  0.475919  0.906575  0.822723  1
  O  O50  1  0.518026  0.821251  0.172367  1
  O  O51  1  0.745260  0.343623  0.333645  1
  O  O52  1  0.781988  0.203417  0.757649  1
  O  O53  1  0.796743  0.213832  0.577519  1
  O  O54  1  0.748900  0.248333  0.935641  1
  O  O55  1  0.623034  0.482591  0.823363  1
  O  O56  1  0.514284  0.669215  0.668499  1
  O  O57  1  0.667902  0.253589  0.156119  1
  O  O58  1  0.469535  0.618396  0.332914  1
  O  O59  1  0.334875  0.914919  0.338180  1
  O  O60  1  0.788387  0.003138  0.249966  1
  O  O61  1  0.782659  0.991316  0.433224  1
  O  O62  1  0.214416  0.995134  0.577044  1
  O  O63  1  0.662150  0.079854  0.656588  1
  O  O64  1  0.528128  0.374234  0.665033  1
  O  O65  1  0.339039  0.747915  0.838955  1
  O  O66  1  0.480277  0.333623  0.326993  1
  O  O67  1  0.372549  0.514678  0.172206  1
  O  O68  1  0.237884  0.769923  0.074975  1
  O  O69  1  0.224456  0.774788  0.434834  1
  O  O70  1  0.203327  0.782057  0.255674  1
  O  O71  1  0.254984  0.667299  0.656419  1
  O  O72  1  0.485958  0.182083  0.831440  1
  O  O73  1  0.514446  0.113036  0.173950  1
  O  O74  1  0.338420  0.474578  0.824375  1
  O  O75  1  0.339564  0.329835  0.979120  1
  O  O76  1  0.334323  0.335655  0.478945  1
  O  O77  1  0.184951  0.489510  0.335979  1
  O  O78  1  0.372040  0.103610  0.668165  1
  O  O79  1  0.331162  0.187789  0.328750  1
  O  O80  1  0.081138  0.660609  0.158586  1
  O  O81  1  0.005029  0.787162  0.751586  1
  O  O82  1  0.992815  0.756135  0.934145  1
  O  O83  1  0.109892  0.517302  0.671572  1
  O  O84  1  0.184819  0.326772  0.836161  1
  O  O85  1  0.119115  0.370017  0.175028  1
  O  O86  1  0.254813  0.078039  0.155380  1
  O  O87  1  0.244972  0.001007  0.935237  1
  O  O88  1  0.202286  0.013319  0.757922  1
  O  O89  1  0.079291  0.258629  0.660101  1
  O  O90  1  0.989345  0.229256  0.432480  1
  O  O91  1  0.006236  0.206349  0.250072  1
