# generated using pymatgen
data_V3(PO4)2
_symmetry_space_group_name_H-M   'P 1'
_cell_length_a   8.79027991
_cell_length_b   9.34978781
_cell_length_c   9.70916895
_cell_angle_alpha   116.71194822
_cell_angle_beta   92.42121237
_cell_angle_gamma   113.47214694
_symmetry_Int_Tables_number   1
_chemical_formula_structural   V3(PO4)2
_chemical_formula_sum   'V12 P8 O32'
_cell_volume   629.53081151
_cell_formula_units_Z   4
loop_
 _symmetry_equiv_pos_site_id
 _symmetry_equiv_pos_as_xyz
  1  'x, y, z'
loop_
 _atom_site_type_symbol
 _atom_site_label
 _atom_site_symmetry_multiplicity
 _atom_site_fract_x
 _atom_site_fract_y
 _atom_site_fract_z
 _atom_site_occupancy
  V  V0  1  0.001529  0.268269  0.534625  1
  V  V1  1  0.069839  0.339797  0.892298  1
  V  V2  1  0.114519  0.188771  0.162243  1
  V  V3  1  0.403122  0.800722  0.323616  1
  V  V4  1  0.518856  0.892899  0.825682  1
  V  V5  1  0.398337  0.475903  0.737581  1
  V  V6  1  0.601663  0.524097  0.262419  1
  V  V7  1  0.481144  0.107101  0.174318  1
  V  V8  1  0.596878  0.199278  0.676384  1
  V  V9  1  0.885481  0.811229  0.837757  1
  V  V10  1  0.930161  0.660203  0.107702  1
  V  V11  1  0.998471  0.731731  0.465375  1
  P  P12  1  0.175651  0.684897  0.931902  1
  P  P13  1  0.274777  0.563122  0.449914  1
  P  P14  1  0.236260  0.063921  0.397852  1
  P  P15  1  0.316583  0.170890  0.903761  1
  P  P16  1  0.683417  0.829110  0.096239  1
  P  P17  1  0.763740  0.936078  0.602148  1
  P  P18  1  0.725223  0.436878  0.550086  1
  P  P19  1  0.824349  0.315103  0.068098  1
  O  O20  1  0.072176  0.883057  0.346232  1
  O  O21  1  0.005250  0.694551  0.915967  1
  O  O22  1  0.226535  0.709022  0.457658  1
  O  O23  1  0.190162  0.656735  0.079938  1
  O  O24  1  0.161323  0.506600  0.784155  1
  O  O25  1  0.326051  0.853467  0.950730  1
  O  O26  1  0.110171  0.380825  0.393850  1
  O  O27  1  0.131658  0.044240  0.897971  1
  O  O28  1  0.386401  0.625345  0.612503  1
  O  O29  1  0.221507  0.222248  0.535135  1
  O  O30  1  0.369025  0.534219  0.313520  1
  O  O31  1  0.308554  0.320219  0.875505  1
  O  O32  1  0.600495  0.943720  0.547422  1
  O  O33  1  0.595693  0.925023  0.214272  1
  O  O34  1  0.249057  0.084767  0.248481  1
  O  O35  1  0.579113  0.740486  0.919044  1
  O  O36  1  0.420887  0.259514  0.080956  1
  O  O37  1  0.750943  0.915233  0.751519  1
  O  O38  1  0.404307  0.074977  0.785728  1
  O  O39  1  0.399505  0.056280  0.452578  1
  O  O40  1  0.691446  0.679781  0.124495  1
  O  O41  1  0.630975  0.465781  0.686480  1
  O  O42  1  0.778493  0.777752  0.464865  1
  O  O43  1  0.613599  0.374655  0.387497  1
  O  O44  1  0.868342  0.955760  0.102029  1
  O  O45  1  0.889829  0.619175  0.606150  1
  O  O46  1  0.673949  0.146533  0.049270  1
  O  O47  1  0.838677  0.493400  0.215845  1
  O  O48  1  0.809838  0.343265  0.920062  1
  O  O49  1  0.773465  0.290978  0.542341  1
  O  O50  1  0.994750  0.305449  0.084033  1
  O  O51  1  0.927824  0.116943  0.653768  1
