# generated using pymatgen
data_GdH18(IO3)3
_symmetry_space_group_name_H-M   'P 1'
_cell_length_a   11.69050624
_cell_length_b   8.16604293
_cell_length_c   9.04909055
_cell_angle_alpha   90.00000000
_cell_angle_beta   90.00000000
_cell_angle_gamma   90.00000000
_symmetry_Int_Tables_number   1
_chemical_formula_structural   GdH18(IO3)3
_chemical_formula_sum   'Gd2 H36 I6 O18'
_cell_volume   863.87302045
_cell_formula_units_Z   2
loop_
 _symmetry_equiv_pos_site_id
 _symmetry_equiv_pos_as_xyz
  1  'x, y, z'
loop_
 _atom_site_type_symbol
 _atom_site_label
 _atom_site_symmetry_multiplicity
 _atom_site_fract_x
 _atom_site_fract_y
 _atom_site_fract_z
 _atom_site_occupancy
  Gd  Gd0  1  0.750000  0.250000  0.339386  1
  Gd  Gd1  1  0.250000  0.750000  0.660614  1
  H  H2  1  0.846307  0.971879  0.522801  1
  H  H3  1  0.653693  0.971879  0.522801  1
  H  H4  1  0.846307  0.528121  0.522801  1
  H  H5  1  0.653693  0.528121  0.522801  1
  H  H6  1  0.153693  0.028121  0.477199  1
  H  H7  1  0.346307  0.028121  0.477199  1
  H  H8  1  0.153693  0.471879  0.477199  1
  H  H9  1  0.346307  0.471879  0.477199  1
  H  H10  1  0.913395  0.956357  0.373565  1
  H  H11  1  0.586605  0.956357  0.373565  1
  H  H12  1  0.913395  0.543643  0.373565  1
  H  H13  1  0.586605  0.543643  0.373565  1
  H  H14  1  0.086605  0.043643  0.626435  1
  H  H15  1  0.413395  0.043643  0.626435  1
  H  H16  1  0.086605  0.456358  0.626435  1
  H  H17  1  0.413395  0.456358  0.626435  1
  H  H18  1  0.681923  0.250000  0.678365  1
  H  H19  1  0.818077  0.250000  0.678365  1
  H  H20  1  0.318077  0.750000  0.321635  1
  H  H21  1  0.181923  0.750000  0.321635  1
  H  H22  1  0.683368  0.524279  0.128347  1
  H  H23  1  0.816632  0.524279  0.128347  1
  H  H24  1  0.683368  0.975721  0.128347  1
  H  H25  1  0.816632  0.975721  0.128347  1
  H  H26  1  0.316632  0.475721  0.871653  1
  H  H27  1  0.183368  0.475721  0.871653  1
  H  H28  1  0.316632  0.024279  0.871653  1
  H  H29  1  0.183368  0.024279  0.871653  1
  H  H30  1  0.954465  0.250000  0.100126  1
  H  H31  1  0.545535  0.250000  0.100126  1
  H  H32  1  0.045535  0.750000  0.899874  1
  H  H33  1  0.454465  0.750000  0.899874  1
  H  H34  1  0.013806  0.250000  0.254911  1
  H  H35  1  0.486194  0.250000  0.254911  1
  H  H36  1  0.986194  0.750000  0.745089  1
  H  H37  1  0.513806  0.750000  0.745089  1
  I  I38  1  0.985574  0.750000  0.175690  1
  I  I39  1  0.514426  0.750000  0.175690  1
  I  I40  1  0.014426  0.250000  0.824310  1
  I  I41  1  0.485574  0.250000  0.824310  1
  I  I42  1  0.250000  0.250000  0.305136  1
  I  I43  1  0.750000  0.750000  0.694864  1
  O  O44  1  0.875479  0.036530  0.438861  1
  O  O45  1  0.624521  0.036530  0.438861  1
  O  O46  1  0.875479  0.463470  0.438861  1
  O  O47  1  0.624521  0.463470  0.438861  1
  O  O48  1  0.124521  0.963470  0.561139  1
  O  O49  1  0.375479  0.963470  0.561139  1
  O  O50  1  0.124521  0.536530  0.561139  1
  O  O51  1  0.375479  0.536530  0.561139  1
  O  O52  1  0.750000  0.250000  0.614283  1
  O  O53  1  0.250000  0.750000  0.385717  1
  O  O54  1  0.750000  0.451630  0.138082  1
  O  O55  1  0.750000  0.048370  0.138082  1
  O  O56  1  0.250000  0.548370  0.861918  1
  O  O57  1  0.250000  0.951630  0.861918  1
  O  O58  1  0.938572  0.250000  0.207185  1
  O  O59  1  0.561428  0.250000  0.207185  1
  O  O60  1  0.061428  0.750000  0.792815  1
  O  O61  1  0.438572  0.750000  0.792815  1
