# generated using pymatgen
data_Na3H6S2NO10
_symmetry_space_group_name_H-M   'P 1'
_cell_length_a   9.60683237
_cell_length_b   9.60683237
_cell_length_c   5.95315857
_cell_angle_alpha   90.00000000
_cell_angle_beta   90.00000000
_cell_angle_gamma   107.95442533
_symmetry_Int_Tables_number   1
_chemical_formula_structural   Na3H6S2NO10
_chemical_formula_sum   'Na6 H12 S4 N2 O20'
_cell_volume   522.66845936
_cell_formula_units_Z   2
loop_
 _symmetry_equiv_pos_site_id
 _symmetry_equiv_pos_as_xyz
  1  'x, y, z'
loop_
 _atom_site_type_symbol
 _atom_site_label
 _atom_site_symmetry_multiplicity
 _atom_site_fract_x
 _atom_site_fract_y
 _atom_site_fract_z
 _atom_site_occupancy
  Na  Na0  1  0.760423  0.507185  0.012979  1
  Na  Na1  1  0.507185  0.760423  0.012979  1
  Na  Na2  1  0.239577  0.492815  0.512979  1
  Na  Na3  1  0.492815  0.239577  0.512979  1
  Na  Na4  1  0.901915  0.901915  0.993259  1
  Na  Na5  1  0.098085  0.098085  0.493259  1
  H  H6  1  0.347834  0.805515  0.595128  1
  H  H7  1  0.805515  0.347834  0.595128  1
  H  H8  1  0.652166  0.194485  0.095128  1
  H  H9  1  0.194485  0.652166  0.095128  1
  H  H10  1  0.769519  0.178250  0.634274  1
  H  H11  1  0.178250  0.769519  0.634274  1
  H  H12  1  0.230481  0.821750  0.134274  1
  H  H13  1  0.821750  0.230481  0.134274  1
  H  H14  1  0.410418  0.410418  0.855465  1
  H  H15  1  0.589582  0.589582  0.355465  1
  H  H16  1  0.544110  0.544110  0.769715  1
  H  H17  1  0.455890  0.455890  0.269715  1
  S  S18  1  0.892990  0.701724  0.514210  1
  S  S19  1  0.701724  0.892990  0.514210  1
  S  S20  1  0.107010  0.298276  0.014210  1
  S  S21  1  0.298276  0.107010  0.014210  1
  N  N22  1  0.719996  0.719996  0.579852  1
  N  N23  1  0.280004  0.280004  0.079852  1
  O  O24  1  0.696497  0.696497  0.811429  1
  O  O25  1  0.303503  0.303503  0.311429  1
  O  O26  1  0.008468  0.825471  0.616759  1
  O  O27  1  0.825471  0.008468  0.616759  1
  O  O28  1  0.991532  0.174529  0.116759  1
  O  O29  1  0.174529  0.991532  0.116759  1
  O  O30  1  0.883527  0.561665  0.619593  1
  O  O31  1  0.561665  0.883527  0.619593  1
  O  O32  1  0.116473  0.438335  0.119593  1
  O  O33  1  0.438335  0.116473  0.119593  1
  O  O34  1  0.897300  0.702226  0.267940  1
  O  O35  1  0.702226  0.897300  0.267940  1
  O  O36  1  0.102700  0.297774  0.767940  1
  O  O37  1  0.297774  0.102700  0.767940  1
  O  O38  1  0.743481  0.274841  0.109000  1
  O  O39  1  0.274841  0.743481  0.109000  1
  O  O40  1  0.256519  0.725159  0.609000  1
  O  O41  1  0.725159  0.256519  0.609000  1
  O  O42  1  0.459411  0.459411  0.717494  1
  O  O43  1  0.540589  0.540589  0.217494  1
