# generated using pymatgen
data_Li5V3P8O29
_symmetry_space_group_name_H-M   'P 1'
_cell_length_a   9.84639128
_cell_length_b   9.73867422
_cell_length_c   14.04472469
_cell_angle_alpha   89.90473793
_cell_angle_beta   90.68535503
_cell_angle_gamma   60.23988935
_symmetry_Int_Tables_number   1
_chemical_formula_structural   Li5V3P8O29
_chemical_formula_sum   'Li10 V6 P16 O58'
_cell_volume   1169.00890612
_cell_formula_units_Z   2
loop_
 _symmetry_equiv_pos_site_id
 _symmetry_equiv_pos_as_xyz
  1  'x, y, z'
loop_
 _atom_site_type_symbol
 _atom_site_label
 _atom_site_symmetry_multiplicity
 _atom_site_fract_x
 _atom_site_fract_y
 _atom_site_fract_z
 _atom_site_occupancy
  Li  Li0  1  0.915754  0.773255  0.060766  1
  Li  Li1  1  0.682622  0.667284  0.392928  1
  Li  Li2  1  0.772234  0.320244  0.055755  1
  Li  Li3  1  0.320932  0.908727  0.061233  1
  Li  Li4  1  0.676791  0.232074  0.442115  1
  Li  Li5  1  0.328295  0.766433  0.562086  1
  Li  Li6  1  0.679269  0.088730  0.933756  1
  Li  Li7  1  0.324068  0.333876  0.609299  1
  Li  Li8  1  0.092197  0.228434  0.937437  1
  Li  Li9  1  0.999107  0.002056  0.505494  1
  V  V10  1  0.566189  0.432545  0.248976  1
  V  V11  1  0.426805  0.572220  0.754956  1
  V  V12  1  0.570212  0.994470  0.744706  1
  V  V13  1  0.430575  0.004104  0.253376  1
  V  V14  1  0.003800  0.567976  0.254886  1
  V  V15  1  0.995347  0.434120  0.744674  1
  P  P16  1  0.916553  0.766840  0.842111  1
  P  P17  1  0.776672  0.913569  0.339698  1
  P  P18  1  0.912778  0.306616  0.343371  1
  P  P19  1  0.665905  0.669146  0.130145  1
  P  P20  1  0.660114  0.664435  0.627988  1
  P  P21  1  0.768730  0.318498  0.838636  1
  P  P22  1  0.679032  0.229815  0.656036  1
  P  P23  1  0.320514  0.915619  0.843894  1
  P  P24  1  0.678217  0.086549  0.154547  1
  P  P25  1  0.319157  0.771175  0.345452  1
  P  P26  1  0.228039  0.686828  0.161791  1
  P  P27  1  0.337949  0.333540  0.372099  1
  P  P28  1  0.337147  0.326339  0.870620  1
  P  P29  1  0.085251  0.695554  0.657685  1
  P  P30  1  0.221711  0.088451  0.659350  1
  P  P31  1  0.082866  0.234127  0.158823  1
  O  O32  1  0.006489  0.801652  0.575170  1
  O  O33  1  0.916877  0.742007  0.337391  1
  O  O34  1  0.752779  0.004085  0.063514  1
  O  O35  1  0.750444  0.913491  0.834412  1
  O  O36  1  0.908734  0.615644  0.816863  1
  O  O37  1  0.813665  0.671225  0.169548  1
  O  O38  1  0.900590  0.471131  0.335653  1
  O  O39  1  0.997865  0.248725  0.065980  1
  O  O40  1  0.915999  0.335594  0.839646  1
  O  O41  1  0.661626  0.811649  0.668371  1
  O  O42  1  0.628128  0.897329  0.330866  1
  O  O43  1  0.805142  0.516552  0.668501  1
  O  O44  1  0.663215  0.653171  0.024491  1
  O  O45  1  0.644045  0.669087  0.521376  1
  O  O46  1  0.667715  0.515458  0.176611  1
  O  O47  1  0.477516  0.906477  0.824508  1
  O  O48  1  0.515765  0.816745  0.168318  1
  O  O49  1  0.738552  0.338418  0.336322  1
  O  O50  1  0.787430  0.209540  0.748812  1
  O  O51  1  0.763065  0.225967  0.567716  1
  O  O52  1  0.754415  0.242933  0.928689  1
  O  O53  1  0.619231  0.480134  0.819360  1
  O  O54  1  0.507441  0.669163  0.669494  1
  O  O55  1  0.660821  0.255257  0.158114  1
  O  O56  1  0.482469  0.619736  0.327446  1
  O  O57  1  0.345778  0.913679  0.335466  1
  O  O58  1  0.794806  0.990656  0.241172  1
  O  O59  1  0.785006  0.007822  0.420716  1
  O  O60  1  0.211136  0.993681  0.579243  1
  O  O61  1  0.651640  0.086884  0.662308  1
  O  O62  1  0.517732  0.380980  0.670209  1
  O  O63  1  0.342246  0.746172  0.837075  1
  O  O64  1  0.491474  0.329522  0.329559  1
  O  O65  1  0.380215  0.523525  0.181268  1
  O  O66  1  0.241867  0.769415  0.077162  1
  O  O67  1  0.246352  0.768377  0.436919  1
  O  O68  1  0.206362  0.786770  0.257826  1
  O  O69  1  0.260155  0.661776  0.664305  1
  O  O70  1  0.487081  0.180922  0.830222  1
  O  O71  1  0.521315  0.096184  0.174959  1
  O  O72  1  0.339104  0.476542  0.821738  1
  O  O73  1  0.345137  0.333875  0.976246  1
  O  O74  1  0.356379  0.328955  0.478328  1
  O  O75  1  0.193674  0.481351  0.331815  1
  O  O76  1  0.370979  0.102874  0.667214  1
  O  O77  1  0.338488  0.186020  0.330702  1
  O  O78  1  0.083627  0.664343  0.161051  1
  O  O79  1  0.012464  0.786900  0.756475  1
  O  O80  1  0.992317  0.756349  0.935949  1
  O  O81  1  0.097698  0.530590  0.663965  1
  O  O82  1  0.187178  0.328047  0.831568  1
  O  O83  1  0.091552  0.384543  0.181711  1
  O  O84  1  0.247457  0.087150  0.161543  1
  O  O85  1  0.246328  0.997781  0.934909  1
  O  O86  1  0.203174  0.012478  0.758174  1
  O  O87  1  0.082128  0.259883  0.662178  1
  O  O88  1  0.992542  0.201008  0.425888  1
  O  O89  1  0.986866  0.213935  0.244166  1
