# generated using pymatgen
data_LiCoSiO4
_symmetry_space_group_name_H-M   'P 1'
_cell_length_a   9.68407095
_cell_length_b   4.93084489
_cell_length_c   6.86028190
_cell_angle_alpha   89.99911493
_cell_angle_beta   89.99320073
_cell_angle_gamma   90.00421818
_symmetry_Int_Tables_number   1
_chemical_formula_structural   LiCoSiO4
_chemical_formula_sum   'Li4 Co4 Si4 O16'
_cell_volume   327.58292920
_cell_formula_units_Z   4
loop_
 _symmetry_equiv_pos_site_id
 _symmetry_equiv_pos_as_xyz
  1  'x, y, z'
loop_
 _atom_site_type_symbol
 _atom_site_label
 _atom_site_symmetry_multiplicity
 _atom_site_fract_x
 _atom_site_fract_y
 _atom_site_fract_z
 _atom_site_occupancy
  Li  Li0  1  0.116119  0.395054  0.777194  1
  Li  Li1  1  0.383859  0.604828  0.277161  1
  Li  Li2  1  0.616097  0.104971  0.222862  1
  Li  Li3  1  0.883840  0.895122  0.722860  1
  Co  Co4  1  0.012226  0.011050  0.068282  1
  Co  Co5  1  0.487783  0.989006  0.568235  1
  Co  Co6  1  0.512226  0.488929  0.931721  1
  Co  Co7  1  0.987798  0.510991  0.431807  1
  Si  Si8  1  0.152300  0.933625  0.480194  1
  Si  Si9  1  0.347712  0.066244  0.980080  1
  Si  Si10  1  0.652293  0.566433  0.519810  1
  Si  Si11  1  0.847716  0.433702  0.019912  1
  O  O12  1  0.066863  0.738934  0.636349  1
  O  O13  1  0.081001  0.800753  0.278122  1
  O  O14  1  0.121800  0.254048  0.508010  1
  O  O15  1  0.183961  0.136311  0.978068  1
  O  O16  1  0.316071  0.863485  0.478190  1
  O  O17  1  0.378200  0.745789  0.007873  1
  O  O18  1  0.419041  0.199294  0.778043  1
  O  O19  1  0.433130  0.260952  0.136228  1
  O  O20  1  0.566887  0.761047  0.363638  1
  O  O21  1  0.580965  0.699268  0.721908  1
  O  O22  1  0.621730  0.246002  0.491987  1
  O  O23  1  0.683930  0.363696  0.021923  1
  O  O24  1  0.816051  0.636494  0.521821  1
  O  O25  1  0.878242  0.754124  0.992092  1
  O  O26  1  0.919064  0.300808  0.221930  1
  O  O27  1  0.933093  0.239038  0.863701  1
