# generated using pymatgen
data_K2Zr2ZnH12(OF2)6
_symmetry_space_group_name_H-M   'P 1'
_cell_length_a   6.72787448
_cell_length_b   13.12904441
_cell_length_c   10.11817277
_cell_angle_alpha   90.00000000
_cell_angle_beta   90.00000000
_cell_angle_gamma   114.15771469
_symmetry_Int_Tables_number   1
_chemical_formula_structural   K2Zr2ZnH12(OF2)6
_chemical_formula_sum   'K4 Zr4 Zn2 H24 O12 F24'
_cell_volume   815.47194829
_cell_formula_units_Z   2
loop_
 _symmetry_equiv_pos_site_id
 _symmetry_equiv_pos_as_xyz
  1  'x, y, z'
loop_
 _atom_site_type_symbol
 _atom_site_label
 _atom_site_symmetry_multiplicity
 _atom_site_fract_x
 _atom_site_fract_y
 _atom_site_fract_z
 _atom_site_occupancy
  K  K0  1  0.394750  0.916144  0.283806  1
  K  K1  1  0.605250  0.583856  0.783806  1
  K  K2  1  0.605250  0.083856  0.716194  1
  K  K3  1  0.394750  0.416144  0.216194  1
  Zr  Zr4  1  0.186523  0.648690  0.015224  1
  Zr  Zr5  1  0.813477  0.851310  0.515224  1
  Zr  Zr6  1  0.813477  0.351310  0.984776  1
  Zr  Zr7  1  0.186523  0.148690  0.484776  1
  Zn  Zn8  1  0.000000  0.500000  0.500000  1
  Zn  Zn9  1  0.000000  0.000000  0.000000  1
  H  H10  1  0.411195  0.610198  0.431445  1
  H  H11  1  0.588805  0.889802  0.931445  1
  H  H12  1  0.588805  0.389802  0.568555  1
  H  H13  1  0.411195  0.110198  0.068555  1
  H  H14  1  0.260989  0.617619  0.314198  1
  H  H15  1  0.739011  0.882381  0.814198  1
  H  H16  1  0.739011  0.382381  0.685802  1
  H  H17  1  0.260989  0.117619  0.185803  1
  H  H18  1  0.866673  0.778073  0.068447  1
  H  H19  1  0.133327  0.721927  0.568447  1
  H  H20  1  0.133327  0.221927  0.931553  1
  H  H21  1  0.866673  0.278073  0.431553  1
  H  H22  1  0.801088  0.833601  0.192273  1
  H  H23  1  0.198912  0.666399  0.692273  1
  H  H24  1  0.198912  0.166399  0.807727  1
  H  H25  1  0.801088  0.333601  0.307727  1
  H  H26  1  0.920322  0.609982  0.303969  1
  H  H27  1  0.079678  0.890018  0.803969  1
  H  H28  1  0.079678  0.390018  0.696031  1
  H  H29  1  0.920322  0.109982  0.196031  1
  H  H30  1  0.773588  0.612758  0.426375  1
  H  H31  1  0.226412  0.887242  0.926375  1
  H  H32  1  0.226412  0.387242  0.573625  1
  H  H33  1  0.773588  0.112758  0.073625  1
  O  O34  1  0.279134  0.565575  0.379657  1
  O  O35  1  0.720866  0.934425  0.879657  1
  O  O36  1  0.720866  0.434425  0.620343  1
  O  O37  1  0.279134  0.065575  0.120343  1
  O  O38  1  0.896203  0.849203  0.113015  1
  O  O39  1  0.103797  0.650797  0.613015  1
  O  O40  1  0.103797  0.150797  0.886985  1
  O  O41  1  0.896203  0.349203  0.386985  1
  O  O42  1  0.821169  0.563362  0.373297  1
  O  O43  1  0.178831  0.936638  0.873297  1
  O  O44  1  0.178831  0.436638  0.626703  1
  O  O45  1  0.821169  0.063362  0.126703  1
  F  F46  1  0.077694  0.819116  0.466329  1
  F  F47  1  0.922306  0.680884  0.966329  1
  F  F48  1  0.922306  0.180884  0.533671  1
  F  F49  1  0.077694  0.319116  0.033671  1
  F  F50  1  0.360756  0.824987  0.025616  1
  F  F51  1  0.639244  0.675013  0.525616  1
  F  F52  1  0.639244  0.175013  0.974384  1
  F  F53  1  0.360756  0.324987  0.474384  1
  F  F54  1  0.425148  0.601717  0.068975  1
  F  F55  1  0.574852  0.898283  0.568975  1
  F  F56  1  0.574852  0.398283  0.931025  1
  F  F57  1  0.425148  0.101717  0.431025  1
  F  F58  1  0.956526  0.496205  0.113288  1
  F  F59  1  0.043474  0.003795  0.613288  1
  F  F60  1  0.043474  0.503795  0.886712  1
  F  F61  1  0.956526  0.996205  0.386712  1
  F  F62  1  0.658666  0.805902  0.334715  1
  F  F63  1  0.341334  0.694098  0.834715  1
  F  F64  1  0.341334  0.194098  0.665285  1
  F  F65  1  0.658666  0.305902  0.165285  1
  F  F66  1  0.159347  0.687536  0.214306  1
  F  F67  1  0.840653  0.812464  0.714306  1
  F  F68  1  0.840653  0.312464  0.785694  1
  F  F69  1  0.159347  0.187536  0.285694  1
