# generated using pymatgen
data_V3OF11
_symmetry_space_group_name_H-M   'P 1'
_cell_length_a   5.44345348
_cell_length_b   5.27070957
_cell_length_c   14.61490182
_cell_angle_alpha   89.95823044
_cell_angle_beta   100.45789023
_cell_angle_gamma   90.03945391
_symmetry_Int_Tables_number   1
_chemical_formula_structural   V3OF11
_chemical_formula_sum   'V6 O2 F22'
_cell_volume   412.34855601
_cell_formula_units_Z   2
loop_
 _symmetry_equiv_pos_site_id
 _symmetry_equiv_pos_as_xyz
  1  'x, y, z'
loop_
 _atom_site_type_symbol
 _atom_site_label
 _atom_site_symmetry_multiplicity
 _atom_site_fract_x
 _atom_site_fract_y
 _atom_site_fract_z
 _atom_site_occupancy
  V  V0  1  0.998962  0.998233  0.998897  1
  V  V1  1  0.166665  0.499999  0.333330  1
  V  V2  1  0.334378  0.001774  0.667779  1
  V  V3  1  0.501042  0.493122  0.005760  1
  V  V4  1  0.666668  0.000001  0.333331  1
  V  V5  1  0.832285  0.506885  0.660892  1
  O  O6  1  0.543364  0.418125  0.115055  1
  O  O7  1  0.789968  0.581869  0.551616  1
  F  F8  1  0.026487  0.204579  0.642230  1
  F  F9  1  0.195822  0.299063  0.974211  1
  F  F10  1  0.137498  0.700935  0.692453  1
  F  F11  1  0.043155  0.085881  0.117530  1
  F  F12  1  0.210202  0.413560  0.451933  1
  F  F13  1  0.377045  0.084301  0.785702  1
  F  F14  1  0.123133  0.586426  0.214729  1
  F  F15  1  0.290176  0.914130  0.549150  1
  F  F16  1  0.456286  0.587983  0.882764  1
  F  F17  1  0.357867  0.200370  0.308356  1
  F  F18  1  0.528971  0.298615  0.641887  1
  F  F19  1  0.692242  0.205975  0.974182  1
  F  F20  1  0.306853  0.795423  0.024440  1
  F  F21  1  0.475205  0.700464  0.358291  1
  F  F22  1  0.641094  0.794012  0.692486  1
  F  F23  1  0.710098  0.086044  0.451908  1
  F  F24  1  0.877051  0.412020  0.783909  1
  F  F25  1  0.623236  0.913963  0.214753  1
  F  F26  1  0.956285  0.915691  0.880962  1
  F  F27  1  0.858120  0.299555  0.308371  1
  F  F28  1  0.804377  0.701385  0.024785  1
  F  F29  1  0.975463  0.799618  0.358307  1
