# generated using pymatgen
data_Li3Sb2(PO4)3
_symmetry_space_group_name_H-M   'P 1'
_cell_length_a   9.49213767
_cell_length_b   8.57838592
_cell_length_c   9.36121244
_cell_angle_alpha   123.30965032
_cell_angle_beta   59.53626068
_cell_angle_gamma   123.59087952
_symmetry_Int_Tables_number   1
_chemical_formula_structural   Li3Sb2(PO4)3
_chemical_formula_sum   'Li6 Sb4 P6 O24'
_cell_volume   507.55191308
_cell_formula_units_Z   2
loop_
 _symmetry_equiv_pos_site_id
 _symmetry_equiv_pos_as_xyz
  1  'x, y, z'
loop_
 _atom_site_type_symbol
 _atom_site_label
 _atom_site_symmetry_multiplicity
 _atom_site_fract_x
 _atom_site_fract_y
 _atom_site_fract_z
 _atom_site_occupancy
  Li  Li0  1  0.000000  0.000000  0.000000  1
  Li  Li1  1  0.284370  0.769235  0.622268  1
  Li  Li2  1  0.362597  0.269235  0.122268  1
  Li  Li3  1  0.500000  0.500000  0.500000  1
  Li  Li4  1  0.637403  0.730765  0.877732  1
  Li  Li5  1  0.715630  0.230765  0.377732  1
  Sb  Sb6  1  0.138630  0.461626  0.159589  1
  Sb  Sb7  1  0.336594  0.038374  0.340411  1
  Sb  Sb8  1  0.663406  0.961626  0.659589  1
  Sb  Sb9  1  0.861370  0.538374  0.840411  1
  P  P10  1  0.098391  0.284471  0.429816  1
  P  P11  1  0.590471  0.750000  0.250000  1
  P  P12  1  0.256264  0.784471  0.929816  1
  P  P13  1  0.743736  0.215529  0.070184  1
  P  P14  1  0.409529  0.250000  0.750000  1
  P  P15  1  0.901609  0.715529  0.570184  1
  O  O16  1  0.331395  0.000517  0.058148  1
  O  O17  1  0.066101  0.878232  0.506543  1
  O  O18  1  0.105904  0.243035  0.239358  1
  O  O19  1  0.110973  0.500517  0.558148  1
  O  O20  1  0.099984  0.775608  0.900468  1
  O  O21  1  0.569751  0.943432  0.308789  1
  O  O22  1  0.435107  0.556568  0.191211  1
  O  O23  1  0.275156  0.275608  0.400468  1
  O  O24  1  0.603260  0.747774  0.411448  1
  O  O25  1  0.766935  0.752226  0.088552  1
  O  O26  1  0.397774  0.743035  0.739358  1
  O  O27  1  0.194412  0.621768  0.993457  1
  O  O28  1  0.805588  0.378232  0.006543  1
  O  O29  1  0.602226  0.256965  0.260642  1
  O  O30  1  0.396740  0.252226  0.588552  1
  O  O31  1  0.233065  0.247774  0.911448  1
  O  O32  1  0.724844  0.724392  0.599532  1
  O  O33  1  0.564893  0.443432  0.808789  1
  O  O34  1  0.430249  0.056568  0.691211  1
  O  O35  1  0.900016  0.224392  0.099532  1
  O  O36  1  0.889027  0.499483  0.441852  1
  O  O37  1  0.894096  0.756965  0.760642  1
  O  O38  1  0.933899  0.121768  0.493457  1
  O  O39  1  0.668605  0.999483  0.941852  1
