# generated using pymatgen
data_Ca6La2Mn7CrO24
_symmetry_space_group_name_H-M   'P 1'
_cell_length_a   10.90264218
_cell_length_b   7.69848025
_cell_length_c   7.65262358
_cell_angle_alpha   90.15764355
_cell_angle_beta   90.19914561
_cell_angle_gamma   44.85634523
_symmetry_Int_Tables_number   1
_chemical_formula_structural   Ca6La2Mn7CrO24
_chemical_formula_sum   'Ca6 La2 Mn7 Cr1 O24'
_cell_volume   453.04134103
_cell_formula_units_Z   1
loop_
 _symmetry_equiv_pos_site_id
 _symmetry_equiv_pos_as_xyz
  1  'x, y, z'
loop_
 _atom_site_type_symbol
 _atom_site_label
 _atom_site_symmetry_multiplicity
 _atom_site_fract_x
 _atom_site_fract_y
 _atom_site_fract_z
 _atom_site_occupancy
  Ca  Ca0  1  0.012835  0.509662  0.248832  1
  Ca  Ca1  1  0.476592  0.009146  0.750929  1
  Ca  Ca2  1  0.023408  0.990854  0.249071  1
  Ca  Ca3  1  0.487165  0.490338  0.751168  1
  Ca  Ca4  1  0.510733  0.508797  0.250030  1
  Ca  Ca5  1  0.989267  0.491203  0.749970  1
  La  La6  1  0.984925  0.005665  0.750772  1
  La  La7  1  0.515075  0.994335  0.249228  1
  Mn  Mn8  1  0.250000  0.000000  0.500000  1
  Mn  Mn9  1  0.250000  0.000000  0.000000  1
  Mn  Mn10  1  0.250000  0.500000  0.500000  1
  Mn  Mn11  1  0.250000  0.500000  0.000000  1
  Mn  Mn12  1  0.750000  0.000000  0.500000  1
  Mn  Mn13  1  0.750000  0.500000  0.500000  1
  Mn  Mn14  1  0.750000  0.500000  0.000000  1
  Cr  Cr15  1  0.750000  0.000000  0.000000  1
  O  O16  1  0.211959  0.075270  0.249862  1
  O  O17  1  0.222130  0.278061  0.539139  1
  O  O18  1  0.219486  0.279911  0.960910  1
  O  O19  1  0.999747  0.784869  0.457666  1
  O  O20  1  0.004739  0.781548  0.039793  1
  O  O21  1  0.279096  0.429394  0.250618  1
  O  O22  1  0.220904  0.570606  0.749382  1
  O  O23  1  0.495261  0.218452  0.960207  1
  O  O24  1  0.500253  0.215131  0.542334  1
  O  O25  1  0.277870  0.721939  0.460861  1
  O  O26  1  0.280514  0.720089  0.039090  1
  O  O27  1  0.698042  0.083515  0.255425  1
  O  O28  1  0.288041  0.924730  0.750138  1
  O  O29  1  0.720138  0.285406  0.952449  1
  O  O30  1  0.721087  0.279393  0.547255  1
  O  O31  1  0.500261  0.776850  0.464581  1
  O  O32  1  0.499566  0.779096  0.035256  1
  O  O33  1  0.774460  0.423526  0.250576  1
  O  O34  1  0.725540  0.576474  0.749424  1
  O  O35  1  0.999739  0.223150  0.535419  1
  O  O36  1  0.000434  0.220904  0.964744  1
  O  O37  1  0.779862  0.714594  0.047551  1
  O  O38  1  0.778913  0.720607  0.452745  1
  O  O39  1  0.801958  0.916485  0.744575  1
