# generated using pymatgen
data_Li12CrFe3P4(CO7)4
_symmetry_space_group_name_H-M   'P 1'
_cell_length_a   8.55506888
_cell_length_b   9.98126859
_cell_length_c   6.50241322
_cell_angle_alpha   90.00000000
_cell_angle_beta   90.00000000
_cell_angle_gamma   85.26794494
_symmetry_Int_Tables_number   1
_chemical_formula_structural   Li12CrFe3P4(CO7)4
_chemical_formula_sum   'Li12 Cr1 Fe3 P4 C4 O28'
_cell_volume   553.35131703
_cell_formula_units_Z   1
loop_
 _symmetry_equiv_pos_site_id
 _symmetry_equiv_pos_as_xyz
  1  'x, y, z'
loop_
 _atom_site_type_symbol
 _atom_site_label
 _atom_site_symmetry_multiplicity
 _atom_site_fract_x
 _atom_site_fract_y
 _atom_site_fract_z
 _atom_site_occupancy
  Li  Li0  1  0.094985  0.379519  0.250000  1
  Li  Li1  1  0.093802  0.880399  0.250000  1
  Li  Li2  1  0.274568  0.123277  0.024518  1
  Li  Li3  1  0.274568  0.123277  0.475482  1
  Li  Li4  1  0.274296  0.623556  0.025119  1
  Li  Li5  1  0.274296  0.623556  0.474881  1
  Li  Li6  1  0.725712  0.375418  0.524078  1
  Li  Li7  1  0.725712  0.375418  0.975922  1
  Li  Li8  1  0.725889  0.877151  0.524091  1
  Li  Li9  1  0.725889  0.877151  0.975909  1
  Li  Li10  1  0.906355  0.119720  0.750000  1
  Li  Li11  1  0.907264  0.620256  0.750000  1
  Cr  Cr12  1  0.665200  0.607613  0.250000  1
  Fe  Fe13  1  0.335011  0.392893  0.750000  1
  Fe  Fe14  1  0.334636  0.893369  0.750000  1
  Fe  Fe15  1  0.664854  0.106326  0.250000  1
  P  P16  1  0.412473  0.358887  0.250000  1
  P  P17  1  0.410263  0.859683  0.250000  1
  P  P18  1  0.588065  0.140951  0.750000  1
  P  P19  1  0.587419  0.641195  0.750000  1
  C  C20  1  0.034394  0.351875  0.750000  1
  C  C21  1  0.034378  0.851578  0.750000  1
  C  C22  1  0.964498  0.148306  0.250000  1
  C  C23  1  0.967760  0.646860  0.250000  1
  O  O24  1  0.070946  0.475285  0.750000  1
  O  O25  1  0.110225  0.178392  0.250000  1
  O  O26  1  0.070794  0.975200  0.750000  1
  O  O27  1  0.147407  0.255151  0.750000  1
  O  O28  1  0.112321  0.679910  0.250000  1
  O  O29  1  0.147362  0.755003  0.750000  1
  O  O30  1  0.310970  0.412631  0.063369  1
  O  O31  1  0.310970  0.412631  0.436631  1
  O  O32  1  0.309842  0.914793  0.062935  1
  O  O33  1  0.309842  0.914793  0.437065  1
  O  O34  1  0.422062  0.090877  0.750000  1
  O  O35  1  0.427127  0.201831  0.250000  1
  O  O36  1  0.421542  0.590649  0.750000  1
  O  O37  1  0.421068  0.703628  0.250000  1
  O  O38  1  0.572510  0.297923  0.750000  1
  O  O39  1  0.577993  0.408474  0.250000  1
  O  O40  1  0.571733  0.798344  0.750000  1
  O  O41  1  0.577385  0.907812  0.250000  1
  O  O42  1  0.689495  0.087451  0.936674  1
  O  O43  1  0.689495  0.087451  0.563326  1
  O  O44  1  0.688661  0.587813  0.563814  1
  O  O45  1  0.688661  0.587813  0.936186  1
  O  O46  1  0.852035  0.244492  0.250000  1
  O  O47  1  0.889507  0.321941  0.750000  1
  O  O48  1  0.853378  0.741989  0.250000  1
  O  O49  1  0.928992  0.024684  0.250000  1
  O  O50  1  0.889484  0.821872  0.750000  1
  O  O51  1  0.935905  0.522934  0.250000  1
