# generated using pymatgen
data_Mn6O7F5
_symmetry_space_group_name_H-M   'P 1'
_cell_length_a   4.57170160
_cell_length_b   5.63998367
_cell_length_c   15.33077382
_cell_angle_alpha   89.88221856
_cell_angle_beta   89.68952854
_cell_angle_gamma   90.38620069
_symmetry_Int_Tables_number   1
_chemical_formula_structural   Mn6O7F5
_chemical_formula_sum   'Mn12 O14 F10'
_cell_volume   395.27796594
_cell_formula_units_Z   2
loop_
 _symmetry_equiv_pos_site_id
 _symmetry_equiv_pos_as_xyz
  1  'x, y, z'
loop_
 _atom_site_type_symbol
 _atom_site_label
 _atom_site_symmetry_multiplicity
 _atom_site_fract_x
 _atom_site_fract_y
 _atom_site_fract_z
 _atom_site_occupancy
  Mn  Mn0  1  0.022527  0.159942  0.409641  1
  Mn  Mn1  1  0.010331  0.845286  0.243523  1
  Mn  Mn2  1  0.017513  0.160251  0.080577  1
  Mn  Mn3  1  0.019897  0.165705  0.743113  1
  Mn  Mn4  1  0.002796  0.849940  0.574715  1
  Mn  Mn5  1  0.030827  0.860240  0.912523  1
  Mn  Mn6  1  0.497594  0.346558  0.585602  1
  Mn  Mn7  1  0.498359  0.341933  0.921898  1
  Mn  Mn8  1  0.499958  0.348644  0.254566  1
  Mn  Mn9  1  0.505297  0.633520  0.094107  1
  Mn  Mn10  1  0.502271  0.634793  0.425953  1
  Mn  Mn11  1  0.488888  0.638479  0.753135  1
  O  O12  1  0.219155  0.113266  0.300220  1
  O  O13  1  0.217958  0.108531  0.633504  1
  O  O14  1  0.222039  0.115663  0.970885  1
  O  O15  1  0.232091  0.884986  0.135743  1
  O  O16  1  0.233176  0.886259  0.467174  1
  O  O17  1  0.230676  0.892574  0.802212  1
  O  O18  1  0.278552  0.396853  0.147425  1
  O  O19  1  0.281721  0.391353  0.477827  1
  O  O20  1  0.281330  0.399392  0.816934  1
  O  O21  1  0.726641  0.382581  0.030294  1
  O  O22  1  0.724293  0.616053  0.197203  1
  O  O23  1  0.727686  0.386167  0.361980  1
  O  O24  1  0.721264  0.618106  0.528996  1
  O  O25  1  0.719505  0.382433  0.694376  1
  F  F26  1  0.259387  0.618779  0.319381  1
  F  F27  1  0.236129  0.609387  0.642143  1
  F  F28  1  0.271005  0.619305  0.985185  1
  F  F29  1  0.753637  0.618641  0.869354  1
  F  F30  1  0.765974  0.116864  0.184314  1
  F  F31  1  0.771391  0.120687  0.515686  1
  F  F32  1  0.754130  0.871784  0.356622  1
  F  F33  1  0.758919  0.870234  0.022981  1
  F  F34  1  0.769191  0.122630  0.851759  1
  F  F35  1  0.747895  0.872181  0.688449  1
