# generated using pymatgen
data_LiVPO4
_symmetry_space_group_name_H-M   'P 1'
_cell_length_a   18.91432466
_cell_length_b   5.56121314
_cell_length_c   8.48514579
_cell_angle_alpha   90.00000000
_cell_angle_beta   90.00000000
_cell_angle_gamma   90.00000000
_symmetry_Int_Tables_number   1
_chemical_formula_structural   LiVPO4
_chemical_formula_sum   'Li12 V12 P12 O48'
_cell_volume   892.52355837
_cell_formula_units_Z   12
loop_
 _symmetry_equiv_pos_site_id
 _symmetry_equiv_pos_as_xyz
  1  'x, y, z'
loop_
 _atom_site_type_symbol
 _atom_site_label
 _atom_site_symmetry_multiplicity
 _atom_site_fract_x
 _atom_site_fract_y
 _atom_site_fract_z
 _atom_site_occupancy
  Li  Li0  1  0.079907  0.257484  0.079375  1
  Li  Li1  1  0.087009  0.717137  0.581797  1
  Li  Li2  1  0.246319  0.229513  0.418958  1
  Li  Li3  1  0.253681  0.729513  0.918958  1
  Li  Li4  1  0.412991  0.217137  0.081797  1
  Li  Li5  1  0.420093  0.757484  0.579375  1
  Li  Li6  1  0.579907  0.257484  0.420625  1
  Li  Li7  1  0.587009  0.717137  0.918203  1
  Li  Li8  1  0.746319  0.229513  0.081042  1
  Li  Li9  1  0.753681  0.729513  0.581042  1
  Li  Li10  1  0.912991  0.217137  0.418203  1
  Li  Li11  1  0.920093  0.757484  0.920625  1
  V  V12  1  0.000200  0.234795  0.747732  1
  V  V13  1  0.166407  0.735951  0.247865  1
  V  V14  1  0.166834  0.237982  0.751445  1
  V  V15  1  0.333166  0.737982  0.251445  1
  V  V16  1  0.333593  0.235951  0.747865  1
  V  V17  1  0.499800  0.734795  0.247732  1
  V  V18  1  0.500200  0.234795  0.752268  1
  V  V19  1  0.666407  0.735951  0.252135  1
  V  V20  1  0.666834  0.237982  0.748555  1
  V  V21  1  0.833166  0.737982  0.248555  1
  V  V22  1  0.833593  0.235951  0.752135  1
  V  V23  1  0.999800  0.734795  0.252268  1
  P  P24  1  0.080929  0.230921  0.396669  1
  P  P25  1  0.085253  0.739460  0.897287  1
  P  P26  1  0.248016  0.237933  0.102264  1
  P  P27  1  0.251984  0.737933  0.602264  1
  P  P28  1  0.414747  0.239460  0.397287  1
  P  P29  1  0.419071  0.730921  0.896669  1
  P  P30  1  0.580929  0.230921  0.103331  1
  P  P31  1  0.585253  0.739460  0.602713  1
  P  P32  1  0.748016  0.237933  0.397736  1
  P  P33  1  0.751984  0.737933  0.897736  1
  P  P34  1  0.914747  0.239460  0.102713  1
  P  P35  1  0.919071  0.730921  0.603331  1
  O  O36  1  0.012903  0.228729  0.494351  1
  O  O37  1  0.019024  0.738434  0.001157  1
  O  O38  1  0.084171  0.961854  0.781892  1
  O  O39  1  0.083993  0.512009  0.784591  1
  O  O40  1  0.082157  0.457511  0.283193  1
  O  O41  1  0.082723  0.007646  0.282264  1
  O  O42  1  0.147377  0.234422  0.500825  1
  O  O43  1  0.153519  0.739501  0.994987  1
  O  O44  1  0.180021  0.240536  0.004166  1
  O  O45  1  0.185513  0.731641  0.498757  1
  O  O46  1  0.250122  0.965090  0.714076  1
  O  O47  1  0.251423  0.515296  0.718473  1
  O  O48  1  0.248577  0.015296  0.218473  1
  O  O49  1  0.249878  0.465090  0.214076  1
  O  O50  1  0.314487  0.231641  0.998757  1
  O  O51  1  0.319979  0.740536  0.504166  1
  O  O52  1  0.346481  0.239501  0.494987  1
  O  O53  1  0.352623  0.734422  0.000825  1
  O  O54  1  0.417277  0.507645  0.782264  1
  O  O55  1  0.417843  0.957511  0.783193  1
  O  O56  1  0.416007  0.012009  0.284591  1
  O  O57  1  0.415829  0.461854  0.281892  1
  O  O58  1  0.480976  0.238434  0.501157  1
  O  O59  1  0.487097  0.728729  0.994351  1
  O  O60  1  0.512903  0.228729  0.005649  1
  O  O61  1  0.519024  0.738434  0.498843  1
  O  O62  1  0.584171  0.961854  0.718108  1
  O  O63  1  0.583993  0.512009  0.715409  1
  O  O64  1  0.582157  0.457511  0.216807  1
  O  O65  1  0.582723  0.007646  0.217736  1
  O  O66  1  0.647377  0.234422  0.999175  1
  O  O67  1  0.653519  0.739501  0.505013  1
  O  O68  1  0.680021  0.240536  0.495834  1
  O  O69  1  0.685513  0.731641  0.001243  1
  O  O70  1  0.750122  0.965090  0.785924  1
  O  O71  1  0.751423  0.515296  0.781527  1
  O  O72  1  0.748577  0.015296  0.281527  1
  O  O73  1  0.749878  0.465090  0.285924  1
  O  O74  1  0.814487  0.231641  0.501243  1
  O  O75  1  0.819979  0.740536  0.995834  1
  O  O76  1  0.846481  0.239501  0.005013  1
  O  O77  1  0.852623  0.734422  0.499175  1
  O  O78  1  0.917277  0.507645  0.717736  1
  O  O79  1  0.917843  0.957511  0.716807  1
  O  O80  1  0.916007  0.012009  0.215409  1
  O  O81  1  0.915829  0.461854  0.218108  1
  O  O82  1  0.980976  0.238434  0.998843  1
  O  O83  1  0.987097  0.728729  0.505649  1
