# generated using pymatgen
data_Li2TiNi2O5
_symmetry_space_group_name_H-M   'P 1'
_cell_length_a   5.08347973
_cell_length_b   5.11219103
_cell_length_c   7.78540996
_cell_angle_alpha   83.72710236
_cell_angle_beta   70.94249433
_cell_angle_gamma   70.45389188
_symmetry_Int_Tables_number   1
_chemical_formula_structural   Li2TiNi2O5
_chemical_formula_sum   'Li4 Ti2 Ni4 O10'
_cell_volume   180.21545005
_cell_formula_units_Z   2
loop_
 _symmetry_equiv_pos_site_id
 _symmetry_equiv_pos_as_xyz
  1  'x, y, z'
loop_
 _atom_site_type_symbol
 _atom_site_label
 _atom_site_symmetry_multiplicity
 _atom_site_fract_x
 _atom_site_fract_y
 _atom_site_fract_z
 _atom_site_occupancy
  Li  Li0  1  0.200429  0.999964  0.599151  1
  Li  Li1  1  0.300682  0.500035  0.398651  1
  Li  Li2  1  0.799870  0.000024  0.400276  1
  Li  Li3  1  0.496168  0.500029  0.007666  1
  Ti  Ti4  1  0.392511  0.000004  0.214997  1
  Ti  Ti5  1  0.696302  0.499975  0.607482  1
  Ni  Ni6  1  0.100128  0.499983  0.799712  1
  Ni  Ni7  1  0.000869  0.999953  0.998273  1
  Ni  Ni8  1  0.601683  0.999989  0.796581  1
  Ni  Ni9  1  0.899842  0.500024  0.200360  1
  O  O10  1  0.055038  0.249491  0.395705  1
  O  O11  1  0.364096  0.741211  0.786760  1
  O  O12  1  0.466587  0.269214  0.602991  1
  O  O13  1  0.166131  0.769242  0.196588  1
  O  O14  1  0.248713  0.240451  0.006418  1
  O  O15  1  0.849157  0.258712  0.786738  1
  O  O16  1  0.637263  0.230803  0.196537  1
  O  O17  1  0.549299  0.750562  0.395695  1
  O  O18  1  0.930437  0.730802  0.602993  1
  O  O19  1  0.744795  0.759530  0.006428  1
