# generated using pymatgen
data_Li2V3Cr2O12
_symmetry_space_group_name_H-M   'P 1'
_cell_length_a   12.62142228
_cell_length_b   9.15262390
_cell_length_c   9.07939067
_cell_angle_alpha   90.00000000
_cell_angle_beta   90.00000000
_cell_angle_gamma   90.00000000
_symmetry_Int_Tables_number   1
_chemical_formula_structural   Li2V3Cr2O12
_chemical_formula_sum   'Li8 V12 Cr8 O48'
_cell_volume   1048.84332213
_cell_formula_units_Z   4
loop_
 _symmetry_equiv_pos_site_id
 _symmetry_equiv_pos_as_xyz
  1  'x, y, z'
loop_
 _atom_site_type_symbol
 _atom_site_label
 _atom_site_symmetry_multiplicity
 _atom_site_fract_x
 _atom_site_fract_y
 _atom_site_fract_z
 _atom_site_occupancy
  Li  Li0  1  0.188726  0.221579  0.272592  1
  Li  Li1  1  0.188726  0.778421  0.772592  1
  Li  Li2  1  0.311274  0.278421  0.772592  1
  Li  Li3  1  0.311274  0.721579  0.272592  1
  Li  Li4  1  0.688726  0.278421  0.727408  1
  Li  Li5  1  0.688726  0.721579  0.227408  1
  Li  Li6  1  0.811274  0.221579  0.227408  1
  Li  Li7  1  0.811274  0.778421  0.727408  1
  V  V8  1  0.000000  0.466402  0.250000  1
  V  V9  1  0.000000  0.533598  0.750000  1
  V  V10  1  0.500000  0.033598  0.750000  1
  V  V11  1  0.500000  0.966402  0.250000  1
  V  V12  1  0.141972  0.102447  0.604724  1
  V  V13  1  0.141972  0.897553  0.104724  1
  V  V14  1  0.358028  0.397553  0.104724  1
  V  V15  1  0.358028  0.602447  0.604724  1
  V  V16  1  0.641972  0.397553  0.395276  1
  V  V17  1  0.641972  0.602447  0.895276  1
  V  V18  1  0.858028  0.102447  0.895276  1
  V  V19  1  0.858028  0.897553  0.395276  1
  Cr  Cr20  1  0.120819  0.252293  0.969214  1
  Cr  Cr21  1  0.120819  0.747707  0.469214  1
  Cr  Cr22  1  0.379181  0.752293  0.969214  1
  Cr  Cr23  1  0.379181  0.247707  0.469214  1
  Cr  Cr24  1  0.620819  0.247707  0.030786  1
  Cr  Cr25  1  0.620819  0.752293  0.530786  1
  Cr  Cr26  1  0.879181  0.252293  0.530786  1
  Cr  Cr27  1  0.879181  0.747707  0.030786  1
  O  O28  1  0.017766  0.157375  0.553832  1
  O  O29  1  0.017766  0.842625  0.053832  1
  O  O30  1  0.072587  0.573646  0.368443  1
  O  O31  1  0.072587  0.426354  0.868443  1
  O  O32  1  0.089754  0.351039  0.158501  1
  O  O33  1  0.089754  0.648961  0.658501  1
  O  O34  1  0.159470  0.088596  0.100479  1
  O  O35  1  0.159470  0.911404  0.600479  1
  O  O36  1  0.172094  0.162626  0.780771  1
  O  O37  1  0.172094  0.837374  0.280771  1
  O  O38  1  0.230822  0.822173  0.976538  1
  O  O39  1  0.230822  0.177827  0.476538  1
  O  O40  1  0.269178  0.322173  0.976538  1
  O  O41  1  0.269178  0.677827  0.476538  1
  O  O42  1  0.327906  0.662626  0.780771  1
  O  O43  1  0.327906  0.337374  0.280771  1
  O  O44  1  0.340530  0.411404  0.600479  1
  O  O45  1  0.340530  0.588596  0.100479  1
  O  O46  1  0.410246  0.148961  0.658501  1
  O  O47  1  0.410246  0.851039  0.158501  1
  O  O48  1  0.427413  0.073646  0.368443  1
  O  O49  1  0.427413  0.926354  0.868443  1
  O  O50  1  0.482234  0.657375  0.553832  1
  O  O51  1  0.482234  0.342625  0.053832  1
  O  O52  1  0.517766  0.342625  0.446168  1
  O  O53  1  0.517766  0.657375  0.946168  1
  O  O54  1  0.572587  0.073646  0.131557  1
  O  O55  1  0.572587  0.926354  0.631557  1
  O  O56  1  0.589754  0.148961  0.841499  1
  O  O57  1  0.589754  0.851039  0.341499  1
  O  O58  1  0.659470  0.411404  0.899521  1
  O  O59  1  0.659470  0.588596  0.399521  1
  O  O60  1  0.672094  0.337374  0.219229  1
  O  O61  1  0.672094  0.662626  0.719229  1
  O  O62  1  0.730822  0.322173  0.523462  1
  O  O63  1  0.730822  0.677827  0.023462  1
  O  O64  1  0.769178  0.177827  0.023462  1
  O  O65  1  0.769178  0.822173  0.523462  1
  O  O66  1  0.827906  0.162626  0.719229  1
  O  O67  1  0.827906  0.837374  0.219229  1
  O  O68  1  0.840530  0.088596  0.399521  1
  O  O69  1  0.840530  0.911404  0.899521  1
  O  O70  1  0.910246  0.351039  0.341499  1
  O  O71  1  0.910246  0.648961  0.841499  1
  O  O72  1  0.927413  0.426354  0.631557  1
  O  O73  1  0.927413  0.573646  0.131557  1
  O  O74  1  0.982234  0.157375  0.946168  1
  O  O75  1  0.982234  0.842625  0.446168  1
