# generated using pymatgen
data_Li2BiF5
_symmetry_space_group_name_H-M   'P 1'
_cell_length_a   4.75132578
_cell_length_b   5.64820120
_cell_length_c   5.64496365
_cell_angle_alpha   100.24671387
_cell_angle_beta   114.94021949
_cell_angle_gamma   65.05686625
_symmetry_Int_Tables_number   1
_chemical_formula_structural   Li2BiF5
_chemical_formula_sum   'Li2 Bi1 F5'
_cell_volume   124.55159269
_cell_formula_units_Z   1
loop_
 _symmetry_equiv_pos_site_id
 _symmetry_equiv_pos_as_xyz
  1  'x, y, z'
loop_
 _atom_site_type_symbol
 _atom_site_label
 _atom_site_symmetry_multiplicity
 _atom_site_fract_x
 _atom_site_fract_y
 _atom_site_fract_z
 _atom_site_occupancy
  Li  Li0  1  0.249380  0.500435  0.500181  1
  Li  Li1  1  0.749771  0.499529  0.499768  1
  Bi  Bi2  1  0.002130  0.999959  0.999991  1
  F  F3  1  0.946216  0.743044  0.637535  1
  F  F4  1  0.308947  0.638145  0.257413  1
  F  F5  1  0.690390  0.361884  0.742628  1
  F  F6  1  0.053147  0.257004  0.362276  1
  F  F7  1  0.500006  0.000011  0.000207  1
