# generated using pymatgen
data_Li6V3P8O29
_symmetry_space_group_name_H-M   'P 1'
_cell_length_a   9.80343510
_cell_length_b   9.85072906
_cell_length_c   13.86376812
_cell_angle_alpha   90.12022810
_cell_angle_beta   90.47266459
_cell_angle_gamma   59.88071641
_symmetry_Int_Tables_number   1
_chemical_formula_structural   Li6V3P8O29
_chemical_formula_sum   'Li12 V6 P16 O58'
_cell_volume   1158.02867288
_cell_formula_units_Z   2
loop_
 _symmetry_equiv_pos_site_id
 _symmetry_equiv_pos_as_xyz
  1  'x, y, z'
loop_
 _atom_site_type_symbol
 _atom_site_label
 _atom_site_symmetry_multiplicity
 _atom_site_fract_x
 _atom_site_fract_y
 _atom_site_fract_z
 _atom_site_occupancy
  Li  Li0  1  0.771598  0.905815  0.558350  1
  Li  Li1  1  0.672803  0.665767  0.883747  1
  Li  Li2  1  0.765710  0.329875  0.065169  1
  Li  Li3  1  0.331548  0.900872  0.065296  1
  Li  Li4  1  0.682575  0.228648  0.438168  1
  Li  Li5  1  0.323261  0.772428  0.558278  1
  Li  Li6  1  0.663602  0.098924  0.940568  1
  Li  Li7  1  0.233570  0.661145  0.941741  1
  Li  Li8  1  0.094916  0.675727  0.437860  1
  Li  Li9  1  0.225372  0.096732  0.440444  1
  Li  Li10  1  0.101270  0.236612  0.940132  1
  Li  Li11  1  0.991583  0.980279  0.006219  1
  V  V12  1  0.567068  0.433046  0.251877  1
  V  V13  1  0.431069  0.565938  0.747441  1
  V  V14  1  0.567298  0.002016  0.748346  1
  V  V15  1  0.433324  0.001876  0.251724  1
  V  V16  1  0.996039  0.566431  0.245635  1
  V  V17  1  0.000026  0.433139  0.746286  1
  P  P18  1  0.913451  0.774631  0.843023  1
  P  P19  1  0.771660  0.912195  0.341158  1
  P  P20  1  0.914584  0.317290  0.343274  1
  P  P21  1  0.665106  0.665119  0.126245  1
  P  P22  1  0.664819  0.669490  0.626645  1
  P  P23  1  0.774646  0.314949  0.843404  1
  P  P24  1  0.683095  0.230695  0.656354  1
  P  P25  1  0.317600  0.908625  0.842638  1
  P  P26  1  0.683610  0.089170  0.156140  1
  P  P27  1  0.320296  0.769365  0.341590  1
  P  P28  1  0.225922  0.684632  0.157344  1
  P  P29  1  0.331831  0.334892  0.372345  1
  P  P30  1  0.332933  0.334496  0.873883  1
  P  P31  1  0.085630  0.681150  0.656326  1
  P  P32  1  0.228141  0.087827  0.657350  1
  P  P33  1  0.085809  0.228287  0.157361  1
  O  O34  1  0.997112  0.757587  0.564810  1
  O  O35  1  0.917437  0.748540  0.342312  1
  O  O36  1  0.771159  0.012985  0.064942  1
  O  O37  1  0.742929  0.919804  0.841820  1
  O  O38  1  0.899231  0.626032  0.834379  1
  O  O39  1  0.811646  0.669040  0.170321  1
  O  O40  1  0.904099  0.476035  0.326290  1
  O  O41  1  0.002636  0.224271  0.065133  1
  O  O42  1  0.922170  0.331906  0.843892  1
  O  O43  1  0.673111  0.815682  0.667289  1
  O  O44  1  0.619928  0.902715  0.321950  1
  O  O45  1  0.812357  0.523238  0.676144  1
  O  O46  1  0.666570  0.662993  0.017448  1
  O  O47  1  0.664290  0.670268  0.519445  1
  O  O48  1  0.675998  0.510189  0.163837  1
  O  O49  1  0.481891  0.891284  0.831124  1
  O  O50  1  0.512574  0.811952  0.163494  1
  O  O51  1  0.747256  0.336319  0.341738  1
  O  O52  1  0.791593  0.209872  0.749954  1
  O  O53  1  0.752295  0.243697  0.564900  1
  O  O54  1  0.771548  0.227279  0.932495  1
  O  O55  1  0.626733  0.478993  0.831152  1
  O  O56  1  0.512484  0.673777  0.667317  1
  O  O57  1  0.660963  0.257166  0.161490  1
  O  O58  1  0.480890  0.620201  0.323960  1
  O  O59  1  0.337905  0.916726  0.343296  1
  O  O60  1  0.792768  0.000367  0.249442  1
  O  O61  1  0.753774  0.003567  0.431949  1
  O  O62  1  0.246983  0.995049  0.567304  1
  O  O63  1  0.665146  0.082753  0.659779  1
  O  O64  1  0.522201  0.381454  0.679229  1
  O  O65  1  0.337505  0.741807  0.841337  1
  O  O66  1  0.486269  0.326536  0.331870  1
  O  O67  1  0.381607  0.530120  0.169866  1
  O  O68  1  0.224626  0.774871  0.067463  1
  O  O69  1  0.243139  0.755698  0.431636  1
  O  O70  1  0.209051  0.794746  0.249516  1
  O  O71  1  0.249521  0.669616  0.657849  1
  O  O72  1  0.485935  0.188735  0.833784  1
  O  O73  1  0.527557  0.092453  0.169565  1
  O  O74  1  0.323638  0.488047  0.833797  1
  O  O75  1  0.331137  0.332878  0.981723  1
  O  O76  1  0.333380  0.335249  0.480231  1
  O  O77  1  0.183527  0.485604  0.329641  1
  O  O78  1  0.382998  0.091391  0.678657  1
  O  O79  1  0.325589  0.186839  0.332555  1
  O  O80  1  0.083534  0.662805  0.159857  1
  O  O81  1  0.992447  0.794021  0.745904  1
  O  O82  1  0.005914  0.784490  0.926863  1
  O  O83  1  0.103199  0.519882  0.674545  1
  O  O84  1  0.183634  0.329970  0.831494  1
  O  O85  1  0.095829  0.377658  0.168343  1
  O  O86  1  0.254175  0.081067  0.160389  1
  O  O87  1  0.230486  0.996488  0.932328  1
  O  O88  1  0.209985  0.996785  0.750003  1
  O  O89  1  0.087190  0.251895  0.658672  1
  O  O90  1  0.009034  0.228176  0.428962  1
  O  O91  1  0.994324  0.209908  0.246198  1
