# generated using pymatgen
data_Li3Fe2SbO6
_symmetry_space_group_name_H-M   'P 1'
_cell_length_a   15.86183887
_cell_length_b   10.24704044
_cell_length_c   10.24704029
_cell_angle_alpha   17.49015503
_cell_angle_beta   16.88641615
_cell_angle_gamma   16.88641824
_symmetry_Int_Tables_number   1
_chemical_formula_structural   Li3Fe2SbO6
_chemical_formula_sum   'Li3 Fe2 Sb1 O6'
_cell_volume   125.34968768
_cell_formula_units_Z   1
loop_
 _symmetry_equiv_pos_site_id
 _symmetry_equiv_pos_as_xyz
  1  'x, y, z'
loop_
 _atom_site_type_symbol
 _atom_site_label
 _atom_site_symmetry_multiplicity
 _atom_site_fract_x
 _atom_site_fract_y
 _atom_site_fract_z
 _atom_site_occupancy
  Li  Li0  1  0.166667  0.500000  0.500000  1
  Li  Li1  1  0.516603  0.478504  0.478504  1
  Li  Li2  1  0.816730  0.521496  0.521496  1
  Fe  Fe3  1  0.962249  0.031997  0.031997  1
  Fe  Fe4  1  0.371085  0.968003  0.968003  1
  Sb  Sb5  1  0.666667  0.000000  0.000000  1
  O  O6  1  0.259232  0.253494  0.253494  1
  O  O7  1  0.562045  0.264022  0.264022  1
  O  O8  1  0.074101  0.746506  0.746506  1
  O  O9  1  0.868319  0.291959  0.291959  1
  O  O10  1  0.465014  0.708041  0.708041  1
  O  O11  1  0.771288  0.735978  0.735978  1
