# generated using pymatgen
data_Li3Nb(CoO2)4
_symmetry_space_group_name_H-M   'P 1'
_cell_length_a   10.54144632
_cell_length_b   10.54144667
_cell_length_c   14.83011725
_cell_angle_alpha   19.45368610
_cell_angle_beta   19.45368558
_cell_angle_gamma   33.67442563
_symmetry_Int_Tables_number   1
_chemical_formula_structural   Li3Nb(CoO2)4
_chemical_formula_sum   'Li3 Nb1 Co4 O8'
_cell_volume   156.92561502
_cell_formula_units_Z   1
loop_
 _symmetry_equiv_pos_site_id
 _symmetry_equiv_pos_as_xyz
  1  'x, y, z'
loop_
 _atom_site_type_symbol
 _atom_site_label
 _atom_site_symmetry_multiplicity
 _atom_site_fract_x
 _atom_site_fract_y
 _atom_site_fract_z
 _atom_site_occupancy
  Li  Li0  1  0.000000  0.500000  0.500000  1
  Li  Li1  1  0.500000  0.000000  0.500000  1
  Li  Li2  1  0.500000  0.500000  0.500000  1
  Nb  Nb3  1  0.500000  0.500000  0.000000  1
  Co  Co4  1  0.000000  0.000000  0.000000  1
  Co  Co5  1  0.000000  0.500000  0.000000  1
  Co  Co6  1  0.500000  0.000000  0.000000  1
  Co  Co7  1  0.000000  0.000000  0.500000  1
  O  O8  1  0.980562  0.980562  0.279226  1
  O  O9  1  0.033158  0.508164  0.225443  1
  O  O10  1  0.508164  0.033158  0.225443  1
  O  O11  1  0.019438  0.019438  0.720774  1
  O  O12  1  0.518560  0.518560  0.231424  1
  O  O13  1  0.966842  0.491836  0.774557  1
  O  O14  1  0.491836  0.966842  0.774557  1
  O  O15  1  0.481440  0.481440  0.768576  1
