# generated using pymatgen
data_LiFe2(BO3)2
_symmetry_space_group_name_H-M   'P 1'
_cell_length_a   5.27598940
_cell_length_b   9.04774063
_cell_length_c   10.17428023
_cell_angle_alpha   89.89262759
_cell_angle_beta   91.05752342
_cell_angle_gamma   89.59043779
_symmetry_Int_Tables_number   1
_chemical_formula_structural   LiFe2(BO3)2
_chemical_formula_sum   'Li4 Fe8 B8 O24'
_cell_volume   485.58113077
_cell_formula_units_Z   4
loop_
 _symmetry_equiv_pos_site_id
 _symmetry_equiv_pos_as_xyz
  1  'x, y, z'
loop_
 _atom_site_type_symbol
 _atom_site_label
 _atom_site_symmetry_multiplicity
 _atom_site_fract_x
 _atom_site_fract_y
 _atom_site_fract_z
 _atom_site_occupancy
  Li  Li0  1  0.813737  0.835664  0.156523  1
  Li  Li1  1  0.665376  0.672304  0.878332  1
  Li  Li2  1  0.345561  0.321649  0.661497  1
  Li  Li3  1  0.308064  0.332810  0.169922  1
  Fe  Fe4  1  0.852582  0.152058  0.631183  1
  Fe  Fe5  1  0.814950  0.503028  0.130173  1
  Fe  Fe6  1  0.675804  0.011222  0.880256  1
  Fe  Fe7  1  0.681470  0.336014  0.381869  1
  Fe  Fe8  1  0.320211  0.665669  0.631808  1
  Fe  Fe9  1  0.312309  0.005622  0.124222  1
  Fe  Fe10  1  0.179750  0.840772  0.377502  1
  Fe  Fe11  1  0.170419  0.492458  0.886400  1
  B  B12  1  0.820710  0.497084  0.629915  1
  B  B13  1  0.824488  0.169964  0.130166  1
  B  B14  1  0.669974  0.003425  0.371635  1
  B  B15  1  0.672156  0.337631  0.873157  1
  B  B16  1  0.352915  0.001953  0.630418  1
  B  B17  1  0.327216  0.665344  0.128713  1
  B  B18  1  0.169883  0.504510  0.379959  1
  B  B19  1  0.171247  0.835034  0.878215  1
  O  O20  1  0.917472  0.492339  0.342029  1
  O  O21  1  0.911986  0.842671  0.887961  1
  O  O22  1  0.808970  0.207409  0.846161  1
  O  O23  1  0.754440  0.133061  0.427126  1
  O  O24  1  0.832800  0.887610  0.349324  1
  O  O25  1  0.797065  0.462714  0.920512  1
  O  O26  1  0.670189  0.616788  0.657440  1
  O  O27  1  0.697349  0.043524  0.083262  1
  O  O28  1  0.710422  0.367070  0.581700  1
  O  O29  1  0.676916  0.288947  0.177121  1
  O  O30  1  0.583575  0.678682  0.110580  1
  O  O31  1  0.594613  0.994130  0.687071  1
  O  O32  1  0.417588  0.990692  0.332311  1
  O  O33  1  0.418914  0.340017  0.848548  1
  O  O34  1  0.286796  0.705928  0.828484  1
  O  O35  1  0.257438  0.637669  0.433786  1
  O  O36  1  0.334014  0.390192  0.360104  1
  O  O37  1  0.327892  0.946516  0.922363  1
  O  O38  1  0.203347  0.534398  0.096972  1
  O  O39  1  0.219979  0.129675  0.623364  1
  O  O40  1  0.249128  0.870437  0.577204  1
  O  O41  1  0.184243  0.785742  0.175864  1
  O  O42  1  0.080077  0.177015  0.132536  1
  O  O43  1  0.083138  0.497295  0.655191  1
