# generated using pymatgen
data_LiFe(PO3)4
_symmetry_space_group_name_H-M   'P 1'
_cell_length_a   8.02257889
_cell_length_b   8.53786987
_cell_length_c   9.60596860
_cell_angle_alpha   119.67610918
_cell_angle_beta   114.68209097
_cell_angle_gamma   61.97717471
_symmetry_Int_Tables_number   1
_chemical_formula_structural   LiFe(PO3)4
_chemical_formula_sum   'Li2 Fe2 P8 O24'
_cell_volume   489.74921789
_cell_formula_units_Z   2
loop_
 _symmetry_equiv_pos_site_id
 _symmetry_equiv_pos_as_xyz
  1  'x, y, z'
loop_
 _atom_site_type_symbol
 _atom_site_label
 _atom_site_symmetry_multiplicity
 _atom_site_fract_x
 _atom_site_fract_y
 _atom_site_fract_z
 _atom_site_occupancy
  Li  Li0  1  0.000000  0.500000  0.500000  1
  Li  Li1  1  0.000000  0.000000  0.000000  1
  Fe  Fe2  1  0.663004  0.750000  0.750000  1
  Fe  Fe3  1  0.336996  0.250000  0.250000  1
  P  P4  1  0.705523  0.856327  0.137371  1
  P  P5  1  0.351188  0.805298  0.104381  1
  P  P6  1  0.052106  0.694702  0.395619  1
  P  P7  1  0.424479  0.643673  0.362629  1
  P  P8  1  0.575521  0.356327  0.637371  1
  P  P9  1  0.947894  0.305298  0.604381  1
  P  P10  1  0.648812  0.194702  0.895619  1
  P  P11  1  0.294477  0.143673  0.862629  1
  O  O12  1  0.274216  0.021026  0.199846  1
  O  O13  1  0.790757  0.782805  0.994110  1
  O  O14  1  0.873546  0.807550  0.285762  1
  O  O15  1  0.569421  0.737244  0.088042  1
  O  O16  1  0.404703  0.933620  0.797184  1
  O  O17  1  0.218623  0.762756  0.411958  1
  O  O18  1  0.395334  0.692450  0.214238  1
  O  O19  1  0.011943  0.760206  0.556963  1
  O  O20  1  0.579452  0.717195  0.505890  1
  O  O21  1  0.215185  0.739794  0.943037  1
  O  O22  1  0.095395  0.478974  0.300154  1
  O  O23  1  0.541139  0.566380  0.702816  1
  O  O24  1  0.458861  0.433620  0.297184  1
  O  O25  1  0.904605  0.521026  0.699846  1
  O  O26  1  0.784815  0.260206  0.056963  1
  O  O27  1  0.420548  0.282805  0.494110  1
  O  O28  1  0.988057  0.239794  0.443037  1
  O  O29  1  0.604666  0.307550  0.785762  1
  O  O30  1  0.781377  0.237244  0.588042  1
  O  O31  1  0.595297  0.066380  0.202816  1
  O  O32  1  0.430579  0.262756  0.911958  1
  O  O33  1  0.126454  0.192450  0.714238  1
  O  O34  1  0.209243  0.217195  0.005890  1
  O  O35  1  0.725784  0.978974  0.800154  1
