# generated using pymatgen
data_NiH18(IN)6
_symmetry_space_group_name_H-M   'P 1'
_cell_length_a   11.03128497
_cell_length_b   11.03128497
_cell_length_c   8.95050095
_cell_angle_alpha   81.80919881
_cell_angle_beta   98.19080119
_cell_angle_gamma   90.78218238
_symmetry_Int_Tables_number   1
_chemical_formula_structural   NiH18(IN)6
_chemical_formula_sum   'Ni2 H36 I12 N12'
_cell_volume   1067.04732369
_cell_formula_units_Z   2
loop_
 _symmetry_equiv_pos_site_id
 _symmetry_equiv_pos_as_xyz
  1  'x, y, z'
loop_
 _atom_site_type_symbol
 _atom_site_label
 _atom_site_symmetry_multiplicity
 _atom_site_fract_x
 _atom_site_fract_y
 _atom_site_fract_z
 _atom_site_occupancy
  Ni  Ni0  1  0.000000  0.500000  0.000000  1
  Ni  Ni1  1  0.500000  0.000000  0.500000  1
  H  H2  1  0.101898  0.724417  0.969546  1
  H  H3  1  0.380939  0.943331  0.743366  1
  H  H4  1  0.275583  0.898102  0.469546  1
  H  H5  1  0.125717  0.658346  0.823195  1
  H  H6  1  0.056669  0.619061  0.243366  1
  H  H7  1  0.341654  0.874283  0.323195  1
  H  H8  1  0.054673  0.475264  0.721984  1
  H  H9  1  0.524736  0.945327  0.221984  1
  H  H10  1  0.084605  0.344243  0.832464  1
  H  H11  1  0.720822  0.992448  0.674991  1
  H  H12  1  0.549520  0.803020  0.715125  1
  H  H13  1  0.482871  0.754005  0.558797  1
  H  H14  1  0.655757  0.915395  0.332464  1
  H  H15  1  0.007552  0.279178  0.174991  1
  H  H16  1  0.196980  0.450480  0.215125  1
  H  H17  1  0.629630  0.789537  0.576656  1
  H  H18  1  0.245995  0.517129  0.058797  1
  H  H19  1  0.210463  0.370370  0.076656  1
  H  H20  1  0.789537  0.629630  0.923344  1
  H  H21  1  0.754005  0.482871  0.941203  1
  H  H22  1  0.370370  0.210463  0.423344  1
  H  H23  1  0.803020  0.549520  0.784875  1
  H  H24  1  0.992448  0.720822  0.825009  1
  H  H25  1  0.344243  0.084605  0.667536  1
  H  H26  1  0.517129  0.245995  0.441203  1
  H  H27  1  0.450480  0.196980  0.284875  1
  H  H28  1  0.279178  0.007552  0.325009  1
  H  H29  1  0.915395  0.655757  0.167536  1
  H  H30  1  0.475264  0.054673  0.778016  1
  H  H31  1  0.945327  0.524736  0.278016  1
  H  H32  1  0.658346  0.125717  0.676805  1
  H  H33  1  0.943331  0.380939  0.756634  1
  H  H34  1  0.874283  0.341654  0.176805  1
  H  H35  1  0.724417  0.101898  0.530454  1
  H  H36  1  0.619061  0.056669  0.256634  1
  H  H37  1  0.898102  0.275583  0.030454  1
  I  I38  1  0.252314  0.601965  0.549457  1
  I  I39  1  0.398035  0.747686  0.049457  1
  I  I40  1  0.762098  0.871510  0.997666  1
  I  I41  1  0.128490  0.237902  0.497666  1
  I  I42  1  0.430727  0.430727  0.750000  1
  I  I43  1  0.000000  0.000000  0.500000  1
  I  I44  1  0.569273  0.569273  0.250000  1
  I  I45  1  0.871510  0.762098  0.502334  1
  I  I46  1  0.000000  0.000000  0.000000  1
  I  I47  1  0.237902  0.128490  0.002334  1
  I  I48  1  0.601965  0.252314  0.950543  1
  I  I49  1  0.747686  0.398035  0.450543  1
  N  N50  1  0.061933  0.670192  0.892995  1
  N  N51  1  0.329808  0.938067  0.392995  1
  N  N52  1  0.022995  0.415861  0.806308  1
  N  N53  1  0.584139  0.977005  0.306308  1
  N  N54  1  0.545663  0.815240  0.598716  1
  N  N55  1  0.184760  0.454337  0.098716  1
  N  N56  1  0.815240  0.545663  0.901284  1
  N  N57  1  0.454337  0.184760  0.401284  1
  N  N58  1  0.415861  0.022995  0.693692  1
  N  N59  1  0.977005  0.584139  0.193692  1
  N  N60  1  0.670192  0.061933  0.607005  1
  N  N61  1  0.938067  0.329808  0.107005  1
