# generated using pymatgen
data_Li4V2Co3Sn3O16
_symmetry_space_group_name_H-M   'P 1'
_cell_length_a   6.17241263
_cell_length_b   6.08845176
_cell_length_c   9.67047621
_cell_angle_alpha   90.00000755
_cell_angle_beta   90.50433417
_cell_angle_gamma   119.71786072
_symmetry_Int_Tables_number   1
_chemical_formula_structural   Li4V2Co3Sn3O16
_chemical_formula_sum   'Li4 V2 Co3 Sn3 O16'
_cell_volume   315.60633210
_cell_formula_units_Z   1
loop_
 _symmetry_equiv_pos_site_id
 _symmetry_equiv_pos_as_xyz
  1  'x, y, z'
loop_
 _atom_site_type_symbol
 _atom_site_label
 _atom_site_symmetry_multiplicity
 _atom_site_fract_x
 _atom_site_fract_y
 _atom_site_fract_z
 _atom_site_occupancy
  Li  Li0  1  0.369754  0.684866  0.901486  1
  Li  Li1  1  0.963654  0.981446  0.981677  1
  Li  Li2  1  0.981775  0.991120  0.501538  1
  Li  Li3  1  0.661106  0.330466  0.402197  1
  V  V4  1  0.352985  0.677395  0.498770  1
  V  V5  1  0.724971  0.360711  0.973021  1
  Co  Co6  1  0.646789  0.823026  0.216471  1
  Co  Co7  1  0.839632  0.661439  0.709321  1
  Co  Co8  1  0.844590  0.184511  0.709767  1
  Sn  Sn9  1  0.161796  0.828030  0.215349  1
  Sn  Sn10  1  0.162485  0.334062  0.215678  1
  Sn  Sn11  1  0.354409  0.177242  0.714982  1
  O  O12  1  0.184809  0.826592  0.588982  1
  O  O13  1  0.021132  0.509898  0.342029  1
  O  O14  1  0.327346  0.664450  0.101691  1
  O  O15  1  0.979072  0.988786  0.313621  1
  O  O16  1  0.005591  0.004622  0.792109  1
  O  O17  1  0.187441  0.358318  0.587388  1
  O  O18  1  0.462656  0.947503  0.354505  1
  O  O19  1  0.464414  0.515844  0.353479  1
  O  O20  1  0.293133  0.147201  0.093239  1
  O  O21  1  0.638054  0.819621  0.587116  1
  O  O22  1  0.539672  0.484061  0.854264  1
  O  O23  1  0.535084  0.056456  0.856514  1
  O  O24  1  0.677421  0.337104  0.605883  1
  O  O25  1  0.819781  0.641638  0.087278  1
  O  O26  1  0.981702  0.488233  0.861215  1
  O  O27  1  0.818743  0.175661  0.088268  1
