# generated using pymatgen
data_Li2VP2O7
_symmetry_space_group_name_H-M   'P 1'
_cell_length_a   6.64091115
_cell_length_b   10.42528881
_cell_length_c   9.31818432
_cell_angle_alpha   66.50339505
_cell_angle_beta   106.38309194
_cell_angle_gamma   91.55843842
_symmetry_Int_Tables_number   1
_chemical_formula_structural   Li2VP2O7
_chemical_formula_sum   'Li8 V4 P8 O28'
_cell_volume   564.94462067
_cell_formula_units_Z   4
loop_
 _symmetry_equiv_pos_site_id
 _symmetry_equiv_pos_as_xyz
  1  'x, y, z'
loop_
 _atom_site_type_symbol
 _atom_site_label
 _atom_site_symmetry_multiplicity
 _atom_site_fract_x
 _atom_site_fract_y
 _atom_site_fract_z
 _atom_site_occupancy
  Li  Li0  1  0.050045  0.480669  0.211575  1
  Li  Li1  1  0.643848  0.378928  0.076089  1
  Li  Li2  1  0.599194  0.026955  0.509170  1
  Li  Li3  1  0.163090  0.873287  0.108383  1
  Li  Li4  1  0.167415  0.968467  0.486639  1
  Li  Li5  1  0.865184  0.108494  0.892402  1
  Li  Li6  1  0.346914  0.621358  0.922923  1
  Li  Li7  1  0.931600  0.499895  0.829078  1
  V  V8  1  0.364746  0.260049  0.501694  1
  V  V9  1  0.723547  0.774392  0.098202  1
  V  V10  1  0.282409  0.228285  0.892616  1
  V  V11  1  0.625555  0.748272  0.489887  1
  P  P12  1  0.076728  0.202877  0.179411  1
  P  P13  1  0.698186  0.054561  0.189205  1
  P  P14  1  0.557022  0.538484  0.289132  1
  P  P15  1  0.121261  0.702541  0.446460  1
  P  P16  1  0.868650  0.301420  0.540829  1
  P  P17  1  0.437953  0.467160  0.706516  1
  P  P18  1  0.309259  0.947226  0.802469  1
  P  P19  1  0.927368  0.803600  0.807643  1
  O  O20  1  0.100597  0.144268  0.057927  1
  O  O21  1  0.568444  0.196491  0.084895  1
  O  O22  1  0.279135  0.179017  0.317565  1
  O  O23  1  0.961599  0.352754  0.091961  1
  O  O24  1  0.028396  0.310409  0.448162  1
  O  O25  1  0.928313  0.094381  0.279565  1
  O  O26  1  0.630790  0.543110  0.142361  1
  O  O27  1  0.037312  0.716302  0.268635  1
  O  O28  1  0.359053  0.463361  0.301343  1
  O  O29  1  0.380609  0.039401  0.654206  1
  O  O30  1  0.538370  0.690774  0.275162  1
  O  O31  1  0.695223  0.204016  0.520638  1
  O  O32  1  0.741037  0.984429  0.082877  1
  O  O33  1  0.248470  0.545887  0.542476  1
  O  O34  1  0.743900  0.459715  0.455752  1
  O  O35  1  0.269212  0.017810  0.908586  1
  O  O36  1  0.287929  0.806228  0.462706  1
  O  O37  1  0.457788  0.317160  0.713770  1
  O  O38  1  0.620390  0.962693  0.331935  1
  O  O39  1  0.633716  0.544908  0.694779  1
  O  O40  1  0.965541  0.275745  0.721410  1
  O  O41  1  0.367338  0.456605  0.856499  1
  O  O42  1  0.082119  0.907681  0.709391  1
  O  O43  1  0.955233  0.704558  0.528188  1
  O  O44  1  0.037354  0.653430  0.892566  1
  O  O45  1  0.720319  0.829133  0.674020  1
  O  O46  1  0.439952  0.805753  0.906321  1
  O  O47  1  0.910737  0.862303  0.931796  1
