# generated using pymatgen
data_PrBiO4
_symmetry_space_group_name_H-M   'P 1'
_cell_length_a   5.68529205
_cell_length_b   10.98335106
_cell_length_c   5.75566246
_cell_angle_alpha   89.99001669
_cell_angle_beta   89.99805664
_cell_angle_gamma   90.00681010
_symmetry_Int_Tables_number   1
_chemical_formula_structural   PrBiO4
_chemical_formula_sum   'Pr4 Bi4 O16'
_cell_volume   359.40403709
_cell_formula_units_Z   4
loop_
 _symmetry_equiv_pos_site_id
 _symmetry_equiv_pos_as_xyz
  1  'x, y, z'
loop_
 _atom_site_type_symbol
 _atom_site_label
 _atom_site_symmetry_multiplicity
 _atom_site_fract_x
 _atom_site_fract_y
 _atom_site_fract_z
 _atom_site_occupancy
  Pr  Pr0  1  0.193227  0.750006  0.249979  1
  Pr  Pr1  1  0.306840  0.250001  0.250060  1
  Pr  Pr2  1  0.693292  0.750006  0.749947  1
  Pr  Pr3  1  0.806823  0.249996  0.750054  1
  Bi  Bi4  1  0.250030  0.000158  0.702159  1
  Bi  Bi5  1  0.249928  0.499831  0.797962  1
  Bi  Bi6  1  0.749942  0.499804  0.202076  1
  Bi  Bi7  1  0.750163  0.000182  0.297779  1
  O  O8  1  0.982047  0.616635  0.949850  1
  O  O9  1  0.982312  0.883357  0.550067  1
  O  O10  1  0.120753  0.129802  0.929326  1
  O  O11  1  0.120898  0.370103  0.570903  1
  O  O12  1  0.378896  0.630216  0.570919  1
  O  O13  1  0.379160  0.869801  0.928998  1
  O  O14  1  0.517789  0.116590  0.550401  1
  O  O15  1  0.517777  0.383438  0.949642  1
  O  O16  1  0.482074  0.616616  0.050330  1
  O  O17  1  0.482327  0.883384  0.449528  1
  O  O18  1  0.620873  0.129999  0.070968  1
  O  O19  1  0.620955  0.369947  0.429048  1
  O  O20  1  0.878997  0.630048  0.429309  1
  O  O21  1  0.879356  0.870036  0.070509  1
  O  O22  1  0.017760  0.116639  0.449827  1
  O  O23  1  0.017780  0.383403  0.050358  1
