# generated using pymatgen
data_Li4Cr5Sn3O16
_symmetry_space_group_name_H-M   'P 1'
_cell_length_a   6.07883410
_cell_length_b   6.09384398
_cell_length_c   9.60344121
_cell_angle_alpha   89.99614464
_cell_angle_beta   89.67139434
_cell_angle_gamma   120.06390832
_symmetry_Int_Tables_number   1
_chemical_formula_structural   Li4Cr5Sn3O16
_chemical_formula_sum   'Li4 Cr5 Sn3 O16'
_cell_volume   307.87856097
_cell_formula_units_Z   1
loop_
 _symmetry_equiv_pos_site_id
 _symmetry_equiv_pos_as_xyz
  1  'x, y, z'
loop_
 _atom_site_type_symbol
 _atom_site_label
 _atom_site_symmetry_multiplicity
 _atom_site_fract_x
 _atom_site_fract_y
 _atom_site_fract_z
 _atom_site_occupancy
  Li  Li0  1  0.340865  0.670519  0.887962  1
  Li  Li1  1  0.973698  0.986866  0.991996  1
  Li  Li2  1  0.987296  0.993810  0.501673  1
  Li  Li3  1  0.669170  0.334605  0.396290  1
  Cr  Cr4  1  0.338564  0.669177  0.489074  1
  Cr  Cr5  1  0.660788  0.830437  0.214955  1
  Cr  Cr6  1  0.676854  0.338403  0.982815  1
  Cr  Cr7  1  0.830883  0.661160  0.711073  1
  Cr  Cr8  1  0.830604  0.169689  0.711301  1
  Sn  Sn9  1  0.169993  0.831604  0.213188  1
  Sn  Sn10  1  0.169984  0.338455  0.213205  1
  Sn  Sn11  1  0.340107  0.170199  0.713831  1
  O  O12  1  0.156968  0.829267  0.598503  1
  O  O13  1  0.040973  0.520592  0.350020  1
  O  O14  1  0.343538  0.671721  0.097545  1
  O  O15  1  0.990376  0.995285  0.316795  1
  O  O16  1  0.989141  0.994449  0.807976  1
  O  O17  1  0.157307  0.327595  0.598304  1
  O  O18  1  0.486182  0.961249  0.344995  1
  O  O19  1  0.486283  0.525057  0.344928  1
  O  O20  1  0.327001  0.163485  0.093067  1
  O  O21  1  0.667116  0.833058  0.608952  1
  O  O22  1  0.531803  0.488730  0.843054  1
  O  O23  1  0.531403  0.042973  0.843101  1
  O  O24  1  0.676763  0.338442  0.601731  1
  O  O25  1  0.834604  0.672111  0.099117  1
  O  O26  1  0.957203  0.478825  0.833241  1
  O  O27  1  0.834530  0.162538  0.099150  1
