# generated using pymatgen
data_Na8Bi5O14
_symmetry_space_group_name_H-M   'P 1'
_cell_length_a   11.55700554
_cell_length_b   9.16189980
_cell_length_c   9.21003646
_cell_angle_alpha   112.36637288
_cell_angle_beta   105.27947545
_cell_angle_gamma   100.77184119
_symmetry_Int_Tables_number   1
_chemical_formula_structural   Na8Bi5O14
_chemical_formula_sum   'Na16 Bi10 O28'
_cell_volume   823.64389969
_cell_formula_units_Z   2
loop_
 _symmetry_equiv_pos_site_id
 _symmetry_equiv_pos_as_xyz
  1  'x, y, z'
loop_
 _atom_site_type_symbol
 _atom_site_label
 _atom_site_symmetry_multiplicity
 _atom_site_fract_x
 _atom_site_fract_y
 _atom_site_fract_z
 _atom_site_occupancy
  Na  Na0  1  0.017463  0.449906  0.678920  1
  Na  Na1  1  0.000000  0.000000  0.000000  1
  Na  Na2  1  0.189351  0.194116  0.674076  1
  Na  Na3  1  0.171147  0.306653  0.376597  1
  Na  Na4  1  0.106424  0.380507  0.014667  1
  Na  Na5  1  0.279681  0.697579  0.409683  1
  Na  Na6  1  0.376424  0.112121  0.466743  1
  Na  Na7  1  0.430076  0.569851  0.146694  1
  Na  Na8  1  0.500000  0.500000  0.500000  1
  Na  Na9  1  0.569924  0.430149  0.853306  1
  Na  Na10  1  0.623576  0.887879  0.533257  1
  Na  Na11  1  0.720319  0.302421  0.590317  1
  Na  Na12  1  0.893576  0.619493  0.985333  1
  Na  Na13  1  0.828853  0.693347  0.623403  1
  Na  Na14  1  0.810649  0.805884  0.325924  1
  Na  Na15  1  0.982537  0.550094  0.321080  1
  Bi  Bi16  1  0.139715  0.849412  0.710700  1
  Bi  Bi17  1  0.202294  0.773085  0.081021  1
  Bi  Bi18  1  0.341613  0.603228  0.768072  1
  Bi  Bi19  1  0.319118  0.189658  0.111008  1
  Bi  Bi20  1  0.467721  0.037307  0.809725  1
  Bi  Bi21  1  0.532279  0.962693  0.190275  1
  Bi  Bi22  1  0.680882  0.810342  0.888992  1
  Bi  Bi23  1  0.658387  0.396772  0.231928  1
  Bi  Bi24  1  0.797706  0.226915  0.918979  1
  Bi  Bi25  1  0.860285  0.150588  0.289300  1
  O  O26  1  0.975111  0.798205  0.526180  1
  O  O27  1  0.046105  0.747179  0.846878  1
  O  O28  1  0.168210  0.615907  0.577530  1
  O  O29  1  0.230597  0.536893  0.913909  1
  O  O30  1  0.097725  0.654161  0.179368  1
  O  O31  1  0.152627  0.106505  0.883732  1
  O  O32  1  0.278944  0.964337  0.621859  1
  O  O33  1  0.321365  0.928560  0.941395  1
  O  O34  1  0.351735  0.367696  0.626668  1
  O  O35  1  0.211265  0.055396  0.204223  1
  O  O36  1  0.300480  0.417690  0.247331  1
  O  O37  1  0.557168  0.710309  0.994886  1
  O  O38  1  0.508466  0.779722  0.692076  1
  O  O39  1  0.406452  0.841261  0.287764  1
  O  O40  1  0.593548  0.158739  0.712236  1
  O  O41  1  0.491534  0.220278  0.307924  1
  O  O42  1  0.442832  0.289691  0.005114  1
  O  O43  1  0.699520  0.582310  0.752670  1
  O  O44  1  0.788735  0.944604  0.795777  1
  O  O45  1  0.648265  0.632304  0.373332  1
  O  O46  1  0.678635  0.071440  0.058605  1
  O  O47  1  0.721056  0.035663  0.378141  1
  O  O48  1  0.847373  0.893495  0.116268  1
  O  O49  1  0.902275  0.345839  0.820632  1
  O  O50  1  0.769403  0.463107  0.086091  1
  O  O51  1  0.831790  0.384093  0.422470  1
  O  O52  1  0.953895  0.252821  0.153122  1
  O  O53  1  0.024889  0.201795  0.473820  1
