# generated using pymatgen
data_Li3Cr2(CoO4)2
_symmetry_space_group_name_H-M   'P 1'
_cell_length_a   5.76103335
_cell_length_b   5.81999829
_cell_length_c   5.79294020
_cell_angle_alpha   59.48668455
_cell_angle_beta   60.51001082
_cell_angle_gamma   90.28081579
_symmetry_Int_Tables_number   1
_chemical_formula_structural   Li3Cr2(CoO4)2
_chemical_formula_sum   'Li3 Cr2 Co2 O8'
_cell_volume   136.98516853
_cell_formula_units_Z   1
loop_
 _symmetry_equiv_pos_site_id
 _symmetry_equiv_pos_as_xyz
  1  'x, y, z'
loop_
 _atom_site_type_symbol
 _atom_site_label
 _atom_site_symmetry_multiplicity
 _atom_site_fract_x
 _atom_site_fract_y
 _atom_site_fract_z
 _atom_site_occupancy
  Li  Li0  1  0.000000  0.500000  0.000000  1
  Li  Li1  1  0.500000  0.500000  0.500000  1
  Li  Li2  1  0.500000  0.000000  0.500000  1
  Cr  Cr3  1  0.000000  0.000000  0.000000  1
  Cr  Cr4  1  0.000000  0.000000  0.500000  1
  Co  Co5  1  0.000000  0.500000  0.500000  1
  Co  Co6  1  0.500000  0.000000  0.000000  1
  O  O7  1  0.240984  0.218035  0.008132  1
  O  O8  1  0.244416  0.755680  0.477650  1
  O  O9  1  0.217850  0.240891  0.533125  1
  O  O10  1  0.761294  0.238873  0.976904  1
  O  O11  1  0.238706  0.761127  0.023096  1
  O  O12  1  0.782150  0.759109  0.466875  1
  O  O13  1  0.755584  0.244320  0.522350  1
  O  O14  1  0.759016  0.781965  0.991868  1
