# generated using pymatgen
data_B5H7
_symmetry_space_group_name_H-M   'P 1'
_cell_length_a   12.46380596
_cell_length_b   12.47392009
_cell_length_c   5.63607924
_cell_angle_alpha   90.00000000
_cell_angle_beta   90.00000000
_cell_angle_gamma   70.06020432
_symmetry_Int_Tables_number   1
_chemical_formula_structural   B5H7
_chemical_formula_sum   'B40 H56'
_cell_volume   823.72522694
_cell_formula_units_Z   8
loop_
 _symmetry_equiv_pos_site_id
 _symmetry_equiv_pos_as_xyz
  1  'x, y, z'
loop_
 _atom_site_type_symbol
 _atom_site_label
 _atom_site_symmetry_multiplicity
 _atom_site_fract_x
 _atom_site_fract_y
 _atom_site_fract_z
 _atom_site_occupancy
  B  B0  1  0.135457  0.201861  0.999696  1
  B  B1  1  0.864543  0.798139  0.000304  1
  B  B2  1  0.635457  0.701861  0.000304  1
  B  B3  1  0.364543  0.298139  0.999696  1
  B  B4  1  0.796970  0.365526  0.495163  1
  B  B5  1  0.203030  0.634474  0.504837  1
  B  B6  1  0.296970  0.865526  0.504837  1
  B  B7  1  0.703030  0.134474  0.495163  1
  B  B8  1  0.202325  0.397486  0.000768  1
  B  B9  1  0.797675  0.602514  0.999232  1
  B  B10  1  0.702325  0.897486  0.999232  1
  B  B11  1  0.297675  0.102514  0.000768  1
  B  B12  1  0.602766  0.296248  0.496071  1
  B  B13  1  0.397234  0.703752  0.503929  1
  B  B14  1  0.102766  0.796248  0.503929  1
  B  B15  1  0.897234  0.203752  0.496071  1
  B  B16  1  0.127385  0.324993  0.172805  1
  B  B17  1  0.872615  0.675007  0.827195  1
  B  B18  1  0.627385  0.824993  0.827195  1
  B  B19  1  0.372615  0.175007  0.172805  1
  B  B20  1  0.673911  0.372202  0.323294  1
  B  B21  1  0.326089  0.627798  0.676706  1
  B  B22  1  0.173911  0.872202  0.676706  1
  B  B23  1  0.826089  0.127798  0.323294  1
  B  B24  1  0.271107  0.311164  0.239018  1
  B  B25  1  0.728893  0.688836  0.760982  1
  B  B26  1  0.771107  0.811164  0.760982  1
  B  B27  1  0.228893  0.188836  0.239018  1
  B  B28  1  0.689068  0.228414  0.257001  1
  B  B29  1  0.310932  0.771586  0.742999  1
  B  B30  1  0.189068  0.728414  0.742999  1
  B  B31  1  0.810932  0.271586  0.257001  1
  B  B32  1  0.103244  0.339878  0.870355  1
  B  B33  1  0.896756  0.660122  0.129645  1
  B  B34  1  0.603244  0.839878  0.129645  1
  B  B35  1  0.396756  0.160122  0.870355  1
  B  B36  1  0.659137  0.396377  0.625667  1
  B  B37  1  0.340863  0.603623  0.374333  1
  B  B38  1  0.159137  0.896377  0.374333  1
  B  B39  1  0.840863  0.103623  0.625667  1
  H  H40  1  0.066717  0.155187  0.992881  1
  H  H41  1  0.933283  0.844813  0.007119  1
  H  H42  1  0.566717  0.655187  0.007119  1
  H  H43  1  0.433283  0.344813  0.992881  1
  H  H44  1  0.843014  0.434691  0.500039  1
  H  H45  1  0.156986  0.565309  0.499961  1
  H  H46  1  0.343014  0.934691  0.499961  1
  H  H47  1  0.656986  0.065309  0.500039  1
  H  H48  1  0.052672  0.370764  0.307992  1
  H  H49  1  0.947328  0.629236  0.692008  1
  H  H50  1  0.552672  0.870764  0.692008  1
  H  H51  1  0.447328  0.129236  0.307992  1
  H  H52  1  0.627585  0.446249  0.187297  1
  H  H53  1  0.372415  0.553751  0.812703  1
  H  H54  1  0.127585  0.946249  0.812703  1
  H  H55  1  0.872415  0.053751  0.187297  1
  H  H56  1  0.020011  0.390992  0.762716  1
  H  H57  1  0.979989  0.609008  0.237284  1
  H  H58  1  0.520011  0.890992  0.237284  1
  H  H59  1  0.479989  0.109008  0.762716  1
  H  H60  1  0.607597  0.479118  0.735107  1
  H  H61  1  0.392403  0.520882  0.264893  1
  H  H62  1  0.107597  0.979118  0.264893  1
  H  H63  1  0.892403  0.020882  0.735107  1
  H  H64  1  0.183249  0.497686  0.994364  1
  H  H65  1  0.816751  0.502314  0.005636  1
  H  H66  1  0.683249  0.997686  0.005636  1
  H  H67  1  0.316751  0.002314  0.994364  1
  H  H68  1  0.502649  0.314280  0.502072  1
  H  H69  1  0.497351  0.685720  0.497928  1
  H  H70  1  0.002649  0.814280  0.497928  1
  H  H71  1  0.997351  0.185720  0.502072  1
  H  H72  1  0.288727  0.361718  0.405990  1
  H  H73  1  0.711273  0.638282  0.594010  1
  H  H74  1  0.788727  0.861718  0.594010  1
  H  H75  1  0.211273  0.138282  0.405990  1
  H  H76  1  0.638717  0.210245  0.090023  1
  H  H77  1  0.361283  0.789756  0.909977  1
  H  H78  1  0.138717  0.710244  0.909977  1
  H  H79  1  0.861283  0.289755  0.090023  1
  H  H80  1  0.144358  0.233872  0.778101  1
  H  H81  1  0.855642  0.766128  0.221899  1
  H  H82  1  0.644358  0.733872  0.221899  1
  H  H83  1  0.355642  0.266128  0.778101  1
  H  H84  1  0.765373  0.357682  0.717540  1
  H  H85  1  0.234627  0.642318  0.282460  1
  H  H86  1  0.265373  0.857682  0.282460  1
  H  H87  1  0.734627  0.142318  0.717540  1
  H  H88  1  0.189391  0.369097  0.778256  1
  H  H89  1  0.810609  0.630903  0.221744  1
  H  H90  1  0.689391  0.869097  0.221744  1
  H  H91  1  0.310609  0.130903  0.778256  1
  H  H92  1  0.632201  0.308869  0.717885  1
  H  H93  1  0.367799  0.691131  0.282115  1
  H  H94  1  0.132201  0.808869  0.282115  1
  H  H95  1  0.867799  0.191131  0.717885  1
