# generated using pymatgen
data_Li3MnNb4O12
_symmetry_space_group_name_H-M   'P 1'
_cell_length_a   5.62465704
_cell_length_b   11.24856505
_cell_length_c   9.92734337
_cell_angle_alpha   28.01370217
_cell_angle_beta   50.71502313
_cell_angle_gamma   55.95681882
_symmetry_Int_Tables_number   1
_chemical_formula_structural   Li3MnNb4O12
_chemical_formula_sum   'Li3 Mn1 Nb4 O12'
_cell_volume   228.33586626
_cell_formula_units_Z   1
loop_
 _symmetry_equiv_pos_site_id
 _symmetry_equiv_pos_as_xyz
  1  'x, y, z'
loop_
 _atom_site_type_symbol
 _atom_site_label
 _atom_site_symmetry_multiplicity
 _atom_site_fract_x
 _atom_site_fract_y
 _atom_site_fract_z
 _atom_site_occupancy
  Li  Li0  1  0.278158  0.500436  0.283859  1
  Li  Li1  1  0.784857  0.000059  0.785144  1
  Li  Li2  1  0.781911  0.500787  0.780105  1
  Mn  Mn3  1  0.283516  0.997565  0.282214  1
  Nb  Nb4  1  0.014837  0.006127  0.986904  1
  Nb  Nb5  1  0.981137  0.498000  0.004885  1
  Nb  Nb6  1  0.486407  0.999729  0.500742  1
  Nb  Nb7  1  0.510779  0.502228  0.489147  1
  O  O8  1  0.355145  0.302235  0.120040  1
  O  O9  1  0.226182  0.123416  0.616468  1
  O  O10  1  0.115224  0.318746  0.724419  1
  O  O11  1  0.859562  0.195295  0.225339  1
  O  O12  1  0.362200  0.803916  0.117850  1
  O  O13  1  0.723844  0.375777  0.364731  1
  O  O14  1  0.226587  0.617562  0.619575  1
  O  O15  1  0.616254  0.179463  0.860803  1
  O  O16  1  0.118001  0.814849  0.728225  1
  O  O17  1  0.858827  0.695914  0.226417  1
  O  O18  1  0.727589  0.882228  0.354380  1
  O  O19  1  0.618580  0.685668  0.858353  1
