# generated using pymatgen
data_FeOF
_symmetry_space_group_name_H-M   'P 1'
_cell_length_a   4.77800882
_cell_length_b   4.77800882
_cell_length_c   12.21737069
_cell_angle_alpha   90.00356411
_cell_angle_beta   90.00356411
_cell_angle_gamma   89.95269718
_symmetry_Int_Tables_number   1
_chemical_formula_structural   FeOF
_chemical_formula_sum   'Fe8 O8 F8'
_cell_volume   278.91475817
_cell_formula_units_Z   8
loop_
 _symmetry_equiv_pos_site_id
 _symmetry_equiv_pos_as_xyz
  1  'x, y, z'
loop_
 _atom_site_type_symbol
 _atom_site_label
 _atom_site_symmetry_multiplicity
 _atom_site_fract_x
 _atom_site_fract_y
 _atom_site_fract_z
 _atom_site_occupancy
  Fe  Fe0  1  0.964889  0.962771  -0.000036  1
  Fe  Fe1  1  0.037229  0.035111  0.250036  1
  Fe  Fe2  1  0.981784  0.943036  0.499840  1
  Fe  Fe3  1  0.056964  0.018216  0.750160  1
  Fe  Fe4  1  0.538439  0.461561  0.125000  1
  Fe  Fe5  1  0.480506  0.519494  0.625000  1
  Fe  Fe6  1  0.471677  0.529250  0.876015  1
  Fe  Fe7  1  0.470750  0.528323  0.373985  1
  O  O8  1  0.183712  0.812917  0.371870  1
  O  O9  1  0.191518  0.808482  0.625000  1
  O  O10  1  0.187083  0.816288  0.878131  1
  O  O11  1  0.324331  0.316194  0.249640  1
  O  O12  1  0.319783  0.322314  0.750710  1
  O  O13  1  0.683806  0.675669  0.000360  1
  O  O14  1  0.677686  0.680217  0.499290  1
  O  O15  1  0.822912  0.177088  0.125000  1
  F  F16  1  0.205202  0.794798  0.125000  1
  F  F17  1  0.300638  0.292955  0.000302  1
  F  F18  1  0.287862  0.300433  0.499595  1
  F  F19  1  0.707045  0.699362  0.249698  1
  F  F20  1  0.699567  0.712138  0.750405  1
  F  F21  1  0.801241  0.198710  0.376700  1
  F  F22  1  0.804083  0.195917  0.625000  1
  F  F23  1  0.801290  0.198759  0.873300  1
