# generated using pymatgen
data_Na5(NiO2)9
_symmetry_space_group_name_H-M   'P 1'
_cell_length_a   5.73790250
_cell_length_b   8.59253569
_cell_length_c   7.47882631
_cell_angle_alpha   100.52895329
_cell_angle_beta   84.56305055
_cell_angle_gamma   74.49060303
_symmetry_Int_Tables_number   1
_chemical_formula_structural   Na5(NiO2)9
_chemical_formula_sum   'Na5 Ni9 O18'
_cell_volume   345.28349541
_cell_formula_units_Z   1
loop_
 _symmetry_equiv_pos_site_id
 _symmetry_equiv_pos_as_xyz
  1  'x, y, z'
loop_
 _atom_site_type_symbol
 _atom_site_label
 _atom_site_symmetry_multiplicity
 _atom_site_fract_x
 _atom_site_fract_y
 _atom_site_fract_z
 _atom_site_occupancy
  Na  Na0  1  0.995610  0.207494  0.339876  1
  Na  Na1  1  0.999956  0.333400  0.000045  1
  Na  Na2  1  0.004368  0.459181  0.660148  1
  Na  Na3  1  0.996508  0.816128  0.704866  1
  Na  Na4  1  0.003568  0.850484  0.295101  1
  Ni  Ni5  1  0.498596  0.059065  0.832613  1
  Ni  Ni6  1  0.493592  0.166941  0.499427  1
  Ni  Ni7  1  0.497694  0.274197  0.167592  1
  Ni  Ni8  1  0.502316  0.392454  0.832369  1
  Ni  Ni9  1  0.506379  0.499732  0.500589  1
  Ni  Ni10  1  0.501398  0.607609  0.167403  1
  Ni  Ni11  1  0.505638  0.725363  0.834353  1
  Ni  Ni12  1  0.500005  0.833302  0.499992  1
  Ni  Ni13  1  0.494395  0.941306  0.165639  1
  O  O14  1  0.304215  0.998327  0.399704  1
  O  O15  1  0.672948  0.088962  0.255629  1
  O  O16  1  0.315948  0.128776  0.085147  1
  O  O17  1  0.312839  0.259352  0.740476  1
  O  O18  1  0.678407  0.217356  0.928216  1
  O  O19  1  0.310174  0.337782  0.402985  1
  O  O20  1  0.689817  0.328897  0.596983  1
  O  O21  1  0.321523  0.449127  0.071679  1
  O  O22  1  0.327039  0.577746  0.744390  1
  O  O23  1  0.687178  0.407286  0.259491  1
  O  O24  1  0.684120  0.537853  0.914658  1
  O  O25  1  0.321914  0.685417  0.423577  1
  O  O26  1  0.695788  0.668305  0.600286  1
  O  O27  1  0.317999  0.803566  0.066147  1
  O  O28  1  0.672238  0.768821  0.261473  1
  O  O29  1  0.327858  0.898015  0.738634  1
  O  O30  1  0.682012  0.863126  0.933833  1
  O  O31  1  0.677961  0.981298  0.576679  1
