# generated using pymatgen
data_Li3Co2(SiO4)2
_symmetry_space_group_name_H-M   'P 1'
_cell_length_a   10.73188819
_cell_length_b   5.10845635
_cell_length_c   6.40827893
_cell_angle_alpha   90.00000000
_cell_angle_beta   90.04180534
_cell_angle_gamma   90.00000000
_symmetry_Int_Tables_number   1
_chemical_formula_structural   Li3Co2(SiO4)2
_chemical_formula_sum   'Li6 Co4 Si4 O16'
_cell_volume   351.32343267
_cell_formula_units_Z   2
loop_
 _symmetry_equiv_pos_site_id
 _symmetry_equiv_pos_as_xyz
  1  'x, y, z'
loop_
 _atom_site_type_symbol
 _atom_site_label
 _atom_site_symmetry_multiplicity
 _atom_site_fract_x
 _atom_site_fract_y
 _atom_site_fract_z
 _atom_site_occupancy
  Li  Li0  1  0.094177  0.699143  0.872877  1
  Li  Li1  1  0.327510  0.697452  0.614316  1
  Li  Li2  1  0.407911  0.193969  0.367382  1
  Li  Li3  1  0.594177  0.800857  0.872877  1
  Li  Li4  1  0.827510  0.802548  0.614316  1
  Li  Li5  1  0.907911  0.306031  0.367382  1
  Co  Co6  1  0.090995  0.689048  0.359081  1
  Co  Co7  1  0.412259  0.188090  0.867748  1
  Co  Co8  1  0.590995  0.810952  0.359081  1
  Co  Co9  1  0.912259  0.311910  0.867748  1
  Si  Si10  1  0.156921  0.185678  0.618470  1
  Si  Si11  1  0.338993  0.688099  0.116976  1
  Si  Si12  1  0.656921  0.314322  0.618470  1
  Si  Si13  1  0.838993  0.811901  0.116976  1
  O  O14  1  0.088695  0.308191  0.415732  1
  O  O15  1  0.082030  0.295490  0.828109  1
  O  O16  1  0.157260  0.864286  0.616039  1
  O  O17  1  0.191707  0.753582  0.114447  1
  O  O18  1  0.306038  0.288348  0.639016  1
  O  O19  1  0.365016  0.368531  0.103304  1
  O  O20  1  0.404578  0.792896  0.333395  1
  O  O21  1  0.403231  0.814338  0.899169  1
  O  O22  1  0.588695  0.191809  0.415732  1
  O  O23  1  0.582030  0.204510  0.828109  1
  O  O24  1  0.657260  0.635714  0.616039  1
  O  O25  1  0.691707  0.746418  0.114447  1
  O  O26  1  0.806038  0.211652  0.639016  1
  O  O27  1  0.865016  0.131469  0.103304  1
  O  O28  1  0.904578  0.707104  0.333395  1
  O  O29  1  0.903231  0.685662  0.899169  1
