# generated using pymatgen
data_TiFe(PO4)2
_symmetry_space_group_name_H-M   'P 1'
_cell_length_a   8.52223964
_cell_length_b   8.70560500
_cell_length_c   8.70560449
_cell_angle_alpha   60.00000134
_cell_angle_beta   59.28566658
_cell_angle_gamma   59.28566468
_symmetry_Int_Tables_number   1
_chemical_formula_structural   TiFe(PO4)2
_chemical_formula_sum   'Ti3 Fe3 P6 O24'
_cell_volume   451.71251133
_cell_formula_units_Z   3
loop_
 _symmetry_equiv_pos_site_id
 _symmetry_equiv_pos_as_xyz
  1  'x, y, z'
loop_
 _atom_site_type_symbol
 _atom_site_label
 _atom_site_symmetry_multiplicity
 _atom_site_fract_x
 _atom_site_fract_y
 _atom_site_fract_z
 _atom_site_occupancy
  Ti  Ti0  1  0.070437  0.643188  0.643188  1
  Ti  Ti1  1  0.424040  0.858654  0.858654  1
  Ti  Ti2  1  0.932236  0.355921  0.355921  1
  Fe  Fe3  1  0.990016  0.003328  0.003328  1
  Fe  Fe4  1  0.573693  0.142103  0.142103  1
  Fe  Fe5  1  0.496601  0.501133  0.501133  1
  P  P6  1  0.254878  0.246870  0.542144  1
  P  P7  1  0.254878  0.956107  0.246870  1
  P  P8  1  0.254878  0.542144  0.956107  1
  P  P9  1  0.749464  0.459105  0.043450  1
  P  P10  1  0.749464  0.043450  0.747981  1
  P  P11  1  0.749464  0.747981  0.459105  1
  O  O12  1  0.070399  0.120219  0.313356  1
  O  O13  1  0.070399  0.496026  0.120219  1
  O  O14  1  0.070399  0.313356  0.496026  1
  O  O15  1  0.224033  0.091129  0.741504  1
  O  O16  1  0.439122  0.183148  0.390420  1
  O  O17  1  0.265361  0.408456  0.566370  1
  O  O18  1  0.224033  0.943334  0.091129  1
  O  O19  1  0.265361  0.759813  0.408456  1
  O  O20  1  0.565447  0.620202  0.998934  1
  O  O21  1  0.265361  0.566370  0.759813  1
  O  O22  1  0.780273  0.266227  0.051542  1
  O  O23  1  0.565447  0.998934  0.815417  1
  O  O24  1  0.439122  0.987310  0.183148  1
  O  O25  1  0.224033  0.741504  0.943334  1
  O  O26  1  0.725952  0.448054  0.238745  1
  O  O27  1  0.439122  0.390420  0.987310  1
  O  O28  1  0.725952  0.238745  0.587250  1
  O  O29  1  0.780273  0.051542  0.901957  1
  O  O30  1  0.725952  0.587250  0.448054  1
  O  O31  1  0.565447  0.815417  0.620202  1
  O  O32  1  0.780273  0.901957  0.266227  1
  O  O33  1  0.929397  0.670523  0.513724  1
  O  O34  1  0.929397  0.513724  0.886356  1
  O  O35  1  0.929397  0.886356  0.670523  1
