# generated using pymatgen
data_Li2MnP4H3O14
_symmetry_space_group_name_H-M   'P 1'
_cell_length_a   4.87236841
_cell_length_b   7.60824686
_cell_length_c   16.45327699
_cell_angle_alpha   90.00000000
_cell_angle_beta   99.27531394
_cell_angle_gamma   90.00000000
_symmetry_Int_Tables_number   1
_chemical_formula_structural   Li2MnP4H3O14
_chemical_formula_sum   'Li4 Mn2 P8 H6 O28'
_cell_volume   601.95133938
_cell_formula_units_Z   2
loop_
 _symmetry_equiv_pos_site_id
 _symmetry_equiv_pos_as_xyz
  1  'x, y, z'
loop_
 _atom_site_type_symbol
 _atom_site_label
 _atom_site_symmetry_multiplicity
 _atom_site_fract_x
 _atom_site_fract_y
 _atom_site_fract_z
 _atom_site_occupancy
  Li  Li0  1  0.939624  0.133783  0.152412  1
  Li  Li1  1  0.560376  0.633783  0.347588  1
  Li  Li2  1  0.439624  0.366217  0.652412  1
  Li  Li3  1  0.060376  0.866217  0.847588  1
  Mn  Mn4  1  0.000000  0.500000  0.000000  1
  Mn  Mn5  1  0.500000  0.000000  0.500000  1
  P  P6  1  0.030610  0.767733  0.554210  1
  P  P7  1  0.147969  0.465664  0.799108  1
  P  P8  1  0.352031  0.965664  0.700892  1
  P  P9  1  0.469390  0.267733  0.945790  1
  P  P10  1  0.530610  0.732267  0.054210  1
  P  P11  1  0.647969  0.034336  0.299108  1
  P  P12  1  0.852031  0.534336  0.200892  1
  P  P13  1  0.969390  0.232267  0.445790  1
  H  H14  1  0.065235  0.160436  0.754276  1
  H  H15  1  0.000000  0.500000  0.500000  1
  H  H16  1  0.434765  0.660436  0.745724  1
  H  H17  1  0.565235  0.339564  0.254276  1
  H  H18  1  0.500000  0.000000  0.000000  1
  H  H19  1  0.934765  0.839564  0.245724  1
  O  O20  1  0.046401  0.607590  0.851504  1
  O  O21  1  0.117605  0.851119  0.641968  1
  O  O22  1  0.107472  0.571855  0.562020  1
  O  O23  1  0.057020  0.664426  0.246114  1
  O  O24  1  0.332299  0.537565  0.735725  1
  O  O25  1  0.167701  0.037565  0.764275  1
  O  O26  1  0.174199  0.859443  0.489268  1
  O  O27  1  0.392528  0.071855  0.937980  1
  O  O28  1  0.382395  0.351119  0.858032  1
  O  O29  1  0.286759  0.211659  0.467811  1
  O  O30  1  0.557020  0.835574  0.746114  1
  O  O31  1  0.213241  0.711659  0.032189  1
  O  O32  1  0.453599  0.107590  0.648496  1
  O  O33  1  0.674199  0.640557  0.989268  1
  O  O34  1  0.325801  0.359443  0.010732  1
  O  O35  1  0.546401  0.892410  0.351504  1
  O  O36  1  0.786759  0.288341  0.967811  1
  O  O37  1  0.442980  0.164426  0.253886  1
  O  O38  1  0.713241  0.788341  0.532189  1
  O  O39  1  0.617605  0.648881  0.141968  1
  O  O40  1  0.607472  0.928145  0.062020  1
  O  O41  1  0.825801  0.140557  0.510732  1
  O  O42  1  0.832299  0.962435  0.235725  1
  O  O43  1  0.667701  0.462435  0.264275  1
  O  O44  1  0.942980  0.335574  0.753886  1
  O  O45  1  0.892528  0.428145  0.437980  1
  O  O46  1  0.882395  0.148881  0.358032  1
  O  O47  1  0.953599  0.392410  0.148496  1
