# generated using pymatgen
data_Li2CrPO4F
_symmetry_space_group_name_H-M   'P 1'
_cell_length_a   5.33807465
_cell_length_b   5.48737500
_cell_length_c   7.87732624
_cell_angle_alpha   70.12437206
_cell_angle_beta   71.94585702
_cell_angle_gamma   94.87197826
_symmetry_Int_Tables_number   1
_chemical_formula_structural   Li2CrPO4F
_chemical_formula_sum   'Li4 Cr2 P2 O8 F2'
_cell_volume   201.58732652
_cell_formula_units_Z   2
loop_
 _symmetry_equiv_pos_site_id
 _symmetry_equiv_pos_as_xyz
  1  'x, y, z'
loop_
 _atom_site_type_symbol
 _atom_site_label
 _atom_site_symmetry_multiplicity
 _atom_site_fract_x
 _atom_site_fract_y
 _atom_site_fract_z
 _atom_site_occupancy
  Li  Li0  1  0.235422  0.576243  0.854747  1
  Li  Li1  1  0.505042  0.071168  0.511940  1
  Li  Li2  1  0.700400  0.684975  0.384709  1
  Li  Li3  1  0.713500  0.377534  0.129164  1
  Cr  Cr4  1  0.009339  0.000032  0.987428  1
  Cr  Cr5  1  0.008865  0.000839  0.502830  1
  P  P6  1  0.327683  0.629098  0.242764  1
  P  P7  1  0.672277  0.368696  0.758172  1
  O  O8  1  0.123129  0.656475  0.135848  1
  O  O9  1  0.268764  0.762454  0.389545  1
  O  O10  1  0.325627  0.327664  0.344661  1
  O  O11  1  0.628411  0.736565  0.102014  1
  O  O12  1  0.379727  0.254735  0.905489  1
  O  O13  1  0.685492  0.669979  0.648093  1
  O  O14  1  0.741555  0.242931  0.605477  1
  O  O15  1  0.870544  0.340500  0.871078  1
  F  F16  1  0.189355  0.903895  0.725510  1
  F  F17  1  0.796023  0.073207  0.288494  1
