# generated using pymatgen
data_Na3V5O10
_symmetry_space_group_name_H-M   'P 1'
_cell_length_a   5.09543908
_cell_length_b   6.59713473
_cell_length_c   7.24786908
_cell_angle_alpha   108.80090034
_cell_angle_beta   97.29845977
_cell_angle_gamma   104.42814398
_symmetry_Int_Tables_number   1
_chemical_formula_structural   Na3V5O10
_chemical_formula_sum   'Na3 V5 O10'
_cell_volume   217.57826295
_cell_formula_units_Z   1
loop_
 _symmetry_equiv_pos_site_id
 _symmetry_equiv_pos_as_xyz
  1  'x, y, z'
loop_
 _atom_site_type_symbol
 _atom_site_label
 _atom_site_symmetry_multiplicity
 _atom_site_fract_x
 _atom_site_fract_y
 _atom_site_fract_z
 _atom_site_occupancy
  Na  Na0  1  0.796438  0.095523  0.597660  1
  Na  Na1  1  0.600000  0.700000  0.200000  1
  Na  Na2  1  0.403562  0.304477  0.802340  1
  V  V3  1  0.813257  0.600950  0.605158  1
  V  V4  1  0.600000  0.200000  0.200000  1
  V  V5  1  0.386743  0.799050  0.794843  1
  V  V6  1  0.200675  0.404466  0.395174  1
  V  V7  1  0.999325  0.995534  0.004826  1
  O  O8  1  0.889913  0.088472  0.277913  1
  O  O9  1  0.685128  0.109572  0.923442  1
  O  O10  1  0.697907  0.687561  0.873805  1
  O  O11  1  0.880435  0.509507  0.327128  1
  O  O12  1  0.514872  0.290428  0.476558  1
  O  O13  1  0.502093  0.712439  0.526195  1
  O  O14  1  0.319565  0.890493  0.072872  1
  O  O15  1  0.103990  0.478314  0.672721  1
  O  O16  1  0.310087  0.311528  0.122087  1
  O  O17  1  0.096010  0.921686  0.727279  1
