# generated using pymatgen
data_Ca2YFe4SbO12
_symmetry_space_group_name_H-M   'P 1'
_cell_length_a   10.98281409
_cell_length_b   11.01475487
_cell_length_c   10.97387242
_cell_angle_alpha   109.55242685
_cell_angle_beta   109.38311396
_cell_angle_gamma   109.48496994
_symmetry_Int_Tables_number   1
_chemical_formula_structural   Ca2YFe4SbO12
_chemical_formula_sum   'Ca8 Y4 Fe16 Sb4 O48'
_cell_volume   1021.85447296
_cell_formula_units_Z   4
loop_
 _symmetry_equiv_pos_site_id
 _symmetry_equiv_pos_as_xyz
  1  'x, y, z'
loop_
 _atom_site_type_symbol
 _atom_site_label
 _atom_site_symmetry_multiplicity
 _atom_site_fract_x
 _atom_site_fract_y
 _atom_site_fract_z
 _atom_site_occupancy
  Ca  Ca0  1  0.257917  0.879831  0.629744  1
  Ca  Ca1  1  0.134282  0.373861  0.755029  1
  Ca  Ca2  1  0.120587  0.241793  0.365891  1
  Ca  Ca3  1  0.248156  0.368828  0.119198  1
  Ca  Ca4  1  0.751844  0.631172  0.880802  1
  Ca  Ca5  1  0.879413  0.758207  0.634109  1
  Ca  Ca6  1  0.865718  0.626139  0.244971  1
  Ca  Ca7  1  0.742083  0.120169  0.370256  1
  Y  Y8  1  0.386540  0.754716  0.124522  1
  Y  Y9  1  0.628973  0.883845  0.759454  1
  Y  Y10  1  0.613460  0.245284  0.875478  1
  Y  Y11  1  0.371027  0.116155  0.240546  1
  Fe  Fe12  1  0.124382  0.754843  0.878065  1
  Fe  Fe13  1  0.126571  0.875598  0.249200  1
  Fe  Fe14  1  0.255318  0.128824  0.879357  1
  Fe  Fe15  1  0.374920  0.628538  0.755611  1
  Fe  Fe16  1  0.255624  0.629868  0.378999  1
  Fe  Fe17  1  0.000000  0.000000  0.000000  1
  Fe  Fe18  1  0.500000  0.000000  0.500000  1
  Fe  Fe19  1  0.376269  0.249105  0.625430  1
  Fe  Fe20  1  0.623731  0.750895  0.374570  1
  Fe  Fe21  1  0.500000  0.500000  0.000000  1
  Fe  Fe22  1  0.625080  0.371462  0.244389  1
  Fe  Fe23  1  0.744682  0.871176  0.120643  1
  Fe  Fe24  1  0.744376  0.370132  0.621001  1
  Fe  Fe25  1  0.500000  0.000000  0.000000  1
  Fe  Fe26  1  0.873429  0.124402  0.750800  1
  Fe  Fe27  1  0.875618  0.245157  0.121935  1
  Sb  Sb28  1  0.000000  0.000000  0.500000  1
  Sb  Sb29  1  0.000000  0.500000  0.500000  1
  Sb  Sb30  1  0.500000  0.500000  0.500000  1
  Sb  Sb31  1  0.000000  0.500000  0.000000  1
  O  O32  1  0.096447  0.978610  0.676819  1
  O  O33  1  0.123404  0.600885  0.925919  1
  O  O34  1  0.023312  0.325901  0.903936  1
  O  O35  1  0.081958  0.699450  0.676726  1
  O  O36  1  0.080924  0.881757  0.404056  1
  O  O37  1  0.096144  0.617169  0.418097  1
  O  O38  1  0.176481  0.478069  0.596346  1
  O  O39  1  0.426017  0.824433  0.799640  1
  O  O40  1  0.298297  0.322442  0.918910  1
  O  O41  1  0.377958  0.587439  0.908968  1
  O  O42  1  0.175593  0.198629  0.578279  1
  O  O43  1  0.323235  0.919111  0.292972  1
  O  O44  1  0.025006  0.202185  0.120568  1
  O  O45  1  0.201305  0.584232  0.176781  1
  O  O46  1  0.409071  0.822715  0.529212  1
  O  O47  1  0.302807  0.478221  0.381301  1
  O  O48  1  0.323285  0.903298  0.030195  1
  O  O49  1  0.127875  0.025927  0.204071  1
  O  O50  1  0.522728  0.622244  0.698374  1
  O  O51  1  0.408924  0.084919  0.879042  1
  O  O52  1  0.525151  0.399215  0.821173  1
  O  O53  1  0.381456  0.299543  0.473978  1
  O  O54  1  0.575387  0.899521  0.373442  1
  O  O55  1  0.209637  0.119352  0.029751  1
  O  O56  1  0.790363  0.880648  0.970249  1
  O  O57  1  0.424613  0.100479  0.626558  1
  O  O58  1  0.618544  0.700457  0.526022  1
  O  O59  1  0.474849  0.600785  0.178827  1
  O  O60  1  0.591076  0.915081  0.120958  1
  O  O61  1  0.477272  0.377756  0.301626  1
  O  O62  1  0.872125  0.974073  0.795929  1
  O  O63  1  0.676715  0.096702  0.969805  1
  O  O64  1  0.697193  0.521779  0.618699  1
  O  O65  1  0.590929  0.177285  0.470788  1
  O  O66  1  0.798695  0.415768  0.823219  1
  O  O67  1  0.974994  0.797815  0.879432  1
  O  O68  1  0.676765  0.080889  0.707028  1
  O  O69  1  0.824407  0.801371  0.421721  1
  O  O70  1  0.622042  0.412561  0.091033  1
  O  O71  1  0.701703  0.677558  0.081090  1
  O  O72  1  0.573983  0.175567  0.200360  1
  O  O73  1  0.823519  0.521931  0.403654  1
  O  O74  1  0.903856  0.382831  0.581903  1
  O  O75  1  0.919076  0.118243  0.595944  1
  O  O76  1  0.918042  0.300550  0.323274  1
  O  O77  1  0.976688  0.674099  0.096064  1
  O  O78  1  0.876596  0.399115  0.074081  1
  O  O79  1  0.903553  0.021390  0.323181  1
