# generated using pymatgen
data_CrCo3H24C6(N10O11)3
_symmetry_space_group_name_H-M   'P 1'
_cell_length_a   15.20516138
_cell_length_b   15.20516138
_cell_length_c   15.20516162
_cell_angle_alpha   111.76197794
_cell_angle_beta   111.76197792
_cell_angle_gamma   111.76197630
_symmetry_Int_Tables_number   1
_chemical_formula_structural   CrCo3H24C6(N10O11)3
_chemical_formula_sum   'Cr2 Co6 H48 C12 N60 O66'
_cell_volume   2449.96266434
_cell_formula_units_Z   2
loop_
 _symmetry_equiv_pos_site_id
 _symmetry_equiv_pos_as_xyz
  1  'x, y, z'
loop_
 _atom_site_type_symbol
 _atom_site_label
 _atom_site_symmetry_multiplicity
 _atom_site_fract_x
 _atom_site_fract_y
 _atom_site_fract_z
 _atom_site_occupancy
  Cr  Cr0  1  0.000000  0.000000  0.000000  1
  Cr  Cr1  1  0.500000  0.500000  0.500000  1
  Co  Co2  1  0.817617  0.728161  0.271924  1
  Co  Co3  1  0.728161  0.271924  0.817617  1
  Co  Co4  1  0.271924  0.817617  0.728161  1
  Co  Co5  1  0.182383  0.271839  0.728076  1
  Co  Co6  1  0.271839  0.728076  0.182383  1
  Co  Co7  1  0.728076  0.182383  0.271839  1
  H  H8  1  0.987442  0.868535  0.781630  1
  H  H9  1  0.868535  0.781630  0.987442  1
  H  H10  1  0.781630  0.987442  0.868535  1
  H  H11  1  0.012558  0.131465  0.218370  1
  H  H12  1  0.131465  0.218370  0.012558  1
  H  H13  1  0.218370  0.012558  0.131465  1
  H  H14  1  0.956216  0.877703  0.662756  1
  H  H15  1  0.877703  0.662756  0.956216  1
  H  H16  1  0.662756  0.956216  0.877703  1
  H  H17  1  0.043784  0.122297  0.337244  1
  H  H18  1  0.122297  0.337244  0.043784  1
  H  H19  1  0.337244  0.043784  0.122297  1
  H  H20  1  0.864955  0.963558  0.623925  1
  H  H21  1  0.963558  0.623925  0.864955  1
  H  H22  1  0.623925  0.864955  0.963558  1
  H  H23  1  0.135045  0.036442  0.376075  1
  H  H24  1  0.036442  0.376075  0.135045  1
  H  H25  1  0.376075  0.135045  0.036442  1
  H  H26  1  0.841554  0.036087  0.723270  1
  H  H27  1  0.036087  0.723270  0.841554  1
  H  H28  1  0.723270  0.841554  0.036087  1
  H  H29  1  0.158446  0.963913  0.276730  1
  H  H30  1  0.963913  0.276730  0.158446  1
  H  H31  1  0.276730  0.158446  0.963913  1
  H  H32  1  0.628311  0.716942  0.402803  1
  H  H33  1  0.716942  0.402803  0.628311  1
  H  H34  1  0.402803  0.628311  0.716942  1
  H  H35  1  0.371689  0.283058  0.597197  1
  H  H36  1  0.283058  0.597197  0.371689  1
  H  H37  1  0.597197  0.371689  0.283058  1
  H  H38  1  0.618809  0.832722  0.462356  1
  H  H39  1  0.832722  0.462356  0.618809  1
  H  H40  1  0.462356  0.618809  0.832722  1
  H  H41  1  0.381191  0.167278  0.537644  1
  H  H42  1  0.167278  0.537644  0.381191  1
  H  H43  1  0.537644  0.381191  0.167278  1
  H  H44  1  0.541468  0.831552  0.575393  1
  H  H45  1  0.831552  0.575393  0.541468  1
  H  H46  1  0.575393  0.541468  0.831552  1
  H  H47  1  0.458532  0.168448  0.424607  1
  H  H48  1  0.168448  0.424607  0.458532  1
  H  H49  1  0.424607  0.458532  0.168448  1
  H  H50  1  0.537393  0.745363  0.626168  1
  H  H51  1  0.745363  0.626168  0.537393  1
  H  H52  1  0.626168  0.537393  0.745363  1
  H  H53  1  0.462607  0.254637  0.373832  1
  H  H54  1  0.254637  0.373832  0.462607  1
  H  H55  1  0.373832  0.462607  0.254637  1
  C  C56  1  0.915208  0.957047  0.765278  1
  C  C57  1  0.957047  0.765278  0.915208  1
  C  C58  1  0.765278  0.915208  0.957047  1
  C  C59  1  0.084792  0.042953  0.234722  1
  C  C60  1  0.042953  0.234722  0.084792  1
  C  C61  1  0.234722  0.084792  0.042953  1
  C  C62  1  0.587878  0.723449  0.516376  1
  C  C63  1  0.723449  0.516376  0.587878  1
  C  C64  1  0.516376  0.587878  0.723449  1
  C  C65  1  0.412122  0.276552  0.483624  1
  C  C66  1  0.276552  0.483624  0.412122  1
  C  C67  1  0.483624  0.412122  0.276552  1
  N  N68  1  0.841305  0.762221  0.422744  1
  N  N69  1  0.762221  0.422744  0.841305  1
  N  N70  1  0.422744  0.841305  0.762221  1
  N  N71  1  0.158695  0.237779  0.577256  1
  N  N72  1  0.237779  0.577256  0.158695  1
  N  N73  1  0.577256  0.158695  0.237779  1
  N  N74  1  0.642614  0.653697  0.200632  1
  N  N75  1  0.653697  0.200632  0.642614  1
  N  N76  1  0.200632  0.642614  0.653697  1
  N  N77  1  0.357386  0.346303  0.799368  1
  N  N78  1  0.346303  0.799368  0.357386  1
  N  N79  1  0.799368  0.357386  0.346303  1
  N  N80  1  0.691633  0.116739  0.784883  1
  N  N81  1  0.116739  0.784883  0.691633  1
  N  N82  1  0.784883  0.691633  0.116739  1
  N  N83  1  0.308367  0.883261  0.215117  1
  N  N84  1  0.883261  0.215117  0.308367  1
  N  N85  1  0.215117  0.308367  0.883261  1
  N  N86  1  0.007148  0.199698  0.655901  1
  N  N87  1  0.199698  0.655901  0.007148  1
  N  N88  1  0.655901  0.007148  0.199698  1
  N  N89  1  0.992852  0.800302  0.344099  1
  N  N90  1  0.800302  0.344099  0.992852  1
  N  N91  1  0.344099  0.992852  0.800302  1
  N  N92  1  0.788108  0.592012  0.225985  1
  N  N93  1  0.592012  0.225985  0.788108  1
  N  N94  1  0.225985  0.788108  0.592012  1
  N  N95  1  0.211892  0.407988  0.774015  1
  N  N96  1  0.407988  0.774015  0.211892  1
  N  N97  1  0.774015  0.211892  0.407988  1
  N  N98  1  0.157091  0.139393  0.691387  1
  N  N99  1  0.139393  0.691387  0.157091  1
  N  N100  1  0.691387  0.157091  0.139393  1
  N  N101  1  0.842909  0.860607  0.308613  1
  N  N102  1  0.860607  0.308613  0.842909  1
  N  N103  1  0.308613  0.842909  0.860607  1
  N  N104  1  0.957102  0.896909  0.734969  1
  N  N105  1  0.896909  0.734969  0.957102  1
  N  N106  1  0.734969  0.957102  0.896909  1
  N  N107  1  0.042898  0.103091  0.265031  1
  N  N108  1  0.103091  0.265031  0.042898  1
  N  N109  1  0.265031  0.042898  0.103091  1
  N  N110  1  0.873827  0.991074  0.700409  1
  N  N111  1  0.991074  0.700409  0.873827  1
  N  N112  1  0.700409  0.873827  0.991074  1
  N  N113  1  0.126173  0.008926  0.299591  1
  N  N114  1  0.008926  0.299591  0.126173  1
  N  N115  1  0.299591  0.126173  0.008926  1
  N  N116  1  0.612402  0.760888  0.455954  1
  N  N117  1  0.760888  0.455954  0.612402  1
  N  N118  1  0.455954  0.612402  0.760888  1
  N  N119  1  0.387598  0.239112  0.544046  1
  N  N120  1  0.239112  0.544046  0.387598  1
  N  N121  1  0.544046  0.387598  0.239112  1
  N  N122  1  0.556274  0.772904  0.579847  1
  N  N123  1  0.772904  0.579847  0.556274  1
  N  N124  1  0.579847  0.556274  0.772904  1
  N  N125  1  0.443726  0.227096  0.420153  1
  N  N126  1  0.227096  0.420153  0.443726  1
  N  N127  1  0.420153  0.443726  0.227096  1
  O  O128  1  0.911716  0.984431  0.854093  1
  O  O129  1  0.984431  0.854093  0.911716  1
  O  O130  1  0.854093  0.911716  0.984431  1
  O  O131  1  0.088284  0.015569  0.145907  1
  O  O132  1  0.015569  0.145907  0.088284  1
  O  O133  1  0.145907  0.088284  0.015569  1
  O  O134  1  0.598452  0.642342  0.513170  1
  O  O135  1  0.642342  0.513170  0.598452  1
  O  O136  1  0.513170  0.598452  0.642342  1
  O  O137  1  0.401548  0.357658  0.486830  1
  O  O138  1  0.357658  0.486830  0.401548  1
  O  O139  1  0.486830  0.401548  0.357658  1
  O  O140  1  0.689624  0.989104  0.482275  1
  O  O141  1  0.989104  0.482275  0.689624  1
  O  O142  1  0.482275  0.689624  0.989104  1
  O  O143  1  0.310376  0.010896  0.517725  1
  O  O144  1  0.010896  0.517725  0.310376  1
  O  O145  1  0.517725  0.310376  0.010896  1
  O  O146  1  0.789354  0.677761  0.423392  1
  O  O147  1  0.677761  0.423392  0.789354  1
  O  O148  1  0.423392  0.789354  0.677761  1
  O  O149  1  0.210646  0.322239  0.576608  1
  O  O150  1  0.322239  0.576608  0.210646  1
  O  O151  1  0.576608  0.210646  0.322239  1
  O  O152  1  0.902053  0.865793  0.507994  1
  O  O153  1  0.865793  0.507994  0.902053  1
  O  O154  1  0.507994  0.902053  0.865793  1
  O  O155  1  0.097947  0.134207  0.492006  1
  O  O156  1  0.134207  0.492006  0.097947  1
  O  O157  1  0.492006  0.097947  0.134207  1
  O  O158  1  0.454437  0.865769  0.426855  1
  O  O159  1  0.865769  0.426855  0.454437  1
  O  O160  1  0.426855  0.454437  0.865769  1
  O  O161  1  0.545563  0.134231  0.573145  1
  O  O162  1  0.134231  0.573145  0.545563  1
  O  O163  1  0.573145  0.545563  0.134231  1
  O  O164  1  0.616793  0.721097  0.232947  1
  O  O165  1  0.721097  0.232947  0.616793  1
  O  O166  1  0.232947  0.616793  0.721097  1
  O  O167  1  0.383207  0.278903  0.767053  1
  O  O168  1  0.278903  0.767053  0.383207  1
  O  O169  1  0.767053  0.383207  0.278903  1
  O  O170  1  0.598347  0.045711  0.761711  1
  O  O171  1  0.045711  0.761711  0.598347  1
  O  O172  1  0.761711  0.598347  0.045711  1
  O  O173  1  0.401653  0.954289  0.238289  1
  O  O174  1  0.954289  0.238289  0.401653  1
  O  O175  1  0.238289  0.401653  0.954289  1
  O  O176  1  0.765492  0.097532  0.788804  1
  O  O177  1  0.097532  0.788804  0.765492  1
  O  O178  1  0.788804  0.765492  0.097532  1
  O  O179  1  0.234508  0.902468  0.211196  1
  O  O180  1  0.902468  0.211196  0.234508  1
  O  O181  1  0.211196  0.234508  0.902468  1
  O  O182  1  0.986450  0.264212  0.706215  1
  O  O183  1  0.264212  0.706215  0.986450  1
  O  O184  1  0.706215  0.986450  0.264212  1
  O  O185  1  0.013550  0.735788  0.293785  1
  O  O186  1  0.735788  0.293785  0.013550  1
  O  O187  1  0.293785  0.013550  0.735788  1
  O  O188  1  0.935842  0.096340  0.570094  1
  O  O189  1  0.096340  0.570094  0.935842  1
  O  O190  1  0.570094  0.935842  0.096340  1
  O  O191  1  0.064158  0.903660  0.429906  1
  O  O192  1  0.903660  0.429906  0.064158  1
  O  O193  1  0.429906  0.064158  0.903660  1
