# generated using pymatgen
data_Na3LiMo2(H6O7)2
_symmetry_space_group_name_H-M   'P 1'
_cell_length_a   11.72990102
_cell_length_b   11.72990102
_cell_length_c   11.72990105
_cell_angle_alpha   44.06667722
_cell_angle_beta   44.06667722
_cell_angle_gamma   44.06667660
_symmetry_Int_Tables_number   1
_chemical_formula_structural   Na3LiMo2(H6O7)2
_chemical_formula_sum   'Na6 Li2 Mo4 H24 O28'
_cell_volume   709.16454872
_cell_formula_units_Z   2
loop_
 _symmetry_equiv_pos_site_id
 _symmetry_equiv_pos_as_xyz
  1  'x, y, z'
loop_
 _atom_site_type_symbol
 _atom_site_label
 _atom_site_symmetry_multiplicity
 _atom_site_fract_x
 _atom_site_fract_y
 _atom_site_fract_z
 _atom_site_occupancy
  Na  Na0  1  0.531381  0.043776  0.239049  1
  Na  Na1  1  0.043776  0.239049  0.531381  1
  Na  Na2  1  0.239049  0.531381  0.043776  1
  Na  Na3  1  0.031381  0.739049  0.543776  1
  Na  Na4  1  0.739049  0.543776  0.031381  1
  Na  Na5  1  0.543776  0.031381  0.739049  1
  Li  Li6  1  0.509183  0.509183  0.509183  1
  Li  Li7  1  0.009183  0.009183  0.009183  1
  Mo  Mo8  1  0.626318  0.626318  0.626318  1
  Mo  Mo9  1  0.126318  0.126318  0.126318  1
  Mo  Mo10  1  0.871524  0.871524  0.871524  1
  Mo  Mo11  1  0.371524  0.371524  0.371524  1
  H  H12  1  0.203712  0.598114  0.736785  1
  H  H13  1  0.598114  0.736785  0.203712  1
  H  H14  1  0.736785  0.203712  0.598114  1
  H  H15  1  0.703712  0.236785  0.098114  1
  H  H16  1  0.236785  0.098114  0.703712  1
  H  H17  1  0.098114  0.703712  0.236785  1
  H  H18  1  0.406543  0.768137  0.269468  1
  H  H19  1  0.768137  0.269468  0.406543  1
  H  H20  1  0.269468  0.406543  0.768137  1
  H  H21  1  0.906543  0.769468  0.268137  1
  H  H22  1  0.769468  0.268137  0.906543  1
  H  H23  1  0.268137  0.906543  0.769468  1
  H  H24  1  0.893074  0.572643  0.232725  1
  H  H25  1  0.572643  0.232725  0.893074  1
  H  H26  1  0.232725  0.893074  0.572643  1
  H  H27  1  0.393074  0.732725  0.072643  1
  H  H28  1  0.732725  0.072643  0.393074  1
  H  H29  1  0.072643  0.393074  0.732725  1
  H  H30  1  0.231939  0.977863  0.394256  1
  H  H31  1  0.977863  0.394256  0.231939  1
  H  H32  1  0.394256  0.231939  0.977863  1
  H  H33  1  0.731939  0.894256  0.477863  1
  H  H34  1  0.894256  0.477863  0.731939  1
  H  H35  1  0.477863  0.731939  0.894256  1
  O  O36  1  0.570649  0.570649  0.570649  1
  O  O37  1  0.070649  0.070649  0.070649  1
  O  O38  1  0.683411  0.817480  0.436392  1
  O  O39  1  0.817480  0.436392  0.683411  1
  O  O40  1  0.436392  0.683411  0.817480  1
  O  O41  1  0.183411  0.936392  0.317480  1
  O  O42  1  0.936392  0.317480  0.183411  1
  O  O43  1  0.317480  0.183411  0.936392  1
  O  O44  1  0.815177  0.815177  0.815177  1
  O  O45  1  0.315177  0.315177  0.315177  1
  O  O46  1  0.816168  0.110404  0.741767  1
  O  O47  1  0.110404  0.741767  0.816168  1
  O  O48  1  0.741767  0.816168  0.110404  1
  O  O49  1  0.316168  0.241767  0.610404  1
  O  O50  1  0.241767  0.610404  0.316168  1
  O  O51  1  0.610404  0.316168  0.241767  1
  O  O52  1  0.257991  0.531149  0.674356  1
  O  O53  1  0.531149  0.674356  0.257991  1
  O  O54  1  0.674356  0.257991  0.531149  1
  O  O55  1  0.757991  0.174356  0.031149  1
  O  O56  1  0.174356  0.031149  0.757991  1
  O  O57  1  0.031149  0.757991  0.174356  1
  O  O58  1  0.256914  0.989905  0.449448  1
  O  O59  1  0.989905  0.449448  0.256914  1
  O  O60  1  0.449448  0.256914  0.989905  1
  O  O61  1  0.756914  0.949448  0.489905  1
  O  O62  1  0.949448  0.489905  0.756914  1
  O  O63  1  0.489905  0.756914  0.949448  1
