# generated using pymatgen
data_Li2TiFe3O8
_symmetry_space_group_name_H-M   'P 1'
_cell_length_a   8.43053157
_cell_length_b   8.44696437
_cell_length_c   8.41236474
_cell_angle_alpha   89.96452882
_cell_angle_beta   89.93760443
_cell_angle_gamma   90.01310225
_symmetry_Int_Tables_number   1
_chemical_formula_structural   Li2TiFe3O8
_chemical_formula_sum   'Li8 Ti4 Fe12 O32'
_cell_volume   599.06419574
_cell_formula_units_Z   4
loop_
 _symmetry_equiv_pos_site_id
 _symmetry_equiv_pos_as_xyz
  1  'x, y, z'
loop_
 _atom_site_type_symbol
 _atom_site_label
 _atom_site_symmetry_multiplicity
 _atom_site_fract_x
 _atom_site_fract_y
 _atom_site_fract_z
 _atom_site_occupancy
  Li  Li0  1  0.002349  0.997483  0.996423  1
  Li  Li1  1  0.251891  0.249675  0.255495  1
  Li  Li2  1  0.249712  0.750462  0.753755  1
  Li  Li3  1  0.498903  0.001591  0.497385  1
  Li  Li4  1  0.500035  0.501091  0.003215  1
  Li  Li5  1  0.751499  0.251395  0.746825  1
  Li  Li6  1  0.748453  0.749559  0.245841  1
  Li  Li7  1  0.997581  0.497111  0.501910  1
  Ti  Ti8  1  0.122248  0.869441  0.377883  1
  Ti  Ti9  1  0.376931  0.127530  0.874749  1
  Ti  Ti10  1  0.621964  0.625666  0.627635  1
  Ti  Ti11  1  0.878206  0.369076  0.122702  1
  Fe  Fe12  1  0.127129  0.123165  0.623885  1
  Fe  Fe13  1  0.122435  0.376043  0.868387  1
  Fe  Fe14  1  0.126232  0.626747  0.119743  1
  Fe  Fe15  1  0.376010  0.372118  0.620460  1
  Fe  Fe16  1  0.379539  0.626090  0.370083  1
  Fe  Fe17  1  0.372339  0.877556  0.125477  1
  Fe  Fe18  1  0.627450  0.377577  0.374265  1
  Fe  Fe19  1  0.620438  0.127545  0.128510  1
  Fe  Fe20  1  0.624181  0.872638  0.878704  1
  Fe  Fe21  1  0.873961  0.127010  0.380225  1
  Fe  Fe22  1  0.877009  0.876104  0.631022  1
  Fe  Fe23  1  0.873568  0.623002  0.875292  1
  O  O24  1  0.117596  0.113305  0.396924  1
  O  O25  1  0.121294  0.891741  0.610686  1
  O  O26  1  0.104382  0.613911  0.881058  1
  O  O27  1  0.134556  0.131658  0.851062  1
  O  O28  1  0.107255  0.385638  0.117989  1
  O  O29  1  0.136460  0.352940  0.630215  1
  O  O30  1  0.135358  0.642279  0.367167  1
  O  O31  1  0.143892  0.871269  0.140069  1
  O  O32  1  0.358616  0.129809  0.639447  1
  O  O33  1  0.364777  0.357006  0.866785  1
  O  O34  1  0.364300  0.647349  0.131723  1
  O  O35  1  0.393694  0.616088  0.617298  1
  O  O36  1  0.362070  0.868117  0.356304  1
  O  O37  1  0.399273  0.385701  0.381114  1
  O  O38  1  0.377352  0.109035  0.110048  1
  O  O39  1  0.382549  0.887322  0.895165  1
  O  O40  1  0.617606  0.387271  0.605858  1
  O  O41  1  0.623233  0.606868  0.389882  1
  O  O42  1  0.599975  0.886380  0.119073  1
  O  O43  1  0.638040  0.368554  0.143113  1
  O  O44  1  0.606132  0.116243  0.882129  1
  O  O45  1  0.634592  0.149002  0.368159  1
  O  O46  1  0.635498  0.856446  0.633187  1
  O  O47  1  0.641632  0.628965  0.860869  1
  O  O48  1  0.856375  0.371399  0.359928  1
  O  O49  1  0.864606  0.141746  0.133256  1
  O  O50  1  0.862982  0.853133  0.869932  1
  O  O51  1  0.892500  0.885126  0.383210  1
  O  O52  1  0.865610  0.631733  0.648488  1
  O  O53  1  0.896178  0.113513  0.618327  1
  O  O54  1  0.879028  0.390702  0.890054  1
  O  O55  1  0.882531  0.614213  0.101753  1
