# generated using pymatgen
data_Na3B5(HO5)2
_symmetry_space_group_name_H-M   'P 1'
_cell_length_a   11.33900137
_cell_length_b   6.09852419
_cell_length_c   11.22993350
_cell_angle_alpha   90.00000000
_cell_angle_beta   90.00000000
_cell_angle_gamma   90.00000000
_symmetry_Int_Tables_number   1
_chemical_formula_structural   Na3B5(HO5)2
_chemical_formula_sum   'Na12 B20 H8 O40'
_cell_volume   776.56308710
_cell_formula_units_Z   4
loop_
 _symmetry_equiv_pos_site_id
 _symmetry_equiv_pos_as_xyz
  1  'x, y, z'
loop_
 _atom_site_type_symbol
 _atom_site_label
 _atom_site_symmetry_multiplicity
 _atom_site_fract_x
 _atom_site_fract_y
 _atom_site_fract_z
 _atom_site_occupancy
  Na  Na0  1  0.861258  0.918579  0.250098  1
  Na  Na1  1  0.138742  0.081421  0.750098  1
  Na  Na2  1  0.638742  0.918579  0.750098  1
  Na  Na3  1  0.361258  0.081421  0.250098  1
  Na  Na4  1  0.065870  0.474885  0.256095  1
  Na  Na5  1  0.934130  0.525115  0.756095  1
  Na  Na6  1  0.434130  0.474885  0.756095  1
  Na  Na7  1  0.565870  0.525115  0.256095  1
  Na  Na8  1  0.743826  0.651525  0.505267  1
  Na  Na9  1  0.256174  0.348475  0.005267  1
  Na  Na10  1  0.756174  0.651525  0.005267  1
  Na  Na11  1  0.243826  0.348475  0.505267  1
  B  B12  1  0.247170  0.862739  0.512820  1
  B  B13  1  0.752830  0.137261  0.012820  1
  B  B14  1  0.252830  0.862739  0.012820  1
  B  B15  1  0.747170  0.137261  0.512820  1
  B  B16  1  0.458045  0.722898  0.508546  1
  B  B17  1  0.541955  0.277102  0.008546  1
  B  B18  1  0.041955  0.722898  0.008546  1
  B  B19  1  0.958045  0.277102  0.508546  1
  B  B20  1  0.104699  0.961276  0.348749  1
  B  B21  1  0.895301  0.038724  0.848749  1
  B  B22  1  0.395301  0.961276  0.848749  1
  B  B23  1  0.604699  0.038724  0.348749  1
  B  B24  1  0.411639  0.063767  0.627409  1
  B  B25  1  0.588360  0.936233  0.127409  1
  B  B26  1  0.088360  0.063767  0.127409  1
  B  B27  1  0.911640  0.936233  0.627409  1
  B  B28  1  0.039863  0.672689  0.497148  1
  B  B29  1  0.960137  0.327311  0.997148  1
  B  B30  1  0.460137  0.672689  0.997148  1
  B  B31  1  0.539863  0.327311  0.497148  1
  H  H32  1  0.819798  0.415042  0.177653  1
  H  H33  1  0.180202  0.584958  0.677653  1
  H  H34  1  0.680202  0.415042  0.677653  1
  H  H35  1  0.319798  0.584958  0.177653  1
  H  H36  1  0.815964  0.412950  0.320459  1
  H  H37  1  0.184036  0.587050  0.820459  1
  H  H38  1  0.684036  0.412950  0.820459  1
  H  H39  1  0.315964  0.587050  0.320459  1
  O  O40  1  0.208881  0.001033  0.407569  1
  O  O41  1  0.791119  0.998967  0.907569  1
  O  O42  1  0.291119  0.001033  0.907569  1
  O  O43  1  0.708881  0.998967  0.407569  1
  O  O44  1  0.288231  0.003331  0.608331  1
  O  O45  1  0.711769  0.996669  0.108331  1
  O  O46  1  0.211769  0.003331  0.108331  1
  O  O47  1  0.788231  0.996669  0.608331  1
  O  O48  1  0.152234  0.722319  0.556427  1
  O  O49  1  0.847766  0.277681  0.056427  1
  O  O50  1  0.347766  0.722319  0.056427  1
  O  O51  1  0.652234  0.277681  0.556427  1
  O  O52  1  0.344555  0.715761  0.464358  1
  O  O53  1  0.655445  0.284239  0.964358  1
  O  O54  1  0.155445  0.715761  0.964358  1
  O  O55  1  0.844555  0.284239  0.464358  1
  O  O56  1  0.540883  0.570269  0.471225  1
  O  O57  1  0.459117  0.429731  0.971225  1
  O  O58  1  0.959117  0.570269  0.971225  1
  O  O59  1  0.040883  0.429731  0.471225  1
  O  O60  1  0.492003  0.880575  0.589237  1
  O  O61  1  0.507997  0.119425  0.089237  1
  O  O62  1  0.007997  0.880575  0.089237  1
  O  O63  1  0.992003  0.119425  0.589237  1
  O  O64  1  0.067371  0.098139  0.258100  1
  O  O65  1  0.932629  0.901861  0.758100  1
  O  O66  1  0.432629  0.098139  0.758100  1
  O  O67  1  0.567371  0.901861  0.258100  1
  O  O68  1  0.032519  0.787181  0.378478  1
  O  O69  1  0.967481  0.212819  0.878478  1
  O  O70  1  0.467481  0.787181  0.878478  1
  O  O71  1  0.532519  0.212819  0.378478  1
  O  O72  1  0.937892  0.723951  0.569945  1
  O  O73  1  0.062108  0.276049  0.069945  1
  O  O74  1  0.562108  0.723951  0.069945  1
  O  O75  1  0.437892  0.276049  0.569945  1
  O  O76  1  0.799644  0.507008  0.250385  1
  O  O77  1  0.200356  0.492992  0.750385  1
  O  O78  1  0.700356  0.507008  0.750385  1
  O  O79  1  0.299644  0.492992  0.250385  1
