# generated using pymatgen
data_CrCu3(PO4)4
_symmetry_space_group_name_H-M   'P 1'
_cell_length_a   4.85516621
_cell_length_b   9.81500114
_cell_length_c   5.90004052
_cell_angle_alpha   90.00000000
_cell_angle_beta   90.00000000
_cell_angle_gamma   88.29456768
_symmetry_Int_Tables_number   1
_chemical_formula_structural   CrCu3(PO4)4
_chemical_formula_sum   'Cr1 Cu3 P4 O16'
_cell_volume   281.03281516
_cell_formula_units_Z   1
loop_
 _symmetry_equiv_pos_site_id
 _symmetry_equiv_pos_as_xyz
  1  'x, y, z'
loop_
 _atom_site_type_symbol
 _atom_site_label
 _atom_site_symmetry_multiplicity
 _atom_site_fract_x
 _atom_site_fract_y
 _atom_site_fract_z
 _atom_site_occupancy
  Cr  Cr0  1  0.961618  0.278985  0.250000  1
  Cu  Cu1  1  0.059680  0.717254  0.750000  1
  Cu  Cu2  1  0.393971  0.208962  0.750000  1
  Cu  Cu3  1  0.571489  0.782313  0.250000  1
  P  P4  1  0.097015  0.598256  0.250000  1
  P  P5  1  0.413065  0.095663  0.250000  1
  P  P6  1  0.574762  0.900156  0.750000  1
  P  P7  1  0.919952  0.404171  0.750000  1
  O  O8  1  0.167789  0.444988  0.250000  1
  O  O9  1  0.240382  0.670538  0.045667  1
  O  O10  1  0.240382  0.670538  0.454333  1
  O  O11  1  0.239518  0.384120  0.750000  1
  O  O12  1  0.261178  0.883090  0.750000  1
  O  O13  1  0.247046  0.171532  0.051618  1
  O  O14  1  0.247046  0.171532  0.448382  1
  O  O15  1  0.346831  0.943837  0.250000  1
  O  O16  1  0.627837  0.055162  0.750000  1
  O  O17  1  0.734806  0.829087  0.547654  1
  O  O18  1  0.734806  0.829087  0.952346  1
  O  O19  1  0.718151  0.120891  0.250000  1
  O  O20  1  0.778572  0.615552  0.250000  1
  O  O21  1  0.788878  0.333023  0.539993  1
  O  O22  1  0.788878  0.333023  0.960007  1
  O  O23  1  0.846352  0.558241  0.750000  1
