# generated using pymatgen
data_Lu2(SO4)3
_symmetry_space_group_name_H-M   'P 1'
_cell_length_a   9.08325015
_cell_length_b   9.39057203
_cell_length_c   9.08333497
_cell_angle_alpha   118.92212464
_cell_angle_beta   59.99902590
_cell_angle_gamma   118.92232398
_symmetry_Int_Tables_number   1
_chemical_formula_structural   Lu2(SO4)3
_chemical_formula_sum   'Lu4 S6 O24'
_cell_volume   556.60412643
_cell_formula_units_Z   2
loop_
 _symmetry_equiv_pos_site_id
 _symmetry_equiv_pos_as_xyz
  1  'x, y, z'
loop_
 _atom_site_type_symbol
 _atom_site_label
 _atom_site_symmetry_multiplicity
 _atom_site_fract_x
 _atom_site_fract_y
 _atom_site_fract_z
 _atom_site_occupancy
  Lu  Lu0  1  0.144027  0.432118  0.144045  1
  Lu  Lu1  1  0.644049  0.932192  0.644063  1
  Lu  Lu2  1  0.355933  0.067812  0.355942  1
  Lu  Lu3  1  0.855970  0.567885  0.855957  1
  S  S4  1  0.037481  0.250096  0.462604  1
  S  S5  1  0.537358  0.749906  0.250000  1
  S  S6  1  0.249983  0.749897  0.962554  1
  S  S7  1  0.750018  0.250099  0.037445  1
  S  S8  1  0.462632  0.250092  0.749999  1
  S  S9  1  0.962511  0.749903  0.537397  1
  O  O10  1  0.273043  0.903470  0.121073  1
  O  O11  1  0.120985  0.903506  0.509374  1
  O  O12  1  0.063916  0.274463  0.300922  1
  O  O13  1  0.009547  0.403610  0.620926  1
  O  O14  1  0.509411  0.903500  0.273024  1
  O  O15  1  0.378983  0.596426  0.226948  1
  O  O16  1  0.090369  0.725480  0.936081  1
  O  O17  1  0.199068  0.225486  0.436366  1
  O  O18  1  0.563586  0.774580  0.409985  1
  O  O19  1  0.699036  0.725450  0.090423  1
  O  O20  1  0.409934  0.774584  0.800983  1
  O  O21  1  0.226943  0.596409  0.990459  1
  O  O22  1  0.773056  0.403594  0.009540  1
  O  O23  1  0.590065  0.225414  0.199016  1
  O  O24  1  0.300959  0.274552  0.909574  1
  O  O25  1  0.436405  0.225421  0.590013  1
  O  O26  1  0.800932  0.774526  0.563641  1
  O  O27  1  0.909633  0.274515  0.063910  1
  O  O28  1  0.621015  0.403571  0.773050  1
  O  O29  1  0.490579  0.096494  0.726973  1
  O  O30  1  0.990438  0.596388  0.379077  1
  O  O31  1  0.936073  0.725540  0.699079  1
  O  O32  1  0.879007  0.096487  0.490628  1
  O  O33  1  0.726951  0.096534  0.878929  1
