# generated using pymatgen
data_Li4Fe3Ni3(TeO8)2
_symmetry_space_group_name_H-M   'P 1'
_cell_length_a   5.94039093
_cell_length_b   5.93787510
_cell_length_c   9.70661958
_cell_angle_alpha   89.99075517
_cell_angle_beta   90.31206959
_cell_angle_gamma   119.96205957
_symmetry_Int_Tables_number   1
_chemical_formula_structural   Li4Fe3Ni3(TeO8)2
_chemical_formula_sum   'Li4 Fe3 Ni3 Te2 O16'
_cell_volume   296.62127608
_cell_formula_units_Z   1
loop_
 _symmetry_equiv_pos_site_id
 _symmetry_equiv_pos_as_xyz
  1  'x, y, z'
loop_
 _atom_site_type_symbol
 _atom_site_label
 _atom_site_symmetry_multiplicity
 _atom_site_fract_x
 _atom_site_fract_y
 _atom_site_fract_z
 _atom_site_occupancy
  Li  Li0  1  0.329831  0.665035  0.908768  1
  Li  Li1  1  0.994211  0.997036  0.983644  1
  Li  Li2  1  0.996042  0.998038  0.487044  1
  Li  Li3  1  0.665944  0.332906  0.412332  1
  Fe  Fe4  1  0.172180  0.831104  0.212581  1
  Fe  Fe5  1  0.172236  0.341078  0.212536  1
  Fe  Fe6  1  0.341442  0.170766  0.713195  1
  Ni  Ni7  1  0.656729  0.828382  0.211282  1
  Ni  Ni8  1  0.829551  0.658773  0.712116  1
  Ni  Ni9  1  0.829372  0.170640  0.712236  1
  Te  Te10  1  0.338916  0.669486  0.485352  1
  Te  Te11  1  0.671931  0.336053  0.981612  1
  O  O12  1  0.176668  0.831878  0.591263  1
  O  O13  1  0.038507  0.519328  0.352666  1
  O  O14  1  0.321105  0.660505  0.108593  1
  O  O15  1  0.005461  0.002808  0.298273  1
  O  O16  1  0.003583  0.001901  0.796369  1
  O  O17  1  0.176593  0.344743  0.591261  1
  O  O18  1  0.477193  0.962252  0.353175  1
  O  O19  1  0.477304  0.515013  0.353186  1
  O  O20  1  0.346875  0.173460  0.092346  1
  O  O21  1  0.662077  0.831094  0.590057  1
  O  O22  1  0.513676  0.477468  0.853249  1
  O  O23  1  0.513961  0.036424  0.853265  1
  O  O24  1  0.660913  0.330346  0.611962  1
  O  O25  1  0.832675  0.658448  0.089437  1
  O  O26  1  0.962301  0.481024  0.850546  1
  O  O27  1  0.832721  0.174310  0.089498  1
