# generated using pymatgen
data_Li8MnCo7(PO4)12
_symmetry_space_group_name_H-M   'P 1'
_cell_length_a   8.66353214
_cell_length_b   8.75719860
_cell_length_c   12.09954008
_cell_angle_alpha   90.04182712
_cell_angle_beta   89.80813351
_cell_angle_gamma   89.86447190
_symmetry_Int_Tables_number   1
_chemical_formula_structural   Li8MnCo7(PO4)12
_chemical_formula_sum   'Li8 Mn1 Co7 P12 O48'
_cell_volume   917.96322703
_cell_formula_units_Z   1
loop_
 _symmetry_equiv_pos_site_id
 _symmetry_equiv_pos_as_xyz
  1  'x, y, z'
loop_
 _atom_site_type_symbol
 _atom_site_label
 _atom_site_symmetry_multiplicity
 _atom_site_fract_x
 _atom_site_fract_y
 _atom_site_fract_z
 _atom_site_occupancy
  Li  Li0  1  0.217025  0.724685  0.183322  1
  Li  Li1  1  0.217449  0.775040  0.816346  1
  Li  Li2  1  0.283262  0.225495  0.317733  1
  Li  Li3  1  0.282039  0.276314  0.682189  1
  Li  Li4  1  0.716291  0.724644  0.317237  1
  Li  Li5  1  0.714897  0.781102  0.682069  1
  Li  Li6  1  0.782902  0.225011  0.183486  1
  Li  Li7  1  0.784661  0.275673  0.818331  1
  Mn  Mn8  1  0.752203  0.461961  0.612754  1
  Co  Co9  1  0.248449  0.959040  0.610295  1
  Co  Co10  1  0.249648  0.540810  0.388923  1
  Co  Co11  1  0.251225  0.041869  0.111650  1
  Co  Co12  1  0.250437  0.458767  0.887609  1
  Co  Co13  1  0.748086  0.541810  0.111709  1
  Co  Co14  1  0.749130  0.959088  0.888679  1
  Co  Co15  1  0.749931  0.038339  0.388636  1
  P  P16  1  0.034731  0.250464  0.500436  1
  P  P17  1  0.105413  0.393967  0.146180  1
  P  P18  1  0.106214  0.106427  0.852784  1
  P  P19  1  0.396627  0.603695  0.646515  1
  P  P20  1  0.394165  0.893570  0.353693  1
  P  P21  1  0.462217  0.749470  0.999717  1
  P  P22  1  0.537776  0.249980  0.000409  1
  P  P23  1  0.607629  0.393276  0.355221  1
  P  P24  1  0.604681  0.109870  0.645042  1
  P  P25  1  0.894172  0.607371  0.850558  1
  P  P26  1  0.894843  0.893076  0.146202  1
  P  P27  1  0.961260  0.747158  0.499752  1
  O  O28  1  0.057703  0.637334  0.428895  1
  O  O29  1  0.055198  0.852854  0.574109  1
  O  O30  1  0.073607  0.896768  0.155071  1
  O  O31  1  0.072659  0.603864  0.842146  1
  O  O32  1  0.143844  0.164309  0.581069  1
  O  O33  1  0.145330  0.337628  0.421167  1
  O  O34  1  0.155233  0.436137  0.027808  1
  O  O35  1  0.156058  0.062553  0.970141  1
  O  O36  1  0.161338  0.232622  0.179472  1
  O  O37  1  0.162023  0.267381  0.819775  1
  O  O38  1  0.174068  0.514994  0.225732  1
  O  O39  1  0.174212  0.984879  0.771798  1
  O  O40  1  0.325562  0.015673  0.274970  1
  O  O41  1  0.328499  0.483045  0.726761  1
  O  O42  1  0.346148  0.766614  0.679783  1
  O  O43  1  0.337230  0.732810  0.321300  1
  O  O44  1  0.347304  0.562757  0.528961  1
  O  O45  1  0.342862  0.936351  0.472744  1
  O  O46  1  0.353982  0.836646  0.080480  1
  O  O47  1  0.352484  0.662937  0.920374  1
  O  O48  1  0.427140  0.109341  0.655051  1
  O  O49  1  0.428239  0.397522  0.347136  1
  O  O50  1  0.441144  0.140085  0.071265  1
  O  O51  1  0.441720  0.358615  0.929012  1
  O  O52  1  0.559658  0.640058  0.070917  1
  O  O53  1  0.558970  0.858438  0.928385  1
  O  O54  1  0.577691  0.601433  0.656298  1
  O  O55  1  0.572313  0.895679  0.344891  1
  O  O56  1  0.646023  0.336726  0.080637  1
  O  O57  1  0.647960  0.163361  0.920217  1
  O  O58  1  0.656213  0.065980  0.527563  1
  O  O59  1  0.655566  0.436313  0.474321  1
  O  O60  1  0.663326  0.232606  0.321762  1
  O  O61  1  0.663105  0.273357  0.676978  1
  O  O62  1  0.675365  0.515983  0.276285  1
  O  O63  1  0.675329  0.991650  0.725730  1
  O  O64  1  0.825842  0.014119  0.226752  1
  O  O65  1  0.824434  0.484488  0.769595  1
  O  O66  1  0.838357  0.731700  0.178715  1
  O  O67  1  0.836171  0.767831  0.817721  1
  O  O68  1  0.841663  0.557987  0.965940  1
  O  O69  1  0.845560  0.935467  0.028218  1
  O  O70  1  0.851064  0.658311  0.581441  1
  O  O71  1  0.850705  0.833977  0.421253  1
  O  O72  1  0.927156  0.103258  0.844365  1
  O  O73  1  0.926131  0.397900  0.154501  1
  O  O74  1  0.940185  0.142171  0.429379  1
  O  O75  1  0.940263  0.359515  0.575639  1
