# generated using pymatgen
data_NbNO
_symmetry_space_group_name_H-M   'P 1'
_cell_length_a   5.26313920
_cell_length_b   5.03671532
_cell_length_c   10.23434765
_cell_angle_alpha   90.02310669
_cell_angle_beta   89.76035825
_cell_angle_gamma   99.87317459
_symmetry_Int_Tables_number   1
_chemical_formula_structural   NbNO
_chemical_formula_sum   'Nb8 N8 O8'
_cell_volume   267.28123867
_cell_formula_units_Z   8
loop_
 _symmetry_equiv_pos_site_id
 _symmetry_equiv_pos_as_xyz
  1  'x, y, z'
loop_
 _atom_site_type_symbol
 _atom_site_label
 _atom_site_symmetry_multiplicity
 _atom_site_fract_x
 _atom_site_fract_y
 _atom_site_fract_z
 _atom_site_occupancy
  Nb  Nb0  1  0.966826  0.795286  0.491717  1
  Nb  Nb1  1  0.035006  0.201218  0.243015  1
  Nb  Nb2  1  0.026180  0.210822  0.736470  1
  Nb  Nb3  1  0.960235  0.789116  0.991128  1
  Nb  Nb4  1  0.540687  0.215151  0.041383  1
  Nb  Nb5  1  0.526942  0.201542  0.539407  1
  Nb  Nb6  1  0.469464  0.792906  0.289885  1
  Nb  Nb7  1  0.475318  0.781733  0.795136  1
  N  N8  1  0.271904  0.056672  0.392359  1
  N  N9  1  0.232598  0.943485  0.133240  1
  N  N10  1  0.221619  0.946582  0.637101  1
  N  N11  1  0.590900  0.560847  0.931240  1
  N  N12  1  0.772110  0.058575  0.388827  1
  N  N13  1  0.778064  0.064595  0.887423  1
  N  N14  1  0.732539  0.940058  0.145825  1
  N  N15  1  0.725227  0.941621  0.643337  1
  O  O16  1  0.091241  0.563242  0.350745  1
  O  O17  1  0.909077  0.435356  0.103571  1
  O  O18  1  0.092449  0.570483  0.849753  1
  O  O19  1  0.902384  0.437156  0.600967  1
  O  O20  1  0.273448  0.060023  0.891934  1
  O  O21  1  0.410866  0.434642  0.183931  1
  O  O22  1  0.404711  0.434440  0.680097  1
  O  O23  1  0.590206  0.564447  0.431610  1
