# generated using pymatgen
data_Fe10O11F9
_symmetry_space_group_name_H-M   'P 1'
_cell_length_a   4.72765170
_cell_length_b   4.73878896
_cell_length_c   15.38357312
_cell_angle_alpha   89.84588095
_cell_angle_beta   90.32664414
_cell_angle_gamma   91.15819259
_symmetry_Int_Tables_number   1
_chemical_formula_structural   Fe10O11F9
_chemical_formula_sum   'Fe10 O11 F9'
_cell_volume   344.56632189
_cell_formula_units_Z   1
loop_
 _symmetry_equiv_pos_site_id
 _symmetry_equiv_pos_as_xyz
  1  'x, y, z'
loop_
 _atom_site_type_symbol
 _atom_site_label
 _atom_site_symmetry_multiplicity
 _atom_site_fract_x
 _atom_site_fract_y
 _atom_site_fract_z
 _atom_site_occupancy
  Fe  Fe0  1  0.975423  0.965612  0.001113  1
  Fe  Fe1  1  0.010243  0.004392  0.199736  1
  Fe  Fe2  1  0.985175  0.953087  0.398436  1
  Fe  Fe3  1  0.044414  0.004202  0.598881  1
  Fe  Fe4  1  0.047377  0.003170  0.800851  1
  Fe  Fe5  1  0.546214  0.472745  0.105916  1
  Fe  Fe6  1  0.476194  0.519379  0.497574  1
  Fe  Fe7  1  0.484239  0.534275  0.293319  1
  Fe  Fe8  1  0.461057  0.499428  0.700413  1
  Fe  Fe9  1  0.473482  0.524985  0.903061  1
  O  O10  1  0.184052  0.816259  0.296148  1
  O  O11  1  0.185867  0.806430  0.498221  1
  O  O12  1  0.201824  0.816960  0.699920  1
  O  O13  1  0.188176  0.811685  0.903349  1
  O  O14  1  0.311948  0.300369  0.199683  1
  O  O15  1  0.312338  0.317534  0.597122  1
  O  O16  1  0.311565  0.319655  0.803517  1
  O  O17  1  0.689567  0.670974  0.001849  1
  O  O18  1  0.712036  0.700877  0.199754  1
  O  O19  1  0.672454  0.686493  0.397992  1
  O  O20  1  0.828186  0.175197  0.102103  1
  F  F21  1  0.207667  0.788800  0.099009  1
  F  F22  1  0.302306  0.287262  0.002567  1
  F  F23  1  0.283220  0.300521  0.397628  1
  F  F24  1  0.700228  0.709993  0.600180  1
  F  F25  1  0.700206  0.711211  0.800208  1
  F  F26  1  0.798511  0.196773  0.498302  1
  F  F27  1  0.797168  0.198507  0.302081  1
  F  F28  1  0.799379  0.194409  0.900937  1
  F  F29  1  0.809486  0.208813  0.700132  1
