# generated using pymatgen
data_LiP2WO7
_symmetry_space_group_name_H-M   'P 1'
_cell_length_a   4.58253883
_cell_length_b   5.46142393
_cell_length_c   5.47017175
_cell_angle_alpha   76.27887357
_cell_angle_beta   82.12948304
_cell_angle_gamma   97.76288982
_symmetry_Int_Tables_number   1
_chemical_formula_structural   LiP2WO7
_chemical_formula_sum   'Li1 P2 W1 O7'
_cell_volume   129.73084857
_cell_formula_units_Z   1
loop_
 _symmetry_equiv_pos_site_id
 _symmetry_equiv_pos_as_xyz
  1  'x, y, z'
loop_
 _atom_site_type_symbol
 _atom_site_label
 _atom_site_symmetry_multiplicity
 _atom_site_fract_x
 _atom_site_fract_y
 _atom_site_fract_z
 _atom_site_occupancy
  Li  Li0  1  0.725944  0.301269  0.913270  1
  P  P1  1  0.311911  0.391715  0.416030  1
  P  P2  1  0.134964  0.808486  0.998806  1
  W  W3  1  0.723865  0.931327  0.538950  1
  O  O4  1  0.013112  0.252750  0.589673  1
  O  O5  1  0.478858  0.563901  0.549431  1
  O  O6  1  0.504565  0.215486  0.310936  1
  O  O7  1  0.943002  0.703324  0.823094  1
  O  O8  1  0.434525  0.981186  0.860981  1
  O  O9  1  0.222097  0.549973  0.158419  1
  O  O10  1  0.967338  0.943782  0.169961  1
