# generated using pymatgen
data_Ca5DyTi5Fe(SiO5)6
_symmetry_space_group_name_H-M   'P 1'
_cell_length_a   5.49411432
_cell_length_b   16.51439826
_cell_length_c   7.86775678
_cell_angle_alpha   61.03743272
_cell_angle_beta   114.17112750
_cell_angle_gamma   106.10013495
_symmetry_Int_Tables_number   1
_chemical_formula_structural   Ca5DyTi5Fe(SiO5)6
_chemical_formula_sum   'Ca5 Dy1 Ti5 Fe1 Si6 O30'
_cell_volume   567.02023096
_cell_formula_units_Z   1
loop_
 _symmetry_equiv_pos_site_id
 _symmetry_equiv_pos_as_xyz
  1  'x, y, z'
loop_
 _atom_site_type_symbol
 _atom_site_label
 _atom_site_symmetry_multiplicity
 _atom_site_fract_x
 _atom_site_fract_y
 _atom_site_fract_z
 _atom_site_occupancy
  Ca  Ca0  1  0.169191  0.361362  0.744704  1
  Ca  Ca1  1  0.169747  0.027917  0.748659  1
  Ca  Ca2  1  0.831629  0.973964  0.252511  1
  Ca  Ca3  1  0.832481  0.636564  0.256403  1
  Ca  Ca4  1  0.830052  0.306033  0.250347  1
  Dy  Dy5  1  0.168860  0.693714  0.747632  1
  Ti  Ti6  1  0.505177  0.832541  0.010111  1
  Ti  Ti7  1  0.500880  0.000060  0.505146  1
  Ti  Ti8  1  0.500686  0.499996  0.994435  1
  Ti  Ti9  1  0.500299  0.166240  0.001605  1
  Ti  Ti10  1  0.498682  0.333625  0.498245  1
  Fe  Fe11  1  0.495417  0.664747  0.497999  1
  Si  Si12  1  0.179630  0.855563  0.254559  1
  Si  Si13  1  0.179465  0.522601  0.247052  1
  Si  Si14  1  0.818575  0.810977  0.747773  1
  Si  Si15  1  0.182397  0.189493  0.249533  1
  Si  Si16  1  0.823122  0.477207  0.750605  1
  Si  Si17  1  0.817914  0.144397  0.750389  1
  O  O18  1  0.116817  0.776430  0.912799  1
  O  O19  1  0.425945  0.939848  0.749440  1
  O  O20  1  0.120153  0.443300  0.912981  1
  O  O21  1  0.248951  0.902771  0.413175  1
  O  O22  1  0.174978  0.741860  0.394310  1
  O  O23  1  0.596390  0.767525  0.870769  1
  O  O24  1  0.424208  0.608588  0.753683  1
  O  O25  1  0.117877  0.113247  0.910938  1
  O  O26  1  0.244543  0.564575  0.413951  1
  O  O27  1  0.391053  0.895784  0.123830  1
  O  O28  1  0.184157  0.408643  0.374343  1
  O  O29  1  0.816511  0.924780  0.622397  1
  O  O30  1  0.608277  0.435962  0.878690  1
  O  O31  1  0.770014  0.766178  0.587575  1
  O  O32  1  0.430491  0.273851  0.749030  1
  O  O33  1  0.569661  0.726084  0.243591  1
  O  O34  1  0.251210  0.235964  0.410389  1
  O  O35  1  0.382711  0.569247  0.107279  1
  O  O36  1  0.185439  0.075669  0.382364  1
  O  O37  1  0.835210  0.591909  0.628361  1
  O  O38  1  0.607250  0.101205  0.881815  1
  O  O39  1  0.748126  0.432674  0.586055  1
  O  O40  1  0.881956  0.887946  0.087774  1
  O  O41  1  0.575415  0.395297  0.250371  1
  O  O42  1  0.393227  0.232143  0.118376  1
  O  O43  1  0.814683  0.258329  0.617596  1
  O  O44  1  0.749516  0.098090  0.589079  1
  O  O45  1  0.880996  0.555430  0.082341  1
  O  O46  1  0.568403  0.059699  0.249738  1
  O  O47  1  0.881629  0.219969  0.089253  1
