# generated using pymatgen
data_BaTl2O4
_symmetry_space_group_name_H-M   'P 1'
_cell_length_a   10.49268439
_cell_length_b   12.21187494
_cell_length_c   3.53124058
_cell_angle_alpha   90.00000000
_cell_angle_beta   90.00000000
_cell_angle_gamma   90.00000000
_symmetry_Int_Tables_number   1
_chemical_formula_structural   BaTl2O4
_chemical_formula_sum   'Ba4 Tl8 O16'
_cell_volume   452.47674608
_cell_formula_units_Z   4
loop_
 _symmetry_equiv_pos_site_id
 _symmetry_equiv_pos_as_xyz
  1  'x, y, z'
loop_
 _atom_site_type_symbol
 _atom_site_label
 _atom_site_symmetry_multiplicity
 _atom_site_fract_x
 _atom_site_fract_y
 _atom_site_fract_z
 _atom_site_occupancy
  Ba  Ba0  1  0.245236  0.348002  0.750000  1
  Ba  Ba1  1  0.254764  0.848002  0.250000  1
  Ba  Ba2  1  0.745236  0.151998  0.750000  1
  Ba  Ba3  1  0.754764  0.651998  0.250000  1
  Tl  Tl4  1  0.078519  0.607419  0.750000  1
  Tl  Tl5  1  0.074238  0.108281  0.750000  1
  Tl  Tl6  1  0.425762  0.608281  0.250000  1
  Tl  Tl7  1  0.421481  0.107419  0.250000  1
  Tl  Tl8  1  0.578519  0.892581  0.750000  1
  Tl  Tl9  1  0.574238  0.391719  0.750000  1
  Tl  Tl10  1  0.925762  0.891719  0.250000  1
  Tl  Tl11  1  0.921481  0.392581  0.250000  1
  O  O12  1  0.021783  0.718447  0.250000  1
  O  O13  1  0.077192  0.925570  0.750000  1
  O  O14  1  0.120304  0.482273  0.250000  1
  O  O15  1  0.207299  0.167130  0.250000  1
  O  O16  1  0.292701  0.667130  0.750000  1
  O  O17  1  0.379696  0.982273  0.750000  1
  O  O18  1  0.422808  0.425570  0.250000  1
  O  O19  1  0.478217  0.218447  0.750000  1
  O  O20  1  0.521783  0.781553  0.250000  1
  O  O21  1  0.577192  0.574430  0.750000  1
  O  O22  1  0.620304  0.017727  0.250000  1
  O  O23  1  0.707299  0.332870  0.250000  1
  O  O24  1  0.792701  0.832870  0.750000  1
  O  O25  1  0.879696  0.517727  0.750000  1
  O  O26  1  0.922808  0.074430  0.250000  1
  O  O27  1  0.978217  0.281553  0.750000  1
