# generated using pymatgen
data_Li2FeF4
_symmetry_space_group_name_H-M   'P 1'
_cell_length_a   8.61152056
_cell_length_b   8.62917752
_cell_length_c   3.25743020
_cell_angle_alpha   90.00855796
_cell_angle_beta   90.01012561
_cell_angle_gamma   90.02357615
_symmetry_Int_Tables_number   1
_chemical_formula_structural   Li2FeF4
_chemical_formula_sum   'Li4 Fe2 F8'
_cell_volume   242.06071743
_cell_formula_units_Z   2
loop_
 _symmetry_equiv_pos_site_id
 _symmetry_equiv_pos_as_xyz
  1  'x, y, z'
loop_
 _atom_site_type_symbol
 _atom_site_label
 _atom_site_symmetry_multiplicity
 _atom_site_fract_x
 _atom_site_fract_y
 _atom_site_fract_z
 _atom_site_occupancy
  Li  Li0  1  0.253763  0.770534  0.000029  1
  Li  Li1  1  0.229156  0.254045  0.999934  1
  Li  Li2  1  0.753738  0.729532  0.000067  1
  Li  Li3  1  0.729082  0.245930  0.999966  1
  Fe  Fe4  1  0.000220  0.500458  0.499985  1
  Fe  Fe5  1  0.500230  0.999524  0.500016  1
  F  F6  1  0.111747  0.614638  0.000027  1
  F  F7  1  0.165682  0.329883  0.499906  1
  F  F8  1  0.329291  0.833906  0.500137  1
  F  F9  1  0.385115  0.111743  0.000033  1
  F  F10  1  0.611699  0.885406  0.999986  1
  F  F11  1  0.665676  0.170141  0.499850  1
  F  F12  1  0.829307  0.666074  0.500105  1
  F  F13  1  0.885057  0.388187  0.999960  1
