# generated using pymatgen
data_AgPO3
_symmetry_space_group_name_H-M   'P 1'
_cell_length_a   11.22767883
_cell_length_b   4.05025827
_cell_length_c   5.87268551
_cell_angle_alpha   90.00000000
_cell_angle_beta   97.57978117
_cell_angle_gamma   90.00000000
_symmetry_Int_Tables_number   1
_chemical_formula_structural   AgPO3
_chemical_formula_sum   'Ag4 P4 O12'
_cell_volume   264.72683460
_cell_formula_units_Z   4
loop_
 _symmetry_equiv_pos_site_id
 _symmetry_equiv_pos_as_xyz
  1  'x, y, z'
loop_
 _atom_site_type_symbol
 _atom_site_label
 _atom_site_symmetry_multiplicity
 _atom_site_fract_x
 _atom_site_fract_y
 _atom_site_fract_z
 _atom_site_occupancy
  Ag  Ag0  1  0.090475  0.140367  0.772344  1
  Ag  Ag1  1  0.409525  0.640367  0.727656  1
  Ag  Ag2  1  0.590475  0.359633  0.272344  1
  Ag  Ag3  1  0.909525  0.859633  0.227656  1
  P  P4  1  0.171044  0.488215  0.325735  1
  P  P5  1  0.328956  0.988215  0.174265  1
  P  P6  1  0.671044  0.011785  0.825735  1
  P  P7  1  0.828956  0.511785  0.674265  1
  O  O8  1  0.060920  0.319219  0.207008  1
  O  O9  1  0.170265  0.649492  0.557117  1
  O  O10  1  0.212933  0.742839  0.138018  1
  O  O11  1  0.287067  0.242839  0.361982  1
  O  O12  1  0.329735  0.149492  0.942883  1
  O  O13  1  0.439080  0.819219  0.292992  1
  O  O14  1  0.560920  0.180781  0.707008  1
  O  O15  1  0.670265  0.850508  0.057117  1
  O  O16  1  0.712933  0.757161  0.638018  1
  O  O17  1  0.787067  0.257161  0.861982  1
  O  O18  1  0.829735  0.350508  0.442883  1
  O  O19  1  0.939080  0.680781  0.792992  1
