# generated using pymatgen
data_H12WN3(OF)3
_symmetry_space_group_name_H-M   'P 1'
_cell_length_a   7.35326624
_cell_length_b   6.77321599
_cell_length_c   6.87041238
_cell_angle_alpha   64.79542777
_cell_angle_beta   53.95789775
_cell_angle_gamma   62.89525708
_symmetry_Int_Tables_number   1
_chemical_formula_structural   H12WN3(OF)3
_chemical_formula_sum   'H12 W1 N3 O3 F3'
_cell_volume   240.30712049
_cell_formula_units_Z   1
loop_
 _symmetry_equiv_pos_site_id
 _symmetry_equiv_pos_as_xyz
  1  'x, y, z'
loop_
 _atom_site_type_symbol
 _atom_site_label
 _atom_site_symmetry_multiplicity
 _atom_site_fract_x
 _atom_site_fract_y
 _atom_site_fract_z
 _atom_site_occupancy
  H  H0  1  0.204994  0.222432  0.208533  1
  H  H1  1  0.174658  0.314892  0.427389  1
  H  H2  1  0.148769  0.513971  0.181953  1
  H  H3  1  0.409800  0.317134  0.141221  1
  H  H4  1  0.356335  0.282149  0.561253  1
  H  H5  1  0.197989  0.431894  0.760639  1
  H  H6  1  0.746960  0.403419  0.289766  1
  H  H7  1  0.556617  0.595796  0.571872  1
  H  H8  1  0.609540  0.856170  0.851408  1
  H  H9  1  0.855332  0.624277  0.763687  1
  H  H10  1  0.826375  0.855930  0.550813  1
  H  H11  1  0.878927  0.865494  0.754645  1
  W  W12  1  0.076057  0.048943  0.001967  1
  N  N13  1  0.233416  0.338905  0.241005  1
  N  N14  1  0.185944  0.330009  0.694533  1
  N  N15  1  0.791835  0.799422  0.731405  1
  O  O16  1  0.327179  0.991662  0.026451  1
  O  O17  1  0.834346  0.215918  0.229785  1
  O  O18  1  0.023933  0.772396  0.151816  1
  F  F19  1  0.479950  0.619136  0.740774  1
  F  F20  1  0.992558  0.050761  0.766159  1
  F  F21  1  0.662285  0.570491  0.331725  1
