# generated using pymatgen
data_Li4V2(PO4)3
_symmetry_space_group_name_H-M   'P 1'
_cell_length_a   9.23846099
_cell_length_b   9.23915022
_cell_length_c   9.18322268
_cell_angle_alpha   54.47854435
_cell_angle_beta   54.51656108
_cell_angle_gamma   55.09147828
_symmetry_Int_Tables_number   1
_chemical_formula_structural   Li4V2(PO4)3
_chemical_formula_sum   'Li8 V4 P6 O24'
_cell_volume   485.72625699
_cell_formula_units_Z   2
loop_
 _symmetry_equiv_pos_site_id
 _symmetry_equiv_pos_as_xyz
  1  'x, y, z'
loop_
 _atom_site_type_symbol
 _atom_site_label
 _atom_site_symmetry_multiplicity
 _atom_site_fract_x
 _atom_site_fract_y
 _atom_site_fract_z
 _atom_site_occupancy
  Li  Li0  1  0.079141  0.338740  0.724848  1
  Li  Li1  1  0.333926  0.727992  0.078723  1
  Li  Li2  1  0.728112  0.065579  0.307363  1
  Li  Li3  1  0.260541  0.788730  0.538919  1
  Li  Li4  1  0.739459  0.211270  0.461081  1
  Li  Li5  1  0.271888  0.934421  0.692637  1
  Li  Li6  1  0.666074  0.272008  0.921277  1
  Li  Li7  1  0.920859  0.661260  0.275152  1
  V  V8  1  0.147619  0.150576  0.141172  1
  V  V9  1  0.852381  0.849424  0.858828  1
  V  V10  1  0.347196  0.350196  0.342561  1
  V  V11  1  0.652804  0.649804  0.657439  1
  P  P12  1  0.038609  0.755705  0.449052  1
  P  P13  1  0.462310  0.044609  0.748406  1
  P  P14  1  0.749793  0.456652  0.042960  1
  P  P15  1  0.250207  0.543348  0.957040  1
  P  P16  1  0.537690  0.955391  0.251594  1
  P  P17  1  0.961391  0.244295  0.550948  1
  O  O18  1  0.150400  0.199611  0.554011  1
  O  O19  1  0.198873  0.564315  0.140451  1
  O  O20  1  0.548568  0.142815  0.202596  1
  O  O21  1  0.160888  0.543727  0.491129  1
  O  O22  1  0.142735  0.881084  0.244541  1
  O  O23  1  0.005801  0.811950  0.598009  1
  O  O24  1  0.259205  0.152664  0.864758  1
  O  O25  1  0.513463  0.164542  0.527037  1
  O  O26  1  0.536014  0.503201  0.162299  1
  O  O27  1  0.186207  0.392851  0.010164  1
  O  O28  1  0.140526  0.745074  0.832852  1
  O  O29  1  0.383390  0.990482  0.205371  1
  O  O30  1  0.616610  0.009518  0.794629  1
  O  O31  1  0.859474  0.254926  0.167148  1
  O  O32  1  0.813793  0.607149  0.989836  1
  O  O33  1  0.463986  0.496798  0.837701  1
  O  O34  1  0.486537  0.835458  0.472963  1
  O  O35  1  0.740795  0.847336  0.135242  1
  O  O36  1  0.994199  0.188050  0.401991  1
  O  O37  1  0.857265  0.118916  0.755459  1
  O  O38  1  0.839112  0.456273  0.508871  1
  O  O39  1  0.451432  0.857186  0.797404  1
  O  O40  1  0.801127  0.435685  0.859549  1
  O  O41  1  0.849600  0.800389  0.445989  1
