# generated using pymatgen
data_Re2H6PbC(NO5)2
_symmetry_space_group_name_H-M   'P 1'
_cell_length_a   10.79627980
_cell_length_b   7.83763970
_cell_length_c   14.42631353
_cell_angle_alpha   90.00000000
_cell_angle_beta   101.32358692
_cell_angle_gamma   90.00000000
_symmetry_Int_Tables_number   1
_chemical_formula_structural   Re2H6PbC(NO5)2
_chemical_formula_sum   'Re8 H24 Pb4 C4 N8 O40'
_cell_volume   1196.95386272
_cell_formula_units_Z   4
loop_
 _symmetry_equiv_pos_site_id
 _symmetry_equiv_pos_as_xyz
  1  'x, y, z'
loop_
 _atom_site_type_symbol
 _atom_site_label
 _atom_site_symmetry_multiplicity
 _atom_site_fract_x
 _atom_site_fract_y
 _atom_site_fract_z
 _atom_site_occupancy
  Re  Re0  1  0.016822  0.748313  0.591816  1
  Re  Re1  1  0.016822  0.751687  0.091816  1
  Re  Re2  1  0.496224  0.610412  0.734953  1
  Re  Re3  1  0.496224  0.889588  0.234953  1
  Re  Re4  1  0.503776  0.110412  0.765047  1
  Re  Re5  1  0.503776  0.389588  0.265047  1
  Re  Re6  1  0.983178  0.248313  0.908184  1
  Re  Re7  1  0.983178  0.251687  0.408184  1
  H  H8  1  0.163777  0.890932  0.770225  1
  H  H9  1  0.142286  0.385167  0.671631  1
  H  H10  1  0.197730  0.607047  0.816270  1
  H  H11  1  0.146519  0.189063  0.647766  1
  H  H12  1  0.260203  0.046667  0.829944  1
  H  H13  1  0.303589  0.555323  0.919828  1
  H  H14  1  0.163777  0.609068  0.270225  1
  H  H15  1  0.142286  0.114833  0.171631  1
  H  H16  1  0.197730  0.892953  0.316270  1
  H  H17  1  0.146519  0.310937  0.147766  1
  H  H18  1  0.260203  0.453333  0.329944  1
  H  H19  1  0.303589  0.944677  0.419828  1
  H  H20  1  0.696411  0.055323  0.580172  1
  H  H21  1  0.739797  0.546667  0.670056  1
  H  H22  1  0.853481  0.689063  0.852234  1
  H  H23  1  0.802270  0.107047  0.683730  1
  H  H24  1  0.857714  0.885167  0.828369  1
  H  H25  1  0.836223  0.390932  0.729775  1
  H  H26  1  0.696411  0.444677  0.080172  1
  H  H27  1  0.739797  0.953333  0.170056  1
  H  H28  1  0.853481  0.810937  0.352234  1
  H  H29  1  0.802270  0.392953  0.183730  1
  H  H30  1  0.857714  0.614833  0.328369  1
  H  H31  1  0.836223  0.109068  0.229775  1
  Pb  Pb32  1  0.357578  0.339653  0.538358  1
  Pb  Pb33  1  0.357578  0.160347  0.038358  1
  Pb  Pb34  1  0.642422  0.839653  0.961642  1
  Pb  Pb35  1  0.642422  0.660347  0.461642  1
  C  C36  1  0.290125  0.810834  0.889580  1
  C  C37  1  0.290125  0.689166  0.389580  1
  C  C38  1  0.709875  0.310834  0.610420  1
  C  C39  1  0.709875  0.189166  0.110420  1
  N  N40  1  0.225619  0.926046  0.829475  1
  N  N41  1  0.259463  0.645119  0.875204  1
  N  N42  1  0.225619  0.573954  0.329475  1
  N  N43  1  0.259463  0.854881  0.375204  1
  N  N44  1  0.740537  0.145119  0.624796  1
  N  N45  1  0.774381  0.426046  0.670525  1
  N  N46  1  0.740537  0.354881  0.124796  1
  N  N47  1  0.774381  0.073954  0.170525  1
  O  O48  1  0.054365  0.612582  0.690448  1
  O  O49  1  0.080380  0.951462  0.622459  1
  O  O50  1  0.149818  0.267512  0.942492  1
  O  O51  1  0.080190  0.664445  0.500140  1
  O  O52  1  0.054365  0.887418  0.190448  1
  O  O53  1  0.199359  0.291892  0.662180  1
  O  O54  1  0.080380  0.548538  0.122459  1
  O  O55  1  0.149818  0.232488  0.442492  1
  O  O56  1  0.080190  0.835555  0.000141  1
  O  O57  1  0.199359  0.208108  0.162180  1
  O  O58  1  0.377063  0.859163  0.959292  1
  O  O59  1  0.338812  0.661273  0.690829  1
  O  O60  1  0.407340  0.201214  0.837334  1
  O  O61  1  0.448516  0.091851  0.640713  1
  O  O62  1  0.377063  0.640837  0.459292  1
  O  O63  1  0.338812  0.838727  0.190829  1
  O  O64  1  0.497056  0.390560  0.703353  1
  O  O65  1  0.407340  0.298786  0.337334  1
  O  O66  1  0.502944  0.890560  0.796647  1
  O  O67  1  0.448516  0.408149  0.140713  1
  O  O68  1  0.551484  0.591851  0.859287  1
  O  O69  1  0.497056  0.109440  0.203353  1
  O  O70  1  0.592660  0.701214  0.662666  1
  O  O71  1  0.502944  0.609440  0.296647  1
  O  O72  1  0.661188  0.161273  0.809171  1
  O  O73  1  0.622937  0.359163  0.540708  1
  O  O74  1  0.551484  0.908149  0.359287  1
  O  O75  1  0.592660  0.798786  0.162666  1
  O  O76  1  0.661188  0.338727  0.309171  1
  O  O77  1  0.622937  0.140837  0.040708  1
  O  O78  1  0.800641  0.791892  0.837820  1
  O  O79  1  0.919810  0.164445  -0.000140  1
  O  O80  1  0.850182  0.767512  0.557508  1
  O  O81  1  0.919620  0.451462  0.877541  1
  O  O82  1  0.800641  0.708108  0.337820  1
  O  O83  1  0.945635  0.112582  0.809552  1
  O  O84  1  0.919810  0.335555  0.499859  1
  O  O85  1  0.850182  0.732488  0.057508  1
  O  O86  1  0.919620  0.048538  0.377541  1
  O  O87  1  0.945635  0.387418  0.309552  1
