# generated using pymatgen
data_Li4Mn3Co3(NiO8)2
_symmetry_space_group_name_H-M   'P 1'
_cell_length_a   5.73648558
_cell_length_b   5.75155390
_cell_length_c   9.55577970
_cell_angle_alpha   90.00063479
_cell_angle_beta   90.05702572
_cell_angle_gamma   120.08836866
_symmetry_Int_Tables_number   1
_chemical_formula_structural   Li4Mn3Co3(NiO8)2
_chemical_formula_sum   'Li4 Mn3 Co3 Ni2 O16'
_cell_volume   272.79735743
_cell_formula_units_Z   1
loop_
 _symmetry_equiv_pos_site_id
 _symmetry_equiv_pos_as_xyz
  1  'x, y, z'
loop_
 _atom_site_type_symbol
 _atom_site_label
 _atom_site_symmetry_multiplicity
 _atom_site_fract_x
 _atom_site_fract_y
 _atom_site_fract_z
 _atom_site_occupancy
  Li  Li0  1  0.328647  0.664325  0.894759  1
  Li  Li1  1  0.009626  0.004828  0.998867  1
  Li  Li2  1  0.011573  0.005804  0.496097  1
  Li  Li3  1  0.661366  0.330707  0.390853  1
  Mn  Mn4  1  0.659669  0.829839  0.215698  1
  Mn  Mn5  1  0.829575  0.661888  0.715355  1
  Mn  Mn6  1  0.829569  0.167715  0.715357  1
  Co  Co7  1  0.166438  0.830570  0.213331  1
  Co  Co8  1  0.166443  0.335867  0.213328  1
  Co  Co9  1  0.335941  0.167989  0.713420  1
  Ni  Ni10  1  0.334085  0.667059  0.488948  1
  Ni  Ni11  1  0.668566  0.334293  0.990413  1
  O  O12  1  0.164819  0.845951  0.608383  1
  O  O13  1  0.033630  0.516818  0.324275  1
  O  O14  1  0.331282  0.665638  0.108646  1
  O  O15  1  0.000922  0.000457  0.310743  1
  O  O16  1  0.001678  0.000863  0.812603  1
  O  O17  1  0.164832  0.318913  0.608395  1
  O  O18  1  0.475840  0.963969  0.329678  1
  O  O19  1  0.475838  0.511896  0.329683  1
  O  O20  1  0.319423  0.159710  0.112795  1
  O  O21  1  0.684772  0.842396  0.603665  1
  O  O22  1  0.510804  0.477721  0.829772  1
  O  O23  1  0.510793  0.033113  0.829766  1
  O  O24  1  0.666899  0.333462  0.607594  1
  O  O25  1  0.845860  0.683575  0.106910  1
  O  O26  1  0.965242  0.482642  0.831607  1
  O  O27  1  0.845870  0.162292  0.106902  1
