# generated using pymatgen
data_H48PtW6C8(NO)24
_symmetry_space_group_name_H-M   'P 1'
_cell_length_a   10.61527445
_cell_length_b   10.61526950
_cell_length_c   10.61523388
_cell_angle_alpha   76.32295962
_cell_angle_beta   76.32260243
_cell_angle_gamma   76.32297591
_symmetry_Int_Tables_number   1
_chemical_formula_structural   H48PtW6C8(NO)24
_chemical_formula_sum   'H48 Pt1 W6 C8 N24 O24'
_cell_volume   1108.44903676
_cell_formula_units_Z   1
loop_
 _symmetry_equiv_pos_site_id
 _symmetry_equiv_pos_as_xyz
  1  'x, y, z'
loop_
 _atom_site_type_symbol
 _atom_site_label
 _atom_site_symmetry_multiplicity
 _atom_site_fract_x
 _atom_site_fract_y
 _atom_site_fract_z
 _atom_site_occupancy
  H  H0  1  0.042277  0.862740  0.721465  1
  H  H1  1  0.171128  0.854788  0.350427  1
  H  H2  1  0.209687  0.885387  0.493111  1
  H  H3  1  0.278534  0.957724  0.137259  1
  H  H4  1  0.145211  0.649574  0.828871  1
  H  H5  1  0.006914  0.478452  0.361961  1
  H  H6  1  0.114611  0.506890  0.790312  1
  H  H7  1  0.552426  0.923170  0.678755  1
  H  H8  1  0.638039  0.993087  0.521547  1
  H  H9  1  0.598270  0.953737  0.865032  1
  H  H10  1  0.273072  0.580416  0.381234  1
  H  H11  1  0.466026  0.761503  0.529327  1
  H  H12  1  0.506888  0.790312  0.114612  1
  H  H13  1  0.076831  0.321245  0.447575  1
  H  H14  1  0.134970  0.401730  0.046262  1
  H  H15  1  0.238511  0.470669  0.533966  1
  H  H16  1  0.419571  0.618760  0.726946  1
  H  H17  1  0.649572  0.828872  0.145212  1
  H  H18  1  0.137260  0.278534  0.957723  1
  H  H19  1  0.618757  0.726933  0.419585  1
  H  H20  1  0.321245  0.447575  0.076831  1
  H  H21  1  0.046262  0.134970  0.401730  1
  H  H22  1  0.521548  0.638039  0.993085  1
  H  H23  1  0.470681  0.533969  0.238492  1
  H  H24  1  0.529319  0.466031  0.761508  1
  H  H25  1  0.478452  0.361961  0.006915  1
  H  H26  1  0.953738  0.865030  0.598270  1
  H  H27  1  0.678755  0.552425  0.923169  1
  H  H28  1  0.381243  0.273067  0.580415  1
  H  H29  1  0.862740  0.721466  0.042277  1
  H  H30  1  0.350428  0.171128  0.854788  1
  H  H31  1  0.580429  0.381240  0.273054  1
  H  H32  1  0.761489  0.529331  0.466034  1
  H  H33  1  0.865030  0.598270  0.953738  1
  H  H34  1  0.923169  0.678755  0.552425  1
  H  H35  1  0.493112  0.209687  0.885388  1
  H  H36  1  0.533974  0.238497  0.470673  1
  H  H37  1  0.726928  0.419584  0.618766  1
  H  H38  1  0.401730  0.046263  0.134968  1
  H  H39  1  0.361961  0.006913  0.478453  1
  H  H40  1  0.447574  0.076830  0.321245  1
  H  H41  1  0.885389  0.493110  0.209688  1
  H  H42  1  0.993086  0.521548  0.638039  1
  H  H43  1  0.854789  0.350426  0.171129  1
  H  H44  1  0.721466  0.042276  0.862741  1
  H  H45  1  0.790313  0.114613  0.506889  1
  H  H46  1  0.828872  0.145212  0.649573  1
  H  H47  1  0.957723  0.137260  0.278535  1
  Pt  Pt48  1  0.000000  0.000000  0.000000  1
  W  W49  1  0.287098  0.896567  0.819956  1
  W  W50  1  0.180045  0.712905  0.103436  1
  W  W51  1  0.103434  0.180045  0.712902  1
  W  W52  1  0.896566  0.819955  0.287098  1
  W  W53  1  0.819955  0.287095  0.896564  1
  W  W54  1  0.712902  0.103433  0.180044  1
  C  C55  1  0.312990  0.968638  0.318764  1
  C  C56  1  0.031362  0.681236  0.687009  1
  C  C57  1  0.681237  0.687010  0.031361  1
  C  C58  1  0.584998  0.585001  0.585010  1
  C  C59  1  0.415002  0.414999  0.414990  1
  C  C60  1  0.318763  0.312990  0.968639  1
  C  C61  1  0.968638  0.318764  0.312991  1
  C  C62  1  0.687010  0.031362  0.681236  1
  N  N63  1  0.011820  0.812994  0.664812  1
  N  N64  1  0.223467  0.898396  0.393032  1
  N  N65  1  0.335187  0.988181  0.187007  1
  N  N66  1  0.101602  0.606969  0.776532  1
  N  N67  1  0.616323  0.981546  0.621594  1
  N  N68  1  0.018456  0.378405  0.383678  1
  N  N69  1  0.301313  0.497908  0.447375  1
  N  N70  1  0.606966  0.776536  0.101601  1
  N  N71  1  0.552608  0.698705  0.502093  1
  N  N72  1  0.187009  0.335186  0.988180  1
  N  N73  1  0.502081  0.552632  0.698717  1
  N  N74  1  0.378406  0.383677  0.018455  1
  N  N75  1  0.621594  0.616323  0.981545  1
  N  N76  1  0.497919  0.447368  0.301282  1
  N  N77  1  0.812991  0.664814  0.011820  1
  N  N78  1  0.447392  0.301295  0.497907  1
  N  N79  1  0.393034  0.223464  0.898399  1
  N  N80  1  0.698687  0.502092  0.552625  1
  N  N81  1  0.981544  0.621595  0.616322  1
  N  N82  1  0.383677  0.018454  0.378406  1
  N  N83  1  0.898398  0.393031  0.223468  1
  N  N84  1  0.664813  0.011819  0.812993  1
  N  N85  1  0.776533  0.101604  0.606968  1
  N  N86  1  0.988180  0.187006  0.335188  1
  O  O87  1  0.080887  0.977916  0.809724  1
  O  O88  1  0.190274  0.919116  0.022085  1
  O  O89  1  0.091315  0.766927  0.275081  1
  O  O90  1  0.325396  0.854100  0.657982  1
  O  O91  1  0.233076  0.724922  0.908685  1
  O  O92  1  0.445702  0.870526  0.862932  1
  O  O93  1  0.137069  0.554301  0.129475  1
  O  O94  1  0.342017  0.674606  0.145903  1
  O  O95  1  0.145901  0.342016  0.674603  1
  O  O96  1  0.724920  0.908683  0.233075  1
  O  O97  1  0.022084  0.190275  0.919114  1
  O  O98  1  0.129475  0.137068  0.554297  1
  O  O99  1  0.870525  0.862932  0.445703  1
  O  O100  1  0.977916  0.809725  0.080886  1
  O  O101  1  0.275080  0.091317  0.766925  1
  O  O102  1  0.854099  0.657984  0.325397  1
  O  O103  1  0.657983  0.325394  0.854097  1
  O  O104  1  0.862931  0.445699  0.870525  1
  O  O105  1  0.554298  0.129474  0.137068  1
  O  O106  1  0.766924  0.275078  0.091315  1
  O  O107  1  0.674604  0.145900  0.342018  1
  O  O108  1  0.908685  0.233073  0.724919  1
  O  O109  1  0.809726  0.080884  0.977915  1
  O  O110  1  0.919113  0.022084  0.190276  1
