# generated using pymatgen
data_Li2Fe3P5O18
_symmetry_space_group_name_H-M   'P 1'
_cell_length_a   4.94157089
_cell_length_b   13.07895316
_cell_length_c   12.56987868
_cell_angle_alpha   88.26057747
_cell_angle_beta   89.94983507
_cell_angle_gamma   78.93452025
_symmetry_Int_Tables_number   1
_chemical_formula_structural   Li2Fe3P5O18
_chemical_formula_sum   'Li4 Fe6 P10 O36'
_cell_volume   796.91722140
_cell_formula_units_Z   2
loop_
 _symmetry_equiv_pos_site_id
 _symmetry_equiv_pos_as_xyz
  1  'x, y, z'
loop_
 _atom_site_type_symbol
 _atom_site_label
 _atom_site_symmetry_multiplicity
 _atom_site_fract_x
 _atom_site_fract_y
 _atom_site_fract_z
 _atom_site_occupancy
  Li  Li0  1  0.512375  0.670825  0.863958  1
  Li  Li1  1  0.814626  0.673141  0.365241  1
  Li  Li2  1  0.182342  0.325414  0.636195  1
  Li  Li3  1  0.493161  0.326914  0.136375  1
  Fe  Fe4  1  0.120564  0.603341  0.620713  1
  Fe  Fe5  1  0.274332  0.602967  0.120459  1
  Fe  Fe6  1  0.725503  0.396720  0.879921  1
  Fe  Fe7  1  0.879325  0.396945  0.379756  1
  Fe  Fe8  1  0.499950  0.000350  0.499580  1
  Fe  Fe9  1  0.498773  0.999394  0.000103  1
  P  P10  1  0.066159  0.863437  0.592280  1
  P  P11  1  0.070474  0.862475  0.092445  1
  P  P12  1  0.151567  0.548637  0.871711  1
  P  P13  1  0.299282  0.548301  0.372138  1
  P  P14  1  0.701020  0.451403  0.628328  1
  P  P15  1  0.848799  0.451239  0.128262  1
  P  P16  1  0.925642  0.136868  0.907932  1
  P  P17  1  0.932361  0.137439  0.407744  1
  P  P18  1  0.729816  0.000306  0.749791  1
  P  P19  1  0.264234  0.999830  0.249996  1
  O  O20  1  0.601654  0.950828  0.842876  1
  O  O21  1  0.227131  0.910113  0.005757  1
  O  O22  1  0.441792  0.951410  0.343041  1
  O  O23  1  0.981876  0.916367  0.705700  1
  O  O24  1  0.863103  0.911387  0.505419  1
  O  O25  1  0.097744  0.916011  0.205737  1
  O  O26  1  0.359809  0.874862  0.568517  1
  O  O27  1  0.765936  0.873757  0.068280  1
  O  O28  1  0.041677  0.749541  0.616201  1
  O  O29  1  0.210230  0.748891  0.117185  1
  O  O30  1  0.237984  0.612140  0.963456  1
  O  O31  1  0.224563  0.611392  0.772479  1
  O  O32  1  0.148463  0.611194  0.464486  1
  O  O33  1  0.161787  0.611261  0.273169  1
  O  O34  1  0.760583  0.563960  0.628332  1
  O  O35  1  0.841044  0.542916  0.876516  1
  O  O36  1  0.674650  0.563683  0.126279  1
  O  O37  1  0.615142  0.543326  0.377832  1
  O  O38  1  0.385195  0.456755  0.622727  1
  O  O39  1  0.325256  0.436128  0.873531  1
  O  O40  1  0.159340  0.456935  0.123439  1
  O  O41  1  0.240179  0.435771  0.372445  1
  O  O42  1  0.838062  0.388375  0.727475  1
  O  O43  1  0.852402  0.388209  0.536310  1
  O  O44  1  0.775362  0.388839  0.227558  1
  O  O45  1  0.762870  0.387278  0.036645  1
  O  O46  1  0.786161  0.250765  0.884328  1
  O  O47  1  0.958213  0.250882  0.382371  1
  O  O48  1  0.230434  0.125351  0.932528  1
  O  O49  1  0.639314  0.126705  0.432690  1
  O  O50  1  0.895928  0.084181  0.794529  1
  O  O51  1  0.136514  0.089117  0.494287  1
  O  O52  1  0.013722  0.084349  0.294016  1
  O  O53  1  0.553014  0.049945  0.656921  1
  O  O54  1  0.770384  0.088491  0.994350  1
  O  O55  1  0.393328  0.048014  0.156313  1
