# generated using pymatgen
data_LiZnPH2O5
_symmetry_space_group_name_H-M   'P 1'
_cell_length_a   10.15418552
_cell_length_b   16.73517420
_cell_length_c   5.07305725
_cell_angle_alpha   90.00000000
_cell_angle_beta   90.00000000
_cell_angle_gamma   90.00000000
_symmetry_Int_Tables_number   1
_chemical_formula_structural   LiZnPH2O5
_chemical_formula_sum   'Li8 Zn8 P8 H16 O40'
_cell_volume   862.07508693
_cell_formula_units_Z   8
loop_
 _symmetry_equiv_pos_site_id
 _symmetry_equiv_pos_as_xyz
  1  'x, y, z'
loop_
 _atom_site_type_symbol
 _atom_site_label
 _atom_site_symmetry_multiplicity
 _atom_site_fract_x
 _atom_site_fract_y
 _atom_site_fract_z
 _atom_site_occupancy
  Li  Li0  1  0.897864  0.251956  0.906514  1
  Li  Li1  1  0.397864  0.748044  0.093486  1
  Li  Li2  1  0.397864  0.248044  0.906514  1
  Li  Li3  1  0.897864  0.751956  0.093486  1
  Li  Li4  1  0.175990  0.996706  0.530594  1
  Li  Li5  1  0.675990  0.003294  0.469406  1
  Li  Li6  1  0.675990  0.503294  0.530594  1
  Li  Li7  1  0.175990  0.496706  0.469406  1
  Zn  Zn8  1  0.152511  0.190907  0.541050  1
  Zn  Zn9  1  0.652511  0.809093  0.458950  1
  Zn  Zn10  1  0.652511  0.309093  0.541050  1
  Zn  Zn11  1  0.152511  0.690907  0.458950  1
  Zn  Zn12  1  0.918012  0.056699  0.891630  1
  Zn  Zn13  1  0.418012  0.943301  0.108370  1
  Zn  Zn14  1  0.418012  0.443301  0.891630  1
  Zn  Zn15  1  0.918012  0.556699  0.108370  1
  P  P16  1  0.849018  0.158267  0.411804  1
  P  P17  1  0.349018  0.841733  0.588196  1
  P  P18  1  0.349018  0.341733  0.411804  1
  P  P19  1  0.849018  0.658267  0.588196  1
  P  P20  1  0.723451  0.908346  0.985082  1
  P  P21  1  0.223451  0.091654  0.014918  1
  P  P22  1  0.223451  0.591654  0.985082  1
  P  P23  1  0.723451  0.408346  0.014918  1
  H  H24  1  0.106359  0.302836  0.134086  1
  H  H25  1  0.606359  0.697164  0.865914  1
  H  H26  1  0.606359  0.197164  0.134086  1
  H  H27  1  0.106359  0.802836  0.865914  1
  H  H28  1  0.007460  0.372232  0.093894  1
  H  H29  1  0.507460  0.627768  0.906106  1
  H  H30  1  0.507460  0.127768  0.093894  1
  H  H31  1  0.007460  0.872232  0.906106  1
  H  H32  1  0.048934  0.880559  0.360422  1
  H  H33  1  0.548934  0.119441  0.639578  1
  H  H34  1  0.548934  0.619441  0.360422  1
  H  H35  1  0.048934  0.380559  0.639578  1
  H  H36  1  0.946102  0.947292  0.397091  1
  H  H37  1  0.446102  0.052708  0.602909  1
  H  H38  1  0.446102  0.552708  0.397091  1
  H  H39  1  0.946102  0.447292  0.602909  1
  O  O40  1  0.957478  0.204576  0.567257  1
  O  O41  1  0.457478  0.795424  0.432743  1
  O  O42  1  0.457478  0.295424  0.567257  1
  O  O43  1  0.957478  0.704576  0.432743  1
  O  O44  1  0.191828  0.097022  0.314201  1
  O  O45  1  0.691828  0.902978  0.685799  1
  O  O46  1  0.691828  0.402978  0.314201  1
  O  O47  1  0.191828  0.597022  0.685799  1
  O  O48  1  0.238866  0.176776  0.892759  1
  O  O49  1  0.738866  0.823224  0.107241  1
  O  O50  1  0.738866  0.323224  0.892759  1
  O  O51  1  0.238866  0.676776  0.107241  1
  O  O52  1  0.832769  0.073356  0.536972  1
  O  O53  1  0.332769  0.926644  0.463028  1
  O  O54  1  0.332769  0.426644  0.536972  1
  O  O55  1  0.832769  0.573356  0.463028  1
  O  O56  1  0.112563  0.046243  0.864292  1
  O  O57  1  0.612563  0.953757  0.135708  1
  O  O58  1  0.612563  0.453757  0.864292  1
  O  O59  1  0.112563  0.546243  0.135708  1
  O  O60  1  0.887008  0.151290  0.116601  1
  O  O61  1  0.387008  0.848710  0.883399  1
  O  O62  1  0.387008  0.348710  0.116601  1
  O  O63  1  0.887008  0.651290  0.883399  1
  O  O64  1  0.217041  0.295516  0.430072  1
  O  O65  1  0.717041  0.704484  0.569928  1
  O  O66  1  0.717041  0.204484  0.430072  1
  O  O67  1  0.217041  0.795516  0.569928  1
  O  O68  1  0.853807  0.954796  0.028531  1
  O  O69  1  0.353807  0.045204  0.971469  1
  O  O70  1  0.353807  0.545204  0.028531  1
  O  O71  1  0.853807  0.454796  0.971469  1
  O  O72  1  0.039576  0.323322  0.010486  1
  O  O73  1  0.539576  0.676678  0.989514  1
  O  O74  1  0.539576  0.176678  0.010486  1
  O  O75  1  0.039576  0.823322  0.989514  1
  O  O76  1  0.027162  0.926101  0.474062  1
  O  O77  1  0.527162  0.073899  0.525938  1
  O  O78  1  0.527162  0.573899  0.474062  1
  O  O79  1  0.027162  0.426101  0.525938  1
