# generated using pymatgen
data_LiVSiO4
_symmetry_space_group_name_H-M   'P 1'
_cell_length_a   10.89236511
_cell_length_b   10.89236488
_cell_length_c   12.19847491
_cell_angle_alpha   90.00000000
_cell_angle_beta   90.00000000
_cell_angle_gamma   119.99999770
_symmetry_Int_Tables_number   1
_chemical_formula_structural   LiVSiO4
_chemical_formula_sum   'Li12 V12 Si12 O48'
_cell_volume   1253.37362216
_cell_formula_units_Z   12
loop_
 _symmetry_equiv_pos_site_id
 _symmetry_equiv_pos_as_xyz
  1  'x, y, z'
loop_
 _atom_site_type_symbol
 _atom_site_label
 _atom_site_symmetry_multiplicity
 _atom_site_fract_x
 _atom_site_fract_y
 _atom_site_fract_z
 _atom_site_occupancy
  Li  Li0  1  0.000000  0.500000  0.007858  1
  Li  Li1  1  0.000000  0.500000  0.658809  1
  Li  Li2  1  0.000000  0.500000  0.333333  1
  Li  Li3  1  0.000000  0.000000  0.166667  1
  Li  Li4  1  0.000000  0.000000  0.500000  1
  Li  Li5  1  0.000000  0.000000  0.833333  1
  Li  Li6  1  0.500000  0.500000  0.341191  1
  Li  Li7  1  0.500000  0.500000  0.666667  1
  Li  Li8  1  0.500000  0.500000  0.992142  1
  Li  Li9  1  0.500000  0.000000  0.325475  1
  Li  Li10  1  0.500000  0.000000  0.000000  1
  Li  Li11  1  0.500000  0.000000  0.674525  1
  V  V12  1  1.000000  0.748879  0.833333  1
  V  V13  1  0.000000  0.251121  0.833333  1
  V  V14  1  0.250943  0.749057  0.166667  1
  V  V15  1  0.250943  0.501887  0.500000  1
  V  V16  1  0.498113  0.749057  0.833333  1
  V  V17  1  0.251121  0.251121  0.166667  1
  V  V18  1  0.251121  0.000000  0.500000  1
  V  V19  1  0.748879  0.748879  0.166667  1
  V  V20  1  0.501887  0.250943  0.833333  1
  V  V21  1  0.749057  0.498113  0.500000  1
  V  V22  1  0.749057  0.250943  0.166667  1
  V  V23  1  0.748879  1.000000  0.500000  1
  Si  Si24  1  0.000000  0.754669  0.333333  1
  Si  Si25  1  0.247739  0.752261  0.666667  1
  Si  Si26  1  1.000000  0.245331  0.333333  1
  Si  Si27  1  0.247739  0.495478  0.000000  1
  Si  Si28  1  0.245331  0.245331  0.666667  1
  Si  Si29  1  0.504522  0.752261  0.333333  1
  Si  Si30  1  0.245331  1.000000  0.000000  1
  Si  Si31  1  0.495478  0.247739  0.333333  1
  Si  Si32  1  0.754669  0.754669  0.666667  1
  Si  Si33  1  0.752261  0.504522  0.000000  1
  Si  Si34  1  0.752261  0.247739  0.666667  1
  Si  Si35  1  0.754669  0.000000  0.000000  1
  O  O36  1  0.075023  0.883919  0.423421  1
  O  O37  1  0.116081  0.924977  0.909912  1
  O  O38  1  0.097875  0.694133  0.733426  1
  O  O39  1  0.104621  0.707504  0.271389  1
  O  O40  1  0.292496  0.895379  0.061944  1
  O  O41  1  0.305867  0.902125  0.599907  1
  O  O42  1  0.197928  0.613999  0.587054  1
  O  O43  1  0.097875  0.403741  0.933240  1
  O  O44  1  0.197928  0.583929  0.079613  1
  O  O45  1  0.104621  0.397117  0.395278  1
  O  O46  1  0.075023  0.191104  0.243245  1
  O  O47  1  0.386001  0.802072  0.746280  1
  O  O48  1  0.416071  0.802072  0.253720  1
  O  O49  1  0.116081  0.191104  0.756755  1
  O  O50  1  0.292496  0.397117  0.604722  1
  O  O51  1  0.386001  0.583929  0.920387  1
  O  O52  1  0.305867  0.403741  0.066760  1
  O  O53  1  0.416071  0.613999  0.412946  1
  O  O54  1  0.191104  0.116081  0.576579  1
  O  O55  1  0.191104  0.075023  0.090088  1
  O  O56  1  0.596259  0.902125  0.400093  1
  O  O57  1  0.602883  0.895379  0.938056  1
  O  O58  1  0.602883  0.707504  0.728611  1
  O  O59  1  0.403741  0.305867  0.266574  1
  O  O60  1  0.596259  0.694133  0.266574  1
  O  O61  1  0.397117  0.292496  0.728611  1
  O  O62  1  0.397117  0.104621  0.938056  1
  O  O63  1  0.403741  0.097875  0.400093  1
  O  O64  1  0.808896  0.924977  0.090088  1
  O  O65  1  0.808896  0.883919  0.576579  1
  O  O66  1  0.583929  0.386001  0.412946  1
  O  O67  1  0.694133  0.596259  0.066760  1
  O  O68  1  0.613999  0.416071  0.920387  1
  O  O69  1  0.707504  0.602883  0.604722  1
  O  O70  1  0.883919  0.808896  0.756755  1
  O  O71  1  0.583929  0.197928  0.253720  1
  O  O72  1  0.613999  0.197928  0.746280  1
  O  O73  1  0.924977  0.808896  0.243245  1
  O  O74  1  0.895379  0.602883  0.395278  1
  O  O75  1  0.802072  0.416071  0.079613  1
  O  O76  1  0.902125  0.596259  0.933240  1
  O  O77  1  0.802072  0.386001  0.587054  1
  O  O78  1  0.694133  0.097875  0.599907  1
  O  O79  1  0.707504  0.104621  0.061944  1
  O  O80  1  0.895379  0.292496  0.271389  1
  O  O81  1  0.902125  0.305867  0.733426  1
  O  O82  1  0.883919  0.075023  0.909912  1
  O  O83  1  0.924977  0.116081  0.423421  1
