# generated using pymatgen
data_Li4Ti3Co2Sn3O16
_symmetry_space_group_name_H-M   'P 1'
_cell_length_a   6.14503085
_cell_length_b   6.11600602
_cell_length_c   9.82525124
_cell_angle_alpha   89.99992084
_cell_angle_beta   89.45766176
_cell_angle_gamma   119.84467842
_symmetry_Int_Tables_number   1
_chemical_formula_structural   Li4Ti3Co2Sn3O16
_chemical_formula_sum   'Li4 Ti3 Co2 Sn3 O16'
_cell_volume   320.27128496
_cell_formula_units_Z   1
loop_
 _symmetry_equiv_pos_site_id
 _symmetry_equiv_pos_as_xyz
  1  'x, y, z'
loop_
 _atom_site_type_symbol
 _atom_site_label
 _atom_site_symmetry_multiplicity
 _atom_site_fract_x
 _atom_site_fract_y
 _atom_site_fract_z
 _atom_site_occupancy
  Li  Li0  1  0.336713  0.668364  0.885958  1
  Li  Li1  1  0.983264  0.991643  0.996312  1
  Li  Li2  1  0.987178  0.993599  0.501440  1
  Li  Li3  1  0.669832  0.334932  0.390635  1
  Ti  Ti4  1  0.660601  0.830307  0.216811  1
  Ti  Ti5  1  0.829880  0.168645  0.716051  1
  Ti  Ti6  1  0.830008  0.661143  0.716122  1
  Co  Co7  1  0.336457  0.668238  0.497665  1
  Co  Co8  1  0.672667  0.336353  0.992753  1
  Sn  Sn9  1  0.169997  0.831113  0.214511  1
  Sn  Sn10  1  0.169973  0.338910  0.214507  1
  Sn  Sn11  1  0.339992  0.170006  0.713048  1
  O  O12  1  0.150443  0.834426  0.603057  1
  O  O13  1  0.033354  0.516693  0.338637  1
  O  O14  1  0.349242  0.674637  0.097344  1
  O  O15  1  0.987632  0.993828  0.318734  1
  O  O16  1  0.987937  0.993979  0.813892  1
  O  O17  1  0.150445  0.316049  0.603062  1
  O  O18  1  0.493890  0.966007  0.333762  1
  O  O19  1  0.493876  0.527901  0.333762  1
  O  O20  1  0.314190  0.157113  0.095747  1
  O  O21  1  0.684384  0.842261  0.611762  1
  O  O22  1  0.528687  0.492143  0.832370  1
  O  O23  1  0.528703  0.036585  0.832373  1
  O  O24  1  0.687298  0.343666  0.602240  1
  O  O25  1  0.831121  0.681530  0.104544  1
  O  O26  1  0.961125  0.480618  0.826205  1
  O  O27  1  0.831116  0.149612  0.104538  1
