# generated using pymatgen
data_LiH20C8ClO4
_symmetry_space_group_name_H-M   'P 1'
_cell_length_a   7.79329541
_cell_length_b   7.79329541
_cell_length_c   12.21195264
_cell_angle_alpha   85.24562119
_cell_angle_beta   94.75437881
_cell_angle_gamma   117.57598985
_symmetry_Int_Tables_number   1
_chemical_formula_structural   LiH20C8ClO4
_chemical_formula_sum   'Li2 H40 C16 Cl2 O8'
_cell_volume   654.34520126
_cell_formula_units_Z   2
loop_
 _symmetry_equiv_pos_site_id
 _symmetry_equiv_pos_as_xyz
  1  'x, y, z'
loop_
 _atom_site_type_symbol
 _atom_site_label
 _atom_site_symmetry_multiplicity
 _atom_site_fract_x
 _atom_site_fract_y
 _atom_site_fract_z
 _atom_site_occupancy
  Li  Li0  1  0.946191  0.946191  0.750000  1
  Li  Li1  1  0.053809  0.053809  0.250000  1
  H  H2  1  0.861303  0.710718  0.469209  1
  H  H3  1  0.710718  0.861303  0.030791  1
  H  H4  1  0.138697  0.289282  0.530791  1
  H  H5  1  0.289282  0.138697  0.969209  1
  H  H6  1  0.760181  0.549491  0.586546  1
  H  H7  1  0.549491  0.760181  0.913454  1
  H  H8  1  0.239819  0.450509  0.413454  1
  H  H9  1  0.450509  0.239819  0.086546  1
  H  H10  1  0.558932  0.874221  0.599676  1
  H  H11  1  0.874221  0.558932  0.900324  1
  H  H12  1  0.441068  0.125779  0.400324  1
  H  H13  1  0.125779  0.441068  0.099676  1
  H  H14  1  0.507332  0.624379  0.604910  1
  H  H15  1  0.624379  0.507332  0.895090  1
  H  H16  1  0.492668  0.375621  0.395090  1
  H  H17  1  0.375621  0.492668  0.104910  1
  H  H18  1  0.576702  0.768596  0.477699  1
  H  H19  1  0.768596  0.576702  0.022301  1
  H  H20  1  0.423298  0.231404  0.522301  1
  H  H21  1  0.231404  0.423298  0.977699  1
  H  H22  1  0.110991  0.648809  0.585316  1
  H  H23  1  0.648809  0.110991  0.914684  1
  H  H24  1  0.889009  0.351191  0.414684  1
  H  H25  1  0.351191  0.889009  0.085316  1
  H  H26  1  0.166945  0.900354  0.578634  1
  H  H27  1  0.900354  0.166945  0.921366  1
  H  H28  1  0.833055  0.099646  0.421366  1
  H  H29  1  0.099646  0.833055  0.078634  1
  H  H30  1  0.221858  0.771329  0.869634  1
  H  H31  1  0.771329  0.221858  0.630366  1
  H  H32  1  0.778142  0.228671  0.130366  1
  H  H33  1  0.228671  0.778142  0.369634  1
  H  H34  1  0.355549  0.918638  0.755923  1
  H  H35  1  0.918638  0.355549  0.744077  1
  H  H36  1  0.644451  0.081362  0.244077  1
  H  H37  1  0.081362  0.644451  0.255923  1
  H  H38  1  0.271700  0.658855  0.762198  1
  H  H39  1  0.658855  0.271700  0.737802  1
  H  H40  1  0.728300  0.341145  0.237802  1
  H  H41  1  0.341145  0.728300  0.262198  1
  C  C42  1  0.861826  0.699688  0.560173  1
  C  C43  1  0.699688  0.861826  0.939827  1
  C  C44  1  0.138174  0.300312  0.439827  1
  C  C45  1  0.300312  0.138174  0.060173  1
  C  C46  1  0.598421  0.769856  0.567986  1
  C  C47  1  0.769856  0.598421  0.932014  1
  C  C48  1  0.401579  0.230144  0.432014  1
  C  C49  1  0.230144  0.401579  0.067986  1
  C  C50  1  0.063403  0.753613  0.608945  1
  C  C51  1  0.753613  0.063403  0.891055  1
  C  C52  1  0.936597  0.246387  0.391055  1
  C  C53  1  0.246387  0.936597  0.108945  1
  C  C54  1  0.238398  0.776095  0.780648  1
  C  C55  1  0.776095  0.238398  0.719352  1
  C  C56  1  0.761602  0.223905  0.219352  1
  C  C57  1  0.223905  0.761602  0.280648  1
  Cl  Cl58  1  0.245627  0.245627  0.750000  1
  Cl  Cl59  1  0.754373  0.754373  0.250000  1
  O  O60  1  0.798999  0.829933  0.599038  1
  O  O61  1  0.829933  0.798999  0.900962  1
  O  O62  1  0.201001  0.170067  0.400962  1
  O  O63  1  0.170067  0.201001  0.099038  1
  O  O64  1  0.057689  0.748188  0.726410  1
  O  O65  1  0.748188  0.057689  0.773590  1
  O  O66  1  0.942311  0.251812  0.273590  1
  O  O67  1  0.251812  0.942311  0.226410  1
