# generated using pymatgen
data_Na5LiMn2P2(CO7)2
_symmetry_space_group_name_H-M   'P 1'
_cell_length_a   8.98679072
_cell_length_b   6.76709285
_cell_length_c   10.37496075
_cell_angle_alpha   90.30921807
_cell_angle_beta   89.96520786
_cell_angle_gamma   89.39054764
_symmetry_Int_Tables_number   1
_chemical_formula_structural   Na5LiMn2P2(CO7)2
_chemical_formula_sum   'Na10 Li2 Mn4 P4 C4 O28'
_cell_volume   630.90248226
_cell_formula_units_Z   2
loop_
 _symmetry_equiv_pos_site_id
 _symmetry_equiv_pos_as_xyz
  1  'x, y, z'
loop_
 _atom_site_type_symbol
 _atom_site_label
 _atom_site_symmetry_multiplicity
 _atom_site_fract_x
 _atom_site_fract_y
 _atom_site_fract_z
 _atom_site_occupancy
  Na  Na0  1  0.083306  0.245544  0.880561  1
  Na  Na1  1  0.082824  0.247862  0.379266  1
  Na  Na2  1  0.258098  0.001201  0.623431  1
  Na  Na3  1  0.258957  0.498745  0.623300  1
  Na  Na4  1  0.258229  0.498372  0.123884  1
  Na  Na5  1  0.741771  0.501628  0.876116  1
  Na  Na6  1  0.741043  0.501255  0.376700  1
  Na  Na7  1  0.741902  0.998799  0.376569  1
  Na  Na8  1  0.917176  0.752138  0.620734  1
  Na  Na9  1  0.916694  0.754456  0.119439  1
  Li  Li10  1  0.268554  0.009471  0.120624  1
  Li  Li11  1  0.731446  0.990529  0.879376  1
  Mn  Mn12  1  0.361373  0.751743  0.890282  1
  Mn  Mn13  1  0.361680  0.750900  0.388451  1
  Mn  Mn14  1  0.638320  0.249100  0.611549  1
  Mn  Mn15  1  0.638627  0.248257  0.109718  1
  P  P16  1  0.414160  0.245959  0.852117  1
  P  P17  1  0.409958  0.246880  0.349504  1
  P  P18  1  0.590042  0.753120  0.650496  1
  P  P19  1  0.585840  0.754041  0.147883  1
  C  C20  1  0.056371  0.756915  0.868891  1
  C  C21  1  0.060724  0.751492  0.366780  1
  C  C22  1  0.939276  0.248508  0.633220  1
  C  C23  1  0.943629  0.243085  0.131109  1
  O  O24  1  0.083068  0.251784  0.644136  1
  O  O25  1  0.088145  0.232809  0.140749  1
  O  O26  1  0.120168  0.751617  0.981366  1
  O  O27  1  0.122346  0.751238  0.480449  1
  O  O28  1  0.139495  0.751213  0.765664  1
  O  O29  1  0.144872  0.754742  0.264370  1
  O  O30  1  0.318955  0.067544  0.896467  1
  O  O31  1  0.326761  0.434833  0.895173  1
  O  O32  1  0.318888  0.066285  0.395091  1
  O  O33  1  0.318290  0.434287  0.388687  1
  O  O34  1  0.427258  0.245891  0.702006  1
  O  O35  1  0.431976  0.749674  0.590898  1
  O  O36  1  0.424082  0.237062  0.198793  1
  O  O37  1  0.425358  0.764336  0.091637  1
  O  O38  1  0.574642  0.235664  0.908363  1
  O  O39  1  0.575918  0.762938  0.801207  1
  O  O40  1  0.568024  0.250326  0.409102  1
  O  O41  1  0.572742  0.754109  0.297994  1
  O  O42  1  0.681710  0.565713  0.611313  1
  O  O43  1  0.681112  0.933715  0.604909  1
  O  O44  1  0.673239  0.565167  0.104827  1
  O  O45  1  0.681045  0.932456  0.103533  1
  O  O46  1  0.855128  0.245258  0.735630  1
  O  O47  1  0.860505  0.248787  0.234336  1
  O  O48  1  0.877654  0.248762  0.519551  1
  O  O49  1  0.879832  0.248383  0.018634  1
  O  O50  1  0.911855  0.767191  0.859251  1
  O  O51  1  0.916932  0.748216  0.355864  1
