# generated using pymatgen
data_NaSnAsCO7
_symmetry_space_group_name_H-M   'P 1'
_cell_length_a   9.53067804
_cell_length_b   6.83700029
_cell_length_c   5.43786739
_cell_angle_alpha   90.00000000
_cell_angle_beta   87.11377789
_cell_angle_gamma   90.00000000
_symmetry_Int_Tables_number   1
_chemical_formula_structural   NaSnAsCO7
_chemical_formula_sum   'Na2 Sn2 As2 C2 O14'
_cell_volume   353.88874831
_cell_formula_units_Z   2
loop_
 _symmetry_equiv_pos_site_id
 _symmetry_equiv_pos_as_xyz
  1  'x, y, z'
loop_
 _atom_site_type_symbol
 _atom_site_label
 _atom_site_symmetry_multiplicity
 _atom_site_fract_x
 _atom_site_fract_y
 _atom_site_fract_z
 _atom_site_occupancy
  Na  Na0  1  0.188274  0.498585  0.224707  1
  Na  Na1  1  0.811726  0.998585  0.775293  1
  Sn  Sn2  1  0.340205  0.759791  0.787770  1
  Sn  Sn3  1  0.659795  0.259791  0.212230  1
  As  As4  1  0.432560  0.253419  0.723665  1
  As  As5  1  0.567440  0.753419  0.276335  1
  C  C6  1  0.077828  0.740356  0.720617  1
  C  C7  1  0.922172  0.240356  0.279383  1
  O  O8  1  0.048428  0.248251  0.315466  1
  O  O9  1  0.132861  0.744068  0.943444  1
  O  O10  1  0.179742  0.730826  0.538067  1
  O  O11  1  0.325277  0.060567  0.798571  1
  O  O12  1  0.335135  0.450579  0.822374  1
  O  O13  1  0.406509  0.742078  0.146284  1
  O  O14  1  0.467725  0.269328  0.406692  1
  O  O15  1  0.532275  0.769328  0.593308  1
  O  O16  1  0.593491  0.242078  0.853716  1
  O  O17  1  0.664865  0.950579  0.177626  1
  O  O18  1  0.674723  0.560567  0.201429  1
  O  O19  1  0.820258  0.230826  0.461932  1
  O  O20  1  0.867139  0.244068  0.056556  1
  O  O21  1  0.951572  0.748251  0.684534  1
