# generated using pymatgen
data_Na2LaPCO7
_symmetry_space_group_name_H-M   'P 1'
_cell_length_a   9.46693809
_cell_length_b   7.18551795
_cell_length_c   5.29258998
_cell_angle_alpha   90.00000000
_cell_angle_beta   91.08998845
_cell_angle_gamma   90.00000000
_symmetry_Int_Tables_number   1
_chemical_formula_structural   Na2LaPCO7
_chemical_formula_sum   'Na4 La2 P2 C2 O14'
_cell_volume   359.96251187
_cell_formula_units_Z   2
loop_
 _symmetry_equiv_pos_site_id
 _symmetry_equiv_pos_as_xyz
  1  'x, y, z'
loop_
 _atom_site_type_symbol
 _atom_site_label
 _atom_site_symmetry_multiplicity
 _atom_site_fract_x
 _atom_site_fract_y
 _atom_site_fract_z
 _atom_site_occupancy
  Na  Na0  1  0.202505  0.495112  0.226791  1
  Na  Na1  1  0.202505  0.004888  0.226791  1
  Na  Na2  1  0.797495  0.504888  0.773209  1
  Na  Na3  1  0.797495  0.995112  0.773209  1
  La  La4  1  0.384994  0.750000  0.763989  1
  La  La5  1  0.615006  0.250000  0.236011  1
  P  P6  1  0.409306  0.250000  0.711810  1
  P  P7  1  0.590694  0.750000  0.288190  1
  C  C8  1  0.077155  0.750000  0.729621  1
  C  C9  1  0.922845  0.250000  0.270379  1
  O  O10  1  0.055589  0.250000  0.294045  1
  O  O11  1  0.142936  0.750000  0.950905  1
  O  O12  1  0.161038  0.750000  0.531478  1
  O  O13  1  0.351219  0.074460  0.843623  1
  O  O14  1  0.351219  0.425540  0.843623  1
  O  O15  1  0.423787  0.750000  0.261389  1
  O  O16  1  0.376670  0.250000  0.422732  1
  O  O17  1  0.623330  0.750000  0.577268  1
  O  O18  1  0.576213  0.250000  0.738611  1
  O  O19  1  0.648781  0.574460  0.156377  1
  O  O20  1  0.648781  0.925540  0.156377  1
  O  O21  1  0.838962  0.250000  0.468522  1
  O  O22  1  0.857064  0.250000  0.049095  1
  O  O23  1  0.944411  0.750000  0.705955  1
