# generated using pymatgen
data_Li3Fe8(BO3)8
_symmetry_space_group_name_H-M   'P 1'
_cell_length_a   5.22810498
_cell_length_b   9.15960278
_cell_length_c   11.41790213
_cell_angle_alpha   66.99037303
_cell_angle_beta   76.41679825
_cell_angle_gamma   89.37902528
_symmetry_Int_Tables_number   1
_chemical_formula_structural   Li3Fe8(BO3)8
_chemical_formula_sum   'Li3 Fe8 B8 O24'
_cell_volume   487.18780111
_cell_formula_units_Z   1
loop_
 _symmetry_equiv_pos_site_id
 _symmetry_equiv_pos_as_xyz
  1  'x, y, z'
loop_
 _atom_site_type_symbol
 _atom_site_label
 _atom_site_symmetry_multiplicity
 _atom_site_fract_x
 _atom_site_fract_y
 _atom_site_fract_z
 _atom_site_occupancy
  Li  Li0  1  0.971064  0.972361  0.392304  1
  Li  Li1  1  0.734444  0.737144  0.164988  1
  Li  Li2  1  0.024169  0.001392  0.649577  1
  Fe  Fe3  1  0.978487  0.645731  0.382978  1
  Fe  Fe4  1  0.728031  0.072236  0.875418  1
  Fe  Fe5  1  0.532882  0.838396  0.629227  1
  Fe  Fe6  1  0.763124  0.423427  0.130595  1
  Fe  Fe7  1  0.233069  0.565704  0.877835  1
  Fe  Fe8  1  0.465801  0.155578  0.381627  1
  Fe  Fe9  1  0.021277  0.356512  0.625458  1
  Fe  Fe10  1  0.266150  0.935146  0.130888  1
  B  B11  1  0.964481  0.305204  0.383377  1
  B  B12  1  0.729282  0.394108  0.880151  1
  B  B13  1  0.508637  0.180192  0.634118  1
  B  B14  1  0.764572  0.099210  0.130725  1
  B  B15  1  0.490922  0.827057  0.366239  1
  B  B16  1  0.237329  0.897541  0.876859  1
  B  B17  1  0.035831  0.688829  0.627200  1
  B  B18  1  0.268340  0.607916  0.122749  1
  O  O19  1  0.992615  0.934488  0.854565  1
  O  O20  1  0.865387  0.287826  0.831114  1
  O  O21  1  0.865705  0.472457  0.933438  1
  O  O22  1  0.922381  0.830236  0.603438  1
  O  O23  1  0.951468  0.577394  0.586001  1
  O  O24  1  0.752625  0.161453  0.674511  1
  O  O25  1  0.758552  0.341912  0.320013  1
  O  O26  1  0.477641  0.416594  0.876351  1
  O  O27  1  0.368013  0.782264  0.844994  1
  O  O28  1  0.573218  0.924994  0.419098  1
  O  O29  1  0.635717  0.712522  0.343906  1
  O  O30  1  0.361021  0.982793  0.931379  1
  O  O31  1  0.650650  0.002297  0.080170  1
  O  O32  1  0.363961  0.302386  0.638477  1
  O  O33  1  0.426867  0.069024  0.593647  1
  O  O34  1  0.620604  0.210886  0.162165  1
  O  O35  1  0.524308  0.588627  0.130010  1
  O  O36  1  0.243171  0.657649  0.686975  1
  O  O37  1  0.247627  0.850721  0.327426  1
  O  O38  1  0.037554  0.408303  0.435542  1
  O  O39  1  0.082265  0.167825  0.398284  1
  O  O40  1  0.133292  0.518600  0.078159  1
  O  O41  1  0.126716  0.720468  0.161056  1
  O  O42  1  0.011191  0.073784  0.148372  1
