# generated using pymatgen
data_Li2CrSiO4
_symmetry_space_group_name_H-M   'P 1'
_cell_length_a   6.11809641
_cell_length_b   11.31630012
_cell_length_c   5.22720994
_cell_angle_alpha   90.00000000
_cell_angle_beta   92.98752335
_cell_angle_gamma   90.00000000
_symmetry_Int_Tables_number   1
_chemical_formula_structural   Li2CrSiO4
_chemical_formula_sum   'Li8 Cr4 Si4 O16'
_cell_volume   361.40991986
_cell_formula_units_Z   4
loop_
 _symmetry_equiv_pos_site_id
 _symmetry_equiv_pos_as_xyz
  1  'x, y, z'
loop_
 _atom_site_type_symbol
 _atom_site_label
 _atom_site_symmetry_multiplicity
 _atom_site_fract_x
 _atom_site_fract_y
 _atom_site_fract_z
 _atom_site_occupancy
  Li  Li0  1  0.001074  0.842482  0.685962  1
  Li  Li1  1  0.246913  0.067645  0.706719  1
  Li  Li2  1  0.253087  0.567645  0.793281  1
  Li  Li3  1  0.498926  0.342482  0.814038  1
  Li  Li4  1  0.501074  0.657518  0.185962  1
  Li  Li5  1  0.746913  0.432355  0.206719  1
  Li  Li6  1  0.753087  0.932355  0.293281  1
  Li  Li7  1  0.998926  0.157518  0.314038  1
  Cr  Cr8  1  0.007938  0.668955  0.190077  1
  Cr  Cr9  1  0.492062  0.168955  0.309923  1
  Cr  Cr10  1  0.507938  0.831045  0.690077  1
  Cr  Cr11  1  0.992062  0.331045  0.809923  1
  Si  Si12  1  0.247837  0.407909  0.305580  1
  Si  Si13  1  0.252163  0.907909  0.194420  1
  Si  Si14  1  0.747837  0.092091  0.805580  1
  Si  Si15  1  0.752163  0.592091  0.694420  1
  O  O16  1  0.027253  0.329259  0.210072  1
  O  O17  1  0.026988  0.844177  0.293013  1
  O  O18  1  0.260603  0.041098  0.322282  1
  O  O19  1  0.249409  0.413490  0.619439  1
  O  O20  1  0.250591  0.913490  0.880561  1
  O  O21  1  0.239397  0.541098  0.177718  1
  O  O22  1  0.473012  0.344177  0.206987  1
  O  O23  1  0.472747  0.829259  0.289928  1
  O  O24  1  0.527253  0.170741  0.710072  1
  O  O25  1  0.526988  0.655823  0.793013  1
  O  O26  1  0.760603  0.458902  0.822282  1
  O  O27  1  0.749409  0.086510  0.119439  1
  O  O28  1  0.750591  0.586510  0.380561  1
  O  O29  1  0.739397  0.958902  0.677718  1
  O  O30  1  0.973012  0.155823  0.706987  1
  O  O31  1  0.972747  0.670741  0.789928  1
