# generated using pymatgen
data_Na(CuO)2
_symmetry_space_group_name_H-M   'P 1'
_cell_length_a   6.08409287
_cell_length_b   6.08409287
_cell_length_c   13.10415806
_cell_angle_alpha   90.00000000
_cell_angle_beta   90.00000000
_cell_angle_gamma   90.00000000
_symmetry_Int_Tables_number   1
_chemical_formula_structural   Na(CuO)2
_chemical_formula_sum   'Na8 Cu16 O16'
_cell_volume   485.06595279
_cell_formula_units_Z   8
loop_
 _symmetry_equiv_pos_site_id
 _symmetry_equiv_pos_as_xyz
  1  'x, y, z'
loop_
 _atom_site_type_symbol
 _atom_site_label
 _atom_site_symmetry_multiplicity
 _atom_site_fract_x
 _atom_site_fract_y
 _atom_site_fract_z
 _atom_site_occupancy
  Na  Na0  1  0.010212  0.250000  0.328843  1
  Na  Na1  1  0.250000  0.010212  0.828843  1
  Na  Na2  1  0.250000  0.489788  0.828843  1
  Na  Na3  1  0.489788  0.250000  0.328843  1
  Na  Na4  1  0.510212  0.750000  0.671157  1
  Na  Na5  1  0.750000  0.989788  0.171157  1
  Na  Na6  1  0.750000  0.510212  0.171157  1
  Na  Na7  1  0.989788  0.750000  0.671157  1
  Cu  Cu8  1  0.002044  0.750000  0.358735  1
  Cu  Cu9  1  0.001920  0.750000  0.994955  1
  Cu  Cu10  1  0.250000  0.502044  0.141265  1
  Cu  Cu11  1  0.250000  0.501920  0.505045  1
  Cu  Cu12  1  0.250000  0.998080  0.505045  1
  Cu  Cu13  1  0.250000  0.997956  0.141265  1
  Cu  Cu14  1  0.498080  0.750000  0.994955  1
  Cu  Cu15  1  0.497956  0.750000  0.358735  1
  Cu  Cu16  1  0.502044  0.250000  0.641265  1
  Cu  Cu17  1  0.501920  0.250000  0.005045  1
  Cu  Cu18  1  0.750000  0.001920  0.494955  1
  Cu  Cu19  1  0.750000  0.498080  0.494955  1
  Cu  Cu20  1  0.750000  0.002044  0.858735  1
  Cu  Cu21  1  0.750000  0.497956  0.858735  1
  Cu  Cu22  1  0.998080  0.250000  0.005045  1
  Cu  Cu23  1  0.997956  0.250000  0.641265  1
  O  O24  1  0.031659  0.250000  0.146164  1
  O  O25  1  0.034004  0.750000  0.135393  1
  O  O26  1  0.250000  0.534004  0.364607  1
  O  O27  1  0.250000  0.031659  0.646164  1
  O  O28  1  0.250000  0.468341  0.646164  1
  O  O29  1  0.250000  0.965996  0.364607  1
  O  O30  1  0.465996  0.750000  0.135393  1
  O  O31  1  0.468341  0.250000  0.146164  1
  O  O32  1  0.531659  0.750000  0.853836  1
  O  O33  1  0.534004  0.250000  0.864606  1
  O  O34  1  0.750000  0.968341  0.353836  1
  O  O35  1  0.750000  0.531659  0.353836  1
  O  O36  1  0.750000  0.034004  0.635394  1
  O  O37  1  0.750000  0.465996  0.635394  1
  O  O38  1  0.965996  0.250000  0.864606  1
  O  O39  1  0.968341  0.750000  0.853836  1
