# generated using pymatgen
data_Fe3C10SeO10
_symmetry_space_group_name_H-M   'P 1'
_cell_length_a   8.88047112
_cell_length_b   10.34454164
_cell_length_c   16.54493282
_cell_angle_alpha   90.00000000
_cell_angle_beta   97.40917097
_cell_angle_gamma   90.00000000
_symmetry_Int_Tables_number   1
_chemical_formula_structural   Fe3C10SeO10
_chemical_formula_sum   'Fe12 C40 Se4 O40'
_cell_volume   1507.20010700
_cell_formula_units_Z   4
loop_
 _symmetry_equiv_pos_site_id
 _symmetry_equiv_pos_as_xyz
  1  'x, y, z'
loop_
 _atom_site_type_symbol
 _atom_site_label
 _atom_site_symmetry_multiplicity
 _atom_site_fract_x
 _atom_site_fract_y
 _atom_site_fract_z
 _atom_site_occupancy
  Fe  Fe0  1  0.240395  0.677978  0.833111  1
  Fe  Fe1  1  0.724477  0.246327  0.012362  1
  Fe  Fe2  1  0.004462  0.766435  0.901712  1
  Fe  Fe3  1  0.775523  0.746327  0.487638  1
  Fe  Fe4  1  0.740395  0.822022  0.333111  1
  Fe  Fe5  1  0.275523  0.753673  0.987638  1
  Fe  Fe6  1  0.495538  0.266435  0.598288  1
  Fe  Fe7  1  0.259605  0.177978  0.666889  1
  Fe  Fe8  1  0.995538  0.233565  0.098288  1
  Fe  Fe9  1  0.224477  0.253673  0.512362  1
  Fe  Fe10  1  0.759605  0.322022  0.166889  1
  Fe  Fe11  1  0.504462  0.733565  0.401712  1
  C  C12  1  0.743201  0.793747  0.588629  1
  C  C13  1  0.142481  0.269327  0.725998  1
  C  C14  1  0.401616  0.147064  0.751016  1
  C  C15  1  0.569897  0.416978  0.639162  1
  C  C16  1  0.157627  0.318904  0.147680  1
  C  C17  1  0.642481  0.230673  0.225998  1
  C  C18  1  0.558758  0.288988  0.501335  1
  C  C19  1  0.357519  0.769327  0.774002  1
  C  C20  1  0.859775  0.962343  0.329973  1
  C  C21  1  0.342373  0.818904  0.352320  1
  C  C22  1  0.669433  0.086930  0.978278  1
  C  C23  1  0.169433  0.413070  0.478278  1
  C  C24  1  0.941242  0.788988  0.998665  1
  C  C25  1  0.208821  0.853913  0.880678  1
  C  C26  1  0.140225  0.037657  0.670027  1
  C  C27  1  0.830567  0.586930  0.521722  1
  C  C28  1  0.069897  0.083022  0.139162  1
  C  C29  1  0.037472  0.193006  0.512325  1
  C  C30  1  0.930103  0.916978  0.860838  1
  C  C31  1  0.291179  0.353913  0.619322  1
  C  C32  1  0.901616  0.352936  0.251016  1
  C  C33  1  0.598384  0.852936  0.248984  1
  C  C34  1  0.857519  0.730673  0.274002  1
  C  C35  1  0.842373  0.681096  0.852320  1
  C  C36  1  0.537472  0.306994  0.012325  1
  C  C37  1  0.430103  0.583022  0.360838  1
  C  C38  1  0.256799  0.206253  0.411371  1
  C  C39  1  0.330567  0.913070  0.021722  1
  C  C40  1  0.640225  0.462343  0.170027  1
  C  C41  1  0.756799  0.293747  0.911371  1
  C  C42  1  0.657627  0.181096  0.647680  1
  C  C43  1  0.098384  0.647064  0.748984  1
  C  C44  1  0.708821  0.646087  0.380678  1
  C  C45  1  0.962528  0.806994  0.487675  1
  C  C46  1  0.243201  0.706253  0.088629  1
  C  C47  1  0.791179  0.146087  0.119322  1
  C  C48  1  0.462528  0.693006  0.987675  1
  C  C49  1  0.441242  0.711012  0.498665  1
  C  C50  1  0.359775  0.537657  0.829973  1
  C  C51  1  0.058758  0.211012  0.001335  1
  Se  Se52  1  0.131640  0.570834  0.937319  1
  Se  Se53  1  0.368360  0.070834  0.562681  1
  Se  Se54  1  0.868360  0.429166  0.062681  1
  Se  Se55  1  0.631640  0.929166  0.437319  1
  O  O56  1  0.934890  0.052949  0.325743  1
  O  O57  1  0.413789  0.344576  0.009639  1
  O  O58  1  0.010037  0.627889  0.692438  1
  O  O59  1  0.065732  0.328461  0.763388  1
  O  O60  1  0.764923  0.037633  0.140158  1
  O  O61  1  0.434890  0.447051  0.825743  1
  O  O62  1  0.735077  0.537633  0.359842  1
  O  O63  1  0.227182  0.675881  0.154229  1
  O  O64  1  0.733970  0.628251  0.823375  1
  O  O65  1  0.272818  0.175881  0.345771  1
  O  O66  1  0.565732  0.171539  0.263388  1
  O  O67  1  0.772818  0.324119  0.845771  1
  O  O68  1  0.392521  0.698176  0.559888  1
  O  O69  1  0.119415  0.986798  0.165947  1
  O  O70  1  0.065110  0.947051  0.674257  1
  O  O71  1  0.434268  0.828461  0.736612  1
  O  O72  1  0.766030  0.128251  0.676625  1
  O  O73  1  0.380585  0.486798  0.334053  1
  O  O74  1  0.233970  0.871749  0.323375  1
  O  O75  1  0.138607  0.516786  0.456182  1
  O  O76  1  0.107479  0.198176  0.940112  1
  O  O77  1  0.607479  0.301824  0.440112  1
  O  O78  1  0.619415  0.513202  0.665947  1
  O  O79  1  0.727182  0.824119  0.654229  1
  O  O80  1  0.489963  0.127889  0.807562  1
  O  O81  1  0.934268  0.671539  0.236612  1
  O  O82  1  0.266030  0.371749  0.176625  1
  O  O83  1  0.913789  0.155424  0.509639  1
  O  O84  1  0.989963  0.372111  0.307562  1
  O  O85  1  0.892521  0.801824  0.059888  1
  O  O86  1  0.235077  0.962367  0.859842  1
  O  O87  1  0.086211  0.844576  0.490361  1
  O  O88  1  0.264923  0.462367  0.640158  1
  O  O89  1  0.586211  0.655424  0.990361  1
  O  O90  1  0.861393  0.483214  0.543818  1
  O  O91  1  0.638607  0.983214  0.956182  1
  O  O92  1  0.510037  0.872111  0.192438  1
  O  O93  1  0.361393  0.016786  0.043818  1
  O  O94  1  0.565110  0.552949  0.174257  1
  O  O95  1  0.880585  0.013202  0.834053  1
