# generated using pymatgen
data_Ba3LiTi5Nb3O21
_symmetry_space_group_name_H-M   'P 1'
_cell_length_a   9.20039548
_cell_length_b   9.24078301
_cell_length_c   11.74593326
_cell_angle_alpha   89.99999494
_cell_angle_beta   90.00020245
_cell_angle_gamma   119.85584023
_symmetry_Int_Tables_number   1
_chemical_formula_structural   Ba3LiTi5Nb3O21
_chemical_formula_sum   'Ba6 Li2 Ti10 Nb6 O42'
_cell_volume   866.08890565
_cell_formula_units_Z   2
loop_
 _symmetry_equiv_pos_site_id
 _symmetry_equiv_pos_as_xyz
  1  'x, y, z'
loop_
 _atom_site_type_symbol
 _atom_site_label
 _atom_site_symmetry_multiplicity
 _atom_site_fract_x
 _atom_site_fract_y
 _atom_site_fract_z
 _atom_site_occupancy
  Ba  Ba0  1  0.996764  0.591888  0.249873  1
  Ba  Ba1  1  0.003244  0.408124  0.749870  1
  Ba  Ba2  1  0.404868  0.408127  0.249873  1
  Ba  Ba3  1  0.595127  0.591884  0.749872  1
  Ba  Ba4  1  0.402801  0.000005  0.748778  1
  Ba  Ba5  1  0.597194  0.000003  0.248778  1
  Li  Li6  1  0.994778  0.000002  0.245944  1
  Li  Li7  1  0.005223  0.000001  0.745943  1
  Ti  Ti8  1  -0.000049  0.748536  0.910610  1
  Ti  Ti9  1  0.995328  0.749393  0.593320  1
  Ti  Ti10  1  0.000049  0.251472  0.410607  1
  Ti  Ti11  1  0.004665  0.250614  0.093320  1
  Ti  Ti12  1  0.245939  0.250613  0.593320  1
  Ti  Ti13  1  0.251416  0.251467  0.910610  1
  Ti  Ti14  1  0.248074  -0.000000  0.084460  1
  Ti  Ti15  1  0.748581  0.748543  0.410613  1
  Ti  Ti16  1  0.754055  0.749390  0.093320  1
  Ti  Ti17  1  0.751921  0.000008  0.584460  1
  Nb  Nb18  1  0.330597  0.664104  0.002763  1
  Nb  Nb19  1  0.333501  0.664106  0.502768  1
  Nb  Nb20  1  0.245919  0.000004  0.409257  1
  Nb  Nb21  1  0.666494  0.335896  0.002765  1
  Nb  Nb22  1  0.669400  0.335907  0.502764  1
  Nb  Nb23  1  0.754086  1.000000  0.909255  1
  O  O24  1  0.998638  0.796544  0.073180  1
  O  O25  1  0.001147  0.796326  0.426368  1
  O  O26  1  0.998536  0.796125  0.750633  1
  O  O27  1  0.166451  0.685792  0.899052  1
  O  O28  1  0.167042  0.688237  0.598643  1
  O  O29  1  0.001464  0.203876  0.250633  1
  O  O30  1  0.001361  0.203457  0.573179  1
  O  O31  1  0.998856  0.203681  0.926368  1
  O  O32  1  0.312953  0.833442  0.100258  1
  O  O33  1  0.316302  0.831366  0.396161  1
  O  O34  1  0.168527  0.482054  0.104109  1
  O  O35  1  0.168521  0.480365  0.400253  1
  O  O36  1  0.311847  0.480365  0.900254  1
  O  O37  1  0.313530  0.482055  0.604110  1
  O  O38  1  0.520490  0.833441  0.600261  1
  O  O39  1  0.515062  0.831364  0.896162  1
  O  O40  1  0.202096  0.203454  0.073181  1
  O  O41  1  0.204822  0.203675  0.426367  1
  O  O42  1  0.202412  0.203876  0.750632  1
  O  O43  1  0.521195  0.688239  0.098645  1
  O  O44  1  0.519342  0.685795  0.399053  1
  O  O45  1  0.199975  0.000001  0.577470  1
  O  O46  1  0.203624  0.999999  0.925746  1
  O  O47  1  0.196786  0.999998  0.247893  1
  O  O48  1  0.480659  0.314205  0.899053  1
  O  O49  1  0.478805  0.311764  0.598643  1
  O  O50  1  0.797589  0.796122  0.250633  1
  O  O51  1  0.797911  0.796548  0.573182  1
  O  O52  1  0.795177  0.796323  0.926366  1
  O  O53  1  0.479512  0.166556  0.100260  1
  O  O54  1  0.484942  0.168639  0.396160  1
  O  O55  1  0.688153  0.519639  0.400258  1
  O  O56  1  0.686471  0.517946  0.104108  1
  O  O57  1  0.831474  0.517950  0.604110  1
  O  O58  1  0.831482  0.519634  0.900255  1
  O  O59  1  0.687051  0.166563  0.600259  1
  O  O60  1  0.683696  0.168634  0.896164  1
  O  O61  1  0.833548  0.314208  0.399051  1
  O  O62  1  0.832957  0.311761  0.098647  1
  O  O63  1  0.803213  1.000000  0.747889  1
  O  O64  1  0.796374  0.999996  0.425745  1
  O  O65  1  0.800030  0.000000  0.077467  1
