# generated using pymatgen
data_CaTi2(HO3)2
_symmetry_space_group_name_H-M   'P 1'
_cell_length_a   4.97458513
_cell_length_b   12.20023354
_cell_length_c   16.06113985
_cell_angle_alpha   89.98873864
_cell_angle_beta   98.86838701
_cell_angle_gamma   89.99002492
_symmetry_Int_Tables_number   1
_chemical_formula_structural   CaTi2(HO3)2
_chemical_formula_sum   'Ca8 Ti16 H16 O48'
_cell_volume   963.11493087
_cell_formula_units_Z   8
loop_
 _symmetry_equiv_pos_site_id
 _symmetry_equiv_pos_as_xyz
  1  'x, y, z'
loop_
 _atom_site_type_symbol
 _atom_site_label
 _atom_site_symmetry_multiplicity
 _atom_site_fract_x
 _atom_site_fract_y
 _atom_site_fract_z
 _atom_site_occupancy
  Ca  Ca0  1  0.976124  0.450403  0.759841  1
  Ca  Ca1  1  0.474052  0.050710  0.258730  1
  Ca  Ca2  1  0.025704  0.551352  0.241539  1
  Ca  Ca3  1  0.529600  0.947992  0.740343  1
  Ca  Ca4  1  0.913360  0.811800  0.122432  1
  Ca  Ca5  1  0.412476  0.688391  0.623256  1
  Ca  Ca6  1  0.087319  0.187341  0.877125  1
  Ca  Ca7  1  0.586991  0.312668  0.377278  1
  Ti  Ti8  1  0.674461  0.196492  0.042470  1
  Ti  Ti9  1  0.172754  0.303611  0.542866  1
  Ti  Ti10  1  0.329098  0.802750  0.956512  1
  Ti  Ti11  1  0.825968  0.697561  0.457863  1
  Ti  Ti12  1  0.276993  0.012379  0.060804  1
  Ti  Ti13  1  0.775252  0.486938  0.561849  1
  Ti  Ti14  1  0.725967  0.986599  0.938226  1
  Ti  Ti15  1  0.224656  0.513618  0.439018  1
  Ti  Ti16  1  0.524117  0.409953  0.927422  1
  Ti  Ti17  1  0.023272  0.090110  0.426962  1
  Ti  Ti18  1  0.477051  0.589491  0.073257  1
  Ti  Ti19  1  0.976970  0.910715  0.573043  1
  Ti  Ti20  1  0.917826  0.612374  0.951494  1
  Ti  Ti21  1  0.415975  0.887511  0.450988  1
  Ti  Ti22  1  0.084823  0.386946  0.049646  1
  Ti  Ti23  1  0.582995  0.113427  0.548864  1
  H  H24  1  0.428278  0.704232  0.210584  1
  H  H25  1  0.928571  0.795063  0.710092  1
  H  H26  1  0.573017  0.296612  0.789316  1
  H  H27  1  0.071561  0.203338  0.288012  1
  H  H28  1  0.450514  0.584533  0.797674  1
  H  H29  1  0.949561  0.917322  0.297312  1
  H  H30  1  0.553279  0.415725  0.202058  1
  H  H31  1  0.053258  0.081947  0.702384  1
  H  H32  1  0.326633  0.748335  0.293920  1
  H  H33  1  0.830192  0.752740  0.794679  1
  H  H34  1  0.673567  0.254629  0.705292  1
  H  H35  1  0.173281  0.247301  0.204484  1
  H  H36  1  0.199923  0.663161  0.798837  1
  H  H37  1  0.697204  0.839497  0.297340  1
  H  H38  1  0.806494  0.337735  0.202172  1
  H  H39  1  0.305655  0.159660  0.702478  1
  O  O40  1  0.545570  0.902583  0.040198  1
  O  O41  1  0.042170  0.597704  0.541863  1
  O  O42  1  0.457692  0.097587  0.958298  1
  O  O43  1  0.956265  0.402824  0.459186  1
  O  O44  1  0.830150  0.312541  0.952709  1
  O  O45  1  0.328959  0.188017  0.452457  1
  O  O46  1  0.171450  0.687304  0.047652  1
  O  O47  1  0.671253  0.813026  0.547835  1
  O  O48  1  0.617842  0.692261  0.984089  1
  O  O49  1  0.117231  0.807694  0.484368  1
  O  O50  1  0.383748  0.307435  0.016513  1
  O  O51  1  0.882563  0.192854  0.515462  1
  O  O52  1  0.230257  0.503301  0.965035  1
  O  O53  1  0.728846  0.997199  0.464150  1
  O  O54  1  0.769205  0.496412  0.035677  1
  O  O55  1  0.269651  0.003690  0.535681  1
  O  O56  1  0.959781  0.101113  0.012570  1
  O  O57  1  0.458808  0.398580  0.512678  1
  O  O58  1  0.043155  0.897930  0.986411  1
  O  O59  1  0.540174  0.602409  0.487986  1
  O  O60  1  0.058412  0.712138  0.882280  1
  O  O61  1  0.557450  0.787905  0.382202  1
  O  O62  1  0.944386  0.286877  0.118044  1
  O  O63  1  0.441745  0.212352  0.618014  1
  O  O64  1  0.706455  0.520527  0.867142  1
  O  O65  1  0.206193  0.979107  0.366515  1
  O  O66  1  0.292354  0.479422  0.134011  1
  O  O67  1  0.792778  0.021035  0.633038  1
  O  O68  1  0.327108  0.345290  0.837742  1
  O  O69  1  0.827920  0.154902  0.336909  1
  O  O70  1  0.672432  0.654351  0.163290  1
  O  O71  1  0.171971  0.845236  0.662812  1
  O  O72  1  0.258666  0.723558  0.235210  1
  O  O73  1  0.759670  0.776267  0.735903  1
  O  O74  1  0.742275  0.278246  0.764178  1
  O  O75  1  0.241001  0.222367  0.263839  1
  O  O76  1  0.281074  0.611520  0.760992  1
  O  O77  1  0.778724  0.891923  0.260351  1
  O  O78  1  0.723751  0.390194  0.238997  1
  O  O79  1  0.222936  0.107880  0.739737  1
  O  O80  1  0.184217  0.964415  0.155888  1
  O  O81  1  0.679609  0.533624  0.656795  1
  O  O82  1  0.817828  0.034100  0.842971  1
  O  O83  1  0.318998  0.466387  0.343855  1
  O  O84  1  0.534473  0.120266  0.123790  1
  O  O85  1  0.036116  0.379785  0.624882  1
  O  O86  1  0.470562  0.878019  0.875105  1
  O  O87  1  0.967993  0.621607  0.376573  1
