# generated using pymatgen
data_LiLa5Ti8O24
_symmetry_space_group_name_H-M   'P 1'
_cell_length_a   7.79336909
_cell_length_b   8.70633245
_cell_length_c   8.76476477
_cell_angle_alpha   113.37546668
_cell_angle_beta   90.00000000
_cell_angle_gamma   63.41217585
_symmetry_Int_Tables_number   1
_chemical_formula_structural   LiLa5Ti8O24
_chemical_formula_sum   'Li1 La5 Ti8 O24'
_cell_volume   476.60514718
_cell_formula_units_Z   1
loop_
 _symmetry_equiv_pos_site_id
 _symmetry_equiv_pos_as_xyz
  1  'x, y, z'
loop_
 _atom_site_type_symbol
 _atom_site_label
 _atom_site_symmetry_multiplicity
 _atom_site_fract_x
 _atom_site_fract_y
 _atom_site_fract_z
 _atom_site_occupancy
  Li  Li0  1  0.492449  0.015100  0.999616  1
  La  La1  1  0.622859  0.754281  0.498688  1
  La  La2  1  0.875462  0.249078  0.501933  1
  La  La3  1  0.127872  0.744257  0.497845  1
  La  La4  1  0.248786  0.502429  0.999794  1
  La  La5  1  0.373523  0.252955  0.501480  1
  Ti  Ti6  1  0.930167  0.633232  0.760111  1
  Ti  Ti7  1  0.810355  0.873590  0.239782  1
  Ti  Ti8  1  0.316054  0.873590  0.239782  1
  Ti  Ti9  1  0.571105  0.367661  0.240380  1
  Ti  Ti10  1  0.691351  0.127131  0.759782  1
  Ti  Ti11  1  0.436601  0.633232  0.760111  1
  Ti  Ti12  1  0.061235  0.367661  0.240380  1
  Ti  Ti13  1  0.181518  0.127131  0.759782  1
  O  O14  1  0.810059  0.865577  0.731778  1
  O  O15  1  0.892170  0.738273  0.000012  1
  O  O16  1  0.944876  0.631169  0.264374  1
  O  O17  1  0.694127  0.611747  0.725039  1
  O  O18  1  0.942795  0.114409  0.726777  1
  O  O19  1  0.804428  0.391144  0.277230  1
  O  O20  1  0.557397  0.885207  0.267534  1
  O  O21  1  0.558157  0.366667  0.735438  1
  O  O22  1  0.591575  0.256050  0.999963  1
  O  O23  1  0.324364  0.865577  0.731778  1
  O  O24  1  0.680774  0.134435  0.268915  1
  O  O25  1  0.423955  0.631169  0.264374  1
  O  O26  1  0.369557  0.738273  0.000012  1
  O  O27  1  0.493824  0.499644  0.500299  1
  O  O28  1  0.749222  0.998915  0.499748  1
  O  O29  1  0.062711  0.874577  0.267402  1
  O  O30  1  0.438450  0.123099  0.732349  1
  O  O31  1  0.195217  0.609567  0.738438  1
  O  O32  1  0.306266  0.387467  0.264711  1
  O  O33  1  0.006532  0.499644  0.500299  1
  O  O34  1  0.075175  0.366667  0.735438  1
  O  O35  1  0.251863  0.998915  0.499748  1
  O  O36  1  0.152375  0.256050  0.999963  1
  O  O37  1  0.184791  0.134435  0.268915  1
