# generated using pymatgen
data_Li2MnPCO7
_symmetry_space_group_name_H-M   'P 1'
_cell_length_a   8.44994279
_cell_length_b   5.02429236
_cell_length_c   6.46020118
_cell_angle_alpha   90.08287733
_cell_angle_beta   89.16904078
_cell_angle_gamma   86.27564946
_symmetry_Int_Tables_number   1
_chemical_formula_structural   Li2MnPCO7
_chemical_formula_sum   'Li4 Mn2 P2 C2 O14'
_cell_volume   273.65893906
_cell_formula_units_Z   2
loop_
 _symmetry_equiv_pos_site_id
 _symmetry_equiv_pos_as_xyz
  1  'x, y, z'
loop_
 _atom_site_type_symbol
 _atom_site_label
 _atom_site_symmetry_multiplicity
 _atom_site_fract_x
 _atom_site_fract_y
 _atom_site_fract_z
 _atom_site_occupancy
  Li  Li0  1  0.265148  0.255944  0.039086  1
  Li  Li1  1  0.263693  0.255850  0.467185  1
  Li  Li2  1  0.732496  0.745770  0.531437  1
  Li  Li3  1  0.891885  0.224518  0.764501  1
  Mn  Mn4  1  0.336255  0.807092  0.751768  1
  Mn  Mn5  1  0.675618  0.190588  0.246043  1
  P  P6  1  0.416551  0.733444  0.254520  1
  P  P7  1  0.584259  0.281839  0.744447  1
  C  C8  1  0.044101  0.709478  0.740764  1
  C  C9  1  0.959487  0.274364  0.257848  1
  O  O10  1  0.069473  0.959273  0.750515  1
  O  O11  1  0.100735  0.343770  0.256032  1
  O  O12  1  0.174593  0.541568  0.754934  1
  O  O13  1  0.327076  0.842416  0.060194  1
  O  O14  1  0.313750  0.842096  0.442452  1
  O  O15  1  0.416374  0.165088  0.751022  1
  O  O16  1  0.434773  0.422748  0.253491  1
  O  O17  1  0.553666  0.584589  0.712631  1
  O  O18  1  0.584057  0.840541  0.264476  1
  O  O19  1  0.683187  0.210166  0.935455  1
  O  O20  1  0.690164  0.158890  0.565832  1
  O  O21  1  0.836940  0.455899  0.263708  1
  O  O22  1  0.911420  0.612412  0.717112  1
  O  O23  1  0.918076  0.031996  0.250734  1
