# generated using pymatgen
data_Li5NiOF5
_symmetry_space_group_name_H-M   'P 1'
_cell_length_a   2.90444269
_cell_length_b   2.90444632
_cell_length_c   12.38938250
_cell_angle_alpha   89.99997422
_cell_angle_beta   89.99974525
_cell_angle_gamma   90.00004478
_symmetry_Int_Tables_number   1
_chemical_formula_structural   Li5NiOF5
_chemical_formula_sum   'Li5 Ni1 O1 F5'
_cell_volume   104.51432640
_cell_formula_units_Z   1
loop_
 _symmetry_equiv_pos_site_id
 _symmetry_equiv_pos_as_xyz
  1  'x, y, z'
loop_
 _atom_site_type_symbol
 _atom_site_label
 _atom_site_symmetry_multiplicity
 _atom_site_fract_x
 _atom_site_fract_y
 _atom_site_fract_z
 _atom_site_occupancy
  Li  Li0  1  0.500024  0.500039  0.169203  1
  Li  Li1  1  0.000055  0.000094  0.337381  1
  Li  Li2  1  0.500052  0.500092  0.499995  1
  Li  Li3  1  0.000055  0.000094  0.662615  1
  Li  Li4  1  0.500022  0.500036  0.830803  1
  Ni  Ni5  1  0.999887  0.999800  0.000020  1
  O  O6  1  0.499700  0.499482  0.000040  1
  F  F7  1  0.000031  0.000044  0.174891  1
  F  F8  1  0.500062  0.500106  0.336485  1
  F  F9  1  0.000046  0.000093  0.499969  1
  F  F10  1  0.500045  0.500082  0.663462  1
  F  F11  1  0.000021  0.000037  0.825136  1
