# generated using pymatgen
data_Li4V3Cr2Co(PO4)6
_symmetry_space_group_name_H-M   'P 1'
_cell_length_a   8.47614052
_cell_length_b   8.91778970
_cell_length_c   9.00097479
_cell_angle_alpha   59.80267358
_cell_angle_beta   60.22239451
_cell_angle_gamma   58.56113931
_symmetry_Int_Tables_number   1
_chemical_formula_structural   Li4V3Cr2Co(PO4)6
_chemical_formula_sum   'Li4 V3 Cr2 Co1 P6 O24'
_cell_volume   475.72072807
_cell_formula_units_Z   1
loop_
 _symmetry_equiv_pos_site_id
 _symmetry_equiv_pos_as_xyz
  1  'x, y, z'
loop_
 _atom_site_type_symbol
 _atom_site_label
 _atom_site_symmetry_multiplicity
 _atom_site_fract_x
 _atom_site_fract_y
 _atom_site_fract_z
 _atom_site_occupancy
  Li  Li0  1  0.247500  0.859594  0.643325  1
  Li  Li1  1  0.746478  0.151973  0.338098  1
  Li  Li2  1  0.732195  0.768216  0.152168  1
  Li  Li3  1  0.732542  0.347377  0.772782  1
  V  V4  1  0.068566  0.643680  0.646045  1
  V  V5  1  0.436159  0.853801  0.855263  1
  V  V6  1  0.944152  0.351725  0.349526  1
  Cr  Cr7  1  0.002713  0.995876  0.005987  1
  Cr  Cr8  1  0.500206  0.496722  0.496955  1
  Co  Co9  1  0.543084  0.151686  0.154526  1
  P  P10  1  0.263933  0.253476  0.548896  1
  P  P11  1  0.251104  0.943096  0.245225  1
  P  P12  1  0.242397  0.559768  0.950003  1
  P  P13  1  0.760464  0.451583  0.035994  1
  P  P14  1  0.764132  0.040103  0.748582  1
  P  P15  1  0.726558  0.750671  0.464925  1
  O  O16  1  0.062448  0.097664  0.303491  1
  O  O17  1  0.055820  0.537808  0.100619  1
  O  O18  1  0.077014  0.312284  0.516057  1
  O  O19  1  0.252738  0.090474  0.734927  1
  O  O20  1  0.453524  0.199650  0.395618  1
  O  O21  1  0.271172  0.412494  0.575026  1
  O  O22  1  0.235603  0.921241  0.090983  1
  O  O23  1  0.269648  0.754254  0.410773  1
  O  O24  1  0.574796  0.605260  0.991957  1
  O  O25  1  0.261933  0.588025  0.755075  1
  O  O26  1  0.782572  0.256678  0.052379  1
  O  O27  1  0.597746  0.978525  0.814349  1
  O  O28  1  0.440362  0.973385  0.184049  1
  O  O29  1  0.224505  0.760212  0.920306  1
  O  O30  1  0.735520  0.429155  0.228803  1
  O  O31  1  0.433134  0.400406  0.980217  1
  O  O32  1  0.726784  0.238770  0.601240  1
  O  O33  1  0.782148  0.059258  0.904131  1
  O  O34  1  0.716218  0.596170  0.433861  1
  O  O35  1  0.532652  0.810340  0.611832  1
  O  O36  1  0.751734  0.905908  0.274566  1
  O  O37  1  0.898527  0.683781  0.524267  1
  O  O38  1  0.940621  0.495048  0.888984  1
  O  O39  1  0.960597  0.896863  0.675187  1
