# generated using pymatgen
data_Sr5(IrO3)6
_symmetry_space_group_name_H-M   'P 1'
_cell_length_a   8.14657297
_cell_length_b   8.14656543
_cell_length_c   8.14653231
_cell_angle_alpha   109.50054033
_cell_angle_beta   109.45055113
_cell_angle_gamma   109.46253469
_symmetry_Int_Tables_number   1
_chemical_formula_structural   Sr5(IrO3)6
_chemical_formula_sum   'Sr5 Ir6 O18'
_cell_volume   416.19850828
_cell_formula_units_Z   1
loop_
 _symmetry_equiv_pos_site_id
 _symmetry_equiv_pos_as_xyz
  1  'x, y, z'
loop_
 _atom_site_type_symbol
 _atom_site_label
 _atom_site_symmetry_multiplicity
 _atom_site_fract_x
 _atom_site_fract_y
 _atom_site_fract_z
 _atom_site_occupancy
  Sr  Sr0  1  0.500026  0.000019  0.000054  1
  Sr  Sr1  1  0.999990  0.999991  0.000000  1
  Sr  Sr2  1  0.999941  0.499961  0.999930  1
  Sr  Sr3  1  0.500025  0.499961  0.500023  1
  Sr  Sr4  1  0.999969  0.000031  0.499998  1
  Ir  Ir5  1  0.844706  0.500038  0.344672  1
  Ir  Ir6  1  0.655444  0.155437  0.499994  1
  Ir  Ir7  1  0.499988  0.655380  0.155398  1
  Ir  Ir8  1  0.499988  0.344593  0.844611  1
  Ir  Ir9  1  0.155364  0.500037  0.655330  1
  Ir  Ir10  1  0.344545  0.844540  0.499994  1
  O  O11  1  0.711354  0.334959  0.046309  1
  O  O12  1  0.623594  0.288754  0.334841  1
  O  O13  1  0.347866  0.999932  0.347932  1
  O  O14  1  0.652001  0.999932  0.652068  1
  O  O15  1  0.953910  0.288745  0.665164  1
  O  O16  1  0.347973  0.347984  0.000013  1
  O  O17  1  0.652049  0.652059  0.000011  1
  O  O18  1  0.711338  0.665039  0.376374  1
  O  O19  1  0.665215  0.376645  0.711431  1
  O  O20  1  0.334800  0.046123  0.711322  1
  O  O21  1  0.334811  0.623487  0.288671  1
  O  O22  1  0.665203  0.953768  0.288564  1
  O  O23  1  0.288651  0.334953  0.623599  1
  O  O24  1  0.000002  0.348018  0.348003  1
  O  O25  1  0.046203  0.711283  0.334921  1
  O  O26  1  0.376372  0.711288  0.665083  1
  O  O27  1  0.000002  0.651996  0.651981  1
  O  O28  1  0.288667  0.665046  0.953711  1
