# generated using pymatgen
data_ZrO2
_symmetry_space_group_name_H-M   'P 1'
_cell_length_a   20.08397771
_cell_length_b   5.04826984
_cell_length_c   3.28683585
_cell_angle_alpha   90.00000000
_cell_angle_beta   90.00000000
_cell_angle_gamma   90.00000000
_symmetry_Int_Tables_number   1
_chemical_formula_structural   ZrO2
_chemical_formula_sum   'Zr8 O16'
_cell_volume   333.25011404
_cell_formula_units_Z   8
loop_
 _symmetry_equiv_pos_site_id
 _symmetry_equiv_pos_as_xyz
  1  'x, y, z'
loop_
 _atom_site_type_symbol
 _atom_site_label
 _atom_site_symmetry_multiplicity
 _atom_site_fract_x
 _atom_site_fract_y
 _atom_site_fract_z
 _atom_site_occupancy
  Zr  Zr0  1  0.069442  0.425087  0.250000  1
  Zr  Zr1  1  0.189431  0.924211  0.750000  1
  Zr  Zr2  1  0.310569  0.424211  0.250000  1
  Zr  Zr3  1  0.430558  0.925087  0.750000  1
  Zr  Zr4  1  0.569442  0.074913  0.250000  1
  Zr  Zr5  1  0.689431  0.575789  0.750000  1
  Zr  Zr6  1  0.810569  0.075789  0.250000  1
  Zr  Zr7  1  0.930558  0.574913  0.750000  1
  O  O8  1  0.012508  0.292775  0.750000  1
  O  O9  1  0.137963  0.107109  0.250000  1
  O  O10  1  0.119129  0.615975  0.750000  1
  O  O11  1  0.260723  0.243918  0.750000  1
  O  O12  1  0.239277  0.743918  0.250000  1
  O  O13  1  0.380871  0.115975  0.250000  1
  O  O14  1  0.362037  0.607109  0.750000  1
  O  O15  1  0.487492  0.792775  0.250000  1
  O  O16  1  0.512508  0.207225  0.750000  1
  O  O17  1  0.637963  0.392891  0.250000  1
  O  O18  1  0.619129  0.884025  0.750000  1
  O  O19  1  0.760723  0.256082  0.750000  1
  O  O20  1  0.739277  0.756082  0.250000  1
  O  O21  1  0.880871  0.384025  0.250000  1
  O  O22  1  0.862037  0.892891  0.750000  1
  O  O23  1  0.987492  0.707225  0.250000  1
