# generated using pymatgen
data_Mg16Si8HO32
_symmetry_space_group_name_H-M   'P 1'
_cell_length_a   10.39727458
_cell_length_b   6.10296190
_cell_length_c   9.63574747
_cell_angle_alpha   90.73067867
_cell_angle_beta   90.16461045
_cell_angle_gamma   90.64687311
_symmetry_Int_Tables_number   1
_chemical_formula_structural   Mg16Si8HO32
_chemical_formula_sum   'Mg16 Si8 H1 O32'
_cell_volume   611.33689819
_cell_formula_units_Z   1
loop_
 _symmetry_equiv_pos_site_id
 _symmetry_equiv_pos_as_xyz
  1  'x, y, z'
loop_
 _atom_site_type_symbol
 _atom_site_label
 _atom_site_symmetry_multiplicity
 _atom_site_fract_x
 _atom_site_fract_y
 _atom_site_fract_z
 _atom_site_occupancy
  Mg  Mg0  1  0.998635  0.006103  0.998352  1
  Mg  Mg1  1  0.502269  0.001831  0.247892  1
  Mg  Mg2  1  0.989674  0.502892  0.994317  1
  Mg  Mg3  1  0.513783  0.502586  0.243463  1
  Mg  Mg4  1  0.274509  0.226233  0.508127  1
  Mg  Mg5  1  0.213712  0.789546  0.236336  1
  Mg  Mg6  1  0.721901  0.752307  0.001449  1
  Mg  Mg7  1  0.780206  0.250043  0.254743  1
  Mg  Mg8  1  0.996839  0.998607  0.502490  1
  Mg  Mg9  1  0.500625  0.996767  0.749647  1
  Mg  Mg10  1  0.999397  0.499112  0.501127  1
  Mg  Mg11  1  0.499665  0.496657  0.749909  1
  Mg  Mg12  1  0.281756  0.250027  0.995007  1
  Mg  Mg13  1  0.220244  0.746952  0.748135  1
  Mg  Mg14  1  0.721765  0.747631  0.504210  1
  Mg  Mg15  1  0.776424  0.250236  0.752515  1
  Si  Si16  1  0.096395  0.254845  0.218815  1
  Si  Si17  1  0.402994  0.744243  0.461440  1
  Si  Si18  1  0.905103  0.750811  0.285939  1
  Si  Si19  1  0.597463  0.247732  0.034103  1
  Si  Si20  1  0.093001  0.251949  0.716795  1
  Si  Si21  1  0.405262  0.750544  0.963982  1
  Si  Si22  1  0.903818  0.752859  0.784754  1
  Si  Si23  1  0.594392  0.246553  0.534980  1
  H  H24  1  0.279187  0.478729  0.298632  1
  O  O25  1  0.092363  0.240679  0.388270  1
  O  O26  1  0.407216  0.753294  0.134492  1
  O  O27  1  0.909025  0.754307  0.115903  1
  O  O28  1  0.593679  0.248283  0.365129  1
  O  O29  1  0.451737  0.251483  0.109160  1
  O  O30  1  0.052132  0.750227  0.359497  1
  O  O31  1  0.547694  0.746633  0.388542  1
  O  O32  1  0.953435  0.269016  0.141249  1
  O  O33  1  0.160209  0.045421  0.132233  1
  O  O34  1  0.328891  0.949719  0.387283  1
  O  O35  1  0.835405  0.536494  0.361109  1
  O  O36  1  0.668387  0.465414  0.108349  1
  O  O37  1  0.837637  0.968087  0.360093  1
  O  O38  1  0.664847  0.034166  0.109710  1
  O  O39  1  0.188580  0.464186  0.170054  1
  O  O40  1  0.339953  0.503843  0.385506  1
  O  O41  1  0.092141  0.258831  0.886940  1
  O  O42  1  0.403702  0.740405  0.630008  1
  O  O43  1  0.905882  0.750027  0.615135  1
  O  O44  1  0.593031  0.248040  0.864488  1
  O  O45  1  0.447577  0.242717  0.608436  1
  O  O46  1  0.049874  0.750856  0.859721  1
  O  O47  1  0.551091  0.748813  0.889236  1
  O  O48  1  0.947166  0.250870  0.641996  1
  O  O49  1  0.160966  0.032491  0.644103  1
  O  O50  1  0.337707  0.964830  0.888645  1
  O  O51  1  0.833343  0.537786  0.858520  1
  O  O52  1  0.661508  0.465557  0.610165  1
  O  O53  1  0.836552  0.968982  0.860402  1
  O  O54  1  0.662476  0.032309  0.609328  1
  O  O55  1  0.164043  0.462919  0.639295  1
  O  O56  1  0.334969  0.533220  0.889894  1
