# generated using pymatgen
data_LiMnF5
_symmetry_space_group_name_H-M   'P 1'
_cell_length_a   13.10666732
_cell_length_b   5.78697964
_cell_length_c   4.98421972
_cell_angle_alpha   90.00000000
_cell_angle_beta   90.00000000
_cell_angle_gamma   90.00000000
_symmetry_Int_Tables_number   1
_chemical_formula_structural   LiMnF5
_chemical_formula_sum   'Li4 Mn4 F20'
_cell_volume   378.04318170
_cell_formula_units_Z   4
loop_
 _symmetry_equiv_pos_site_id
 _symmetry_equiv_pos_as_xyz
  1  'x, y, z'
loop_
 _atom_site_type_symbol
 _atom_site_label
 _atom_site_symmetry_multiplicity
 _atom_site_fract_x
 _atom_site_fract_y
 _atom_site_fract_z
 _atom_site_occupancy
  Li  Li0  1  0.110817  0.116016  0.780304  1
  Li  Li1  1  0.389183  0.883984  0.280304  1
  Li  Li2  1  0.610817  0.383984  0.219696  1
  Li  Li3  1  0.889183  0.616016  0.719696  1
  Mn  Mn4  1  0.163074  0.621853  0.430586  1
  Mn  Mn5  1  0.336926  0.378147  0.930586  1
  Mn  Mn6  1  0.663074  0.878147  0.569414  1
  Mn  Mn7  1  0.836926  0.121853  0.069414  1
  F  F8  1  0.087186  0.826847  0.621088  1
  F  F9  1  0.079172  0.644561  0.154378  1
  F  F10  1  0.089256  0.385569  0.576893  1
  F  F11  1  0.244672  0.853656  0.305794  1
  F  F12  1  0.241674  0.397078  0.236542  1
  F  F13  1  0.258326  0.602922  0.736542  1
  F  F14  1  0.255328  0.146344  0.805794  1
  F  F15  1  0.410744  0.614431  0.076893  1
  F  F16  1  0.420828  0.355439  0.654378  1
  F  F17  1  0.412814  0.173153  0.121088  1
  F  F18  1  0.587186  0.673153  0.378912  1
  F  F19  1  0.579172  0.855439  0.845622  1
  F  F20  1  0.589256  0.114431  0.423107  1
  F  F21  1  0.744672  0.646344  0.694206  1
  F  F22  1  0.741674  0.102922  0.763458  1
  F  F23  1  0.758326  0.897078  0.263458  1
  F  F24  1  0.755328  0.353656  0.194206  1
  F  F25  1  0.910744  0.885569  0.923107  1
  F  F26  1  0.920828  0.144561  0.345622  1
  F  F27  1  0.912814  0.326847  0.878912  1
