# generated using pymatgen
data_NaB2HO4
_symmetry_space_group_name_H-M   'P 1'
_cell_length_a   8.74897986
_cell_length_b   10.47083284
_cell_length_c   14.38364676
_cell_angle_alpha   90.00000000
_cell_angle_beta   90.00000000
_cell_angle_gamma   90.00000000
_symmetry_Int_Tables_number   1
_chemical_formula_structural   NaB2HO4
_chemical_formula_sum   'Na16 B32 H16 O64'
_cell_volume   1317.67301545
_cell_formula_units_Z   16
loop_
 _symmetry_equiv_pos_site_id
 _symmetry_equiv_pos_as_xyz
  1  'x, y, z'
loop_
 _atom_site_type_symbol
 _atom_site_label
 _atom_site_symmetry_multiplicity
 _atom_site_fract_x
 _atom_site_fract_y
 _atom_site_fract_z
 _atom_site_occupancy
  Na  Na0  1  0.081543  0.031526  0.187340  1
  Na  Na1  1  0.081543  0.468474  0.687340  1
  Na  Na2  1  0.233492  0.526003  0.928812  1
  Na  Na3  1  0.233492  0.973997  0.428812  1
  Na  Na4  1  0.266508  0.026003  0.928812  1
  Na  Na5  1  0.266508  0.473997  0.428812  1
  Na  Na6  1  0.418457  0.531526  0.187340  1
  Na  Na7  1  0.418457  0.968474  0.687340  1
  Na  Na8  1  0.581543  0.031526  0.312660  1
  Na  Na9  1  0.581543  0.468474  0.812660  1
  Na  Na10  1  0.733492  0.526003  0.571188  1
  Na  Na11  1  0.733492  0.973997  0.071188  1
  Na  Na12  1  0.766508  0.473997  0.071188  1
  Na  Na13  1  0.766508  0.026003  0.571188  1
  Na  Na14  1  0.918457  0.531526  0.312660  1
  Na  Na15  1  0.918457  0.968474  0.812660  1
  B  B16  1  0.047788  0.791685  0.010622  1
  B  B17  1  0.047788  0.708315  0.510621  1
  B  B18  1  0.081285  0.267159  0.337919  1
  B  B19  1  0.081285  0.232841  0.837919  1
  B  B20  1  0.098402  0.606845  0.115239  1
  B  B21  1  0.098402  0.893155  0.615239  1
  B  B22  1  0.168446  0.759998  0.240831  1
  B  B23  1  0.168446  0.740002  0.740831  1
  B  B24  1  0.331554  0.259998  0.240831  1
  B  B25  1  0.331554  0.240002  0.740831  1
  B  B26  1  0.401598  0.106845  0.115239  1
  B  B27  1  0.401598  0.393155  0.615239  1
  B  B28  1  0.418715  0.767159  0.337919  1
  B  B29  1  0.418715  0.732841  0.837919  1
  B  B30  1  0.452212  0.291685  0.010622  1
  B  B31  1  0.452212  0.208315  0.510621  1
  B  B32  1  0.547788  0.708315  0.989379  1
  B  B33  1  0.547788  0.791685  0.489378  1
  B  B34  1  0.581285  0.267159  0.162081  1
  B  B35  1  0.581285  0.232841  0.662081  1
  B  B36  1  0.598402  0.606845  0.384761  1
  B  B37  1  0.598402  0.893155  0.884761  1
  B  B38  1  0.668446  0.759998  0.259169  1
  B  B39  1  0.668446  0.740002  0.759169  1
  B  B40  1  0.831554  0.259998  0.259169  1
  B  B41  1  0.831554  0.240002  0.759169  1
  B  B42  1  0.901598  0.106845  0.384761  1
  B  B43  1  0.901598  0.393155  0.884761  1
  B  B44  1  0.918715  0.767159  0.162081  1
  B  B45  1  0.918715  0.732841  0.662081  1
  B  B46  1  0.952212  0.208315  0.989379  1
  B  B47  1  0.952212  0.291685  0.489378  1
  H  H48  1  0.069478  0.420433  0.072125  1
  H  H49  1  0.069478  0.079567  0.572125  1
  H  H50  1  0.149795  0.701360  0.392031  1
  H  H51  1  0.149795  0.798640  0.892031  1
  H  H52  1  0.350205  0.201360  0.392031  1
  H  H53  1  0.350205  0.298640  0.892031  1
  H  H54  1  0.430522  0.920433  0.072125  1
  H  H55  1  0.430522  0.579567  0.572125  1
  H  H56  1  0.569478  0.420433  0.427875  1
  H  H57  1  0.569478  0.079567  0.927875  1
  H  H58  1  0.649795  0.701360  0.107969  1
  H  H59  1  0.649795  0.798640  0.607969  1
  H  H60  1  0.850205  0.201360  0.107969  1
  H  H61  1  0.850205  0.298640  0.607969  1
  H  H62  1  0.930522  0.579567  0.927875  1
  H  H63  1  0.930522  0.920433  0.427875  1
  O  O64  1  0.027610  0.817890  0.232947  1
  O  O65  1  0.027610  0.682110  0.732947  1
  O  O66  1  0.049347  0.343357  0.425806  1
  O  O67  1  0.049347  0.156643  0.925806  1
  O  O68  1  0.058918  0.128761  0.351354  1
  O  O69  1  0.058918  0.371239  0.851354  1
  O  O70  1  0.081745  0.643263  0.427802  1
  O  O71  1  0.081745  0.856737  0.927802  1
  O  O72  1  0.115196  0.674732  0.022838  1
  O  O73  1  0.115196  0.825268  0.522838  1
  O  O74  1  0.147071  0.474880  0.100611  1
  O  O75  1  0.147071  0.025119  0.600611  1
  O  O76  1  0.210442  0.660459  0.184223  1
  O  O77  1  0.210442  0.839541  0.684223  1
  O  O78  1  0.240685  0.300930  0.314292  1
  O  O79  1  0.240685  0.199070  0.814292  1
  O  O80  1  0.259315  0.800930  0.314292  1
  O  O81  1  0.259315  0.699070  0.814292  1
  O  O82  1  0.289558  0.160459  0.184223  1
  O  O83  1  0.289558  0.339541  0.684223  1
  O  O84  1  0.352929  0.974881  0.100611  1
  O  O85  1  0.352929  0.525119  0.600611  1
  O  O86  1  0.384804  0.174732  0.022838  1
  O  O87  1  0.384804  0.325268  0.522838  1
  O  O88  1  0.418255  0.143263  0.427802  1
  O  O89  1  0.418255  0.356737  0.927802  1
  O  O90  1  0.441082  0.628761  0.351354  1
  O  O91  1  0.441082  0.871239  0.851354  1
  O  O92  1  0.450653  0.843357  0.425806  1
  O  O93  1  0.450653  0.656643  0.925806  1
  O  O94  1  0.472390  0.317890  0.232947  1
  O  O95  1  0.472390  0.182110  0.732947  1
  O  O96  1  0.527610  0.682110  0.767053  1
  O  O97  1  0.527610  0.817890  0.267053  1
  O  O98  1  0.549347  0.343357  0.074194  1
  O  O99  1  0.549347  0.156643  0.574194  1
  O  O100  1  0.558918  0.128761  0.148646  1
  O  O101  1  0.558918  0.371239  0.648646  1
  O  O102  1  0.581745  0.643263  0.072198  1
  O  O103  1  0.581745  0.856737  0.572198  1
  O  O104  1  0.615196  0.674732  0.477162  1
  O  O105  1  0.615196  0.825268  0.977162  1
  O  O106  1  0.647071  0.474880  0.399389  1
  O  O107  1  0.647071  0.025119  0.899389  1
  O  O108  1  0.710442  0.660459  0.315777  1
  O  O109  1  0.710442  0.839541  0.815777  1
  O  O110  1  0.740685  0.300930  0.185708  1
  O  O111  1  0.740685  0.199070  0.685708  1
  O  O112  1  0.759315  0.699070  0.685708  1
  O  O113  1  0.759315  0.800930  0.185708  1
  O  O114  1  0.789558  0.160459  0.315777  1
  O  O115  1  0.789558  0.339541  0.815777  1
  O  O116  1  0.852929  0.525119  0.899389  1
  O  O117  1  0.852929  0.974881  0.399389  1
  O  O118  1  0.884804  0.174732  0.477162  1
  O  O119  1  0.884804  0.325268  0.977162  1
  O  O120  1  0.918255  0.143263  0.072198  1
  O  O121  1  0.918255  0.356737  0.572198  1
  O  O122  1  0.941082  0.628761  0.148646  1
  O  O123  1  0.941082  0.871239  0.648646  1
  O  O124  1  0.950653  0.656643  0.574194  1
  O  O125  1  0.950653  0.843357  0.074194  1
  O  O126  1  0.972390  0.182110  0.767053  1
  O  O127  1  0.972390  0.317890  0.267053  1
