# generated using pymatgen
data_Li9Mn7V12O48
_symmetry_space_group_name_H-M   'P 1'
_cell_length_a   5.02400911
_cell_length_b   10.25294344
_cell_length_c   17.08067216
_cell_angle_alpha   90.21437402
_cell_angle_beta   90.58368739
_cell_angle_gamma   90.23750493
_symmetry_Int_Tables_number   1
_chemical_formula_structural   Li9Mn7V12O48
_chemical_formula_sum   'Li9 Mn7 V12 O48'
_cell_volume   879.78096274
_cell_formula_units_Z   1
loop_
 _symmetry_equiv_pos_site_id
 _symmetry_equiv_pos_as_xyz
  1  'x, y, z'
loop_
 _atom_site_type_symbol
 _atom_site_label
 _atom_site_symmetry_multiplicity
 _atom_site_fract_x
 _atom_site_fract_y
 _atom_site_fract_z
 _atom_site_occupancy
  Li  Li0  1  0.245239  0.420376  0.965562  1
  Li  Li1  1  0.260955  0.743956  0.305625  1
  Li  Li2  1  0.254825  0.259017  0.798873  1
  Li  Li3  1  0.254538  0.583446  0.468344  1
  Li  Li4  1  0.401114  0.746668  0.749198  1
  Li  Li5  1  0.597206  0.251230  0.250670  1
  Li  Li6  1  0.747679  0.083941  0.532826  1
  Li  Li7  1  0.747781  0.742711  0.202355  1
  Li  Li8  1  0.745855  0.250021  0.697036  1
  Mn  Mn9  1  0.096518  0.251790  0.253315  1
  Mn  Mn10  1  0.239474  0.069040  0.974189  1
  Mn  Mn11  1  0.266051  0.935651  0.476066  1
  Mn  Mn12  1  0.731692  0.435659  0.523748  1
  Mn  Mn13  1  0.756967  0.565279  0.026146  1
  Mn  Mn14  1  0.744245  0.924416  0.028233  1
  Mn  Mn15  1  0.901223  0.746988  0.745865  1
  V  V16  1  0.208923  0.742539  0.942676  1
  V  V17  1  0.220550  0.024150  0.660090  1
  V  V18  1  0.207589  0.474691  0.651828  1
  V  V19  1  0.280603  0.528176  0.155597  1
  V  V20  1  0.291748  0.974498  0.157919  1
  V  V21  1  0.270406  0.253351  0.444552  1
  V  V22  1  0.728178  0.753077  0.554711  1
  V  V23  1  0.698730  0.026774  0.841426  1
  V  V24  1  0.726437  0.473720  0.842027  1
  V  V25  1  0.784710  0.525176  0.342237  1
  V  V26  1  0.790624  0.975799  0.346606  1
  V  V27  1  0.784164  0.250111  0.057573  1
  O  O28  1  0.063050  0.234309  0.994840  1
  O  O29  1  0.054833  0.611642  0.370372  1
  O  O30  1  0.082155  0.890926  0.378769  1
  O  O31  1  0.099324  0.629039  0.207866  1
  O  O32  1  0.103085  0.878165  0.209810  1
  O  O33  1  0.101352  0.108522  0.466809  1
  O  O34  1  0.050129  0.374950  0.467557  1
  O  O35  1  0.078833  0.005526  0.071388  1
  O  O36  1  0.069145  0.494550  0.072827  1
  O  O37  1  0.130333  0.746642  0.845454  1
  O  O38  1  0.134168  0.621687  0.703818  1
  O  O39  1  0.136634  0.875673  0.708982  1
  O  O40  1  0.332463  0.124225  0.205586  1
  O  O41  1  0.323310  0.376195  0.203750  1
  O  O42  1  0.327305  0.253895  0.342129  1
  O  O43  1  0.418403  0.988996  0.573487  1
  O  O44  1  0.423984  0.509934  0.571389  1
  O  O45  1  0.402095  0.891590  0.966118  1
  O  O46  1  0.435714  0.624677  0.966472  1
  O  O47  1  0.423515  0.113684  0.720412  1
  O  O48  1  0.390102  0.375887  0.705984  1
  O  O49  1  0.409168  0.110738  0.880830  1
  O  O50  1  0.447790  0.393710  0.869096  1
  O  O51  1  0.439176  0.767196  0.494162  1
  O  O52  1  0.558331  0.266985  0.505560  1
  O  O53  1  0.577962  0.608842  0.120974  1
  O  O54  1  0.581427  0.888308  0.124475  1
  O  O55  1  0.586959  0.617735  0.285183  1
  O  O56  1  0.612190  0.879822  0.287486  1
  O  O57  1  0.558412  0.117223  0.036239  1
  O  O58  1  0.602049  0.390279  0.035165  1
  O  O59  1  0.574314  0.007919  0.427286  1
  O  O60  1  0.580826  0.488052  0.426827  1
  O  O61  1  0.672473  0.754301  0.656936  1
  O  O62  1  0.666707  0.623627  0.790210  1
  O  O63  1  0.671840  0.874373  0.796540  1
  O  O64  1  0.866196  0.122146  0.295890  1
  O  O65  1  0.863657  0.375915  0.290999  1
  O  O66  1  0.868469  0.244748  0.154835  1
  O  O67  1  0.919124  0.518025  0.929922  1
  O  O68  1  0.913066  0.987839  0.931148  1
  O  O69  1  0.898544  0.608743  0.533226  1
  O  O70  1  0.948455  0.875625  0.531876  1
  O  O71  1  0.909296  0.121169  0.796527  1
  O  O72  1  0.916345  0.374591  0.788549  1
  O  O73  1  0.951897  0.111228  0.632783  1
  O  O74  1  0.913913  0.390058  0.619620  1
  O  O75  1  0.927459  0.737843  0.008542  1
