# generated using pymatgen
data_LiCo3OF5
_symmetry_space_group_name_H-M   'P 1'
_cell_length_a   5.23410992
_cell_length_b   5.62153541
_cell_length_c   5.29626043
_cell_angle_alpha   118.74120664
_cell_angle_beta   60.03225809
_cell_angle_gamma   117.18637114
_symmetry_Int_Tables_number   1
_chemical_formula_structural   LiCo3OF5
_chemical_formula_sum   'Li1 Co3 O1 F5'
_cell_volume   113.45046276
_cell_formula_units_Z   1
loop_
 _symmetry_equiv_pos_site_id
 _symmetry_equiv_pos_as_xyz
  1  'x, y, z'
loop_
 _atom_site_type_symbol
 _atom_site_label
 _atom_site_symmetry_multiplicity
 _atom_site_fract_x
 _atom_site_fract_y
 _atom_site_fract_z
 _atom_site_occupancy
  Li  Li0  1  0.153005  0.436134  0.163739  1
  Co  Co1  1  0.367382  0.035969  0.337833  1
  Co  Co2  1  0.646332  0.938420  0.625175  1
  Co  Co3  1  0.834244  0.572599  0.879205  1
  O  O4  1  0.554889  0.761506  0.253946  1
  F  F5  1  0.065249  0.246413  0.452718  1
  F  F6  1  0.253200  0.766954  0.936412  1
  F  F7  1  0.755864  0.247359  0.038967  1
  F  F8  1  0.435777  0.259152  0.757232  1
  F  F9  1  0.934057  0.735495  0.554772  1
