# generated using pymatgen
data_Bi19O30
_symmetry_space_group_name_H-M   'P 1'
_cell_length_a   9.00257446
_cell_length_b   14.72580840
_cell_length_c   14.72580840
_cell_angle_alpha   120.00000000
_cell_angle_beta   90.00000000
_cell_angle_gamma   90.00000000
_symmetry_Int_Tables_number   1
_chemical_formula_structural   Bi19O30
_chemical_formula_sum   'Bi38 O60'
_cell_volume   1690.65753608
_cell_formula_units_Z   2
loop_
 _symmetry_equiv_pos_site_id
 _symmetry_equiv_pos_as_xyz
  1  'x, y, z'
loop_
 _atom_site_type_symbol
 _atom_site_label
 _atom_site_symmetry_multiplicity
 _atom_site_fract_x
 _atom_site_fract_y
 _atom_site_fract_z
 _atom_site_occupancy
  Bi  Bi0  1  0.319214  0.145223  0.988736  1
  Bi  Bi1  1  0.223061  0.369569  0.933650  1
  Bi  Bi2  1  0.016915  0.512190  0.829884  1
  Bi  Bi3  1  0.319214  0.843513  0.854777  1
  Bi  Bi4  1  0.083019  0.954009  0.738210  1
  Bi  Bi5  1  0.427106  0.617866  0.888875  1
  Bi  Bi6  1  0.016915  0.170116  0.682307  1
  Bi  Bi7  1  0.223061  0.564079  0.630431  1
  Bi  Bi8  1  0.907212  0.218669  0.959543  1
  Bi  Bi9  1  0.427106  0.111125  0.728990  1
  Bi  Bi10  1  0.339101  0.333333  0.666667  1
  Bi  Bi11  1  0.673369  0.982434  0.837491  1
  Bi  Bi12  1  0.685771  0.336045  0.822619  1
  Bi  Bi13  1  0.014416  0.677712  0.492427  1
  Bi  Bi14  1  0.016915  0.317693  0.487810  1
  Bi  Bi15  1  0.685771  0.486573  0.663955  1
  Bi  Bi16  1  0.223061  0.066350  0.435921  1
  Bi  Bi17  1  0.907212  0.740874  0.781331  1
  Bi  Bi18  1  0.014416  0.814715  0.322288  1
  Bi  Bi19  1  0.561095  0.704641  0.610163  1
  Bi  Bi20  1  0.340620  0.848592  0.499577  1
  Bi  Bi21  1  0.685771  0.177381  0.513427  1
  Bi  Bi22  1  0.014416  0.507573  0.185285  1
  Bi  Bi23  1  0.427106  0.271010  0.382134  1
  Bi  Bi24  1  0.746867  0.947828  0.556250  1
  Bi  Bi25  1  0.340620  0.500423  0.349014  1
  Bi  Bi26  1  0.083019  0.261790  0.215799  1
  Bi  Bi27  1  0.083019  0.784201  0.045991  1
  Bi  Bi28  1  0.561095  0.905523  0.295359  1
  Bi  Bi29  1  0.746867  0.443750  0.391578  1
  Bi  Bi30  1  0.661916  0.666667  0.333333  1
  Bi  Bi31  1  0.319214  0.011264  0.156487  1
  Bi  Bi32  1  0.340620  0.650986  0.151408  1
  Bi  Bi33  1  0.561095  0.389837  0.094477  1
  Bi  Bi34  1  0.907212  0.040457  0.259126  1
  Bi  Bi35  1  0.673369  0.162509  0.144943  1
  Bi  Bi36  1  0.746867  0.608422  0.052172  1
  Bi  Bi37  1  0.673369  0.855057  0.017566  1
  O  O38  1  0.093431  0.812499  0.905131  1
  O  O39  1  0.093431  0.094869  0.907368  1
  O  O40  1  0.404870  0.790120  0.953719  1
  O  O41  1  0.411816  0.299269  0.957925  1
  O  O42  1  0.214649  0.574619  0.787457  1
  O  O43  1  0.214649  0.212543  0.787162  1
  O  O44  1  0.084983  0.706819  0.674648  1
  O  O45  1  0.404870  0.046281  0.836402  1
  O  O46  1  0.410758  0.408862  0.818907  1
  O  O47  1  0.111068  0.333333  0.666667  1
  O  O48  1  0.743118  0.494950  0.879405  1
  O  O49  1  0.083364  0.833274  0.550158  1
  O  O50  1  0.575150  0.838467  0.799389  1
  O  O51  1  0.265500  0.005070  0.626380  1
  O  O52  1  0.411816  0.658656  0.700731  1
  O  O53  1  0.928659  0.666833  0.951573  1
  O  O54  1  0.410758  0.410045  0.591138  1
  O  O55  1  0.410758  0.181093  0.589955  1
  O  O56  1  0.920531  0.289271  0.822459  1
  O  O57  1  0.591519  0.960235  0.668875  1
  O  O58  1  0.244592  0.619906  0.489780  1
  O  O59  1  0.876779  0.880371  0.759268  1
  O  O60  1  0.214649  0.212838  0.425382  1
  O  O61  1  0.037156  0.666667  0.333333  1
  O  O62  1  0.704246  0.333333  0.666667  1
  O  O63  1  0.265500  0.373620  0.378690  1
  O  O64  1  0.928659  0.048427  0.715260  1
  O  O65  1  0.743118  0.120595  0.615546  1
  O  O66  1  0.083364  0.449841  0.283116  1
  O  O67  1  0.749223  0.634470  0.633956  1
  O  O68  1  0.084983  0.967829  0.293181  1
  O  O69  1  0.244592  0.869875  0.380094  1
  O  O70  1  0.920531  0.533187  0.710729  1
  O  O71  1  0.543941  0.914240  0.455923  1
  O  O72  1  0.543941  0.544077  0.458317  1
  O  O73  1  0.083364  0.716884  0.166726  1
  O  O74  1  0.411816  0.042075  0.341344  1
  O  O75  1  0.743118  0.384454  0.505050  1
  O  O76  1  0.435213  0.666667  0.333333  1
  O  O77  1  0.093431  0.092632  0.187501  1
  O  O78  1  0.740627  0.743773  0.484143  1
  O  O79  1  0.404870  0.163598  0.209880  1
  O  O80  1  0.244592  0.510220  0.130125  1
  O  O81  1  0.920531  0.177541  0.466813  1
  O  O82  1  0.749223  0.999486  0.365530  1
  O  O83  1  0.084983  0.325352  0.032171  1
  O  O84  1  0.591519  0.331125  0.291360  1
  O  O85  1  0.740627  0.740370  0.256227  1
  O  O86  1  0.740627  0.515857  0.259630  1
  O  O87  1  0.575150  0.960924  0.161533  1
  O  O88  1  0.928659  0.284740  0.333167  1
  O  O89  1  0.265500  0.621310  0.994930  1
  O  O90  1  0.350733  0.000000  0.000000  1
  O  O91  1  0.543941  0.541683  0.085760  1
  O  O92  1  0.591519  0.708640  0.039765  1
  O  O93  1  0.575150  0.200611  0.039076  1
  O  O94  1  0.876779  0.240732  0.121101  1
  O  O95  1  0.876779  0.878899  0.119629  1
  O  O96  1  0.749223  0.366044  0.000514  1
  O  O97  1  0.714045  0.000000  0.000000  1
