# generated using pymatgen
data_Fe3(OF2)2
_symmetry_space_group_name_H-M   'P 1'
_cell_length_a   4.82827888
_cell_length_b   7.82556229
_cell_length_c   5.77194379
_cell_angle_alpha   95.43388832
_cell_angle_beta   90.91597146
_cell_angle_gamma   89.61818307
_symmetry_Int_Tables_number   1
_chemical_formula_structural   Fe3(OF2)2
_chemical_formula_sum   'Fe6 O4 F8'
_cell_volume   217.07640378
_cell_formula_units_Z   2
loop_
 _symmetry_equiv_pos_site_id
 _symmetry_equiv_pos_as_xyz
  1  'x, y, z'
loop_
 _atom_site_type_symbol
 _atom_site_label
 _atom_site_symmetry_multiplicity
 _atom_site_fract_x
 _atom_site_fract_y
 _atom_site_fract_z
 _atom_site_occupancy
  Fe  Fe0  1  0.562876  0.659193  0.170059  1
  Fe  Fe1  1  0.493465  0.006617  0.496897  1
  Fe  Fe2  1  0.488885  0.335120  0.833354  1
  Fe  Fe3  1  0.959843  0.680282  0.666244  1
  Fe  Fe4  1  0.008960  0.334715  0.332204  1
  Fe  Fe5  1  0.990378  0.988030  0.005997  1
  O  O6  1  0.800237  0.761747  0.954348  1
  O  O7  1  0.696348  0.778120  0.462811  1
  O  O8  1  0.677646  0.427086  0.118806  1
  O  O9  1  0.318307  0.227966  0.547318  1
  F  F10  1  0.798073  0.441756  0.639544  1
  F  F11  1  0.796652  0.099794  0.307900  1
  F  F12  1  0.698535  0.104692  0.792357  1
  F  F13  1  0.289839  0.566219  0.866615  1
  F  F14  1  0.318561  0.895700  0.204572  1
  F  F15  1  0.200738  0.220261  0.025897  1
  F  F16  1  0.194447  0.579686  0.382772  1
  F  F17  1  0.206211  0.893015  0.692305  1
