# generated using pymatgen
data_Ti3Cu2Sn(PO4)6
_symmetry_space_group_name_H-M   'P 1'
_cell_length_a   8.70600210
_cell_length_b   8.70600155
_cell_length_c   8.70600159
_cell_angle_alpha   59.85058737
_cell_angle_beta   59.85058949
_cell_angle_gamma   59.85058932
_symmetry_Int_Tables_number   1
_chemical_formula_structural   Ti3Cu2Sn(PO4)6
_chemical_formula_sum   'Ti3 Cu2 Sn1 P6 O24'
_cell_volume   465.01417179
_cell_formula_units_Z   1
loop_
 _symmetry_equiv_pos_site_id
 _symmetry_equiv_pos_as_xyz
  1  'x, y, z'
loop_
 _atom_site_type_symbol
 _atom_site_label
 _atom_site_symmetry_multiplicity
 _atom_site_fract_x
 _atom_site_fract_y
 _atom_site_fract_z
 _atom_site_occupancy
  Ti  Ti0  1  0.141495  0.141495  0.141495  1
  Ti  Ti1  1  0.357641  0.357641  0.357641  1
  Ti  Ti2  1  0.641583  0.641583  0.641583  1
  Cu  Cu3  1  0.003776  0.003776  0.003776  1
  Cu  Cu4  1  0.499938  0.499938  0.499938  1
  Sn  Sn5  1  0.857400  0.857400  0.857400  1
  P  P6  1  0.748596  0.456569  0.041186  1
  P  P7  1  0.252175  0.536816  0.961528  1
  P  P8  1  0.536816  0.961528  0.252175  1
  P  P9  1  0.961528  0.252175  0.536816  1
  P  P10  1  0.041186  0.748596  0.456569  1
  P  P11  1  0.456569  0.041186  0.748596  1
  O  O12  1  0.124625  0.305391  0.496511  1
  O  O13  1  0.305391  0.496511  0.124625  1
  O  O14  1  0.059665  0.915797  0.268838  1
  O  O15  1  0.496511  0.124625  0.305391  1
  O  O16  1  0.014411  0.799566  0.614960  1
  O  O17  1  0.229210  0.582153  0.435856  1
  O  O18  1  0.268838  0.059665  0.915797  1
  O  O19  1  0.435856  0.229210  0.582153  1
  O  O20  1  0.197760  0.374720  0.000149  1
  O  O21  1  0.582153  0.435856  0.229210  1
  O  O22  1  0.087994  0.728612  0.945451  1
  O  O23  1  0.374720  0.000149  0.197760  1
  O  O24  1  0.614960  0.014411  0.799566  1
  O  O25  1  0.915797  0.268838  0.059665  1
  O  O26  1  0.418284  0.556713  0.772056  1
  O  O27  1  0.799566  0.614960  0.014411  1
  O  O28  1  0.556713  0.772056  0.418284  1
  O  O29  1  0.728612  0.945451  0.087994  1
  O  O30  1  0.772056  0.418284  0.556713  1
  O  O31  1  0.000149  0.197760  0.374720  1
  O  O32  1  0.500475  0.874041  0.698058  1
  O  O33  1  0.945451  0.087994  0.728612  1
  O  O34  1  0.698058  0.500475  0.874041  1
  O  O35  1  0.874041  0.698058  0.500475  1
