# generated using pymatgen
data_Fe(PS3)2
_symmetry_space_group_name_H-M   'P 1'
_cell_length_a   5.86372633
_cell_length_b   5.86372629
_cell_length_c   6.97894377
_cell_angle_alpha   89.96044669
_cell_angle_beta   89.96044480
_cell_angle_gamma   119.92657721
_symmetry_Int_Tables_number   1
_chemical_formula_structural   Fe(PS3)2
_chemical_formula_sum   'Fe1 P2 S6'
_cell_volume   207.96399025
_cell_formula_units_Z   1
loop_
 _symmetry_equiv_pos_site_id
 _symmetry_equiv_pos_as_xyz
  1  'x, y, z'
loop_
 _atom_site_type_symbol
 _atom_site_label
 _atom_site_symmetry_multiplicity
 _atom_site_fract_x
 _atom_site_fract_y
 _atom_site_fract_z
 _atom_site_occupancy
  Fe  Fe0  1  0.326149  0.673851  0.500000  1
  P  P1  1  0.000469  0.001021  0.653657  1
  P  P2  1  0.998979  0.999531  0.346343  1
  S  S3  1  0.046177  0.684712  0.722475  1
  S  S4  1  0.047699  0.361160  0.275964  1
  S  S5  1  0.316434  0.356736  0.723216  1
  S  S6  1  0.315288  0.953823  0.277525  1
  S  S7  1  0.643264  0.683566  0.276784  1
  S  S8  1  0.638840  0.952301  0.724036  1
