# generated using pymatgen
data_FeOF
_symmetry_space_group_name_H-M   'P 1'
_cell_length_a   14.28154761
_cell_length_b   14.39864244
_cell_length_c   3.09524248
_cell_angle_alpha   90.00000000
_cell_angle_beta   90.00000000
_cell_angle_gamma   90.34178707
_symmetry_Int_Tables_number   1
_chemical_formula_structural   FeOF
_chemical_formula_sum   'Fe18 O18 F18'
_cell_volume   636.47854551
_cell_formula_units_Z   18
loop_
 _symmetry_equiv_pos_site_id
 _symmetry_equiv_pos_as_xyz
  1  'x, y, z'
loop_
 _atom_site_type_symbol
 _atom_site_label
 _atom_site_symmetry_multiplicity
 _atom_site_fract_x
 _atom_site_fract_y
 _atom_site_fract_z
 _atom_site_occupancy
  Fe  Fe0  1  0.014005  0.000652  0.000000  1
  Fe  Fe1  1  0.005793  0.337709  0.000000  1
  Fe  Fe2  1  0.013055  0.665153  0.000000  1
  Fe  Fe3  1  0.173490  0.145278  0.500000  1
  Fe  Fe4  1  0.154131  0.498977  0.500000  1
  Fe  Fe5  1  0.152801  0.832790  0.500000  1
  Fe  Fe6  1  0.340952  0.004498  0.000000  1
  Fe  Fe7  1  0.345930  0.331156  0.000000  1
  Fe  Fe8  1  0.348327  0.668023  0.000000  1
  Fe  Fe9  1  0.485434  0.499514  0.500000  1
  Fe  Fe10  1  0.486647  0.165865  0.500000  1
  Fe  Fe11  1  0.481837  0.838487  0.500000  1
  Fe  Fe12  1  0.678480  0.997713  0.000000  1
  Fe  Fe13  1  0.679827  0.331081  0.000000  1
  Fe  Fe14  1  0.676889  0.668508  0.000000  1
  Fe  Fe15  1  0.819106  0.164204  0.500000  1
  Fe  Fe16  1  0.814504  0.502885  0.500000  1
  Fe  Fe17  1  0.819898  0.833443  0.500000  1
  O  O18  1  0.064543  0.599240  0.500000  1
  O  O19  1  0.064471  0.936397  0.500000  1
  O  O20  1  0.100259  0.105702  0.000000  1
  O  O21  1  0.100010  0.431775  0.000000  1
  O  O22  1  0.100620  0.767645  0.000000  1
  O  O23  1  0.272063  0.061423  0.500000  1
  O  O24  1  0.397183  0.269610  0.500000  1
  O  O25  1  0.397435  0.602366  0.500000  1
  O  O26  1  0.396903  0.936757  0.500000  1
  O  O27  1  0.440506  0.103013  0.000000  1
  O  O28  1  0.435236  0.435593  0.000000  1
  O  O29  1  0.435385  0.770009  0.000000  1
  O  O30  1  0.734078  0.269456  0.500000  1
  O  O31  1  0.728621  0.604741  0.500000  1
  O  O32  1  0.732022  0.935873  0.500000  1
  O  O33  1  0.769085  0.102092  0.000000  1
  O  O34  1  0.769440  0.435491  0.000000  1
  O  O35  1  0.768981  0.769155  0.000000  1
  F  F36  1  0.062495  0.269897  0.500000  1
  F  F37  1  0.229750  0.235157  0.000000  1
  F  F38  1  0.229664  0.562895  0.000000  1
  F  F39  1  0.229843  0.893310  0.000000  1
  F  F40  1  0.268010  0.729176  0.500000  1
  F  F41  1  0.266606  0.399985  0.500000  1
  F  F42  1  0.567533  0.234952  0.000000  1
  F  F43  1  0.564886  0.565664  0.000000  1
  F  F44  1  0.566001  0.900475  0.000000  1
  F  F45  1  0.604678  0.065068  0.500000  1
  F  F46  1  0.603571  0.398140  0.500000  1
  F  F47  1  0.602090  0.731496  0.500000  1
  F  F48  1  0.903709  0.234974  0.000000  1
  F  F49  1  0.898078  0.564764  0.000000  1
  F  F50  1  0.898793  0.899124  0.000000  1
  F  F51  1  0.934782  0.066546  0.500000  1
  F  F52  1  0.935721  0.396542  0.500000  1
  F  F53  1  0.935841  0.729563  0.500000  1
