# generated using pymatgen
data_SbOF
_symmetry_space_group_name_H-M   'P 1'
_cell_length_a   5.72051797
_cell_length_b   6.36521521
_cell_length_c   5.59541377
_cell_angle_alpha   90.00000000
_cell_angle_beta   84.14868147
_cell_angle_gamma   90.00000000
_symmetry_Int_Tables_number   1
_chemical_formula_structural   SbOF
_chemical_formula_sum   'Sb4 O4 F4'
_cell_volume   202.68050386
_cell_formula_units_Z   4
loop_
 _symmetry_equiv_pos_site_id
 _symmetry_equiv_pos_as_xyz
  1  'x, y, z'
loop_
 _atom_site_type_symbol
 _atom_site_label
 _atom_site_symmetry_multiplicity
 _atom_site_fract_x
 _atom_site_fract_y
 _atom_site_fract_z
 _atom_site_occupancy
  Sb  Sb0  1  0.271557  0.522405  0.684545  1
  Sb  Sb1  1  0.271557  0.977595  0.184545  1
  Sb  Sb2  1  0.728443  0.022405  0.815455  1
  Sb  Sb3  1  0.728443  0.477595  0.315455  1
  O  O4  1  0.428797  0.841533  0.877599  1
  O  O5  1  0.428797  0.658467  0.377599  1
  O  O6  1  0.571203  0.341533  0.622401  1
  O  O7  1  0.571203  0.158467  0.122401  1
  F  F8  1  0.109559  0.182006  0.953539  1
  F  F9  1  0.109559  0.317994  0.453539  1
  F  F10  1  0.890441  0.682006  0.546461  1
  F  F11  1  0.890441  0.817994  0.046461  1
