# generated using pymatgen
data_Sr3Nd10Al12Si18(N2O)18
_symmetry_space_group_name_H-M   'P 1'
_cell_length_a   11.69476258
_cell_length_b   11.69093891
_cell_length_c   11.69093911
_cell_angle_alpha   109.44454031
_cell_angle_beta   109.43802089
_cell_angle_gamma   109.43801542
_symmetry_Int_Tables_number   1
_chemical_formula_structural   Sr3Nd10Al12Si18(N2O)18
_chemical_formula_sum   'Sr3 Nd10 Al12 Si18 N36 O18'
_cell_volume   1231.87381082
_cell_formula_units_Z   1
loop_
 _symmetry_equiv_pos_site_id
 _symmetry_equiv_pos_as_xyz
  1  'x, y, z'
loop_
 _atom_site_type_symbol
 _atom_site_label
 _atom_site_symmetry_multiplicity
 _atom_site_fract_x
 _atom_site_fract_y
 _atom_site_fract_z
 _atom_site_occupancy
  Sr  Sr0  1  0.680050  0.424992  -0.000029  1
  Sr  Sr1  1  0.680050  -0.000029  0.424992  1
  Sr  Sr2  1  0.997928  0.999587  0.999587  1
  Nd  Nd3  1  0.252196  0.579140  0.579140  1
  Nd  Nd4  1  0.331981  0.750654  0.326780  1
  Nd  Nd5  1  0.331981  0.326780  0.750654  1
  Nd  Nd6  1  0.422626  0.002790  0.674762  1
  Nd  Nd7  1  0.422626  0.674762  0.002790  1
  Nd  Nd8  1  0.580298  0.575530  0.249574  1
  Nd  Nd9  1  0.580298  0.249574  0.575530  1
  Nd  Nd10  1  0.747064  0.326470  0.326470  1
  Nd  Nd11  1  0.997787  0.673198  0.421053  1
  Nd  Nd12  1  0.997787  0.421053  0.673198  1
  Al  Al13  1  0.162446  0.999863  0.753707  1
  Al  Al14  1  0.999727  0.753119  0.161931  1
  Al  Al15  1  0.999727  0.161931  0.753119  1
  Al  Al16  1  0.162446  0.753707  0.999863  1
  Al  Al17  1  0.590548  0.837654  0.837654  1
  Al  Al18  1  0.247073  0.247383  0.409958  1
  Al  Al19  1  0.247073  0.409958  0.247383  1
  Al  Al20  1  0.408277  0.246397  0.246397  1
  Al  Al21  1  0.837552  0.591045  0.837887  1
  Al  Al22  1  0.837552  0.837887  0.591045  1
  Al  Al23  1  0.753808  0.000455  0.162666  1
  Al  Al24  1  0.753808  0.162666  0.000455  1
  Si  Si25  1  0.000157  0.699098  0.699098  1
  Si  Si26  1  0.301434  0.840038  0.840038  1
  Si  Si27  1  0.001727  0.160869  0.461729  1
  Si  Si28  1  0.300216  0.999520  0.299797  1
  Si  Si29  1  0.160930  0.999535  0.461384  1
  Si  Si30  1  0.160930  0.461384  0.999535  1
  Si  Si31  1  0.538623  0.699083  0.539086  1
  Si  Si32  1  0.538623  0.539086  0.699083  1
  Si  Si33  1  0.300216  0.299797  0.999520  1
  Si  Si34  1  0.699415  0.538717  0.538717  1
  Si  Si35  1  0.462370  0.000429  0.161387  1
  Si  Si36  1  0.462370  0.161387  0.000429  1
  Si  Si37  1  0.840761  0.841721  0.301290  1
  Si  Si38  1  0.840761  0.301290  0.841721  1
  Si  Si39  1  0.698959  0.699668  0.000077  1
  Si  Si40  1  0.698959  0.000077  0.699668  1
  Si  Si41  1  0.001727  0.461729  0.160869  1
  Si  Si42  1  0.999958  0.301416  0.301416  1
  N  N43  1  0.000173  0.688856  0.842506  1
  N  N44  1  0.000173  0.842506  0.688856  1
  N  N45  1  0.146306  0.695520  0.695520  1
  N  N46  1  0.000923  0.305727  0.451762  1
  N  N47  1  0.156316  0.846611  0.156146  1
  N  N48  1  0.156316  0.156146  0.846611  1
  N  N49  1  0.152905  0.480200  0.151290  1
  N  N50  1  0.152905  0.151290  0.480200  1
  N  N51  1  0.153756  0.311810  0.311810  1
  N  N52  1  0.449173  0.000096  0.303990  1
  N  N53  1  0.327471  0.000045  0.849903  1
  N  N54  1  0.327471  0.849903  0.000045  1
  N  N55  1  0.688907  0.843060  0.999615  1
  N  N56  1  0.522333  0.672666  0.672666  1
  N  N57  1  0.548658  0.853732  0.551019  1
  N  N58  1  0.548658  0.551019  0.853732  1
  N  N59  1  0.309726  0.153480  0.310669  1
  N  N60  1  0.309726  0.310669  0.153480  1
  N  N61  1  0.303286  0.996737  0.448391  1
  N  N62  1  0.303286  0.448391  0.996737  1
  N  N63  1  0.672158  0.521769  0.672239  1
  N  N64  1  0.672158  0.672239  0.521769  1
  N  N65  1  0.843804  0.000004  0.692899  1
  N  N66  1  0.449173  0.303990  0.000096  1
  N  N67  1  0.477325  0.150617  0.150617  1
  N  N68  1  0.688907  0.999615  0.843060  1
  N  N69  1  0.695135  0.698874  0.147238  1
  N  N70  1  0.695135  0.147238  0.698874  1
  N  N71  1  0.854904  0.550473  0.550473  1
  N  N72  1  0.000628  0.849035  0.328136  1
  N  N73  1  0.000628  0.328136  0.849035  1
  N  N74  1  0.843804  0.692899  0.000004  1
  N  N75  1  0.847334  0.158312  0.158312  1
  N  N76  1  0.855988  0.001834  0.325440  1
  N  N77  1  0.855988  0.325440  0.001834  1
  N  N78  1  0.000923  0.451762  0.305727  1
  O  O79  1  0.250814  0.749896  0.501163  1
  O  O80  1  0.250814  0.501163  0.749896  1
  O  O81  1  0.421633  0.811546  0.811546  1
  O  O82  1  0.187429  0.999690  0.610244  1
  O  O83  1  0.187429  0.610244  0.999690  1
  O  O84  1  0.389678  0.391396  0.577188  1
  O  O85  1  0.389678  0.577188  0.391396  1
  O  O86  1  0.487895  0.240637  0.733278  1
  O  O87  1  0.487895  0.733278  0.240637  1
  O  O88  1  0.608576  0.999297  0.182379  1
  O  O89  1  0.576923  0.389878  0.389878  1
  O  O90  1  0.813903  0.423007  0.813432  1
  O  O91  1  0.813903  0.813432  0.423007  1
  O  O92  1  0.755556  0.506589  0.266137  1
  O  O93  1  0.755556  0.266137  0.506589  1
  O  O94  1  0.608576  0.182379  0.999297  1
  O  O95  1  0.000259  0.187581  0.610068  1
  O  O96  1  0.000259  0.610068  0.187581  1
