# generated using pymatgen
data_Li2FeSi4O11
_symmetry_space_group_name_H-M   'P 1'
_cell_length_a   7.74994352
_cell_length_b   8.48354560
_cell_length_c   8.48354560
_cell_angle_alpha   102.04223442
_cell_angle_beta   117.17844160
_cell_angle_gamma   62.82155840
_symmetry_Int_Tables_number   1
_chemical_formula_structural   Li2FeSi4O11
_chemical_formula_sum   'Li4 Fe2 Si8 O22'
_cell_volume   441.39911643
_cell_formula_units_Z   2
loop_
 _symmetry_equiv_pos_site_id
 _symmetry_equiv_pos_as_xyz
  1  'x, y, z'
loop_
 _atom_site_type_symbol
 _atom_site_label
 _atom_site_symmetry_multiplicity
 _atom_site_fract_x
 _atom_site_fract_y
 _atom_site_fract_z
 _atom_site_occupancy
  Li  Li0  1  0.622215  0.035158  0.279588  1
  Li  Li1  1  0.657373  0.720412  0.035158  1
  Li  Li2  1  0.342627  0.279588  0.964842  1
  Li  Li3  1  0.377785  0.964842  0.720412  1
  Fe  Fe4  1  0.240847  0.000000  0.000000  1
  Fe  Fe5  1  0.759153  0.000000  0.000000  1
  Si  Si6  1  0.177656  0.323155  0.286342  1
  Si  Si7  1  0.785531  0.323155  0.286342  1
  Si  Si8  1  0.891314  0.286342  0.676845  1
  Si  Si9  1  0.499189  0.286342  0.676845  1
  Si  Si10  1  0.108686  0.713658  0.323155  1
  Si  Si11  1  0.500811  0.713658  0.323155  1
  Si  Si12  1  0.822344  0.676845  0.713658  1
  Si  Si13  1  0.214469  0.676845  0.713658  1
  O  O14  1  0.000000  0.000000  0.000000  1
  O  O15  1  0.500000  0.000000  0.000000  1
  O  O16  1  0.218784  0.239611  0.110863  1
  O  O17  1  0.652469  0.239611  0.110863  1
  O  O18  1  0.034940  0.253282  0.323164  1
  O  O19  1  0.408337  0.267587  0.459727  1
  O  O20  1  0.783802  0.267587  0.459727  1
  O  O21  1  0.051390  0.540273  0.267587  1
  O  O22  1  0.675925  0.540273  0.267587  1
  O  O23  1  0.107921  0.110863  0.760389  1
  O  O24  1  0.541606  0.110863  0.760389  1
  O  O25  1  0.288223  0.676837  0.253282  1
  O  O26  1  0.711777  0.323164  0.746718  1
  O  O27  1  0.458394  0.889137  0.239611  1
  O  O28  1  0.892079  0.889137  0.239611  1
  O  O29  1  0.324075  0.459727  0.732413  1
  O  O30  1  0.948610  0.459727  0.732413  1
  O  O31  1  0.591663  0.732413  0.540273  1
  O  O32  1  0.216198  0.732413  0.540273  1
  O  O33  1  0.965060  0.746718  0.676837  1
  O  O34  1  0.347531  0.760389  0.889137  1
  O  O35  1  0.781216  0.760389  0.889137  1
