# generated using pymatgen
data_LiNi4(PO4)3
_symmetry_space_group_name_H-M   'P 1'
_cell_length_a   9.92531216
_cell_length_b   8.04889309
_cell_length_c   6.38152206
_cell_angle_alpha   66.64528481
_cell_angle_beta   90.00000000
_cell_angle_gamma   90.00000000
_symmetry_Int_Tables_number   1
_chemical_formula_structural   LiNi4(PO4)3
_chemical_formula_sum   'Li2 Ni8 P6 O24'
_cell_volume   468.03633311
_cell_formula_units_Z   2
loop_
 _symmetry_equiv_pos_site_id
 _symmetry_equiv_pos_as_xyz
  1  'x, y, z'
loop_
 _atom_site_type_symbol
 _atom_site_label
 _atom_site_symmetry_multiplicity
 _atom_site_fract_x
 _atom_site_fract_y
 _atom_site_fract_z
 _atom_site_occupancy
  Li  Li0  1  0.246061  0.955846  0.022076  1
  Li  Li1  1  0.746061  0.044154  0.977924  1
  Ni  Ni2  1  0.060120  0.748263  0.625869  1
  Ni  Ni3  1  0.249628  0.398992  0.053660  1
  Ni  Ni4  1  0.249628  0.398992  0.547348  1
  Ni  Ni5  1  0.438003  0.736055  0.631972  1
  Ni  Ni6  1  0.560120  0.251737  0.374131  1
  Ni  Ni7  1  0.749628  0.601008  0.452652  1
  Ni  Ni8  1  0.749628  0.601008  0.946340  1
  Ni  Ni9  1  0.938003  0.263945  0.368028  1
  P  P10  1  0.036635  0.630292  0.184854  1
  P  P11  1  0.295349  0.042350  0.478825  1
  P  P12  1  0.465241  0.630230  0.184885  1
  P  P13  1  0.536635  0.369708  0.815146  1
  P  P14  1  0.795349  0.957650  0.521175  1
  P  P15  1  0.965241  0.369770  0.815115  1
  O  O16  1  0.076581  0.735801  0.324331  1
  O  O17  1  0.076581  0.735801  0.939868  1
  O  O18  1  0.112903  0.438369  0.280816  1
  O  O19  1  0.119107  0.429526  0.785236  1
  O  O20  1  0.246699  0.135000  0.227210  1
  O  O21  1  0.246699  0.135000  0.637790  1
  O  O22  1  0.247564  0.843221  0.578390  1
  O  O23  1  0.382745  0.431566  0.784218  1
  O  O24  1  0.387544  0.439482  0.280259  1
  O  O25  1  0.425826  0.736262  0.324367  1
  O  O26  1  0.425826  0.736262  0.939371  1
  O  O27  1  0.451487  0.023330  0.488335  1
  O  O28  1  0.576581  0.264199  0.060132  1
  O  O29  1  0.576581  0.264199  0.675669  1
  O  O30  1  0.612903  0.561631  0.719184  1
  O  O31  1  0.619107  0.570474  0.214764  1
  O  O32  1  0.747564  0.156779  0.421610  1
  O  O33  1  0.746699  0.865000  0.772790  1
  O  O34  1  0.746699  0.865000  0.362210  1
  O  O35  1  0.882745  0.568434  0.215782  1
  O  O36  1  0.887544  0.560518  0.719741  1
  O  O37  1  0.925826  0.263738  0.675633  1
  O  O38  1  0.925826  0.263738  0.060629  1
  O  O39  1  0.951487  0.976670  0.511665  1
