# generated using pymatgen
data_Cs2NpO3
_symmetry_space_group_name_H-M   'P 1'
_cell_length_a   7.05675068
_cell_length_b   7.05675068
_cell_length_c   6.41180590
_cell_angle_alpha   90.00000000
_cell_angle_beta   90.00000000
_cell_angle_gamma   113.51627321
_symmetry_Int_Tables_number   1
_chemical_formula_structural   Cs2NpO3
_chemical_formula_sum   'Cs4 Np2 O6'
_cell_volume   292.77503786
_cell_formula_units_Z   2
loop_
 _symmetry_equiv_pos_site_id
 _symmetry_equiv_pos_as_xyz
  1  'x, y, z'
loop_
 _atom_site_type_symbol
 _atom_site_label
 _atom_site_symmetry_multiplicity
 _atom_site_fract_x
 _atom_site_fract_y
 _atom_site_fract_z
 _atom_site_occupancy
  Cs  Cs0  1  0.481947  0.805858  0.256311  1
  Cs  Cs1  1  0.194142  0.518053  0.756311  1
  Cs  Cs2  1  0.518053  0.194142  0.756311  1
  Cs  Cs3  1  0.805858  0.481947  0.256311  1
  Np  Np4  1  0.085534  0.085534  0.239461  1
  Np  Np5  1  0.914466  0.914466  0.739461  1
  O  O6  1  0.109920  0.877031  0.994720  1
  O  O7  1  0.122969  0.890080  0.494720  1
  O  O8  1  0.652984  0.652984  0.698475  1
  O  O9  1  0.347016  0.347016  0.198475  1
  O  O10  1  0.877031  0.109920  0.994720  1
  O  O11  1  0.890080  0.122969  0.494720  1
