# generated using pymatgen
data_RbMgH12(ClO2)3
_symmetry_space_group_name_H-M   'P 1'
_cell_length_a   6.73152071
_cell_length_b   13.52300646
_cell_length_c   6.62072551
_cell_angle_alpha   91.90261724
_cell_angle_beta   92.06541730
_cell_angle_gamma   89.51897634
_symmetry_Int_Tables_number   1
_chemical_formula_structural   RbMgH12(ClO2)3
_chemical_formula_sum   'Rb2 Mg2 H24 Cl6 O12'
_cell_volume   601.94804947
_cell_formula_units_Z   2
loop_
 _symmetry_equiv_pos_site_id
 _symmetry_equiv_pos_as_xyz
  1  'x, y, z'
loop_
 _atom_site_type_symbol
 _atom_site_label
 _atom_site_symmetry_multiplicity
 _atom_site_fract_x
 _atom_site_fract_y
 _atom_site_fract_z
 _atom_site_occupancy
  Rb  Rb0  1  0.978786  0.009074  0.984473  1
  Rb  Rb1  1  0.990860  0.503325  0.009588  1
  Mg  Mg2  1  0.475648  0.245154  0.498895  1
  Mg  Mg3  1  0.482520  0.756011  0.502934  1
  H  H4  1  0.139227  0.860818  0.566865  1
  H  H5  1  0.126254  0.279853  0.289938  1
  H  H6  1  0.129772  0.366483  0.455855  1
  H  H7  1  0.141219  0.778652  0.731037  1
  H  H8  1  0.251131  0.582446  0.464883  1
  H  H9  1  0.250033  0.801523  0.175185  1
  H  H10  1  0.249645  0.225836  0.835820  1
  H  H11  1  0.285934  0.070448  0.433827  1
  H  H12  1  0.428190  0.575711  0.312962  1
  H  H13  1  0.424005  0.145767  0.843537  1
  H  H14  1  0.455378  0.777671  0.088987  1
  H  H15  1  0.435965  0.072889  0.253998  1
  H  H16  1  0.545070  0.936137  0.700661  1
  H  H17  1  0.520511  0.420089  0.742745  1
  H  H18  1  0.540137  0.641066  0.844641  1
  H  H19  1  0.533921  0.353087  0.163484  1
  H  H20  1  0.661300  0.257169  0.124621  1
  H  H21  1  0.699913  0.726737  0.855272  1
  H  H22  1  0.705474  0.929975  0.530607  1
  H  H23  1  0.700986  0.408661  0.598654  1
  H  H24  1  0.833943  0.218296  0.708948  1
  H  H25  1  0.829910  0.650801  0.440912  1
  H  H26  1  0.836283  0.137069  0.531428  1
  H  H27  1  0.826482  0.732966  0.275432  1
  Cl  Cl28  1  0.995167  0.995398  0.476388  1
  Cl  Cl29  1  0.493039  0.012935  0.972859  1
  Cl  Cl30  1  0.485940  0.506200  0.014931  1
  Cl  Cl31  1  0.973607  0.508688  0.516227  1
  Cl  Cl32  1  0.980814  0.257079  0.992063  1
  Cl  Cl33  1  0.975143  0.760382  0.999544  1
  O  O34  1  0.206038  0.798768  0.607131  1
  O  O35  1  0.194132  0.303331  0.417402  1
  O  O36  1  0.378230  0.613066  0.431465  1
  O  O37  1  0.374610  0.205721  0.773127  1
  O  O38  1  0.392712  0.803143  0.212387  1
  O  O39  1  0.398752  0.106910  0.382422  1
  O  O40  1  0.564127  0.709231  0.801985  1
  O  O41  1  0.568044  0.382839  0.622793  1
  O  O42  1  0.590475  0.895519  0.583294  1
  O  O43  1  0.561139  0.286779  0.213405  1
  O  O44  1  0.753584  0.707906  0.390456  1
  O  O45  1  0.760692  0.194093  0.584787  1
