# generated using pymatgen
data_Li5V3P8O29
_symmetry_space_group_name_H-M   'P 1'
_cell_length_a   9.79858220
_cell_length_b   9.78687518
_cell_length_c   13.92665972
_cell_angle_alpha   89.84179085
_cell_angle_beta   89.81343621
_cell_angle_gamma   60.16258254
_symmetry_Int_Tables_number   1
_chemical_formula_structural   Li5V3P8O29
_chemical_formula_sum   'Li10 V6 P16 O58'
_cell_volume   1158.48757084
_cell_formula_units_Z   2
loop_
 _symmetry_equiv_pos_site_id
 _symmetry_equiv_pos_as_xyz
  1  'x, y, z'
loop_
 _atom_site_type_symbol
 _atom_site_label
 _atom_site_symmetry_multiplicity
 _atom_site_fract_x
 _atom_site_fract_y
 _atom_site_fract_z
 _atom_site_occupancy
  Li  Li0  1  0.092983  0.229214  0.939037  1
  Li  Li1  1  0.094922  0.677498  0.439774  1
  Li  Li2  1  0.225644  0.680375  0.940237  1
  Li  Li3  1  0.320037  0.775052  0.558283  1
  Li  Li4  1  0.325496  0.904916  0.060923  1
  Li  Li5  1  0.676521  0.228838  0.439522  1
  Li  Li6  1  0.771805  0.318856  0.059282  1
  Li  Li7  1  0.911205  0.317364  0.559857  1
  Li  Li8  1  0.769888  0.905455  0.561001  1
  Li  Li9  1  0.901983  0.775049  0.058680  1
  V  V10  1  0.998963  0.567313  0.250763  1
  V  V11  1  0.429893  0.003638  0.253971  1
  V  V12  1  0.436544  0.564856  0.749854  1
  V  V13  1  0.569531  0.431178  0.248224  1
  V  V14  1  0.565525  0.003856  0.755084  1
  V  V15  1  0.999956  0.431146  0.747848  1
  P  P16  1  0.088450  0.231437  0.158803  1
  P  P17  1  0.233376  0.084963  0.656504  1
  P  P18  1  0.088021  0.681944  0.657192  1
  P  P19  1  0.334400  0.334386  0.373287  1
  P  P20  1  0.331016  0.334907  0.873247  1
  P  P21  1  0.231981  0.679947  0.158082  1
  P  P22  1  0.321041  0.767301  0.341166  1
  P  P23  1  0.682424  0.085209  0.156242  1
  P  P24  1  0.316417  0.913594  0.842975  1
  P  P25  1  0.681895  0.229999  0.659351  1
  P  P26  1  0.769371  0.318323  0.843075  1
  P  P27  1  0.665723  0.669488  0.127170  1
  P  P28  1  0.666355  0.668284  0.627808  1
  P  P29  1  0.912639  0.317867  0.343626  1
  P  P30  1  0.767926  0.913967  0.342377  1
  P  P31  1  0.910635  0.767769  0.840913  1
  O  O32  1  0.994276  0.244898  0.434304  1
  O  O33  1  0.086154  0.251851  0.657694  1
  O  O34  1  0.207796  0.003979  0.752844  1
  O  O35  1  0.243559  0.003026  0.933827  1
  O  O36  1  0.101300  0.379045  0.175550  1
  O  O37  1  0.254449  0.081120  0.160732  1
  O  O38  1  0.187311  0.326021  0.832909  1
  O  O39  1  0.098020  0.521004  0.676288  1
  O  O40  1  0.997966  0.760927  0.930760  1
  O  O41  1  0.082365  0.663812  0.159315  1
  O  O42  1  0.332398  0.185208  0.325893  1
  O  O43  1  0.186410  0.486358  0.333217  1
  O  O44  1  0.384032  0.094847  0.677866  1
  O  O45  1  0.334994  0.329233  0.479815  1
  O  O46  1  0.335243  0.333713  0.979676  1
  O  O47  1  0.522066  0.094657  0.177177  1
  O  O48  1  0.329881  0.486350  0.830991  1
  O  O49  1  0.482299  0.185869  0.826709  1
  O  O50  1  0.251614  0.666160  0.657140  1
  O  O51  1  0.209431  0.789580  0.249982  1
  O  O52  1  0.242020  0.759161  0.068075  1
  O  O53  1  0.240646  0.759724  0.431183  1
  O  O54  1  0.380768  0.520014  0.175813  1
  O  O55  1  0.488182  0.324883  0.332529  1
  O  O56  1  0.664730  0.080231  0.661034  1
  O  O57  1  0.334203  0.748736  0.843272  1
  O  O58  1  0.520892  0.378535  0.674468  1
  O  O59  1  0.244420  0.991465  0.570941  1
  O  O60  1  0.753817  0.001915  0.433417  1
  O  O61  1  0.479826  0.618341  0.324372  1
  O  O62  1  0.662777  0.252650  0.158188  1
  O  O63  1  0.788192  0.003996  0.252387  1
  O  O64  1  0.340368  0.914912  0.335622  1
  O  O65  1  0.512816  0.672042  0.669799  1
  O  O66  1  0.622648  0.479666  0.823487  1
  O  O67  1  0.762232  0.243949  0.934361  1
  O  O68  1  0.760627  0.238018  0.568259  1
  O  O69  1  0.791350  0.208444  0.750422  1
  O  O70  1  0.745234  0.336593  0.338830  1
  O  O71  1  0.511640  0.817481  0.169747  1
  O  O72  1  0.478546  0.902977  0.823824  1
  O  O73  1  0.673765  0.514160  0.167338  1
  O  O74  1  0.663132  0.669930  0.520827  1
  O  O75  1  0.661620  0.671549  0.020146  1
  O  O76  1  0.617566  0.902547  0.323569  1
  O  O77  1  0.812979  0.513019  0.666597  1
  O  O78  1  0.670115  0.816523  0.669793  1
  O  O79  1  0.920238  0.334678  0.837566  1
  O  O80  1  0.999515  0.209856  0.250471  1
  O  O81  1  0.001855  0.238705  0.068325  1
  O  O82  1  0.901340  0.479669  0.322791  1
  O  O83  1  0.811791  0.676282  0.167502  1
  O  O84  1  0.743744  0.914871  0.835409  1
  O  O85  1  0.900221  0.618903  0.824350  1
  O  O86  1  0.765519  0.992828  0.070362  1
  O  O87  1  0.916041  0.748606  0.342244  1
  O  O88  1  0.996785  0.758331  0.567562  1
  O  O89  1  0.999846  0.790884  0.749516  1
