# generated using pymatgen
data_Li3Cu3(PO4)2
_symmetry_space_group_name_H-M   'P 1'
_cell_length_a   6.22688288
_cell_length_b   5.43902114
_cell_length_c   10.17685385
_cell_angle_alpha   90.31039275
_cell_angle_beta   90.01081658
_cell_angle_gamma   89.53917262
_symmetry_Int_Tables_number   1
_chemical_formula_structural   Li3Cu3(PO4)2
_chemical_formula_sum   'Li6 Cu6 P4 O16'
_cell_volume   344.65497903
_cell_formula_units_Z   2
loop_
 _symmetry_equiv_pos_site_id
 _symmetry_equiv_pos_as_xyz
  1  'x, y, z'
loop_
 _atom_site_type_symbol
 _atom_site_label
 _atom_site_symmetry_multiplicity
 _atom_site_fract_x
 _atom_site_fract_y
 _atom_site_fract_z
 _atom_site_occupancy
  Li  Li0  1  0.999745  0.154841  0.746252  1
  Li  Li1  1  0.998597  0.155601  0.247350  1
  Li  Li2  1  0.244956  0.329851  0.495484  1
  Li  Li3  1  0.249577  0.326712  0.997905  1
  Li  Li4  1  0.252549  0.671481  0.246299  1
  Li  Li5  1  0.500570  0.846121  0.495149  1
  Cu  Cu6  1  0.261678  0.661634  0.750260  1
  Cu  Cu7  1  0.502746  0.821471  0.995647  1
  Cu  Cu8  1  0.738036  0.662090  0.747076  1
  Cu  Cu9  1  0.742418  0.662032  0.244825  1
  Cu  Cu10  1  0.758152  0.335773  0.495803  1
  Cu  Cu11  1  0.751308  0.331624  0.999651  1
  P  P12  1  0.007729  0.832734  0.002559  1
  P  P13  1  0.006010  0.830545  0.496801  1
  P  P14  1  0.490406  0.174951  0.251850  1
  P  P15  1  0.495231  0.177264  0.746229  1
  O  O16  1  0.004475  0.841430  0.650052  1
  O  O17  1  0.012274  0.098048  0.441555  1
  O  O18  1  0.008916  0.835092  0.155576  1
  O  O19  1  0.014931  0.096337  0.946062  1
  O  O20  1  0.204518  0.684353  0.445139  1
  O  O21  1  0.205356  0.677110  0.954181  1
  O  O22  1  0.292590  0.316204  0.197104  1
  O  O23  1  0.290149  0.305827  0.689727  1
  O  O24  1  0.486325  0.180709  0.898872  1
  O  O25  1  0.499468  0.911546  0.688430  1
  O  O26  1  0.487875  0.176749  0.405350  1
  O  O27  1  0.484373  0.901792  0.204341  1
  O  O28  1  0.708907  0.302149  0.701465  1
  O  O29  1  0.705397  0.293865  0.203728  1
  O  O30  1  0.792483  0.704679  0.450600  1
  O  O31  1  0.802256  0.699385  0.951269  1
