# generated using pymatgen
data_Li2MnFe(BO3)2
_symmetry_space_group_name_H-M   'P 1'
_cell_length_a   6.04388919
_cell_length_b   5.27416462
_cell_length_c   8.97382846
_cell_angle_alpha   90.80584159
_cell_angle_beta   102.31774591
_cell_angle_gamma   114.01137678
_symmetry_Int_Tables_number   1
_chemical_formula_structural   Li2MnFe(BO3)2
_chemical_formula_sum   'Li4 Mn2 Fe2 B4 O12'
_cell_volume   253.64891429
_cell_formula_units_Z   2
loop_
 _symmetry_equiv_pos_site_id
 _symmetry_equiv_pos_as_xyz
  1  'x, y, z'
loop_
 _atom_site_type_symbol
 _atom_site_label
 _atom_site_symmetry_multiplicity
 _atom_site_fract_x
 _atom_site_fract_y
 _atom_site_fract_z
 _atom_site_occupancy
  Li  Li0  1  0.674904  0.406453  0.034898  1
  Li  Li1  1  0.670344  0.901548  0.531793  1
  Li  Li2  1  0.325096  0.093547  0.465102  1
  Li  Li3  1  0.329656  0.598452  0.968207  1
  Mn  Mn4  1  0.764950  0.454299  0.705796  1
  Mn  Mn5  1  0.235050  0.045701  0.794204  1
  Fe  Fe6  1  0.768266  0.956824  0.212050  1
  Fe  Fe7  1  0.231734  0.543176  0.287950  1
  B  B8  1  0.740953  0.441210  0.365166  1
  B  B9  1  0.259047  0.058790  0.134834  1
  B  B10  1  0.737742  0.943064  0.869901  1
  B  B11  1  0.262258  0.556936  0.630099  1
  O  O12  1  0.825784  0.370192  0.243576  1
  O  O13  1  0.702255  0.273188  0.482121  1
  O  O14  1  0.675553  0.170736  0.865750  1
  O  O15  1  0.685528  0.673439  0.361784  1
  O  O16  1  0.823890  0.877280  0.746988  1
  O  O17  1  0.297745  0.226812  0.017879  1
  O  O18  1  0.706193  0.778584  0.988262  1
  O  O19  1  0.174216  0.129808  0.256424  1
  O  O20  1  0.324447  0.329264  0.634250  1
  O  O21  1  0.314472  0.826561  0.138216  1
  O  O22  1  0.293807  0.721416  0.511738  1
  O  O23  1  0.176110  0.622720  0.753012  1
