# generated using pymatgen
data_Li2V(PO3)5
_symmetry_space_group_name_H-M   'P 1'
_cell_length_a   12.63695601
_cell_length_b   9.63395496
_cell_length_c   5.30764159
_cell_angle_alpha   90.00000000
_cell_angle_beta   94.47360949
_cell_angle_gamma   90.00000000
_symmetry_Int_Tables_number   1
_chemical_formula_structural   Li2V(PO3)5
_chemical_formula_sum   'Li4 V2 P10 O30'
_cell_volume   644.20414977
_cell_formula_units_Z   2
loop_
 _symmetry_equiv_pos_site_id
 _symmetry_equiv_pos_as_xyz
  1  'x, y, z'
loop_
 _atom_site_type_symbol
 _atom_site_label
 _atom_site_symmetry_multiplicity
 _atom_site_fract_x
 _atom_site_fract_y
 _atom_site_fract_z
 _atom_site_occupancy
  Li  Li0  1  0.936676  0.397818  0.872289  1
  Li  Li1  1  0.436676  0.602182  0.372289  1
  Li  Li2  1  0.571214  0.402856  0.627419  1
  Li  Li3  1  0.071214  0.597144  0.127419  1
  V  V4  1  0.495205  0.995171  0.504024  1
  V  V5  1  0.995205  0.004829  0.004024  1
  P  P6  1  0.862190  0.523711  0.378508  1
  P  P7  1  0.362190  0.476289  0.878508  1
  P  P8  1  0.084654  0.183683  0.499843  1
  P  P9  1  0.143683  0.480149  0.616773  1
  P  P10  1  0.643683  0.519851  0.116773  1
  P  P11  1  0.408058  0.175796  0.009335  1
  P  P12  1  0.744832  0.986013  0.759924  1
  P  P13  1  0.908058  0.824204  0.509335  1
  P  P14  1  0.584654  0.816317  -0.000157  1
  P  P15  1  0.244832  0.013987  0.259924  1
  O  O16  1  0.336602  0.935247  0.386893  1
  O  O17  1  0.606126  0.657444  0.953160  1
  O  O18  1  0.349002  0.589741  0.063274  1
  O  O19  1  0.435399  0.139382  0.746314  1
  O  O20  1  0.290656  0.120730  0.056199  1
  O  O21  1  0.152048  0.940095  0.127002  1
  O  O22  1  0.987153  0.869418  0.723898  1
  O  O23  1  0.849002  0.410259  0.563274  1
  O  O24  1  0.068830  0.498217  0.819593  1
  O  O25  1  0.506206  0.858375  0.782262  1
  O  O26  1  0.006206  0.141625  0.282262  1
  O  O27  1  0.106126  0.342556  0.453160  1
  O  O28  1  0.752463  0.580497  0.246753  1
  O  O29  1  0.836602  0.064753  0.886893  1
  O  O30  1  0.396615  0.337380  0.042040  1
  O  O31  1  0.699879  0.884107  0.972191  1
  O  O32  1  0.658821  0.406711  0.933495  1
  O  O33  1  0.199879  0.115893  0.472191  1
  O  O34  1  0.652048  0.059905  0.627002  1
  O  O35  1  0.252463  0.419503  0.746753  1
  O  O36  1  0.551215  0.843260  0.262279  1
  O  O37  1  0.568830  0.501783  0.319593  1
  O  O38  1  0.436874  0.493394  0.675530  1
  O  O39  1  0.487153  0.130582  0.223898  1
  O  O40  1  0.935399  0.860618  0.246314  1
  O  O41  1  0.896615  0.662620  0.542040  1
  O  O42  1  0.158821  0.593289  0.433495  1
  O  O43  1  0.790656  0.879270  0.556199  1
  O  O44  1  0.051215  0.156740  0.762279  1
  O  O45  1  0.936874  0.506606  0.175530  1
