# generated using pymatgen
data_Li2TiCr(PO4)3
_symmetry_space_group_name_H-M   'P 1'
_cell_length_a   8.63123063
_cell_length_b   8.76676808
_cell_length_c   11.96850938
_cell_angle_alpha   90.00000000
_cell_angle_beta   90.38685744
_cell_angle_gamma   90.00000000
_symmetry_Int_Tables_number   1
_chemical_formula_structural   Li2TiCr(PO4)3
_chemical_formula_sum   'Li8 Ti4 Cr4 P12 O48'
_cell_volume   905.61249117
_cell_formula_units_Z   4
loop_
 _symmetry_equiv_pos_site_id
 _symmetry_equiv_pos_as_xyz
  1  'x, y, z'
loop_
 _atom_site_type_symbol
 _atom_site_label
 _atom_site_symmetry_multiplicity
 _atom_site_fract_x
 _atom_site_fract_y
 _atom_site_fract_z
 _atom_site_occupancy
  Li  Li0  1  0.219611  0.783236  0.170963  1
  Li  Li1  1  0.222918  0.719989  0.822817  1
  Li  Li2  1  0.280389  0.283236  0.329037  1
  Li  Li3  1  0.277082  0.219989  0.677183  1
  Li  Li4  1  0.719611  0.716764  0.670963  1
  Li  Li5  1  0.722918  0.780011  0.322817  1
  Li  Li6  1  0.780389  0.216764  0.829037  1
  Li  Li7  1  0.777082  0.280011  0.177183  1
  Ti  Ti8  1  0.247740  0.957206  0.385074  1
  Ti  Ti9  1  0.252260  0.457206  0.114926  1
  Ti  Ti10  1  0.747740  0.542794  0.885074  1
  Ti  Ti11  1  0.752260  0.042794  0.614926  1
  Cr  Cr12  1  0.248785  0.537271  0.618233  1
  Cr  Cr13  1  0.251215  0.037271  0.881767  1
  Cr  Cr14  1  0.748785  0.962729  0.118233  1
  Cr  Cr15  1  0.751215  0.462729  0.381767  1
  P  P16  1  0.035357  0.252687  0.497003  1
  P  P17  1  0.102143  0.110093  0.144415  1
  P  P18  1  0.102385  0.386953  0.853349  1
  P  P19  1  0.397857  0.610093  0.355585  1
  P  P20  1  0.397615  0.886953  0.646651  1
  P  P21  1  0.464643  0.752687  0.002997  1
  P  P22  1  0.535357  0.247313  0.997003  1
  P  P23  1  0.602385  0.113047  0.353349  1
  P  P24  1  0.602143  0.389907  0.644415  1
  P  P25  1  0.897615  0.613047  0.146651  1
  P  P26  1  0.897857  0.889907  0.855585  1
  P  P27  1  0.964643  0.747313  0.502997  1
  O  O28  1  0.067096  0.850806  0.428509  1
  O  O29  1  0.056799  0.652638  0.585641  1
  O  O30  1  0.077017  0.604019  0.154863  1
  O  O31  1  0.075493  0.889485  0.844382  1
  O  O32  1  0.148197  0.150621  0.427381  1
  O  O33  1  0.140138  0.343561  0.577033  1
  O  O34  1  0.155268  0.075034  0.027200  1
  O  O35  1  0.151654  0.419771  0.976453  1
  O  O36  1  0.160257  0.271642  0.183280  1
  O  O37  1  0.152495  0.226709  0.816255  1
  O  O38  1  0.177990  0.510880  0.780766  1
  O  O39  1  0.173684  0.988456  0.225472  1
  O  O40  1  0.322010  0.010880  0.719234  1
  O  O41  1  0.326316  0.488455  0.274528  1
  O  O42  1  0.339743  0.771642  0.316720  1
  O  O43  1  0.347505  0.726709  0.683745  1
  O  O44  1  0.344732  0.575034  0.472800  1
  O  O45  1  0.348346  0.919771  0.523547  1
  O  O46  1  0.351803  0.650621  0.072619  1
  O  O47  1  0.359862  0.843561  0.922967  1
  O  O48  1  0.422983  0.104019  0.345137  1
  O  O49  1  0.424507  0.389485  0.655618  1
  O  O50  1  0.432904  0.350806  0.071491  1
  O  O51  1  0.443201  0.152638  0.914359  1
  O  O52  1  0.567096  0.649194  0.928509  1
  O  O53  1  0.556799  0.847362  0.085641  1
  O  O54  1  0.575493  0.610515  0.344382  1
  O  O55  1  0.577017  0.895981  0.654863  1
  O  O56  1  0.640138  0.156439  0.077033  1
  O  O57  1  0.648197  0.349379  0.927381  1
  O  O58  1  0.651654  0.080229  0.476453  1
  O  O59  1  0.655268  0.424966  0.527200  1
  O  O60  1  0.660257  0.228358  0.683280  1
  O  O61  1  0.652495  0.273291  0.316255  1
  O  O62  1  0.673684  0.511544  0.725472  1
  O  O63  1  0.677990  0.989120  0.280766  1
  O  O64  1  0.826316  0.011544  0.774528  1
  O  O65  1  0.822010  0.489120  0.219234  1
  O  O66  1  0.847505  0.773291  0.183745  1
  O  O67  1  0.839743  0.728358  0.816720  1
  O  O68  1  0.848346  0.580229  0.023547  1
  O  O69  1  0.844732  0.924966  0.972800  1
  O  O70  1  0.859862  0.656439  0.422967  1
  O  O71  1  0.851803  0.849379  0.572619  1
  O  O72  1  0.924507  0.110515  0.155618  1
  O  O73  1  0.922983  0.395981  0.845137  1
  O  O74  1  0.932904  0.149194  0.571491  1
  O  O75  1  0.943201  0.347362  0.414359  1
