# generated using pymatgen
data_TiCr2Ni3(PO4)6
_symmetry_space_group_name_H-M   'P 1'
_cell_length_a   8.40034751
_cell_length_b   8.40034706
_cell_length_c   8.40034789
_cell_angle_alpha   61.90363288
_cell_angle_beta   61.90362672
_cell_angle_gamma   61.90362798
_symmetry_Int_Tables_number   1
_chemical_formula_structural   TiCr2Ni3(PO4)6
_chemical_formula_sum   'Ti1 Cr2 Ni3 P6 O24'
_cell_volume   437.01698573
_cell_formula_units_Z   1
loop_
 _symmetry_equiv_pos_site_id
 _symmetry_equiv_pos_as_xyz
  1  'x, y, z'
loop_
 _atom_site_type_symbol
 _atom_site_label
 _atom_site_symmetry_multiplicity
 _atom_site_fract_x
 _atom_site_fract_y
 _atom_site_fract_z
 _atom_site_occupancy
  Ti  Ti0  1  0.853137  0.853137  0.853137  1
  Cr  Cr1  1  0.000835  0.000835  0.000835  1
  Cr  Cr2  1  0.501886  0.501886  0.501886  1
  Ni  Ni3  1  0.144631  0.144631  0.144631  1
  Ni  Ni4  1  0.358712  0.358712  0.358712  1
  Ni  Ni5  1  0.643114  0.643114  0.643114  1
  P  P6  1  0.251605  0.548526  0.948771  1
  P  P7  1  0.548526  0.948771  0.251605  1
  P  P8  1  0.948771  0.251605  0.548526  1
  P  P9  1  0.050210  0.747542  0.448943  1
  P  P10  1  0.448943  0.050210  0.747542  1
  P  P11  1  0.747542  0.448943  0.050210  1
  O  O12  1  0.102149  0.325025  0.513107  1
  O  O13  1  0.325025  0.513107  0.102149  1
  O  O14  1  0.060657  0.904137  0.249690  1
  O  O15  1  0.513107  0.102149  0.325025  1
  O  O16  1  0.988545  0.826952  0.611316  1
  O  O17  1  0.252372  0.601036  0.443420  1
  O  O18  1  0.249690  0.060657  0.904137  1
  O  O19  1  0.443420  0.252372  0.601036  1
  O  O20  1  0.173873  0.397654  0.996863  1
  O  O21  1  0.601036  0.443420  0.252372  1
  O  O22  1  0.092507  0.754332  0.934404  1
  O  O23  1  0.397654  0.996863  0.173873  1
  O  O24  1  0.611316  0.988545  0.826952  1
  O  O25  1  0.904137  0.249690  0.060657  1
  O  O26  1  0.400835  0.568301  0.745400  1
  O  O27  1  0.826952  0.611316  0.988545  1
  O  O28  1  0.568301  0.745400  0.400835  1
  O  O29  1  0.754332  0.934404  0.092507  1
  O  O30  1  0.745400  0.400835  0.568301  1
  O  O31  1  0.996863  0.173873  0.397654  1
  O  O32  1  0.491533  0.902500  0.665482  1
  O  O33  1  0.934404  0.092507  0.754332  1
  O  O34  1  0.665482  0.491533  0.902500  1
  O  O35  1  0.902500  0.665482  0.491533  1
