# generated using pymatgen
data_Li3CrPCO7
_symmetry_space_group_name_H-M   'P 1'
_cell_length_a   9.53971731
_cell_length_b   9.98049180
_cell_length_c   6.48960008
_cell_angle_alpha   90.00000000
_cell_angle_beta   90.00000000
_cell_angle_gamma   63.71477258
_symmetry_Int_Tables_number   1
_chemical_formula_structural   Li3CrPCO7
_chemical_formula_sum   'Li12 Cr4 P4 C4 O28'
_cell_volume   553.99318896
_cell_formula_units_Z   4
loop_
 _symmetry_equiv_pos_site_id
 _symmetry_equiv_pos_as_xyz
  1  'x, y, z'
loop_
 _atom_site_type_symbol
 _atom_site_label
 _atom_site_symmetry_multiplicity
 _atom_site_fract_x
 _atom_site_fract_y
 _atom_site_fract_z
 _atom_site_occupancy
  Li  Li0  1  0.888544  0.442351  0.750417  1
  Li  Li1  1  0.888544  0.942351  0.749583  1
  Li  Li2  1  0.706438  0.263835  0.979918  1
  Li  Li3  1  0.706438  0.763835  0.520082  1
  Li  Li4  1  0.643299  0.065858  0.242241  1
  Li  Li5  1  0.643299  0.565858  0.257759  1
  Li  Li6  1  0.356701  0.434142  0.757759  1
  Li  Li7  1  0.356701  0.934142  0.742241  1
  Li  Li8  1  0.293562  0.236165  0.020082  1
  Li  Li9  1  0.293562  0.736165  0.479918  1
  Li  Li10  1  0.111456  0.057649  0.249583  1
  Li  Li11  1  0.111456  0.557649  0.250417  1
  Cr  Cr12  1  0.740696  0.254080  0.482638  1
  Cr  Cr13  1  0.740696  0.754080  0.017362  1
  Cr  Cr14  1  0.259304  0.245920  0.517362  1
  Cr  Cr15  1  0.259304  0.745920  0.982638  1
  P  P16  1  0.589242  0.067718  0.746324  1
  P  P17  1  0.589242  0.567718  0.753676  1
  P  P18  1  0.410758  0.432282  0.253676  1
  P  P19  1  0.410758  0.932282  0.246324  1
  C  C20  1  0.959493  0.373387  0.263404  1
  C  C21  1  0.959493  0.873387  0.236596  1
  C  C22  1  0.040507  0.126613  0.736596  1
  C  C23  1  0.040507  0.626613  0.763404  1
  O  O24  1  0.938184  0.008019  0.249002  1
  O  O25  1  0.938184  0.508019  0.250998  1
  O  O26  1  0.896817  0.237298  0.722087  1
  O  O27  1  0.843496  0.338442  0.258299  1
  O  O28  1  0.896817  0.737298  0.777913  1
  O  O29  1  0.843496  0.838442  0.241701  1
  O  O30  1  0.685294  0.071841  0.935973  1
  O  O31  1  0.687260  0.076099  0.557455  1
  O  O32  1  0.687260  0.576099  0.942545  1
  O  O33  1  0.685294  0.571841  0.564027  1
  O  O34  1  0.578106  0.299181  0.250296  1
  O  O35  1  0.575035  0.419215  0.764637  1
  O  O36  1  0.578106  0.799181  0.249704  1
  O  O37  1  0.575035  0.919215  0.735363  1
  O  O38  1  0.424965  0.080785  0.235363  1
  O  O39  1  0.421894  0.200819  0.749704  1
  O  O40  1  0.424965  0.580785  0.264637  1
  O  O41  1  0.421894  0.700819  0.750296  1
  O  O42  1  0.314706  0.428159  0.064027  1
  O  O43  1  0.312740  0.423901  0.442545  1
  O  O44  1  0.312740  0.923901  0.057455  1
  O  O45  1  0.314706  0.928159  0.435973  1
  O  O46  1  0.156504  0.161558  0.741701  1
  O  O47  1  0.103183  0.262702  0.277913  1
  O  O48  1  0.156504  0.661558  0.758299  1
  O  O49  1  0.103183  0.762702  0.222087  1
  O  O50  1  0.061816  0.491981  0.750998  1
  O  O51  1  0.061816  0.991981  0.749002  1
