# generated using pymatgen
data_LiVSiO4
_symmetry_space_group_name_H-M   'P 1'
_cell_length_a   4.77146905
_cell_length_b   6.23015739
_cell_length_c   10.35251295
_cell_angle_alpha   89.98940675
_cell_angle_beta   90.00718700
_cell_angle_gamma   90.00054221
_symmetry_Int_Tables_number   1
_chemical_formula_structural   LiVSiO4
_chemical_formula_sum   'Li4 V4 Si4 O16'
_cell_volume   307.74917745
_cell_formula_units_Z   4
loop_
 _symmetry_equiv_pos_site_id
 _symmetry_equiv_pos_as_xyz
  1  'x, y, z'
loop_
 _atom_site_type_symbol
 _atom_site_label
 _atom_site_symmetry_multiplicity
 _atom_site_fract_x
 _atom_site_fract_y
 _atom_site_fract_z
 _atom_site_occupancy
  Li  Li0  1  0.019092  0.005652  0.214431  1
  Li  Li1  1  0.480965  0.005632  0.714428  1
  Li  Li2  1  0.519031  0.505788  0.285573  1
  Li  Li3  1  0.980917  0.505784  0.785569  1
  V  V4  1  0.000057  0.256563  0.500100  1
  V  V5  1  0.499938  0.256561  0.000097  1
  V  V6  1  0.500067  0.756562  0.999891  1
  V  V7  1  0.999912  0.756550  0.499901  1
  Si  Si8  1  0.082115  0.506694  0.088551  1
  Si  Si9  1  0.417942  0.506688  0.588554  1
  Si  Si10  1  0.582043  0.006760  0.411455  1
  Si  Si11  1  0.917900  0.006766  0.911448  1
  O  O12  1  0.239282  0.506574  0.942062  1
  O  O13  1  0.223311  0.287255  0.148448  1
  O  O14  1  0.223272  0.726092  0.148215  1
  O  O15  1  0.236015  0.006679  0.419224  1
  O  O16  1  0.263946  0.006682  0.919222  1
  O  O17  1  0.276810  0.726100  0.648221  1
  O  O18  1  0.276793  0.287251  0.648447  1
  O  O19  1  0.260681  0.506583  0.442065  1
  O  O20  1  0.739308  0.006522  0.557939  1
  O  O21  1  0.723253  0.787375  0.351535  1
  O  O22  1  0.723144  0.226229  0.351809  1
  O  O23  1  0.736063  0.506663  0.080773  1
  O  O24  1  0.763977  0.506674  0.580784  1
  O  O25  1  0.776768  0.226213  0.851794  1
  O  O26  1  0.776670  0.787373  0.851532  1
  O  O27  1  0.760729  0.006537  0.057932  1
