# generated using pymatgen
data_Ti3NbCo2(PO4)6
_symmetry_space_group_name_H-M   'P 1'
_cell_length_a   8.59385918
_cell_length_b   8.59385911
_cell_length_c   8.59385920
_cell_angle_alpha   61.29454995
_cell_angle_beta   61.29454253
_cell_angle_gamma   61.29454708
_symmetry_Int_Tables_number   1
_chemical_formula_structural   Ti3NbCo2(PO4)6
_chemical_formula_sum   'Ti3 Nb1 Co2 P6 O24'
_cell_volume   461.85709920
_cell_formula_units_Z   1
loop_
 _symmetry_equiv_pos_site_id
 _symmetry_equiv_pos_as_xyz
  1  'x, y, z'
loop_
 _atom_site_type_symbol
 _atom_site_label
 _atom_site_symmetry_multiplicity
 _atom_site_fract_x
 _atom_site_fract_y
 _atom_site_fract_z
 _atom_site_occupancy
  Ti  Ti0  1  0.140265  0.140265  0.140265  1
  Ti  Ti1  1  0.359826  0.359826  0.359826  1
  Ti  Ti2  1  0.641740  0.641740  0.641740  1
  Nb  Nb3  1  0.859731  0.859731  0.859731  1
  Co  Co4  1  0.005150  0.005150  0.005150  1
  Co  Co5  1  0.498261  0.498261  0.498261  1
  P  P6  1  0.042337  0.748787  0.454882  1
  P  P7  1  0.454882  0.042337  0.748787  1
  P  P8  1  0.255911  0.534985  0.959592  1
  P  P9  1  0.534985  0.959592  0.255911  1
  P  P10  1  0.959592  0.255911  0.534985  1
  P  P11  1  0.748787  0.454882  0.042337  1
  O  O12  1  0.119703  0.316364  0.495760  1
  O  O13  1  0.316364  0.495760  0.119703  1
  O  O14  1  0.057115  0.910741  0.264886  1
  O  O15  1  0.495760  0.119703  0.316364  1
  O  O16  1  0.004995  0.812875  0.613503  1
  O  O17  1  0.233764  0.588913  0.440897  1
  O  O18  1  0.264886  0.057115  0.910741  1
  O  O19  1  0.440897  0.233764  0.588913  1
  O  O20  1  0.189619  0.377853  0.000062  1
  O  O21  1  0.588913  0.440897  0.233764  1
  O  O22  1  0.094375  0.729319  0.944382  1
  O  O23  1  0.377853  0.000062  0.189619  1
  O  O24  1  0.613503  0.004995  0.812875  1
  O  O25  1  0.910741  0.264886  0.057115  1
  O  O26  1  0.414601  0.553147  0.766882  1
  O  O27  1  0.812875  0.613503  0.004995  1
  O  O28  1  0.553147  0.766882  0.414601  1
  O  O29  1  0.729319  0.944382  0.094375  1
  O  O30  1  0.766882  0.414601  0.553147  1
  O  O31  1  0.000062  0.189619  0.377853  1
  O  O32  1  0.500219  0.879901  0.688658  1
  O  O33  1  0.944382  0.094375  0.729319  1
  O  O34  1  0.688658  0.500219  0.879901  1
  O  O35  1  0.879901  0.688658  0.500219  1
