# generated using pymatgen
data_Li2MnSiO4
_symmetry_space_group_name_H-M   'P 1'
_cell_length_a   5.40010014
_cell_length_b   5.40010014
_cell_length_c   6.36563380
_cell_angle_alpha   90.00000000
_cell_angle_beta   90.00000000
_cell_angle_gamma   92.89993602
_symmetry_Int_Tables_number   1
_chemical_formula_structural   Li2MnSiO4
_chemical_formula_sum   'Li4 Mn2 Si2 O8'
_cell_volume   185.39105258
_cell_formula_units_Z   2
loop_
 _symmetry_equiv_pos_site_id
 _symmetry_equiv_pos_as_xyz
  1  'x, y, z'
loop_
 _atom_site_type_symbol
 _atom_site_label
 _atom_site_symmetry_multiplicity
 _atom_site_fract_x
 _atom_site_fract_y
 _atom_site_fract_z
 _atom_site_occupancy
  Li  Li0  1  0.310484  0.689516  0.500000  1
  Li  Li1  1  0.179362  0.179362  0.750000  1
  Li  Li2  1  0.820638  0.820638  0.250000  1
  Li  Li3  1  0.689516  0.310484  0.000000  1
  Mn  Mn4  1  0.320901  0.679099  0.000000  1
  Mn  Mn5  1  0.679099  0.320901  0.500000  1
  Si  Si6  1  0.173955  0.173955  0.250000  1
  Si  Si7  1  0.826045  0.826045  0.750000  1
  O  O8  1  0.204782  0.870425  0.256024  1
  O  O9  1  0.129575  0.795218  0.743976  1
  O  O10  1  0.307789  0.292739  0.035856  1
  O  O11  1  0.707261  0.692211  0.964144  1
  O  O12  1  0.292739  0.307789  0.464144  1
  O  O13  1  0.692211  0.707261  0.535856  1
  O  O14  1  0.795218  0.129575  0.756024  1
  O  O15  1  0.870425  0.204782  0.243976  1
