# generated using pymatgen
data_Li5V3P8O29
_symmetry_space_group_name_H-M   'P 1'
_cell_length_a   9.78840540
_cell_length_b   9.80648894
_cell_length_c   13.96127457
_cell_angle_alpha   89.97431051
_cell_angle_beta   89.93897367
_cell_angle_gamma   59.85824481
_symmetry_Int_Tables_number   1
_chemical_formula_structural   Li5V3P8O29
_chemical_formula_sum   'Li10 V6 P16 O58'
_cell_volume   1158.93429308
_cell_formula_units_Z   2
loop_
 _symmetry_equiv_pos_site_id
 _symmetry_equiv_pos_as_xyz
  1  'x, y, z'
loop_
 _atom_site_type_symbol
 _atom_site_label
 _atom_site_symmetry_multiplicity
 _atom_site_fract_x
 _atom_site_fract_y
 _atom_site_fract_z
 _atom_site_occupancy
  Li  Li0  1  0.905805  0.770087  0.059091  1
  Li  Li1  1  0.765665  0.900282  0.560664  1
  Li  Li2  1  0.900314  0.333584  0.560337  1
  Li  Li3  1  0.771136  0.323065  0.059979  1
  Li  Li4  1  0.322740  0.905232  0.059410  1
  Li  Li5  1  0.333024  0.766248  0.559844  1
  Li  Li6  1  0.677564  0.095448  0.937383  1
  Li  Li7  1  0.227137  0.677283  0.937517  1
  Li  Li8  1  0.096552  0.226757  0.936983  1
  Li  Li9  1  0.004823  0.996357  0.500448  1
  V  V10  1  0.567713  0.432126  0.251842  1
  V  V11  1  0.432683  0.567358  0.747880  1
  V  V12  1  0.567331  0.000174  0.748054  1
  V  V13  1  0.432067  0.002859  0.255394  1
  V  V14  1  0.003033  0.563729  0.255062  1
  V  V15  1  0.000001  0.432838  0.747970  1
  P  P16  1  0.913334  0.766547  0.842892  1
  P  P17  1  0.774183  0.912749  0.342279  1
  P  P18  1  0.912935  0.312931  0.342731  1
  P  P19  1  0.668091  0.667944  0.130094  1
  P  P20  1  0.666497  0.667080  0.625921  1
  P  P21  1  0.767223  0.319564  0.842804  1
  P  P22  1  0.690270  0.225423  0.657566  1
  P  P23  1  0.320122  0.913131  0.842792  1
  P  P24  1  0.680894  0.087225  0.157728  1
  P  P25  1  0.313409  0.773735  0.342994  1
  P  P26  1  0.229992  0.681396  0.159271  1
  P  P27  1  0.335579  0.331859  0.372351  1
  P  P28  1  0.333512  0.333468  0.871858  1
  P  P29  1  0.084269  0.689578  0.657609  1
  P  P30  1  0.225504  0.084471  0.657729  1
  P  P31  1  0.088835  0.229985  0.158413  1
  O  O32  1  0.993666  0.793257  0.575723  1
  O  O33  1  0.914731  0.741477  0.332611  1
  O  O34  1  0.756687  0.995739  0.068088  1
  O  O35  1  0.747779  0.915892  0.841515  1
  O  O36  1  0.902688  0.617459  0.822822  1
  O  O37  1  0.818371  0.668491  0.172730  1
  O  O38  1  0.909618  0.472177  0.326096  1
  O  O39  1  -0.000045  0.241689  0.068115  1
  O  O40  1  0.915940  0.336396  0.841599  1
  O  O41  1  0.679351  0.809947  0.667281  1
  O  O42  1  0.617314  0.911092  0.327938  1
  O  O43  1  0.809762  0.510786  0.667102  1
  O  O44  1  0.667635  0.676283  0.023382  1
  O  O45  1  0.666912  0.667560  0.518850  1
  O  O46  1  0.672311  0.514902  0.166982  1
  O  O47  1  0.480093  0.902707  0.822710  1
  O  O48  1  0.516679  0.817003  0.173259  1
  O  O49  1  0.743199  0.343290  0.332838  1
  O  O50  1  0.788617  0.203401  0.756294  1
  O  O51  1  0.794334  0.211776  0.575594  1
  O  O52  1  0.754564  0.245956  0.934658  1
  O  O53  1  0.617318  0.479596  0.822852  1
  O  O54  1  0.510186  0.679690  0.666798  1
  O  O55  1  0.663639  0.252349  0.156928  1
  O  O56  1  0.470470  0.621265  0.329273  1
  O  O57  1  0.339840  0.917719  0.330452  1
  O  O58  1  0.792786  0.000561  0.249882  1
  O  O59  1  0.781762  0.986702  0.433603  1
  O  O60  1  0.212137  0.994199  0.576019  1
  O  O61  1  0.661693  0.082521  0.659862  1
  O  O62  1  0.533062  0.379787  0.668569  1
  O  O63  1  0.336528  0.747918  0.841494  1
  O  O64  1  0.480909  0.328810  0.328357  1
  O  O65  1  0.382291  0.523128  0.177076  1
  O  O66  1  0.239115  0.760052  0.069086  1
  O  O67  1  0.226379  0.790150  0.433344  1
  O  O68  1  0.203848  0.792199  0.250861  1
  O  O69  1  0.256069  0.661314  0.659747  1
  O  O70  1  0.488455  0.186673  0.831207  1
  O  O71  1  0.522002  0.095978  0.178406  1
  O  O72  1  0.325522  0.487962  0.831369  1
  O  O73  1  0.333346  0.333309  0.978962  1
  O  O74  1  0.322490  0.331849  0.477348  1
  O  O75  1  0.183861  0.480561  0.325518  1
  O  O76  1  0.379760  0.087071  0.668716  1
  O  O77  1  0.331400  0.184267  0.325702  1
  O  O78  1  0.083179  0.660108  0.159855  1
  O  O79  1  0.008252  0.787883  0.756302  1
  O  O80  1  0.000139  0.753446  0.934438  1
  O  O81  1  0.087229  0.532869  0.668696  1
  O  O82  1  0.187010  0.325409  0.831148  1
  O  O83  1  0.095516  0.381512  0.177259  1
  O  O84  1  0.256506  0.083187  0.158443  1
  O  O85  1  0.246338  0.999448  0.934638  1
  O  O86  1  0.203436  0.008306  0.756458  1
  O  O87  1  0.081863  0.256211  0.660139  1
  O  O88  1  0.989913  0.233016  0.433614  1
  O  O89  1  0.003089  0.205187  0.250192  1
