# generated using pymatgen
data_Hg(TeO3)2
_symmetry_space_group_name_H-M   'P 1'
_cell_length_a   7.88549161
_cell_length_b   12.80491662
_cell_length_c   6.57290672
_cell_angle_alpha   90.00000000
_cell_angle_beta   106.93962297
_cell_angle_gamma   90.00000000
_symmetry_Int_Tables_number   1
_chemical_formula_structural   Hg(TeO3)2
_chemical_formula_sum   'Hg4 Te8 O24'
_cell_volume   634.89070284
_cell_formula_units_Z   4
loop_
 _symmetry_equiv_pos_site_id
 _symmetry_equiv_pos_as_xyz
  1  'x, y, z'
loop_
 _atom_site_type_symbol
 _atom_site_label
 _atom_site_symmetry_multiplicity
 _atom_site_fract_x
 _atom_site_fract_y
 _atom_site_fract_z
 _atom_site_occupancy
  Hg  Hg0  1  0.253717  0.592472  0.579108  1
  Hg  Hg1  1  0.246283  0.092472  0.920892  1
  Hg  Hg2  1  0.753717  0.907528  0.079108  1
  Hg  Hg3  1  0.746283  0.407528  0.420892  1
  Te  Te4  1  0.164288  0.379780  0.824854  1
  Te  Te5  1  0.335712  0.879780  0.675146  1
  Te  Te6  1  0.281005  0.294021  0.407230  1
  Te  Te7  1  0.218995  0.794021  0.092770  1
  Te  Te8  1  0.781005  0.205979  0.907230  1
  Te  Te9  1  0.718995  0.705979  0.592770  1
  Te  Te10  1  0.664288  0.120220  0.324854  1
  Te  Te11  1  0.835712  0.620220  0.175146  1
  O  O12  1  0.141609  0.405087  0.510364  1
  O  O13  1  0.251661  0.016092  0.615347  1
  O  O14  1  0.080329  0.649919  0.252986  1
  O  O15  1  0.190185  0.766979  0.703158  1
  O  O16  1  0.309815  0.266979  0.796842  1
  O  O17  1  0.013309  0.872600  0.012564  1
  O  O18  1  0.248339  0.516092  0.884653  1
  O  O19  1  0.172776  0.351823  0.118572  1
  O  O20  1  0.327224  0.851823  0.381428  1
  O  O21  1  0.641609  0.094913  0.010364  1
  O  O22  1  0.486691  0.372600  0.487436  1
  O  O23  1  0.580329  0.850081  0.752986  1
  O  O24  1  0.419671  0.149919  0.247014  1
  O  O25  1  0.513309  0.627400  0.512564  1
  O  O26  1  0.358391  0.905087  0.989636  1
  O  O27  1  0.672776  0.148177  0.618572  1
  O  O28  1  0.827224  0.648177  0.881428  1
  O  O29  1  0.751661  0.483908  0.115347  1
  O  O30  1  0.986691  0.127400  0.987436  1
  O  O31  1  0.690185  0.733021  0.203158  1
  O  O32  1  0.809815  0.233021  0.296842  1
  O  O33  1  0.919671  0.350081  0.747014  1
  O  O34  1  0.748339  0.983908  0.384653  1
  O  O35  1  0.858391  0.594913  0.489636  1
