# generated using pymatgen
data_Li4FeTe(WO6)2
_symmetry_space_group_name_H-M   'P 1'
_cell_length_a   5.49377628
_cell_length_b   10.99320821
_cell_length_c   9.69688234
_cell_angle_alpha   28.27885312
_cell_angle_beta   51.29265349
_cell_angle_gamma   56.60277329
_symmetry_Int_Tables_number   1
_chemical_formula_structural   Li4FeTe(WO6)2
_chemical_formula_sum   'Li4 Fe1 Te1 W2 O12'
_cell_volume   216.51018369
_cell_formula_units_Z   1
loop_
 _symmetry_equiv_pos_site_id
 _symmetry_equiv_pos_as_xyz
  1  'x, y, z'
loop_
 _atom_site_type_symbol
 _atom_site_label
 _atom_site_symmetry_multiplicity
 _atom_site_fract_x
 _atom_site_fract_y
 _atom_site_fract_z
 _atom_site_occupancy
  Li  Li0  1  0.322460  0.001019  0.265657  1
  Li  Li1  1  0.250472  0.496313  0.309413  1
  Li  Li2  1  0.776480  0.994381  0.810667  1
  Li  Li3  1  0.765389  0.507578  0.725602  1
  Fe  Fe4  1  0.012531  0.000524  0.001951  1
  Te  Te5  1  0.999497  0.497325  0.009297  1
  W  W6  1  0.505424  0.995641  0.506811  1
  W  W7  1  0.497449  0.503485  0.500411  1
  O  O8  1  0.386052  0.308671  0.117787  1
  O  O9  1  0.254026  0.122372  0.613174  1
  O  O10  1  0.142086  0.321935  0.726585  1
  O  O11  1  0.879491  0.168192  0.263360  1
  O  O12  1  0.374019  0.793252  0.139254  1
  O  O13  1  0.741207  0.366200  0.385633  1
  O  O14  1  0.243516  0.629942  0.616452  1
  O  O15  1  0.631954  0.203010  0.848311  1
  O  O16  1  0.116866  0.826929  0.734078  1
  O  O17  1  0.852853  0.697334  0.240463  1
  O  O18  1  0.716766  0.884580  0.374183  1
  O  O19  1  0.602662  0.681318  0.882111  1
