# generated using pymatgen
data_Yb(Bi3O5)4
_symmetry_space_group_name_H-M   'P 1'
_cell_length_a   8.90579958
_cell_length_b   8.90571696
_cell_length_c   8.90588087
_cell_angle_alpha   109.45619259
_cell_angle_beta   109.48361267
_cell_angle_gamma   109.46006568
_symmetry_Int_Tables_number   1
_chemical_formula_structural   Yb(Bi3O5)4
_chemical_formula_sum   'Yb1 Bi12 O20'
_cell_volume   543.83940139
_cell_formula_units_Z   1
loop_
 _symmetry_equiv_pos_site_id
 _symmetry_equiv_pos_as_xyz
  1  'x, y, z'
loop_
 _atom_site_type_symbol
 _atom_site_label
 _atom_site_symmetry_multiplicity
 _atom_site_fract_x
 _atom_site_fract_y
 _atom_site_fract_z
 _atom_site_occupancy
  Yb  Yb0  1  0.999807  0.999728  0.999730  1
  Bi  Bi1  1  0.826260  0.144385  0.314583  1
  Bi  Bi2  1  0.855666  0.681937  0.170320  1
  Bi  Bi3  1  0.488571  0.318349  0.173884  1
  Bi  Bi4  1  0.318237  0.173878  0.488508  1
  Bi  Bi5  1  0.681898  0.170400  0.855768  1
  Bi  Bi6  1  0.829752  0.511415  0.685329  1
  Bi  Bi7  1  0.173802  0.488461  0.318219  1
  Bi  Bi8  1  0.685302  0.829714  0.511385  1
  Bi  Bi9  1  0.314637  0.826177  0.144402  1
  Bi  Bi10  1  0.144459  0.314612  0.826226  1
  Bi  Bi11  1  0.511377  0.685248  0.829785  1
  Bi  Bi12  1  0.170350  0.855704  0.681923  1
  O  O13  1  0.673010  0.999902  0.999877  1
  O  O14  1  0.751307  0.376091  0.110570  1
  O  O15  1  0.259657  0.999843  0.999749  1
  O  O16  1  0.624873  0.248992  0.359513  1
  O  O17  1  0.889635  0.265633  0.640787  1
  O  O18  1  0.999732  0.259650  0.999812  1
  O  O19  1  0.999933  0.999871  0.259700  1
  O  O20  1  0.734465  0.624061  0.375069  1
  O  O21  1  0.326812  0.326764  0.326765  1
  O  O22  1  0.359443  0.624845  0.248985  1
  O  O23  1  0.640779  0.889614  0.265561  1
  O  O24  1  0.376076  0.110560  0.751358  1
  O  O25  1  0.624122  0.375122  0.734598  1
  O  O26  1  0.999993  0.673048  0.000055  1
  O  O27  1  0.999936  -0.000002  0.672898  1
  O  O28  1  0.248912  0.359410  0.624828  1
  O  O29  1  0.740075  0.740020  0.739947  1
  O  O30  1  0.374994  0.734481  0.624099  1
  O  O31  1  0.110538  0.751363  0.376120  1
  O  O32  1  0.265591  0.640724  0.889645  1
