# generated using pymatgen
data_Na5Bi2P(CO4)4
_symmetry_space_group_name_H-M   'P 1'
_cell_length_a   10.42886712
_cell_length_b   10.45678589
_cell_length_c   10.42886712
_cell_angle_alpha   59.17936105
_cell_angle_beta   91.57283433
_cell_angle_gamma   120.82063895
_symmetry_Int_Tables_number   1
_chemical_formula_structural   Na5Bi2P(CO4)4
_chemical_formula_sum   'Na10 Bi4 P2 C8 O32'
_cell_volume   795.00567261
_cell_formula_units_Z   2
loop_
 _symmetry_equiv_pos_site_id
 _symmetry_equiv_pos_as_xyz
  1  'x, y, z'
loop_
 _atom_site_type_symbol
 _atom_site_label
 _atom_site_symmetry_multiplicity
 _atom_site_fract_x
 _atom_site_fract_y
 _atom_site_fract_z
 _atom_site_occupancy
  Na  Na0  1  0.691003  0.365872  0.069238  1
  Na  Na1  1  0.928689  0.239550  0.935765  1
  Na  Na2  1  0.930762  0.865872  0.308997  1
  Na  Na3  1  0.324686  0.260450  0.310860  1
  Na  Na4  1  0.064235  0.739550  0.071311  1
  Na  Na5  1  0.064889  0.134128  0.674871  1
  Na  Na6  1  0.689140  0.760450  0.675314  1
  Na  Na7  1  0.317907  0.250000  0.932093  1
  Na  Na8  1  0.325130  0.634128  0.935111  1
  Na  Na9  1  0.067907  0.750000  0.682093  1
  Bi  Bi10  1  0.501403  0.992720  0.003647  1
  Bi  Bi11  1  0.508683  0.007280  0.496368  1
  Bi  Bi12  1  0.503632  0.507280  0.491318  1
  Bi  Bi13  1  0.996353  0.492720  0.498597  1
  P  P14  1  0.128321  0.250000  0.121679  1
  P  P15  1  0.878321  0.750000  0.871679  1
  C  C16  1  0.720596  0.054785  0.727767  1
  C  C17  1  0.717448  0.445215  0.334189  1
  C  C18  1  0.723221  0.443614  0.722271  1
  C  C19  1  0.334114  0.056386  0.720393  1
  C  C20  1  0.665811  0.945215  0.282552  1
  C  C21  1  0.272233  0.554785  0.279404  1
  C  C22  1  0.277729  0.943614  0.276779  1
  C  C23  1  0.279607  0.556386  0.665885  1
  O  O24  1  0.669021  0.069450  0.151628  1
  O  O25  1  0.851792  0.176453  0.611726  1
  O  O26  1  0.711821  0.323547  0.324661  1
  O  O27  1  0.398473  0.065644  0.287463  1
  O  O28  1  0.848371  0.569450  0.330979  1
  O  O29  1  0.314060  0.372839  0.060047  1
  O  O30  1  0.067114  0.127161  0.058779  1
  O  O31  1  0.711736  0.060165  0.848745  1
  O  O32  1  0.591089  0.439835  0.348429  1
  O  O33  1  0.331781  0.043846  0.602739  1
  O  O34  1  0.853414  0.456154  0.712065  1
  O  O35  1  0.072473  0.376794  0.051130  1
  O  O36  1  0.072076  0.123206  0.304321  1
  O  O37  1  0.675339  0.823547  0.288179  1
  O  O38  1  0.388274  0.676453  0.148208  1
  O  O39  1  0.712537  0.565644  0.601527  1
  O  O40  1  0.278923  0.430550  0.400429  1
  O  O41  1  0.336168  0.187505  0.708466  1
  O  O42  1  0.604028  0.312495  0.851338  1
  O  O43  1  0.939953  0.872839  0.685940  1
  O  O44  1  0.941221  0.627161  0.932886  1
  O  O45  1  0.151255  0.560165  0.288264  1
  O  O46  1  0.651571  0.939835  0.408911  1
  O  O47  1  0.287935  0.956154  0.146586  1
  O  O48  1  0.397261  0.543846  0.668219  1
  O  O49  1  0.948870  0.876794  0.927527  1
  O  O50  1  0.695679  0.623206  0.927924  1
  O  O51  1  0.146894  0.434357  0.667171  1
  O  O52  1  0.599571  0.930550  0.721077  1
  O  O53  1  0.291534  0.687505  0.663833  1
  O  O54  1  0.148662  0.812495  0.395972  1
  O  O55  1  0.332829  0.934356  0.853106  1
