# generated using pymatgen
data_Mn3(O2F)2
_symmetry_space_group_name_H-M   'P 1'
_cell_length_a   4.62829545
_cell_length_b   4.59204791
_cell_length_c   9.25537042
_cell_angle_alpha   89.99126483
_cell_angle_beta   89.99927117
_cell_angle_gamma   89.99988801
_symmetry_Int_Tables_number   1
_chemical_formula_structural   Mn3(O2F)2
_chemical_formula_sum   'Mn6 O8 F4'
_cell_volume   196.70766587
_cell_formula_units_Z   2
loop_
 _symmetry_equiv_pos_site_id
 _symmetry_equiv_pos_as_xyz
  1  'x, y, z'
loop_
 _atom_site_type_symbol
 _atom_site_label
 _atom_site_symmetry_multiplicity
 _atom_site_fract_x
 _atom_site_fract_y
 _atom_site_fract_z
 _atom_site_occupancy
  Mn  Mn0  1  0.028847  0.005246  0.006545  1
  Mn  Mn1  1  0.028814  0.005227  0.326798  1
  Mn  Mn2  1  0.002659  0.976238  0.666660  1
  Mn  Mn3  1  0.471167  0.505314  0.826812  1
  Mn  Mn4  1  0.497344  0.476091  0.166649  1
  Mn  Mn5  1  0.471131  0.505324  0.506524  1
  O  O6  1  0.214750  0.800663  0.166632  1
  O  O7  1  0.188799  0.808878  0.494293  1
  O  O8  1  0.188829  0.808929  0.839053  1
  O  O9  1  0.311184  0.308823  0.994292  1
  O  O10  1  0.311163  0.308866  0.339042  1
  O  O11  1  0.285310  0.300753  0.666622  1
  O  O12  1  0.677429  0.692066  0.666666  1
  O  O13  1  0.822606  0.192048  0.166672  1
  F  F14  1  0.704544  0.701367  0.996305  1
  F  F15  1  0.704416  0.701332  0.337068  1
  F  F16  1  0.795439  0.201428  0.496257  1
  F  F17  1  0.795568  0.201407  0.837108  1
