# generated using pymatgen
data_Li5V3P8O29
_symmetry_space_group_name_H-M   'P 1'
_cell_length_a   9.80681661
_cell_length_b   9.80040642
_cell_length_c   13.86957791
_cell_angle_alpha   90.03395912
_cell_angle_beta   90.02080002
_cell_angle_gamma   59.99505798
_symmetry_Int_Tables_number   1
_chemical_formula_structural   Li5V3P8O29
_chemical_formula_sum   'Li10 V6 P16 O58'
_cell_volume   1154.36807884
_cell_formula_units_Z   2
loop_
 _symmetry_equiv_pos_site_id
 _symmetry_equiv_pos_as_xyz
  1  'x, y, z'
loop_
 _atom_site_type_symbol
 _atom_site_label
 _atom_site_symmetry_multiplicity
 _atom_site_fract_x
 _atom_site_fract_y
 _atom_site_fract_z
 _atom_site_occupancy
  Li  Li0  1  0.771552  0.903290  0.560647  1
  Li  Li1  1  0.904075  0.325459  0.561119  1
  Li  Li2  1  0.773190  0.322996  0.058696  1
  Li  Li3  1  0.318317  0.909730  0.059301  1
  Li  Li4  1  0.676768  0.227065  0.439153  1
  Li  Li5  1  0.323278  0.772916  0.560882  1
  Li  Li6  1  0.681633  0.090323  0.940698  1
  Li  Li7  1  0.226826  0.676949  0.941271  1
  Li  Li8  1  0.095896  0.674573  0.438889  1
  Li  Li9  1  0.228463  0.096694  0.439325  1
  V  V10  1  0.567552  0.431234  0.251309  1
  V  V11  1  0.432354  0.568846  0.748667  1
  V  V12  1  0.567211  0.998394  0.751920  1
  V  V13  1  0.432762  0.001491  0.248011  1
  V  V14  1  0.997363  0.569075  0.243814  1
  V  V15  1  0.002572  0.430935  0.756216  1
  P  P16  1  0.915446  0.770142  0.843756  1
  P  P17  1  0.769468  0.910964  0.341523  1
  P  P18  1  0.914137  0.319369  0.343075  1
  P  P19  1  0.665660  0.664694  0.125636  1
  P  P20  1  0.670021  0.665012  0.626411  1
  P  P21  1  0.768271  0.319808  0.841761  1
  P  P22  1  0.680856  0.230704  0.657924  1
  P  P23  1  0.317118  0.912882  0.843402  1
  P  P24  1  0.682752  0.087155  0.156559  1
  P  P25  1  0.319142  0.769295  0.342097  1
  P  P26  1  0.231714  0.680214  0.158233  1
  P  P27  1  0.329989  0.334960  0.373619  1
  P  P28  1  0.334370  0.335321  0.874320  1
  P  P29  1  0.085815  0.680637  0.656947  1
  P  P30  1  0.230512  0.088989  0.658445  1
  P  P31  1  0.084506  0.229912  0.156317  1
  O  O32  1  0.998778  0.756375  0.565451  1
  O  O33  1  0.919136  0.744631  0.339162  1
  O  O34  1  0.755551  0.006061  0.065344  1
  O  O35  1  0.748030  0.915624  0.842467  1
  O  O36  1  0.905482  0.617635  0.824034  1
  O  O37  1  0.814915  0.666238  0.173338  1
  O  O38  1  0.905987  0.478093  0.323055  1
  O  O39  1  0.990408  0.242848  0.070349  1
  O  O40  1  0.915734  0.339333  0.835771  1
  O  O41  1  0.676602  0.811915  0.666238  1
  O  O42  1  0.620851  0.900505  0.325063  1
  O  O43  1  0.817387  0.511497  0.669594  1
  O  O44  1  0.670981  0.664707  0.018879  1
  O  O45  1  0.672371  0.659727  0.518797  1
  O  O46  1  0.674165  0.511702  0.167018  1
  O  O47  1  0.478370  0.902648  0.823002  1
  O  O48  1  0.513865  0.813473  0.166081  1
  O  O49  1  0.748684  0.336337  0.342514  1
  O  O50  1  0.790979  0.207794  0.749888  1
  O  O51  1  0.759095  0.240726  0.567374  1
  O  O52  1  0.761416  0.239838  0.931872  1
  O  O53  1  0.620243  0.479019  0.824503  1
  O  O54  1  0.513766  0.673664  0.665897  1
  O  O55  1  0.662083  0.255539  0.161491  1
  O  O56  1  0.478801  0.618473  0.324594  1
  O  O57  1  0.337156  0.917413  0.340650  1
  O  O58  1  0.791147  0.000352  0.249768  1
  O  O59  1  0.763687  0.997721  0.432390  1
  O  O60  1  0.236284  0.002287  0.567588  1
  O  O61  1  0.662945  0.082444  0.659335  1
  O  O62  1  0.521251  0.381549  0.675386  1
  O  O63  1  0.337963  0.744452  0.838492  1
  O  O64  1  0.486293  0.326432  0.334132  1
  O  O65  1  0.379773  0.520966  0.175498  1
  O  O66  1  0.238588  0.760141  0.068142  1
  O  O67  1  0.240915  0.759273  0.432629  1
  O  O68  1  0.209026  0.792217  0.250116  1
  O  O69  1  0.251356  0.663635  0.657495  1
  O  O70  1  0.486131  0.186342  0.833907  1
  O  O71  1  0.521540  0.097549  0.177039  1
  O  O72  1  0.325829  0.488256  0.832997  1
  O  O73  1  0.329113  0.335235  0.981131  1
  O  O74  1  0.327555  0.340282  0.481214  1
  O  O75  1  0.182665  0.488474  0.330408  1
  O  O76  1  0.378936  0.099607  0.675042  1
  O  O77  1  0.323374  0.188207  0.333709  1
  O  O78  1  0.084318  0.660644  0.164243  1
  O  O79  1  0.995098  0.793998  0.746737  1
  O  O80  1  0.009625  0.757074  0.929627  1
  O  O81  1  0.093989  0.521903  0.676924  1
  O  O82  1  0.185126  0.333744  0.826683  1
  O  O83  1  0.094557  0.382290  0.175953  1
  O  O84  1  0.252133  0.084430  0.157532  1
  O  O85  1  0.244468  0.993956  0.934630  1
  O  O86  1  0.208737  0.999692  0.750236  1
  O  O87  1  0.080820  0.255389  0.660831  1
  O  O88  1  0.001190  0.243665  0.434555  1
  O  O89  1  0.004926  0.205958  0.253261  1
