# generated using pymatgen
data_CuTeO4
_symmetry_space_group_name_H-M   'P 1'
_cell_length_a   6.01668292
_cell_length_b   6.35564918
_cell_length_c   6.35564965
_cell_angle_alpha   53.92074414
_cell_angle_beta   61.74910470
_cell_angle_gamma   61.74910243
_symmetry_Int_Tables_number   1
_chemical_formula_structural   CuTeO4
_chemical_formula_sum   'Cu2 Te2 O8'
_cell_volume   166.43945317
_cell_formula_units_Z   2
loop_
 _symmetry_equiv_pos_site_id
 _symmetry_equiv_pos_as_xyz
  1  'x, y, z'
loop_
 _atom_site_type_symbol
 _atom_site_label
 _atom_site_symmetry_multiplicity
 _atom_site_fract_x
 _atom_site_fract_y
 _atom_site_fract_z
 _atom_site_occupancy
  Cu  Cu0  1  0.500000  0.000000  0.500000  1
  Cu  Cu1  1  0.500000  0.500000  0.000000  1
  Te  Te2  1  0.000000  0.500000  0.500000  1
  Te  Te3  1  0.500000  0.500000  0.500000  1
  O  O4  1  0.233871  0.297627  0.297627  1
  O  O5  1  0.238459  0.282120  0.740962  1
  O  O6  1  0.238459  0.740962  0.282120  1
  O  O7  1  0.670875  0.297627  0.297627  1
  O  O8  1  0.329125  0.702373  0.702373  1
  O  O9  1  0.761541  0.717881  0.259038  1
  O  O10  1  0.761541  0.259038  0.717881  1
  O  O11  1  0.766129  0.702373  0.702373  1
