# generated using pymatgen
data_TePHO5
_symmetry_space_group_name_H-M   'P 1'
_cell_length_a   5.48601991
_cell_length_b   7.99246676
_cell_length_c   5.42154564
_cell_angle_alpha   110.86013238
_cell_angle_beta   96.34663420
_cell_angle_gamma   106.49799624
_symmetry_Int_Tables_number   1
_chemical_formula_structural   TePHO5
_chemical_formula_sum   'Te2 P2 H2 O10'
_cell_volume   206.96168769
_cell_formula_units_Z   2
loop_
 _symmetry_equiv_pos_site_id
 _symmetry_equiv_pos_as_xyz
  1  'x, y, z'
loop_
 _atom_site_type_symbol
 _atom_site_label
 _atom_site_symmetry_multiplicity
 _atom_site_fract_x
 _atom_site_fract_y
 _atom_site_fract_z
 _atom_site_occupancy
  Te  Te0  1  0.000000  0.500000  0.000000  1
  Te  Te1  1  0.000000  0.000000  0.000000  1
  P  P2  1  0.356075  0.226487  0.663398  1
  P  P3  1  0.643925  0.773513  0.336602  1
  H  H4  1  0.038439  0.337886  0.368221  1
  H  H5  1  0.961561  0.662114  0.631779  1
  O  O6  1  0.048661  0.717662  0.830843  1
  O  O7  1  0.191292  0.362050  0.685799  1
  O  O8  1  0.355210  0.660111  0.311266  1
  O  O9  1  0.249189  0.057915  0.377623  1
  O  O10  1  0.339160  0.150125  0.888270  1
  O  O11  1  0.660840  0.849875  0.111730  1
  O  O12  1  0.750811  0.942085  0.622377  1
  O  O13  1  0.644790  0.339889  0.688734  1
  O  O14  1  0.808708  0.637950  0.314201  1
  O  O15  1  0.951339  0.282338  0.169157  1
