# generated using pymatgen
data_VH8C10N3Cl4
_symmetry_space_group_name_H-M   'P 1'
_cell_length_a   8.19541482
_cell_length_b   16.26086315
_cell_length_c   14.59742685
_cell_angle_alpha   90.00000000
_cell_angle_beta   131.39972692
_cell_angle_gamma   90.00000000
_symmetry_Int_Tables_number   1
_chemical_formula_structural   VH8C10N3Cl4
_chemical_formula_sum   'V4 H32 C40 N12 Cl16'
_cell_volume   1459.21149644
_cell_formula_units_Z   4
loop_
 _symmetry_equiv_pos_site_id
 _symmetry_equiv_pos_as_xyz
  1  'x, y, z'
loop_
 _atom_site_type_symbol
 _atom_site_label
 _atom_site_symmetry_multiplicity
 _atom_site_fract_x
 _atom_site_fract_y
 _atom_site_fract_z
 _atom_site_occupancy
  V  V0  1  0.022005  0.332729  0.760448  1
  V  V1  1  0.977995  0.832729  0.739552  1
  V  V2  1  0.977995  0.667271  0.239552  1
  V  V3  1  0.022005  0.167271  0.260448  1
  H  H4  1  0.405885  0.316313  0.054884  1
  H  H5  1  0.594115  0.816313  0.445116  1
  H  H6  1  0.594115  0.683687  0.945116  1
  H  H7  1  0.405885  0.183687  0.554884  1
  H  H8  1  0.448788  0.335199  0.239734  1
  H  H9  1  0.551212  0.835199  0.260266  1
  H  H10  1  0.551212  0.664801  0.760266  1
  H  H11  1  0.448788  0.164801  0.739734  1
  H  H12  1  0.127687  0.388858  0.211508  1
  H  H13  1  0.872313  0.888858  0.288492  1
  H  H14  1  0.872313  0.611142  0.788492  1
  H  H15  1  0.127687  0.111142  0.711508  1
  H  H16  1  0.786013  0.421529  0.003144  1
  H  H17  1  0.213987  0.921529  0.496856  1
  H  H18  1  0.213987  0.578471  0.996856  1
  H  H19  1  0.786013  0.078471  0.503144  1
  H  H20  1  0.524792  0.458802  0.827896  1
  H  H21  1  0.475208  0.958802  0.672104  1
  H  H22  1  0.475208  0.541198  0.172104  1
  H  H23  1  0.524792  0.041198  0.327896  1
  H  H24  1  0.208999  0.485928  0.611176  1
  H  H25  1  0.791001  0.985928  0.888824  1
  H  H26  1  0.791001  0.514072  0.388824  1
  H  H27  1  0.208999  0.014072  0.111176  1
  H  H28  1  0.221617  0.440741  0.449432  1
  H  H29  1  0.778383  0.940741  0.050568  1
  H  H30  1  0.778383  0.559259  0.550568  1
  H  H31  1  0.221617  0.059259  0.949432  1
  H  H32  1  0.564525  0.376314  0.519385  1
  H  H33  1  0.435475  0.876314  0.980615  1
  H  H34  1  0.435475  0.623686  0.480615  1
  H  H35  1  0.564525  0.123686  0.019385  1
  C  C36  1  0.272376  0.339925  0.046963  1
  C  C37  1  0.727624  0.839925  0.453037  1
  C  C38  1  0.727624  0.660075  0.953037  1
  C  C39  1  0.272376  0.160075  0.546963  1
  C  C40  1  0.913441  0.386112  0.917437  1
  C  C41  1  0.086559  0.886112  0.582563  1
  C  C42  1  0.086559  0.613888  0.082563  1
  C  C43  1  0.913441  0.113888  0.417437  1
  C  C44  1  0.715372  0.402722  0.790366  1
  C  C45  1  0.284628  0.902722  0.709634  1
  C  C46  1  0.284628  0.597278  0.209634  1
  C  C47  1  0.715372  0.097278  0.290366  1
  C  C48  1  0.548256  0.394670  0.584744  1
  C  C49  1  0.451744  0.894670  0.915256  1
  C  C50  1  0.451744  0.605330  0.415256  1
  C  C51  1  0.548256  0.105330  0.084744  1
  C  C52  1  0.294975  0.350985  0.149538  1
  C  C53  1  0.705025  0.850985  0.350462  1
  C  C54  1  0.705025  0.649015  0.850462  1
  C  C55  1  0.294975  0.149015  0.649538  1
  C  C56  1  0.118819  0.380816  0.134104  1
  C  C57  1  0.881181  0.880816  0.365896  1
  C  C58  1  0.881181  0.619184  0.865896  1
  C  C59  1  0.118819  0.119184  0.634104  1
  C  C60  1  0.925755  0.399079  0.016691  1
  C  C61  1  0.074245  0.899079  0.483309  1
  C  C62  1  0.074245  0.600921  0.983309  1
  C  C63  1  0.925755  0.100921  0.516691  1
  C  C64  1  0.530248  0.440570  0.758203  1
  C  C65  1  0.469752  0.940570  0.741797  1
  C  C66  1  0.469752  0.559430  0.241797  1
  C  C67  1  0.530248  0.059430  0.258203  1
  C  C68  1  0.351995  0.455489  0.635919  1
  C  C69  1  0.648005  0.955489  0.864081  1
  C  C70  1  0.648005  0.544511  0.364081  1
  C  C71  1  0.351995  0.044511  0.135919  1
  C  C72  1  0.358801  0.431365  0.546762  1
  C  C73  1  0.641199  0.931365  0.953238  1
  C  C74  1  0.641199  0.568635  0.453238  1
  C  C75  1  0.358801  0.068635  0.046762  1
  N  N76  1  0.946503  0.322999  0.623096  1
  N  N77  1  0.053497  0.822999  0.876904  1
  N  N78  1  0.053497  0.677001  0.376904  1
  N  N79  1  0.946503  0.177001  0.123096  1
  N  N80  1  0.085544  0.356644  0.933324  1
  N  N81  1  0.914456  0.856644  0.566676  1
  N  N82  1  0.914456  0.643356  0.066676  1
  N  N83  1  0.085544  0.143356  0.433324  1
  N  N84  1  0.722416  0.381328  0.703071  1
  N  N85  1  0.277584  0.881328  0.796929  1
  N  N86  1  0.277584  0.618672  0.296929  1
  N  N87  1  0.722416  0.118672  0.203071  1
  Cl  Cl88  1  0.367680  0.286798  0.871926  1
  Cl  Cl89  1  0.632320  0.786798  0.628074  1
  Cl  Cl90  1  0.632320  0.713202  0.128074  1
  Cl  Cl91  1  0.367680  0.213202  0.371926  1
  Cl  Cl92  1  0.885913  0.208923  0.762937  1
  Cl  Cl93  1  0.114087  0.708923  0.737063  1
  Cl  Cl94  1  0.114087  0.791077  0.237063  1
  Cl  Cl95  1  0.885913  0.291077  0.262937  1
  Cl  Cl96  1  0.112540  0.471248  0.780355  1
  Cl  Cl97  1  0.887460  0.971248  0.719645  1
  Cl  Cl98  1  0.887460  0.528752  0.219645  1
  Cl  Cl99  1  0.112540  0.028752  0.280355  1
  Cl  Cl100  1  0.890425  0.321192  0.494476  1
  Cl  Cl101  1  0.109575  0.821192  0.005524  1
  Cl  Cl102  1  0.109575  0.678808  0.505524  1
  Cl  Cl103  1  0.890425  0.178808  0.994476  1
