# generated using pymatgen
data_Dy2SiO5
_symmetry_space_group_name_H-M   'P 1'
_cell_length_a   10.19143568
_cell_length_b   10.81829948
_cell_length_c   3.67794948
_cell_angle_alpha   90.00000000
_cell_angle_beta   90.00000000
_cell_angle_gamma   90.00000000
_symmetry_Int_Tables_number   1
_chemical_formula_structural   Dy2SiO5
_chemical_formula_sum   'Dy8 Si4 O20'
_cell_volume   405.50865417
_cell_formula_units_Z   4
loop_
 _symmetry_equiv_pos_site_id
 _symmetry_equiv_pos_as_xyz
  1  'x, y, z'
loop_
 _atom_site_type_symbol
 _atom_site_label
 _atom_site_symmetry_multiplicity
 _atom_site_fract_x
 _atom_site_fract_y
 _atom_site_fract_z
 _atom_site_occupancy
  Dy  Dy0  1  0.101058  0.717066  0.250000  1
  Dy  Dy1  1  0.139516  0.054203  0.250000  1
  Dy  Dy2  1  0.360484  0.554203  0.750000  1
  Dy  Dy3  1  0.398942  0.217066  0.750000  1
  Dy  Dy4  1  0.601058  0.782934  0.250000  1
  Dy  Dy5  1  0.639516  0.445797  0.250000  1
  Dy  Dy6  1  0.860484  0.945797  0.750000  1
  Dy  Dy7  1  0.898942  0.282934  0.750000  1
  Si  Si8  1  0.181251  0.375182  0.250000  1
  Si  Si9  1  0.318750  0.875182  0.750000  1
  Si  Si10  1  0.681250  0.124818  0.250000  1
  Si  Si11  1  0.818750  0.624818  0.750000  1
  O  O12  1  0.009955  0.104477  0.750000  1
  O  O13  1  0.023370  0.344263  0.250000  1
  O  O14  1  0.220758  0.528210  0.250000  1
  O  O15  1  0.224314  0.378251  0.750000  1
  O  O16  1  0.234929  0.737219  0.750000  1
  O  O17  1  0.265071  0.237219  0.250000  1
  O  O18  1  0.275686  0.878251  0.250000  1
  O  O19  1  0.279242  0.028210  0.750000  1
  O  O20  1  0.476630  0.844263  0.750000  1
  O  O21  1  0.490045  0.604477  0.250000  1
  O  O22  1  0.509955  0.395523  0.750000  1
  O  O23  1  0.523370  0.155737  0.250000  1
  O  O24  1  0.720758  0.971790  0.250000  1
  O  O25  1  0.724314  0.121749  0.750000  1
  O  O26  1  0.734929  0.762781  0.750000  1
  O  O27  1  0.765071  0.262781  0.250000  1
  O  O28  1  0.775686  0.621749  0.250000  1
  O  O29  1  0.779242  0.471790  0.750000  1
  O  O30  1  0.976630  0.655737  0.750000  1
  O  O31  1  0.990045  0.895523  0.250000  1
