# generated using pymatgen
data_Li5Mn6(BO3)6
_symmetry_space_group_name_H-M   'P 1'
_cell_length_a   7.86907801
_cell_length_b   9.16771162
_cell_length_c   6.22687497
_cell_angle_alpha   102.93812365
_cell_angle_beta   78.70280726
_cell_angle_gamma   66.45743964
_symmetry_Int_Tables_number   1
_chemical_formula_structural   Li5Mn6(BO3)6
_chemical_formula_sum   'Li5 Mn6 B6 O18'
_cell_volume   380.35330788
_cell_formula_units_Z   1
loop_
 _symmetry_equiv_pos_site_id
 _symmetry_equiv_pos_as_xyz
  1  'x, y, z'
loop_
 _atom_site_type_symbol
 _atom_site_label
 _atom_site_symmetry_multiplicity
 _atom_site_fract_x
 _atom_site_fract_y
 _atom_site_fract_z
 _atom_site_occupancy
  Li  Li0  1  0.951500  0.713373  0.729854  1
  Li  Li1  1  0.383378  0.614954  0.932068  1
  Li  Li2  1  0.712888  0.954395  0.611070  1
  Li  Li3  1  0.619120  0.379820  0.062127  1
  Li  Li4  1  0.065829  0.279823  0.281051  1
  Mn  Mn5  1  0.999217  0.372435  0.770873  1
  Mn  Mn6  1  0.683686  0.281753  0.557052  1
  Mn  Mn7  1  0.634026  0.056052  0.119786  1
  Mn  Mn8  1  0.342327  0.941527  0.907205  1
  Mn  Mn9  1  0.317468  0.733400  0.436259  1
  Mn  Mn10  1  0.018364  0.616073  0.225072  1
  B  B11  1  0.975334  0.050235  0.784429  1
  B  B12  1  0.353504  0.280859  0.908814  1
  B  B13  1  0.693052  0.617518  0.572921  1
  B  B14  1  0.313569  0.393655  0.429157  1
  B  B15  1  0.647625  0.707582  0.067295  1
  B  B16  1  0.015633  0.952022  0.233681  1
  O  O17  1  0.867310  0.218997  0.811429  1
  O  O18  1  0.849566  0.638920  0.977022  1
  O  O19  1  0.885602  0.952084  0.819924  1
  O  O20  1  0.815368  0.020859  0.351909  1
  O  O21  1  0.462135  0.107748  0.860548  1
  O  O22  1  0.803032  0.445416  0.524935  1
  O  O23  1  0.441133  0.378598  0.857637  1
  O  O24  1  0.776542  0.716778  0.521677  1
  O  O25  1  0.489156  0.694024  0.686402  1
  O  O26  1  0.516814  0.315881  0.314144  1
  O  O27  1  0.229086  0.296055  0.479437  1
  O  O28  1  0.559933  0.615120  0.133986  1
  O  O29  1  0.203239  0.567126  0.477706  1
  O  O30  1  0.532687  0.875668  0.082391  1
  O  O31  1  0.182520  0.973952  0.698147  1
  O  O32  1  0.091050  0.054789  0.173291  1
  O  O33  1  0.152640  0.357144  0.024943  1
  O  O34  1  0.137806  0.781296  0.185099  1
