# generated using pymatgen
data_Nb(BO2)5
_symmetry_space_group_name_H-M   'P 1'
_cell_length_a   7.44449207
_cell_length_b   15.10292192
_cell_length_c   7.44391839
_cell_angle_alpha   90.00000000
_cell_angle_beta   91.56589304
_cell_angle_gamma   90.00000000
_symmetry_Int_Tables_number   1
_chemical_formula_structural   Nb(BO2)5
_chemical_formula_sum   'Nb4 B20 O40'
_cell_volume   836.63386271
_cell_formula_units_Z   4
loop_
 _symmetry_equiv_pos_site_id
 _symmetry_equiv_pos_as_xyz
  1  'x, y, z'
loop_
 _atom_site_type_symbol
 _atom_site_label
 _atom_site_symmetry_multiplicity
 _atom_site_fract_x
 _atom_site_fract_y
 _atom_site_fract_z
 _atom_site_occupancy
  Nb  Nb0  1  0.146870  0.124600  0.539741  1
  Nb  Nb1  1  0.146870  0.375400  0.039741  1
  Nb  Nb2  1  0.853130  0.624600  0.960259  1
  Nb  Nb3  1  0.853130  0.875400  0.460259  1
  B  B4  1  0.202147  0.025704  0.915054  1
  B  B5  1  0.202147  0.474296  0.415054  1
  B  B6  1  0.223901  0.776751  0.521383  1
  B  B7  1  0.223901  0.723249  0.021383  1
  B  B8  1  0.244331  0.503268  0.723754  1
  B  B9  1  0.244331  0.996732  0.223754  1
  B  B10  1  0.317180  0.620051  0.506745  1
  B  B11  1  0.317180  0.879949  0.006745  1
  B  B12  1  0.469214  0.257238  0.500287  1
  B  B13  1  0.469214  0.242762  0.000287  1
  B  B14  1  0.530786  0.757238  0.999713  1
  B  B15  1  0.530786  0.742762  0.499713  1
  B  B16  1  0.682820  0.120051  0.993255  1
  B  B17  1  0.682820  0.379949  0.493255  1
  B  B18  1  0.755669  0.003268  0.776246  1
  B  B19  1  0.755669  0.496732  0.276246  1
  B  B20  1  0.776099  0.276751  0.978617  1
  B  B21  1  0.776099  0.223249  0.478617  1
  B  B22  1  0.797853  0.525704  0.584946  1
  B  B23  1  0.797853  0.974296  0.084946  1
  O  O24  1  0.086501  0.841323  0.527667  1
  O  O25  1  0.086501  0.658677  0.027667  1
  O  O26  1  0.150563  0.086742  0.778844  1
  O  O27  1  0.150563  0.413258  0.278844  1
  O  O28  1  0.179111  0.808742  0.995700  1
  O  O29  1  0.169821  0.449105  0.590196  1
  O  O30  1  0.179111  0.691258  0.495700  1
  O  O31  1  0.169821  0.050895  0.090196  1
  O  O32  1  0.230248  0.469466  0.900390  1
  O  O33  1  0.230248  0.030534  0.400390  1
  O  O34  1  0.293055  0.224440  0.516926  1
  O  O35  1  0.275545  0.947826  0.870624  1
  O  O36  1  0.293055  0.275560  0.016926  1
  O  O37  1  0.275545  0.552174  0.370624  1
  O  O38  1  0.318214  0.582226  0.692563  1
  O  O39  1  0.318214  0.917774  0.192563  1
  O  O40  1  0.400619  0.805198  0.538353  1
  O  O41  1  0.400619  0.694802  0.038353  1
  O  O42  1  0.501597  0.343806  0.523869  1
  O  O43  1  0.498403  0.843806  0.976131  1
  O  O44  1  0.501597  0.156194  0.023869  1
  O  O45  1  0.498403  0.656194  0.476131  1
  O  O46  1  0.599381  0.305198  0.961647  1
  O  O47  1  0.599381  0.194802  0.461647  1
  O  O48  1  0.681786  0.082226  0.807437  1
  O  O49  1  0.681786  0.417774  0.307437  1
  O  O50  1  0.724455  0.447826  0.629376  1
  O  O51  1  0.706945  0.724440  0.983074  1
  O  O52  1  0.724455  0.052174  0.129376  1
  O  O53  1  0.706945  0.775560  0.483074  1
  O  O54  1  0.769752  0.969466  0.599610  1
  O  O55  1  0.769752  0.530534  0.099610  1
  O  O56  1  0.830179  0.949105  0.909804  1
  O  O57  1  0.820889  0.308742  0.504300  1
  O  O58  1  0.830179  0.550895  0.409804  1
  O  O59  1  0.820889  0.191258  0.004300  1
  O  O60  1  0.849437  0.586742  0.721156  1
  O  O61  1  0.849437  0.913258  0.221156  1
  O  O62  1  0.913499  0.341323  0.972333  1
  O  O63  1  0.913499  0.158677  0.472333  1
