# generated using pymatgen
data_Li2CrSiO4
_symmetry_space_group_name_H-M   'P 1'
_cell_length_a   5.11346928
_cell_length_b   5.11259131
_cell_length_c   11.68301661
_cell_angle_alpha   89.99678694
_cell_angle_beta   89.99559919
_cell_angle_gamma   119.99622246
_symmetry_Int_Tables_number   1
_chemical_formula_structural   Li2CrSiO4
_chemical_formula_sum   'Li6 Cr3 Si3 O12'
_cell_volume   264.52022314
_cell_formula_units_Z   3
loop_
 _symmetry_equiv_pos_site_id
 _symmetry_equiv_pos_as_xyz
  1  'x, y, z'
loop_
 _atom_site_type_symbol
 _atom_site_label
 _atom_site_symmetry_multiplicity
 _atom_site_fract_x
 _atom_site_fract_y
 _atom_site_fract_z
 _atom_site_occupancy
  Li  Li0  1  0.335234  0.898777  0.585723  1
  Li  Li1  1  0.101274  0.436421  0.919035  1
  Li  Li2  1  0.563541  0.664788  0.252366  1
  Li  Li3  1  0.436396  0.101162  0.080925  1
  Li  Li4  1  0.664828  0.563531  0.747609  1
  Li  Li5  1  0.898828  0.335268  0.414326  1
  Cr  Cr6  1  0.999827  0.449656  0.166699  1
  Cr  Cr7  1  0.550367  0.550383  0.500030  1
  Cr  Cr8  1  0.449559  0.999791  0.833308  1
  Si  Si9  1  0.000170  0.200479  0.666641  1
  Si  Si10  1  0.200376  0.000098  0.333264  1
  Si  Si11  1  0.799598  0.799529  0.000078  1
  O  O12  1  0.129455  0.843776  0.958766  1
  O  O13  1  0.124969  0.444308  0.560346  1
  O  O14  1  0.319335  0.875079  0.227004  1
  O  O15  1  0.156136  0.285478  0.292307  1
  O  O16  1  0.285527  0.156211  0.707737  1
  O  O17  1  0.714434  0.870578  0.625614  1
  O  O18  1  0.555482  0.680559  0.893444  1
  O  O19  1  0.680627  0.555810  0.106254  1
  O  O20  1  0.444528  0.125108  0.439843  1
  O  O21  1  0.870598  0.714406  0.374537  1
  O  O22  1  0.843899  0.129397  0.041017  1
  O  O23  1  0.875017  0.319406  0.773092  1
