# generated using pymatgen
data_NiH6(SO6)2
_symmetry_space_group_name_H-M   'P 1'
_cell_length_a   6.27982597
_cell_length_b   8.90719988
_cell_length_c   6.32360001
_cell_angle_alpha   105.77517121
_cell_angle_beta   82.97011977
_cell_angle_gamma   106.70065428
_symmetry_Int_Tables_number   1
_chemical_formula_structural   NiH6(SO6)2
_chemical_formula_sum   'Ni1 H6 S2 O12'
_cell_volume   325.65829605
_cell_formula_units_Z   1
loop_
 _symmetry_equiv_pos_site_id
 _symmetry_equiv_pos_as_xyz
  1  'x, y, z'
loop_
 _atom_site_type_symbol
 _atom_site_label
 _atom_site_symmetry_multiplicity
 _atom_site_fract_x
 _atom_site_fract_y
 _atom_site_fract_z
 _atom_site_occupancy
  Ni  Ni0  1  0.000000  0.000000  0.000000  1
  H  H1  1  0.866173  0.558196  0.862266  1
  H  H2  1  0.133827  0.441804  0.137734  1
  H  H3  1  0.714080  0.712145  0.046724  1
  H  H4  1  0.285920  0.287855  0.953276  1
  H  H5  1  0.282135  0.857889  0.761511  1
  H  H6  1  0.717865  0.142111  0.238489  1
  S  S7  1  0.642110  0.442756  0.499765  1
  S  S8  1  0.357890  0.557244  0.500235  1
  O  O9  1  0.874854  0.764792  0.068762  1
  O  O10  1  0.125146  0.235208  0.931238  1
  O  O11  1  0.203597  0.944196  0.810961  1
  O  O12  1  0.796403  0.055804  0.189039  1
  O  O13  1  0.984931  0.641519  0.962976  1
  O  O14  1  0.015069  0.358481  0.037024  1
  O  O15  1  0.828805  0.550290  0.409741  1
  O  O16  1  0.171195  0.449710  0.590259  1
  O  O17  1  0.559649  0.278241  0.365092  1
  O  O18  1  0.440351  0.721759  0.634908  1
  O  O19  1  0.646835  0.453289  0.736590  1
  O  O20  1  0.353165  0.546711  0.263410  1
