# generated using pymatgen
data_RuF3
_symmetry_space_group_name_H-M   'P 1'
_cell_length_a   5.49844331
_cell_length_b   5.49844331
_cell_length_c   5.49844331
_cell_angle_alpha   55.07500016
_cell_angle_beta   55.07500016
_cell_angle_gamma   55.07500020
_symmetry_Int_Tables_number   1
_chemical_formula_structural   RuF3
_chemical_formula_sum   'Ru2 F6'
_cell_volume   104.07970025
_cell_formula_units_Z   2
loop_
 _symmetry_equiv_pos_site_id
 _symmetry_equiv_pos_as_xyz
  1  'x, y, z'
loop_
 _atom_site_type_symbol
 _atom_site_label
 _atom_site_symmetry_multiplicity
 _atom_site_fract_x
 _atom_site_fract_y
 _atom_site_fract_z
 _atom_site_occupancy
  F  F0  1  0.750000  0.102578  0.397422  1
  F  F1  1  0.102578  0.397422  0.750000  1
  F  F2  1  0.602578  0.250000  0.897422  1
  F  F3  1  0.897422  0.602578  0.250000  1
  F  F4  1  0.250000  0.897422  0.602578  1
  F  F5  1  0.397422  0.750000  0.102578  1
  Ru  Ru6  1  0.500000  0.500000  0.500000  1
  Ru  Ru7  1  0.000000  0.000000  0.000000  1
