# generated using pymatgen
data_Li32Mn13Cr3O48
_symmetry_space_group_name_H-M   'P 1'
_cell_length_a   4.99821326
_cell_length_b   8.67651358
_cell_length_c   19.44913153
_cell_angle_alpha   98.25828459
_cell_angle_beta   94.75983581
_cell_angle_gamma   89.75294495
_symmetry_Int_Tables_number   1
_chemical_formula_structural   Li32Mn13Cr3O48
_chemical_formula_sum   'Li32 Mn13 Cr3 O48'
_cell_volume   831.80227340
_cell_formula_units_Z   1
loop_
 _symmetry_equiv_pos_site_id
 _symmetry_equiv_pos_as_xyz
  1  'x, y, z'
loop_
 _atom_site_type_symbol
 _atom_site_label
 _atom_site_symmetry_multiplicity
 _atom_site_fract_x
 _atom_site_fract_y
 _atom_site_fract_z
 _atom_site_occupancy
  Li  Li0  1  0.992652  0.167964  0.249724  1
  Li  Li1  1  0.874401  0.374756  0.374722  1
  Li  Li2  1  0.749499  0.249761  0.000122  1
  Li  Li3  1  0.743496  0.918296  0.999896  1
  Li  Li4  1  0.992473  0.169013  0.750471  1
  Li  Li5  1  0.756252  0.579289  0.500347  1
  Li  Li6  1  0.877089  0.374440  0.874884  1
  Li  Li7  1  0.750323  0.250159  0.499991  1
  Li  Li8  1  0.747414  0.921155  0.500756  1
  Li  Li9  1  0.624859  0.125046  0.124984  1
  Li  Li10  1  0.756232  0.581955  0.999752  1
  Li  Li11  1  0.507795  0.332867  0.250484  1
  Li  Li12  1  0.627645  0.124147  0.624815  1
  Li  Li13  1  0.500505  0.000561  0.249828  1
  Li  Li14  1  0.490837  0.666545  0.249570  1
  Li  Li15  1  0.507443  0.332975  0.750119  1
  Li  Li16  1  0.372119  0.875507  0.375200  1
  Li  Li17  1  0.499808  0.999351  0.750079  1
  Li  Li18  1  0.251315  0.749992  0.999917  1
  Li  Li19  1  0.490190  0.667444  0.749134  1
  Li  Li20  1  0.243539  0.419941  0.000734  1
  Li  Li21  1  0.375491  0.874009  0.875144  1
  Li  Li22  1  0.252506  0.078478  0.499064  1
  Li  Li23  1  0.250030  0.750220  0.499953  1
  Li  Li24  1  0.124843  0.625052  0.124983  1
  Li  Li25  1  0.243380  0.420800  0.499746  1
  Li  Li26  1  0.008988  0.831410  0.249814  1
  Li  Li27  1  0.255668  0.080324  0.999805  1
  Li  Li28  1  0.125417  0.624811  0.625232  1
  Li  Li29  1  -0.000066  0.500263  0.250007  1
  Li  Li30  1  0.007505  0.831290  0.750497  1
  Li  Li31  1  0.001460  0.500535  0.750014  1
  Mn  Mn32  1  0.877453  0.042821  0.375766  1
  Mn  Mn33  1  0.875609  0.710250  0.875594  1
  Mn  Mn34  1  0.874951  0.041645  0.875042  1
  Mn  Mn35  1  0.625831  0.791479  0.125030  1
  Mn  Mn36  1  0.624704  0.458416  0.124977  1
  Mn  Mn37  1  0.625032  0.791644  0.625051  1
  Mn  Mn38  1  0.626310  0.460297  0.625739  1
  Mn  Mn39  1  0.373074  0.539829  0.374133  1
  Mn  Mn40  1  0.375051  0.208412  0.374934  1
  Mn  Mn41  1  0.372907  0.206935  0.874411  1
  Mn  Mn42  1  0.124632  0.958533  0.125020  1
  Mn  Mn43  1  0.125745  0.291345  0.124974  1
  Mn  Mn44  1  0.122623  0.956959  0.624301  1
  Cr  Cr45  1  0.867548  0.709627  0.375220  1
  Cr  Cr46  1  0.380589  0.539925  0.874974  1
  Cr  Cr47  1  0.131877  0.289934  0.624927  1
  O  O48  1  0.963859  0.106745  0.068969  1
  O  O49  1  0.928885  0.785326  0.069158  1
  O  O50  1  0.927761  0.427440  0.067869  1
  O  O51  1  0.961224  0.102777  0.568260  1
  O  O52  1  0.821578  0.964748  0.181124  1
  O  O53  1  0.822743  0.322466  0.181936  1
  O  O54  1  0.928237  0.783966  0.568900  1
  O  O55  1  0.926253  0.426363  0.567912  1
  O  O56  1  0.786213  0.643142  0.181062  1
  O  O57  1  0.720230  0.856274  0.319182  1
  O  O58  1  0.820897  0.964822  0.681058  1
  O  O59  1  0.821902  0.323594  0.682107  1
  O  O60  1  0.673622  0.532399  0.318327  1
  O  O61  1  0.677336  0.177487  0.318002  1
  O  O62  1  0.787846  0.644161  0.681111  1
  O  O63  1  0.713151  0.857573  0.819080  1
  O  O64  1  0.463894  0.606715  0.068913  1
  O  O65  1  0.572472  0.712705  0.430926  1
  O  O66  1  0.572146  0.072327  0.431928  1
  O  O67  1  0.675693  0.537421  0.819216  1
  O  O68  1  0.677421  0.177824  0.817942  1
  O  O69  1  0.427614  0.927530  0.068073  1
  O  O70  1  0.428785  0.285190  0.068923  1
  O  O71  1  0.536139  0.392770  0.430947  1
  O  O72  1  0.463540  0.607378  0.568992  1
  O  O73  1  0.575530  0.717266  0.931666  1
  O  O74  1  0.572512  0.072275  0.931980  1
  O  O75  1  0.322729  0.822576  0.182143  1
  O  O76  1  0.321512  0.464613  0.180851  1
  O  O77  1  0.427826  0.927776  0.568073  1
  O  O78  1  0.425781  0.287538  0.569068  1
  O  O79  1  0.532446  0.392984  0.930982  1
  O  O80  1  0.286310  0.143135  0.181016  1
  O  O81  1  0.211664  0.355921  0.318834  1
  O  O82  1  0.322739  0.822444  0.682034  1
  O  O83  1  0.326873  0.467681  0.681892  1
  O  O84  1  0.179165  0.676739  0.317757  1
  O  O85  1  0.179257  0.035170  0.319016  1
  O  O86  1  0.281171  0.143329  0.680810  1
  O  O87  1  0.211774  0.353254  0.818337  1
  O  O88  1  0.073429  0.574309  0.431960  1
  O  O89  1  0.071702  0.216082  0.431060  1
  O  O90  1  0.175479  0.677132  0.817909  1
  O  O91  1  0.178242  0.034346  0.818929  1
  O  O92  1  0.038540  0.897049  0.431802  1
  O  O93  1  0.072484  0.573668  0.932050  1
  O  O94  1  0.070834  0.215003  0.930963  1
  O  O95  1  0.037514  0.894161  0.931066  1
