# generated using pymatgen
data_V4O7F5
_symmetry_space_group_name_H-M   'P 1'
_cell_length_a   5.23796326
_cell_length_b   5.35790531
_cell_length_c   17.34032967
_cell_angle_alpha   90.09214406
_cell_angle_beta   98.26102661
_cell_angle_gamma   60.84792703
_symmetry_Int_Tables_number   1
_chemical_formula_structural   V4O7F5
_chemical_formula_sum   'V8 O14 F10'
_cell_volume   419.27553063
_cell_formula_units_Z   2
loop_
 _symmetry_equiv_pos_site_id
 _symmetry_equiv_pos_as_xyz
  1  'x, y, z'
loop_
 _atom_site_type_symbol
 _atom_site_label
 _atom_site_symmetry_multiplicity
 _atom_site_fract_x
 _atom_site_fract_y
 _atom_site_fract_z
 _atom_site_occupancy
  V  V0  1  0.729980  0.652438  0.132421  1
  V  V1  1  0.747172  0.165120  0.633597  1
  V  V2  1  0.447200  0.287998  0.255155  1
  V  V3  1  0.462369  0.799032  0.755085  1
  V  V4  1  0.233512  0.914047  0.375836  1
  V  V5  1  0.245802  0.426856  0.877020  1
  V  V6  1  0.043840  0.010550  0.007783  1
  V  V7  1  0.994295  0.521207  0.511797  1
  O  O8  1  0.955739  0.295394  0.058886  1
  O  O9  1  0.944174  0.807262  0.558481  1
  O  O10  1  0.561649  0.923435  0.186573  1
  O  O11  1  0.921674  0.332742  0.576398  1
  O  O12  1  0.408388  0.791992  0.040752  1
  O  O13  1  0.448127  0.539026  0.312256  1
  O  O14  1  0.565564  0.434590  0.687224  1
  O  O15  1  0.406056  0.059509  0.329192  1
  O  O16  1  0.410791  0.578194  0.830907  1
  O  O17  1  0.096344  0.441081  0.206194  1
  O  O18  1  0.109623  0.954797  0.705434  1
  O  O19  1  0.457427  0.051136  0.812052  1
  O  O20  1  0.052273  0.677943  0.933876  1
  O  O21  1  0.057833  0.166018  0.433815  1
  F  F22  1  0.923801  0.819687  0.077183  1
  F  F23  1  0.915292  0.023752  0.293016  1
  F  F24  1  0.924020  0.530831  0.792960  1
  F  F25  1  0.592971  0.395570  0.168003  1
  F  F26  1  0.604050  0.906172  0.668766  1
  F  F27  1  0.587392  0.686543  0.454165  1
  F  F28  1  0.416353  0.293555  0.539900  1
  F  F29  1  0.573093  0.195254  0.954398  1
  F  F30  1  0.087407  0.653590  0.416965  1
  F  F31  1  0.075786  0.164676  0.913911  1
