# generated using pymatgen
data_CrGaO4
_symmetry_space_group_name_H-M   'P 1'
_cell_length_a   4.53778885
_cell_length_b   5.42297946
_cell_length_c   4.54361414
_cell_angle_alpha   91.47114051
_cell_angle_beta   88.26421684
_cell_angle_gamma   146.84929825
_symmetry_Int_Tables_number   1
_chemical_formula_structural   CrGaO4
_chemical_formula_sum   'Cr1 Ga1 O4'
_cell_volume   61.11488347
_cell_formula_units_Z   1
loop_
 _symmetry_equiv_pos_site_id
 _symmetry_equiv_pos_as_xyz
  1  'x, y, z'
loop_
 _atom_site_type_symbol
 _atom_site_label
 _atom_site_symmetry_multiplicity
 _atom_site_fract_x
 _atom_site_fract_y
 _atom_site_fract_z
 _atom_site_occupancy
  Cr  Cr0  1  0.504314  0.000233  0.498411  1
  Ga  Ga1  1  0.503083  0.499351  0.998387  1
  O  O2  1  0.209171  0.999323  0.793566  1
  O  O3  1  0.194677  0.500294  0.686762  1
  O  O4  1  0.799169  0.999355  0.203122  1
  O  O5  1  0.814207  0.498980  0.308825  1
