# generated using pymatgen
data_BiOF
_symmetry_space_group_name_H-M   'P 1'
_cell_length_a   3.98061150
_cell_length_b   8.24013406
_cell_length_c   3.98061229
_cell_angle_alpha   103.97733518
_cell_angle_beta   59.99999822
_cell_angle_gamma   103.97733753
_symmetry_Int_Tables_number   1
_chemical_formula_structural   BiOF
_chemical_formula_sum   'Bi2 O2 F2'
_cell_volume   108.58755926
_cell_formula_units_Z   2
loop_
 _symmetry_equiv_pos_site_id
 _symmetry_equiv_pos_as_xyz
  1  'x, y, z'
loop_
 _atom_site_type_symbol
 _atom_site_label
 _atom_site_symmetry_multiplicity
 _atom_site_fract_x
 _atom_site_fract_y
 _atom_site_fract_z
 _atom_site_occupancy
  Bi  Bi0  1  0.604184  0.812552  0.604184  1
  Bi  Bi1  1  0.395816  0.187448  0.395816  1
  O  O2  1  0.301424  0.904272  0.301424  1
  O  O3  1  0.698576  0.095728  0.698576  1
  F  F4  1  0.103617  0.310851  0.103617  1
  F  F5  1  0.896383  0.689149  0.896383  1
