# generated using pymatgen
data_Li2Cu2Si8O19
_symmetry_space_group_name_H-M   'P 1'
_cell_length_a   4.92570800
_cell_length_b   7.20734311
_cell_length_c   12.41408554
_cell_angle_alpha   72.55336399
_cell_angle_beta   89.95819428
_cell_angle_gamma   69.78288727
_symmetry_Int_Tables_number   1
_chemical_formula_structural   Li2Cu2Si8O19
_chemical_formula_sum   'Li2 Cu2 Si8 O19'
_cell_volume   391.92388189
_cell_formula_units_Z   1
loop_
 _symmetry_equiv_pos_site_id
 _symmetry_equiv_pos_as_xyz
  1  'x, y, z'
loop_
 _atom_site_type_symbol
 _atom_site_label
 _atom_site_symmetry_multiplicity
 _atom_site_fract_x
 _atom_site_fract_y
 _atom_site_fract_z
 _atom_site_occupancy
  Li  Li0  1  0.749809  0.792969  0.631055  1
  Li  Li1  1  0.548871  0.211542  0.364876  1
  Cu  Cu2  1  0.671784  0.600090  0.404686  1
  Cu  Cu3  1  0.268066  0.394774  0.597344  1
  Si  Si4  1  0.473230  0.756692  0.930291  1
  Si  Si5  1  0.874299  0.979823  0.167888  1
  Si  Si6  1  0.071105  0.859999  0.421203  1
  Si  Si7  1  0.337468  0.442000  0.828983  1
  Si  Si8  1  0.780176  0.556741  0.172158  1
  Si  Si9  1  0.929364  0.137969  0.578420  1
  Si  Si10  1  0.854496  0.017588  0.832055  1
  Si  Si11  1  0.230386  0.240172  0.070281  1
  O  O12  1  0.177397  0.966746  0.891705  1
  O  O13  1  0.746370  0.833425  0.903164  1
  O  O14  1  0.876557  0.001426  0.295609  1
  O  O15  1  0.402550  0.849412  0.428476  1
  O  O16  1  0.459282  0.613521  0.852745  1
  O  O17  1  0.029636  0.634649  0.457784  1
  O  O18  1  0.135245  0.537810  0.708085  1
  O  O19  1  0.881091  0.750871  0.174054  1
  O  O20  1  0.155929  0.369802  0.935127  1
  O  O21  1  0.524190  0.632221  0.066142  1
  O  O22  1  0.633045  0.245665  0.827984  1
  O  O23  1  0.671802  0.461869  0.292422  1
  O  O24  1  0.662663  0.364576  0.542442  1
  O  O25  1  0.071525  0.382356  0.148564  1
  O  O26  1  0.251433  0.146725  0.572084  1
  O  O27  1  0.875896  0.997274  0.703960  1
  O  O28  1  0.872873  0.000002  0.499230  1
  O  O29  1  0.581044  0.164618  0.096448  1
  O  O30  1  0.145193  0.030789  0.107553  1
