# generated using pymatgen
data_Mn13Fe11O32
_symmetry_space_group_name_H-M   'P 1'
_cell_length_a   6.12837740
_cell_length_b   6.15641821
_cell_length_c   20.35888159
_cell_angle_alpha   98.29270211
_cell_angle_beta   98.37159173
_cell_angle_gamma   60.05257827
_symmetry_Int_Tables_number   1
_chemical_formula_structural   Mn13Fe11O32
_chemical_formula_sum   'Mn13 Fe11 O32'
_cell_volume   656.17189903
_cell_formula_units_Z   1
loop_
 _symmetry_equiv_pos_site_id
 _symmetry_equiv_pos_as_xyz
  1  'x, y, z'
loop_
 _atom_site_type_symbol
 _atom_site_label
 _atom_site_symmetry_multiplicity
 _atom_site_fract_x
 _atom_site_fract_y
 _atom_site_fract_z
 _atom_site_occupancy
  Mn  Mn0  1  0.685710  0.690999  0.063514  1
  Mn  Mn1  1  0.345440  0.341605  0.030876  1
  Mn  Mn2  1  0.215501  0.722862  0.156639  1
  Mn  Mn3  1  0.746277  0.753851  0.249495  1
  Mn  Mn4  1  0.006515  0.991802  0.999237  1
  Mn  Mn5  1  0.441223  0.433649  0.313005  1
  Mn  Mn6  1  0.842060  0.845895  0.531624  1
  Mn  Mn7  1  0.972000  0.464638  0.405861  1
  Mn  Mn8  1  0.501790  0.496501  0.498986  1
  Mn  Mn9  1  0.944322  0.938105  0.812859  1
  Mn  Mn10  1  0.180985  0.195698  0.563263  1
  Mn  Mn11  1  0.593750  0.593750  0.781250  1
  Mn  Mn12  1  0.243178  0.249395  0.749641  1
  Fe  Fe13  1  0.717453  0.223980  0.156479  1
  Fe  Fe14  1  0.212445  0.225158  0.156246  1
  Fe  Fe15  1  0.470047  0.963520  0.406021  1
  Fe  Fe16  1  0.975055  0.962342  0.406254  1
  Fe  Fe17  1  0.093750  0.093750  0.281250  1
  Fe  Fe18  1  0.709963  0.725946  0.656304  1
  Fe  Fe19  1  0.214670  0.721276  0.656364  1
  Fe  Fe20  1  0.709333  0.221528  0.656152  1
  Fe  Fe21  1  0.478167  0.965972  0.906348  1
  Fe  Fe22  1  0.972830  0.466224  0.906136  1
  Fe  Fe23  1  0.477537  0.461554  0.906196  1
  O  O24  1  0.365095  0.917860  0.213378  1
  O  O25  1  0.926676  0.921049  0.214274  1
  O  O26  1  0.505692  0.528638  0.100053  1
  O  O27  1  0.061021  0.533050  0.101201  1
  O  O28  1  0.506604  0.077415  0.093059  1
  O  O29  1  0.265048  0.816257  0.344834  1
  O  O30  1  0.417643  0.372603  0.210386  1
  O  O31  1  0.922452  0.371243  0.217666  1
  O  O32  1  0.769857  0.814897  0.352114  1
  O  O33  1  0.015899  0.069110  0.101612  1
  O  O34  1  0.126479  0.654450  0.461299  1
  O  O35  1  0.681808  0.658862  0.462447  1
  O  O36  1  0.260824  0.266451  0.348226  1
  O  O37  1  0.822405  0.269640  0.349122  1
  O  O38  1  0.898581  0.902072  0.709008  1
  O  O39  1  0.171601  0.118390  0.460888  1
  O  O40  1  0.002649  0.580791  0.594427  1
  O  O41  1  0.530227  0.541441  0.603219  1
  O  O42  1  0.680896  0.110085  0.469441  1
  O  O43  1  0.420102  0.866136  0.717289  1
  O  O44  1  0.858005  0.428011  0.716743  1
  O  O45  1  0.405689  0.418427  0.709887  1
  O  O46  1  0.011726  0.023070  0.600001  1
  O  O47  1  0.557577  0.021130  0.599700  1
  O  O48  1  0.329495  0.759489  0.845757  1
  O  O49  1  0.781811  0.769073  0.852613  1
  O  O50  1  0.767398  0.321364  0.845211  1
  O  O51  1  0.657273  0.646059  0.959281  1
  O  O52  1  0.184851  0.606709  0.968073  1
  O  O53  1  0.288919  0.285428  0.853492  1
  O  O54  1  0.629923  0.166370  0.962800  1
  O  O55  1  0.175774  0.164430  0.962499  1
