# generated using pymatgen
data_Li3Co2(CO3)4
_symmetry_space_group_name_H-M   'P 1'
_cell_length_a   8.33574184
_cell_length_b   6.08642827
_cell_length_c   5.60499761
_cell_angle_alpha   63.40163807
_cell_angle_beta   104.92186708
_cell_angle_gamma   94.76499961
_symmetry_Int_Tables_number   1
_chemical_formula_structural   Li3Co2(CO3)4
_chemical_formula_sum   'Li3 Co2 C4 O12'
_cell_volume   245.52778742
_cell_formula_units_Z   1
loop_
 _symmetry_equiv_pos_site_id
 _symmetry_equiv_pos_as_xyz
  1  'x, y, z'
loop_
 _atom_site_type_symbol
 _atom_site_label
 _atom_site_symmetry_multiplicity
 _atom_site_fract_x
 _atom_site_fract_y
 _atom_site_fract_z
 _atom_site_occupancy
  Li  Li0  1  0.336724  0.095604  0.460567  1
  Li  Li1  1  0.652444  0.911798  0.190725  1
  Li  Li2  1  0.862815  0.383135  0.311897  1
  Co  Co3  1  0.010134  0.972923  0.928261  1
  Co  Co4  1  0.498655  0.505096  0.678737  1
  C  C5  1  0.214723  0.572449  0.383912  1
  C  C6  1  0.300041  0.097676  0.923754  1
  C  C7  1  0.695681  0.914743  0.682403  1
  C  C8  1  0.793045  0.413135  0.725767  1
  O  O9  1  0.066852  0.613357  0.226068  1
  O  O10  1  0.240126  0.071587  0.122786  1
  O  O11  1  0.204851  0.053273  0.729047  1
  O  O12  1  0.338141  0.494893  0.332622  1
  O  O13  1  0.255420  0.607646  0.602612  1
  O  O14  1  0.454728  0.161073  0.919643  1
  O  O15  1  0.541340  0.847392  0.625936  1
  O  O16  1  0.679648  0.504296  0.487849  1
  O  O17  1  0.745798  0.401399  0.934139  1
  O  O18  1  0.777694  0.998132  0.496866  1
  O  O19  1  0.762098  0.895026  0.927653  1
  O  O20  1  0.933393  0.337986  0.736754  1
