# generated using pymatgen
data_Li2Co(CO3)2
_symmetry_space_group_name_H-M   'P 1'
_cell_length_a   7.93469530
_cell_length_b   7.57659685
_cell_length_c   9.68583103
_cell_angle_alpha   89.99270035
_cell_angle_beta   90.00246223
_cell_angle_gamma   110.24812921
_symmetry_Int_Tables_number   1
_chemical_formula_structural   Li2Co(CO3)2
_chemical_formula_sum   'Li8 Co4 C8 O24'
_cell_volume   546.30851170
_cell_formula_units_Z   4
loop_
 _symmetry_equiv_pos_site_id
 _symmetry_equiv_pos_as_xyz
  1  'x, y, z'
loop_
 _atom_site_type_symbol
 _atom_site_label
 _atom_site_symmetry_multiplicity
 _atom_site_fract_x
 _atom_site_fract_y
 _atom_site_fract_z
 _atom_site_occupancy
  Li  Li0  1  0.984639  0.314907  0.869300  1
  Li  Li1  1  0.852118  0.671924  0.823249  1
  Li  Li2  1  0.515344  0.185111  0.369257  1
  Li  Li3  1  0.647954  0.828147  0.323252  1
  Li  Li4  1  0.452379  0.724432  0.633105  1
  Li  Li5  1  0.156453  0.467257  0.127346  1
  Li  Li6  1  0.343508  0.032757  0.627264  1
  Li  Li7  1  0.047755  0.775680  0.133045  1
  Co  Co8  1  0.434777  0.940817  0.112958  1
  Co  Co9  1  0.065121  0.558931  0.612860  1
  Co  Co10  1  0.933486  0.424677  0.371463  1
  Co  Co11  1  0.566380  0.075258  0.871534  1
  C  C12  1  0.756989  0.295513  0.106853  1
  C  C13  1  0.743052  0.204524  0.606855  1
  C  C14  1  0.772346  0.673572  0.510723  1
  C  C15  1  0.727728  0.826417  0.010774  1
  C  C16  1  0.254907  0.169021  0.996657  1
  C  C17  1  0.245031  0.331081  0.496565  1
  C  C18  1  0.273812  0.786577  0.378657  1
  C  C19  1  0.226069  0.713315  0.878722  1
  O  O20  1  0.900665  0.407314  0.165811  1
  O  O21  1  0.885597  0.291426  0.678108  1
  O  O22  1  0.738084  0.226854  0.474021  1
  O  O23  1  0.761890  0.273120  0.974112  1
  O  O24  1  0.614430  0.208602  0.178222  1
  O  O25  1  0.599377  0.092769  0.665804  1
  O  O26  1  0.855968  0.650797  0.622499  1
  O  O27  1  0.809823  0.617678  0.391632  1
  O  O28  1  0.845319  0.745490  0.016857  1
  O  O29  1  0.654749  0.754459  0.516770  1
  O  O30  1  0.690220  0.882306  0.891751  1
  O  O31  1  0.644142  0.849218  0.122610  1
  O  O32  1  0.368322  0.182101  0.896722  1
  O  O33  1  0.343638  0.227792  0.497507  1
  O  O34  1  0.239751  0.049435  0.098590  1
  O  O35  1  0.260232  0.450543  0.598515  1
  O  O36  1  0.156437  0.272307  0.997649  1
  O  O37  1  0.131613  0.317937  0.396683  1
  O  O38  1  0.421297  0.904448  0.326961  1
  O  O39  1  0.249501  0.709857  0.011915  1
  O  O40  1  0.341728  0.828732  0.798004  1
  O  O41  1  0.158289  0.671329  0.297897  1
  O  O42  1  0.250364  0.790022  0.511838  1
  O  O43  1  0.078721  0.595551  0.826972  1
