# generated using pymatgen
data_KFeC6(NO)3
_symmetry_space_group_name_H-M   'P 1'
_cell_length_a   13.13962707
_cell_length_b   13.13962760
_cell_length_c   13.13962710
_cell_angle_alpha   31.80935790
_cell_angle_beta   31.80935403
_cell_angle_gamma   31.80935549
_symmetry_Int_Tables_number   1
_chemical_formula_structural   KFeC6(NO)3
_chemical_formula_sum   'K2 Fe2 C12 N6 O6'
_cell_volume   559.82290057
_cell_formula_units_Z   2
loop_
 _symmetry_equiv_pos_site_id
 _symmetry_equiv_pos_as_xyz
  1  'x, y, z'
loop_
 _atom_site_type_symbol
 _atom_site_label
 _atom_site_symmetry_multiplicity
 _atom_site_fract_x
 _atom_site_fract_y
 _atom_site_fract_z
 _atom_site_occupancy
  K  K0  1  0.333008  0.333008  0.333008  1
  K  K1  1  0.666992  0.666992  0.666992  1
  Fe  Fe2  1  0.094624  0.094624  0.094624  1
  Fe  Fe3  1  0.905376  0.905376  0.905376  1
  C  C4  1  0.723002  0.152444  0.934990  1
  C  C5  1  0.098076  0.658594  0.886209  1
  C  C6  1  0.934990  0.723002  0.152444  1
  C  C7  1  0.341406  0.113791  0.901924  1
  C  C8  1  0.658594  0.886209  0.098076  1
  C  C9  1  0.276998  0.847556  0.065010  1
  C  C10  1  0.901924  0.341406  0.113791  1
  C  C11  1  0.113791  0.901924  0.341406  1
  C  C12  1  0.886209  0.098076  0.658594  1
  C  C13  1  0.152444  0.934990  0.723002  1
  C  C14  1  0.065010  0.276998  0.847556  1
  C  C15  1  0.847556  0.065010  0.276998  1
  N  N16  1  0.612184  0.301125  0.953816  1
  N  N17  1  0.046184  0.387816  0.698875  1
  N  N18  1  0.301125  0.953816  0.612184  1
  N  N19  1  0.953816  0.612184  0.301125  1
  N  N20  1  0.387816  0.698875  0.046184  1
  N  N21  1  0.698875  0.046184  0.387816  1
  O  O22  1  0.223746  0.499636  0.877666  1
  O  O23  1  0.500364  0.122334  0.776254  1
  O  O24  1  0.776254  0.500364  0.122334  1
  O  O25  1  0.122334  0.776254  0.500364  1
  O  O26  1  0.877666  0.223746  0.499636  1
  O  O27  1  0.499636  0.877666  0.223746  1
