# generated using pymatgen
data_H8C2(N2O)3
_symmetry_space_group_name_H-M   'P 1'
_cell_length_a   7.10629276
_cell_length_b   11.01926902
_cell_length_c   9.65692913
_cell_angle_alpha   90.00000000
_cell_angle_beta   109.19760968
_cell_angle_gamma   90.00000000
_symmetry_Int_Tables_number   1
_chemical_formula_structural   H8C2(N2O)3
_chemical_formula_sum   'H32 C8 N24 O12'
_cell_volume   714.14491129
_cell_formula_units_Z   4
loop_
 _symmetry_equiv_pos_site_id
 _symmetry_equiv_pos_as_xyz
  1  'x, y, z'
loop_
 _atom_site_type_symbol
 _atom_site_label
 _atom_site_symmetry_multiplicity
 _atom_site_fract_x
 _atom_site_fract_y
 _atom_site_fract_z
 _atom_site_occupancy
  H  H0  1  0.653328  0.737966  0.578475  1
  H  H1  1  0.153328  0.762034  0.078475  1
  H  H2  1  0.346672  0.262034  0.421525  1
  H  H3  1  0.846672  0.237966  0.921525  1
  H  H4  1  0.613583  0.578592  0.569239  1
  H  H5  1  0.113583  0.921408  0.069239  1
  H  H6  1  0.386417  0.421408  0.430761  1
  H  H7  1  0.886417  0.078592  0.930761  1
  H  H8  1  0.168530  0.827097  0.389232  1
  H  H9  1  0.668530  0.672903  0.889232  1
  H  H10  1  0.831470  0.172903  0.610768  1
  H  H11  1  0.331470  0.327097  0.110768  1
  H  H12  1  0.398136  0.868005  0.508390  1
  H  H13  1  0.898136  0.631995  0.008390  1
  H  H14  1  0.601864  0.131995  0.491610  1
  H  H15  1  0.101864  0.368005  0.991610  1
  H  H16  1  0.054881  0.453255  0.218317  1
  H  H17  1  0.554881  0.046745  0.718317  1
  H  H18  1  0.945119  0.546745  0.781683  1
  H  H19  1  0.445119  0.953255  0.281683  1
  H  H20  1  0.816237  0.492770  0.223661  1
  H  H21  1  0.316237  0.007230  0.723661  1
  H  H22  1  0.183763  0.507230  0.776339  1
  H  H23  1  0.683763  0.992770  0.276339  1
  H  H24  1  0.989856  0.718074  0.493494  1
  H  H25  1  0.489856  0.781926  0.993494  1
  H  H26  1  0.010144  0.281926  0.506506  1
  H  H27  1  0.510144  0.218074  0.006506  1
  H  H28  1  0.788772  0.667705  0.343013  1
  H  H29  1  0.288772  0.832295  0.843013  1
  H  H30  1  0.211228  0.332295  0.656987  1
  H  H31  1  0.711228  0.167705  0.156987  1
  C  C32  1  0.368317  0.684804  0.472524  1
  C  C33  1  0.868317  0.815196  0.972524  1
  C  C34  1  0.631683  0.315196  0.527476  1
  C  C35  1  0.131683  0.184804  0.027476  1
  C  C36  1  0.056323  0.590629  0.358803  1
  C  C37  1  0.556323  0.909371  0.858803  1
  C  C38  1  0.943677  0.409371  0.641197  1
  C  C39  1  0.443677  0.090629  0.141197  1
  N  N40  1  0.558377  0.665832  0.556017  1
  N  N41  1  0.058377  0.834168  0.056017  1
  N  N42  1  0.441623  0.334168  0.443983  1
  N  N43  1  0.941623  0.165832  0.943983  1
  N  N44  1  0.309157  0.801540  0.448276  1
  N  N45  1  0.809157  0.698460  0.948276  1
  N  N46  1  0.690843  0.198460  0.551724  1
  N  N47  1  0.190843  0.301540  0.051724  1
  N  N48  1  0.256410  0.587426  0.414550  1
  N  N49  1  0.756410  0.912574  0.914550  1
  N  N50  1  0.743590  0.412574  0.585450  1
  N  N51  1  0.243590  0.087426  0.085450  1
  N  N52  1  0.967556  0.505986  0.258182  1
  N  N53  1  0.467556  0.994014  0.758182  1
  N  N54  1  0.032444  0.494014  0.741818  1
  N  N55  1  0.532444  0.005986  0.241818  1
  N  N56  1  0.938633  0.669694  0.397726  1
  N  N57  1  0.438633  0.830306  0.897726  1
  N  N58  1  0.061367  0.330306  0.602274  1
  N  N59  1  0.561367  0.169694  0.102274  1
  N  N60  1  0.426664  0.581309  0.139034  1
  N  N61  1  0.926664  0.918691  0.639034  1
  N  N62  1  0.573336  0.418691  0.860966  1
  N  N63  1  0.073336  0.081309  0.360966  1
  O  O64  1  0.514271  0.682933  0.177699  1
  O  O65  1  0.014271  0.817067  0.677699  1
  O  O66  1  0.485729  0.317067  0.822301  1
  O  O67  1  0.985729  0.182933  0.322301  1
  O  O68  1  0.523073  0.483266  0.175747  1
  O  O69  1  0.023073  0.016734  0.675747  1
  O  O70  1  0.476927  0.516734  0.824253  1
  O  O71  1  0.976927  0.983266  0.324253  1
  O  O72  1  0.243192  0.579394  0.063985  1
  O  O73  1  0.743192  0.920606  0.563985  1
  O  O74  1  0.756808  0.420606  0.936015  1
  O  O75  1  0.256808  0.079394  0.436015  1
