# generated using pymatgen
data_LiNi6O6F
_symmetry_space_group_name_H-M   'P 1'
_cell_length_a   2.97358299
_cell_length_b   2.97358299
_cell_length_c   15.00139599
_cell_angle_alpha   95.68793469
_cell_angle_beta   84.31206531
_cell_angle_gamma   90.00000000
_symmetry_Int_Tables_number   1
_chemical_formula_structural   LiNi6O6F
_chemical_formula_sum   'Li1 Ni6 O6 F1'
_cell_volume   131.33586552
_cell_formula_units_Z   1
loop_
 _symmetry_equiv_pos_site_id
 _symmetry_equiv_pos_as_xyz
  1  'x, y, z'
loop_
 _atom_site_type_symbol
 _atom_site_label
 _atom_site_symmetry_multiplicity
 _atom_site_fract_x
 _atom_site_fract_y
 _atom_site_fract_z
 _atom_site_occupancy
  Li  Li0  1  0.571429  0.428571  0.857143  1
  Ni  Ni1  1  0.998530  0.001470  0.002941  1
  Ni  Ni2  1  0.428466  0.571534  0.143067  1
  Ni  Ni3  1  0.856975  0.143025  0.286050  1
  Ni  Ni4  1  0.285882  0.714118  0.428236  1
  Ni  Ni5  1  0.714391  0.285609  0.571219  1
  Ni  Ni6  1  0.144327  0.855673  0.711345  1
  O  O7  1  0.499835  0.500165  0.000330  1
  O  O8  1  0.928118  0.071882  0.143764  1
  O  O9  1  0.357011  0.642989  0.285979  1
  O  O10  1  0.785846  0.214154  0.428307  1
  O  O11  1  0.214739  0.785261  0.570522  1
  O  O12  1  0.643022  0.356978  0.713956  1
  F  F13  1  0.071429  0.928571  0.857143  1
