# generated using pymatgen
data_LiPWO5
_symmetry_space_group_name_H-M   'P 1'
_cell_length_a   5.45764924
_cell_length_b   10.70453620
_cell_length_c   7.53937760
_cell_angle_alpha   70.68341714
_cell_angle_beta   68.78042824
_cell_angle_gamma   75.23101816
_symmetry_Int_Tables_number   1
_chemical_formula_structural   LiPWO5
_chemical_formula_sum   'Li4 P4 W4 O20'
_cell_volume   382.88160308
_cell_formula_units_Z   4
loop_
 _symmetry_equiv_pos_site_id
 _symmetry_equiv_pos_as_xyz
  1  'x, y, z'
loop_
 _atom_site_type_symbol
 _atom_site_label
 _atom_site_symmetry_multiplicity
 _atom_site_fract_x
 _atom_site_fract_y
 _atom_site_fract_z
 _atom_site_occupancy
  Li  Li0  1  0.500000  0.250000  0.750000  1
  Li  Li1  1  0.500000  0.250000  0.250000  1
  Li  Li2  1  0.500000  0.750000  0.750000  1
  Li  Li3  1  0.000000  0.750000  0.250000  1
  P  P4  1  0.118890  0.060969  0.189210  1
  P  P5  1  0.881110  0.439031  0.310790  1
  P  P6  1  0.130932  0.560969  0.689210  1
  P  P7  1  0.869068  0.939031  0.810790  1
  W  W8  1  0.494015  0.000000  0.500000  1
  W  W9  1  0.000000  0.250000  0.750000  1
  W  W10  1  0.505985  0.500000  1.000000  1
  W  W11  1  0.500000  0.750000  0.250000  1
  O  O12  1  0.793796  0.089406  0.805411  1
  O  O13  1  0.171842  0.154013  0.976223  1
  O  O14  1  0.657871  0.326578  0.924181  1
  O  O15  1  0.816760  0.092713  0.295693  1
  O  O16  1  0.294198  0.094789  0.283315  1
  O  O17  1  0.342129  0.173422  0.575819  1
  O  O18  1  0.206204  0.410594  0.694589  1
  O  O19  1  0.828158  0.345987  0.523777  1
  O  O20  1  0.827699  0.594789  0.783315  1
  O  O21  1  0.705802  0.405211  0.216685  1
  O  O22  1  0.294835  0.592713  0.795693  1
  O  O23  1  0.183240  0.407287  0.204307  1
  O  O24  1  0.811385  0.589406  0.305411  1
  O  O25  1  0.197921  0.654013  0.476223  1
  O  O26  1  0.705165  0.907287  0.704307  1
  O  O27  1  0.172301  0.905211  0.716685  1
  O  O28  1  0.408629  0.673422  0.075819  1
  O  O29  1  0.591371  0.826578  0.424181  1
  O  O30  1  0.802079  0.845987  0.023777  1
  O  O31  1  0.188615  0.910594  0.194589  1
