# generated using pymatgen
data_Mn2Ni3Sb(PO4)6
_symmetry_space_group_name_H-M   'P 1'
_cell_length_a   8.64101854
_cell_length_b   8.64101786
_cell_length_c   8.64101770
_cell_angle_alpha   60.47072670
_cell_angle_beta   60.47072819
_cell_angle_gamma   60.47072751
_symmetry_Int_Tables_number   1
_chemical_formula_structural   Mn2Ni3Sb(PO4)6
_chemical_formula_sum   'Mn2 Ni3 Sb1 P6 O24'
_cell_volume   461.08012377
_cell_formula_units_Z   1
loop_
 _symmetry_equiv_pos_site_id
 _symmetry_equiv_pos_as_xyz
  1  'x, y, z'
loop_
 _atom_site_type_symbol
 _atom_site_label
 _atom_site_symmetry_multiplicity
 _atom_site_fract_x
 _atom_site_fract_y
 _atom_site_fract_z
 _atom_site_occupancy
  Mn  Mn0  1  0.006219  0.006219  0.006219  1
  Mn  Mn1  1  0.499374  0.499374  0.499374  1
  Ni  Ni2  1  0.144428  0.144428  0.144428  1
  Ni  Ni3  1  0.356695  0.356695  0.356695  1
  Ni  Ni4  1  0.642169  0.642169  0.642169  1
  Sb  Sb5  1  0.856921  0.856921  0.856921  1
  P  P6  1  0.045647  0.746006  0.455364  1
  P  P7  1  0.455364  0.045647  0.746006  1
  P  P8  1  0.746006  0.455364  0.045647  1
  P  P9  1  0.253569  0.540460  0.952853  1
  P  P10  1  0.540460  0.952853  0.253569  1
  P  P11  1  0.952853  0.253569  0.540460  1
  O  O12  1  0.107009  0.310145  0.512960  1
  O  O13  1  0.310145  0.512960  0.107009  1
  O  O14  1  0.060786  0.907582  0.263806  1
  O  O15  1  0.512960  0.107009  0.310145  1
  O  O16  1  0.009178  0.813214  0.614085  1
  O  O17  1  0.241487  0.589796  0.445195  1
  O  O18  1  0.263806  0.060786  0.907582  1
  O  O19  1  0.445195  0.241487  0.589796  1
  O  O20  1  0.184819  0.391745  0.988038  1
  O  O21  1  0.589796  0.445195  0.241487  1
  O  O22  1  0.087229  0.744072  0.935301  1
  O  O23  1  0.391745  0.988038  0.184819  1
  O  O24  1  0.614085  0.009178  0.813214  1
  O  O25  1  0.907582  0.263806  0.060786  1
  O  O26  1  0.409636  0.559440  0.755176  1
  O  O27  1  0.813214  0.614085  0.009178  1
  O  O28  1  0.559440  0.755176  0.409636  1
  O  O29  1  0.744072  0.935301  0.087229  1
  O  O30  1  0.755176  0.409636  0.559440  1
  O  O31  1  0.988038  0.184819  0.391745  1
  O  O32  1  0.498019  0.892083  0.679498  1
  O  O33  1  0.935301  0.087229  0.744072  1
  O  O34  1  0.679498  0.498019  0.892083  1
  O  O35  1  0.892083  0.679498  0.498019  1
