# generated using pymatgen
data_Sr3Li4Nb6O20
_symmetry_space_group_name_H-M   'P 1'
_cell_length_a   5.66539129
_cell_length_b   13.58513549
_cell_length_c   5.66543540
_cell_angle_alpha   89.92008543
_cell_angle_beta   89.92449668
_cell_angle_gamma   101.93497198
_symmetry_Int_Tables_number   1
_chemical_formula_structural   Sr3Li4Nb6O20
_chemical_formula_sum   'Sr3 Li4 Nb6 O20'
_cell_volume   426.61393833
_cell_formula_units_Z   1
loop_
 _symmetry_equiv_pos_site_id
 _symmetry_equiv_pos_as_xyz
  1  'x, y, z'
loop_
 _atom_site_type_symbol
 _atom_site_label
 _atom_site_symmetry_multiplicity
 _atom_site_fract_x
 _atom_site_fract_y
 _atom_site_fract_z
 _atom_site_occupancy
  Sr  Sr0  1  0.577049  0.155642  0.999222  1
  Sr  Sr1  1  0.412915  0.830476  0.998045  1
  Sr  Sr2  1  0.079039  0.155975  0.500981  1
  Li  Li3  1  0.501229  0.503987  0.249424  1
  Li  Li4  1  0.002880  0.504436  0.249567  1
  Li  Li5  1  0.501630  0.504402  0.750737  1
  Li  Li6  1  0.002507  0.503978  0.750567  1
  Nb  Nb7  1  0.841284  0.684283  0.999559  1
  Nb  Nb8  1  0.501299  0.993717  0.502541  1
  Nb  Nb9  1  0.656615  0.314279  0.499354  1
  Nb  Nb10  1  0.999319  0.993667  0.004489  1
  Nb  Nb11  1  0.156384  0.314074  0.999468  1
  Nb  Nb12  1  0.341548  0.684301  0.499324  1
  O  O13  1  0.927447  0.851076  0.002871  1
  O  O14  1  0.781884  0.008806  0.277187  1
  O  O15  1  0.899385  0.298074  0.250249  1
  O  O16  1  0.771160  0.541677  0.000286  1
  O  O17  1  0.284453  0.005996  0.233119  1
  O  O18  1  0.900683  0.298290  0.750069  1
  O  O19  1  0.578756  0.152621  0.503618  1
  O  O20  1  0.728814  0.457004  0.500122  1
  O  O21  1  0.591502  0.697431  0.242998  1
  O  O22  1  0.399266  0.298269  0.251525  1
  O  O23  1  0.080270  0.152623  0.002049  1
  O  O24  1  0.228635  0.456832  0.000280  1
  O  O25  1  0.736524  0.006016  0.781096  1
  O  O26  1  0.254203  0.007288  0.750306  1
  O  O27  1  0.400159  0.298483  0.750772  1
  O  O28  1  0.105300  0.697036  0.243741  1
  O  O29  1  0.428354  0.851092  0.501933  1
  O  O30  1  0.591944  0.696994  0.757104  1
  O  O31  1  0.271041  0.541690  0.500385  1
  O  O32  1  0.105694  0.697627  0.757111  1
