# generated using pymatgen
data_KZrPCO7
_symmetry_space_group_name_H-M   'P 1'
_cell_length_a   10.05060243
_cell_length_b   6.71411916
_cell_length_c   5.86252144
_cell_angle_alpha   90.00000000
_cell_angle_beta   89.23287030
_cell_angle_gamma   90.00000000
_symmetry_Int_Tables_number   1
_chemical_formula_structural   KZrPCO7
_chemical_formula_sum   'K2 Zr2 P2 C2 O14'
_cell_volume   395.57301257
_cell_formula_units_Z   2
loop_
 _symmetry_equiv_pos_site_id
 _symmetry_equiv_pos_as_xyz
  1  'x, y, z'
loop_
 _atom_site_type_symbol
 _atom_site_label
 _atom_site_symmetry_multiplicity
 _atom_site_fract_x
 _atom_site_fract_y
 _atom_site_fract_z
 _atom_site_occupancy
  K  K0  1  0.217765  0.451251  0.253396  1
  K  K1  1  0.782235  0.951251  0.746604  1
  Zr  Zr2  1  0.347683  0.776004  0.777804  1
  Zr  Zr3  1  0.652317  0.276004  0.222196  1
  P  P4  1  0.449799  0.269776  0.728636  1
  P  P5  1  0.550201  0.769776  0.271364  1
  C  C6  1  0.094294  0.730601  0.722251  1
  C  C7  1  0.905706  0.230601  0.277749  1
  O  O8  1  0.025506  0.207011  0.304917  1
  O  O9  1  0.154898  0.741266  0.925648  1
  O  O10  1  0.185040  0.748786  0.551716  1
  O  O11  1  0.360377  0.084999  0.768474  1
  O  O12  1  0.364292  0.456711  0.770808  1
  O  O13  1  0.432265  0.761955  0.103963  1
  O  O14  1  0.504695  0.269488  0.480285  1
  O  O15  1  0.495305  0.769488  0.519715  1
  O  O16  1  0.567735  0.261955  0.896037  1
  O  O17  1  0.635708  0.956711  0.229192  1
  O  O18  1  0.639623  0.584999  0.231526  1
  O  O19  1  0.814960  0.248786  0.448284  1
  O  O20  1  0.845102  0.241266  0.074352  1
  O  O21  1  0.974494  0.707011  0.695083  1
