# generated using pymatgen
data_Li2V(Si2O5)3
_symmetry_space_group_name_H-M   'P 1'
_cell_length_a   7.19219172
_cell_length_b   7.24411522
_cell_length_c   14.93444512
_cell_angle_alpha   78.28704153
_cell_angle_beta   90.00000000
_cell_angle_gamma   60.23682303
_symmetry_Int_Tables_number   1
_chemical_formula_structural   Li2V(Si2O5)3
_chemical_formula_sum   'Li4 V2 Si12 O30'
_cell_volume   656.72716824
_cell_formula_units_Z   2
loop_
 _symmetry_equiv_pos_site_id
 _symmetry_equiv_pos_as_xyz
  1  'x, y, z'
loop_
 _atom_site_type_symbol
 _atom_site_label
 _atom_site_symmetry_multiplicity
 _atom_site_fract_x
 _atom_site_fract_y
 _atom_site_fract_z
 _atom_site_occupancy
  Li  Li0  1  0.848466  0.642329  0.949607  1
  Li  Li1  1  0.381887  0.565576  0.836697  1
  Li  Li2  1  0.509205  0.642329  0.449607  1
  Li  Li3  1  0.052537  0.565576  0.336697  1
  V  V4  1  0.298701  0.908059  0.902957  1
  V  V5  1  0.793241  0.908059  0.402957  1
  Si  Si6  1  0.638117  0.817556  0.745379  1
  Si  Si7  1  0.083838  0.896838  0.568303  1
  Si  Si8  1  0.544327  0.817556  0.245379  1
  Si  Si9  1  0.019324  0.896838  0.068303  1
  Si  Si10  1  0.178659  0.470339  0.551317  1
  Si  Si11  1  0.009194  0.363218  0.747457  1
  Si  Si12  1  0.351002  0.470339  0.051317  1
  Si  Si13  1  0.627588  0.363218  0.247457  1
  Si  Si14  1  0.906145  0.015986  0.755021  1
  Si  Si15  1  0.437127  0.008575  0.539629  1
  Si  Si16  1  0.077869  0.015986  0.255021  1
  Si  Si17  1  0.554298  0.008575  0.039629  1
  O  O18  1  0.561164  0.888455  0.958452  1
  O  O19  1  0.064775  0.877321  0.849806  1
  O  O20  1  0.035863  0.894624  0.674612  1
  O  O21  1  0.465430  0.785226  0.804374  1
  O  O22  1  0.577440  0.844060  0.637134  1
  O  O23  1  0.550380  0.888455  0.458452  1
  O  O24  1  0.425615  0.578165  0.963962  1
  O  O25  1  0.057903  0.877321  0.349806  1
  O  O26  1  0.873839  0.590483  0.783896  1
  O  O27  1  0.069513  0.894624  0.174612  1
  O  O28  1  0.749344  0.785226  0.304374  1
  O  O29  1  0.263782  0.644241  0.559561  1
  O  O30  1  0.578500  0.844060  0.137134  1
  O  O31  1  0.996220  0.578165  0.463962  1
  O  O32  1  0.100553  0.411554  0.650840  1
  O  O33  1  0.535679  0.590483  0.283896  1
  O  O34  1  0.198389  0.193770  0.830247  1
  O  O35  1  0.843105  0.274639  0.730034  1
  O  O36  1  0.091977  0.644241  0.059561  1
  O  O37  1  0.396733  0.254946  0.533237  1
  O  O38  1  0.487892  0.411554  0.150840  1
  O  O39  1  0.677565  0.015393  0.759318  1
  O  O40  1  0.607841  0.193770  0.330247  1
  O  O41  1  0.882256  0.274639  0.230034  1
  O  O42  1  0.191717  0.046088  0.536054  1
  O  O43  1  0.861078  0.983639  0.505014  1
  O  O44  1  0.348322  0.254946  0.033237  1
  O  O45  1  0.307040  0.015393  0.259318  1
  O  O46  1  0.762195  0.046088  0.036054  1
  O  O47  1  0.155283  0.983639  0.005014  1
