# generated using pymatgen
data_Na3Bi2H42C18I9(N2O3)3
_symmetry_space_group_name_H-M   'P 1'
_cell_length_a   13.57069336
_cell_length_b   13.62860094
_cell_length_c   19.05517363
_cell_angle_alpha   70.79469690
_cell_angle_beta   72.69936115
_cell_angle_gamma   62.17150215
_symmetry_Int_Tables_number   1
_chemical_formula_structural   Na3Bi2H42C18I9(N2O3)3
_chemical_formula_sum   'Na6 Bi4 H84 C36 I18 N12 O18'
_cell_volume   2899.23545150
_cell_formula_units_Z   2
loop_
 _symmetry_equiv_pos_site_id
 _symmetry_equiv_pos_as_xyz
  1  'x, y, z'
loop_
 _atom_site_type_symbol
 _atom_site_label
 _atom_site_symmetry_multiplicity
 _atom_site_fract_x
 _atom_site_fract_y
 _atom_site_fract_z
 _atom_site_occupancy
  Na  Na0  1  0.000000  0.500000  0.500000  1
  Na  Na1  1  0.992530  0.316654  0.660593  1
  Na  Na2  1  0.007470  0.683346  0.339407  1
  Na  Na3  1  0.971923  0.178586  0.836113  1
  Na  Na4  1  0.028077  0.821414  0.163887  1
  Na  Na5  1  0.000000  0.000000  0.000000  1
  Bi  Bi6  1  0.531808  0.091656  0.728426  1
  Bi  Bi7  1  0.468192  0.908344  0.271574  1
  Bi  Bi8  1  0.352895  0.424791  0.771530  1
  Bi  Bi9  1  0.647105  0.575209  0.228470  1
  H  H10  1  0.052459  0.315259  0.906669  1
  H  H11  1  0.947541  0.684741  0.093331  1
  H  H12  1  0.020803  0.226019  0.139817  1
  H  H13  1  0.979197  0.773981  0.860183  1
  H  H14  1  0.914563  0.222732  0.104244  1
  H  H15  1  0.085437  0.777268  0.895756  1
  H  H16  1  0.054532  0.112568  0.096995  1
  H  H17  1  0.945468  0.887432  0.903005  1
  H  H18  1  0.093231  0.340735  0.077991  1
  H  H19  1  0.906769  0.659265  0.922009  1
  H  H20  1  0.182859  0.310338  0.991087  1
  H  H21  1  0.817141  0.689662  0.008913  1
  H  H22  1  0.050736  0.430849  0.991008  1
  H  H23  1  0.949264  0.569151  0.008992  1
  H  H24  1  0.752225  0.008974  0.931139  1
  H  H25  1  0.247775  0.991026  0.068861  1
  H  H26  1  0.592471  0.302951  0.011863  1
  H  H27  1  0.407529  0.697049  0.988137  1
  H  H28  1  0.740213  0.224801  0.017997  1
  H  H29  1  0.259787  0.775199  0.982003  1
  H  H30  1  0.696772  0.304716  0.928728  1
  H  H31  1  0.303228  0.695284  0.071272  1
  H  H32  1  0.498815  0.207190  0.019201  1
  H  H33  1  0.501185  0.792810  0.980799  1
  H  H34  1  0.538350  0.144555  0.941529  1
  H  H35  1  0.461651  0.855445  0.058471  1
  H  H36  1  0.573799  0.057048  0.032310  1
  H  H37  1  0.426201  0.942952  0.967690  1
  H  H38  1  0.889397  0.044157  0.750867  1
  H  H39  1  0.110603  0.955843  0.249133  1
  H  H40  1  0.175759  0.926439  0.591937  1
  H  H41  1  0.824241  0.073561  0.408063  1
  H  H42  1  0.113214  0.077024  0.584205  1
  H  H43  1  0.886786  0.922976  0.415795  1
  H  H44  1  0.191750  0.982522  0.658435  1
  H  H45  1  0.808250  0.017478  0.341565  1
  H  H46  1  0.069018  0.844302  0.630595  1
  H  H47  1  0.930982  0.155698  0.369405  1
  H  H48  1  0.003001  0.832085  0.725979  1
  H  H49  1  0.996999  0.167915  0.274021  1
  H  H50  1  0.920906  0.926233  0.652829  1
  H  H51  1  0.079094  0.073767  0.347171  1
  H  H52  1  0.702540  0.445663  0.751357  1
  H  H53  1  0.297460  0.554337  0.248643  1
  H  H54  1  0.738117  0.602290  0.888900  1
  H  H55  1  0.261883  0.397710  0.111100  1
  H  H56  1  0.823859  0.452637  0.902704  1
  H  H57  1  0.176141  0.547363  0.097296  1
  H  H58  1  0.861391  0.549193  0.820833  1
  H  H59  1  0.138609  0.450807  0.179167  1
  H  H60  1  0.586071  0.659727  0.861220  1
  H  H61  1  0.413929  0.340273  0.138780  1
  H  H62  1  0.576848  0.657693  0.771300  1
  H  H63  1  0.423152  0.342307  0.228700  1
  H  H64  1  0.543159  0.559079  0.853509  1
  H  H65  1  0.456841  0.440921  0.146491  1
  H  H66  1  0.259854  0.189814  0.583423  1
  H  H67  1  0.740146  0.810186  0.416577  1
  H  H68  1  0.331733  0.270048  0.350121  1
  H  H69  1  0.668267  0.729952  0.649879  1
  H  H70  1  0.201695  0.254515  0.388285  1
  H  H71  1  0.798305  0.745485  0.611715  1
  H  H72  1  0.211579  0.381347  0.388954  1
  H  H73  1  0.788421  0.618653  0.611046  1
  H  H74  1  0.461296  0.169471  0.409296  1
  H  H75  1  0.538704  0.830529  0.590704  1
  H  H76  1  0.451321  0.196111  0.496967  1
  H  H77  1  0.548679  0.803889  0.503033  1
  H  H78  1  0.434996  0.074265  0.494022  1
  H  H79  1  0.565004  0.925735  0.505978  1
  H  H80  1  0.683943  0.505553  0.589507  1
  H  H81  1  0.316057  0.494447  0.410493  1
  H  H82  1  0.834670  0.241838  0.479958  1
  H  H83  1  0.165330  0.758162  0.520042  1
  H  H84  1  0.914034  0.325804  0.460707  1
  H  H85  1  0.085966  0.674196  0.539293  1
  H  H86  1  0.908957  0.225143  0.549215  1
  H  H87  1  0.091043  0.774857  0.450785  1
  H  H88  1  0.657278  0.326484  0.501253  1
  H  H89  1  0.342722  0.673516  0.498747  1
  H  H90  1  0.596824  0.373211  0.586961  1
  H  H91  1  0.403176  0.626789  0.413039  1
  H  H92  1  0.600516  0.474278  0.497936  1
  H  H93  1  0.399484  0.525722  0.502064  1
  C  C94  1  0.024683  0.261265  0.959091  1
  C  C95  1  0.975317  0.738735  0.040909  1
  C  C96  1  0.004916  0.204039  0.095129  1
  C  C97  1  0.995084  0.795961  0.904871  1
  C  C98  1  0.094529  0.342360  0.019992  1
  C  C99  1  0.905471  0.657640  0.980008  1
  C  C100  1  0.764685  0.078373  0.940184  1
  C  C101  1  0.235315  0.921627  0.059816  1
  C  C102  1  0.675714  0.252198  0.983708  1
  C  C103  1  0.324286  0.747802  0.016292  1
  C  C104  1  0.565033  0.138865  0.992358  1
  C  C105  1  0.434968  0.861135  0.007642  1
  C  C106  1  0.965620  0.057048  0.715701  1
  C  C107  1  0.034380  0.942952  0.284299  1
  C  C108  1  0.133908  0.993314  0.623797  1
  C  C109  1  0.866092  0.006686  0.376203  1
  C  C110  1  0.002766  0.892061  0.670896  1
  C  C111  1  0.997234  0.107939  0.329104  1
  C  C112  1  0.763054  0.444305  0.780340  1
  C  C113  1  0.236946  0.555695  0.219660  1
  C  C114  1  0.790651  0.531922  0.860427  1
  C  C115  1  0.209349  0.468077  0.139573  1
  C  C116  1  0.599272  0.603695  0.826291  1
  C  C117  1  0.400728  0.396305  0.173709  1
  C  C118  1  0.222180  0.240456  0.531770  1
  C  C119  1  0.777820  0.759544  0.468230  1
  C  C120  1  0.257008  0.288623  0.394530  1
  C  C121  1  0.742992  0.711377  0.605470  1
  C  C122  1  0.417475  0.164141  0.467814  1
  C  C123  1  0.582525  0.835859  0.532186  1
  C  C124  1  0.766703  0.441104  0.568815  1
  C  C125  1  0.233297  0.558896  0.431185  1
  C  C126  1  0.860740  0.286561  0.504334  1
  C  C127  1  0.139260  0.713439  0.495666  1
  C  C128  1  0.646212  0.388725  0.530443  1
  C  C129  1  0.353788  0.611275  0.469557  1
  I  I130  1  0.697660  0.041723  0.586607  1
  I  I131  1  0.302340  0.958277  0.413393  1
  I  I132  1  0.687027  0.892136  0.826598  1
  I  I133  1  0.312973  0.107864  0.173402  1
  I  I134  1  0.400737  0.968509  0.721248  1
  I  I135  1  0.599263  0.031491  0.278752  1
  I  I136  1  0.620121  0.259798  0.754870  1
  I  I137  1  0.379879  0.740202  0.245130  1
  I  I138  1  0.363901  0.333552  0.632318  1
  I  I139  1  0.636099  0.666448  0.367682  1
  I  I140  1  0.335899  0.180553  0.867140  1
  I  I141  1  0.664101  0.819447  0.132860  1
  I  I142  1  0.400181  0.625787  0.674502  1
  I  I143  1  0.599819  0.374213  0.325498  1
  I  I144  1  0.334848  0.485775  0.913891  1
  I  I145  1  0.665152  0.514225  0.086109  1
  I  I146  1  0.098406  0.542843  0.774506  1
  I  I147  1  0.901594  0.457157  0.225494  1
  N  N148  1  0.671092  0.153459  0.972637  1
  N  N149  1  0.328908  0.846541  0.027363  1
  N  N150  1  0.038099  0.271991  0.022780  1
  N  N151  1  0.961901  0.728009  0.977220  1
  N  N152  1  0.030956  0.983166  0.671512  1
  N  N153  1  0.969044  0.016834  0.328488  1
  N  N154  1  0.718851  0.524486  0.820204  1
  N  N155  1  0.281149  0.475514  0.179796  1
  N  N156  1  0.296390  0.232121  0.467075  1
  N  N157  1  0.703610  0.767879  0.532925  1
  N  N158  1  0.758079  0.374269  0.535310  1
  N  N159  1  0.241921  0.625731  0.464690  1
  O  O160  1  0.859102  0.083816  0.920370  1
  O  O161  1  0.140898  0.916184  0.079630  1
  O  O162  1  0.984049  0.196556  0.957605  1
  O  O163  1  0.015951  0.803444  0.042395  1
  O  O164  1  0.987227  0.135715  0.717959  1
  O  O165  1  0.012774  0.864285  0.282041  1
  O  O166  1  0.863622  0.372634  0.775860  1
  O  O167  1  0.136378  0.627366  0.224140  1
  O  O168  1  0.117663  0.299376  0.535421  1
  O  O169  1  0.882337  0.700624  0.464579  1
  O  O170  1  0.858459  0.433469  0.577180  1
  O  O171  1  0.141541  0.566531  0.422820  1
  O  O172  1  0.137695  0.998910  0.878999  1
  O  O173  1  0.862305  0.001090  0.121001  1
  O  O174  1  0.128730  0.234051  0.750168  1
  O  O175  1  0.871270  0.765949  0.249832  1
  O  O176  1  0.046284  0.483548  0.622013  1
  O  O177  1  0.953716  0.516452  0.377987  1
