# generated using pymatgen
data_Ba(LaI4)2
_symmetry_space_group_name_H-M   'P 1'
_cell_length_a   8.86451765
_cell_length_b   8.86451765
_cell_length_c   6.38226275
_cell_angle_alpha   82.12341457
_cell_angle_beta   97.87658543
_cell_angle_gamma   69.00427863
_symmetry_Int_Tables_number   1
_chemical_formula_structural   Ba(LaI4)2
_chemical_formula_sum   'Ba1 La2 I8'
_cell_volume   454.30966170
_cell_formula_units_Z   1
loop_
 _symmetry_equiv_pos_site_id
 _symmetry_equiv_pos_as_xyz
  1  'x, y, z'
loop_
 _atom_site_type_symbol
 _atom_site_label
 _atom_site_symmetry_multiplicity
 _atom_site_fract_x
 _atom_site_fract_y
 _atom_site_fract_z
 _atom_site_occupancy
  Ba  Ba0  1  0.000000  0.000000  0.000000  1
  La  La1  1  0.681387  0.681387  0.500000  1
  La  La2  1  0.318613  0.318613  0.500000  1
  I  I3  1  0.060182  0.676438  0.578050  1
  I  I4  1  0.323562  0.939818  0.578050  1
  I  I5  1  0.381263  0.618737  0.195152  1
  I  I6  1  0.245512  0.245512  0.000000  1
  I  I7  1  0.754488  0.754488  0.000000  1
  I  I8  1  0.618737  0.381263  0.804848  1
  I  I9  1  0.676438  0.060182  0.421950  1
  I  I10  1  0.939818  0.323562  0.421950  1
