# generated using pymatgen
data_MnV4CoO12
_symmetry_space_group_name_H-M   'P 1'
_cell_length_a   6.83820269
_cell_length_b   6.83820212
_cell_length_c   5.88451850
_cell_angle_alpha   74.81025638
_cell_angle_beta   105.18974555
_cell_angle_gamma   95.87453613
_symmetry_Int_Tables_number   1
_chemical_formula_structural   MnV4CoO12
_chemical_formula_sum   'Mn1 V4 Co1 O12'
_cell_volume   256.10736937
_cell_formula_units_Z   1
loop_
 _symmetry_equiv_pos_site_id
 _symmetry_equiv_pos_as_xyz
  1  'x, y, z'
loop_
 _atom_site_type_symbol
 _atom_site_label
 _atom_site_symmetry_multiplicity
 _atom_site_fract_x
 _atom_site_fract_y
 _atom_site_fract_z
 _atom_site_occupancy
  Mn  Mn0  1  0.914776  0.914776  0.250000  1
  V  V1  1  0.205860  0.609391  0.766780  1
  V  V2  1  0.387861  0.793768  0.263121  1
  V  V3  1  0.609391  0.205860  0.733220  1
  V  V4  1  0.793768  0.387861  0.236879  1
  Co  Co5  1  0.088395  0.088395  0.750000  1
  O  O6  1  0.036769  0.801777  0.652267  1
  O  O7  1  0.090870  0.377663  0.792396  1
  O  O8  1  0.199374  0.964671  0.138669  1
  O  O9  1  0.360016  0.643330  0.554969  1
  O  O10  1  0.377663  0.090870  0.707604  1
  O  O11  1  0.360937  0.635351  0.056065  1
  O  O12  1  0.643330  0.360016  0.945031  1
  O  O13  1  0.616916  0.912276  0.292653  1
  O  O14  1  0.635351  0.360937  0.443935  1
  O  O15  1  0.801777  0.036769  0.847733  1
  O  O16  1  0.912276  0.616916  0.207347  1
  O  O17  1  0.964671  0.199374  0.361331  1
