# generated using pymatgen
data_LiMn5(CuO6)2
_symmetry_space_group_name_H-M   'P 1'
_cell_length_a   5.10285115
_cell_length_b   5.10285088
_cell_length_c   9.64478343
_cell_angle_alpha   86.19888361
_cell_angle_beta   93.80111995
_cell_angle_gamma   63.72130112
_symmetry_Int_Tables_number   1
_chemical_formula_structural   LiMn5(CuO6)2
_chemical_formula_sum   'Li1 Mn5 Cu2 O12'
_cell_volume   223.40320815
_cell_formula_units_Z   1
loop_
 _symmetry_equiv_pos_site_id
 _symmetry_equiv_pos_as_xyz
  1  'x, y, z'
loop_
 _atom_site_type_symbol
 _atom_site_label
 _atom_site_symmetry_multiplicity
 _atom_site_fract_x
 _atom_site_fract_y
 _atom_site_fract_z
 _atom_site_occupancy
  Li  Li0  1  0.925287  0.925287  0.750000  1
  Mn  Mn1  1  0.077284  0.077284  0.250000  1
  Mn  Mn2  1  0.414927  0.414927  0.250000  1
  Mn  Mn3  1  0.586359  0.586359  0.750000  1
  Mn  Mn4  1  0.510570  0.995440  0.508131  1
  Mn  Mn5  1  0.995440  0.510570  0.991869  1
  Cu  Cu6  1  0.256331  0.256331  0.750000  1
  Cu  Cu7  1  0.745200  0.745200  0.250000  1
  O  O8  1  0.179211  0.309273  0.373778  1
  O  O9  1  0.064973  0.748958  0.148105  1
  O  O10  1  0.309273  0.179211  0.126222  1
  O  O11  1  0.289182  0.532055  0.852899  1
  O  O12  1  0.264239  0.950554  0.650361  1
  O  O13  1  0.532055  0.289182  0.647101  1
  O  O14  1  0.424752  0.740107  0.349532  1
  O  O15  1  0.748958  0.064973  0.351895  1
  O  O16  1  0.740107  0.424752  0.150468  1
  O  O17  1  0.675644  0.806346  0.881275  1
  O  O18  1  0.950554  0.264239  0.849639  1
  O  O19  1  0.806346  0.675644  0.618725  1
