# generated using pymatgen
data_Li8Mn5Fe3(BO3)8
_symmetry_space_group_name_H-M   'P 1'
_cell_length_a   6.04324856
_cell_length_b   5.24591994
_cell_length_c   16.21761190
_cell_angle_alpha   90.75411222
_cell_angle_beta   98.22910071
_cell_angle_gamma   89.01084655
_symmetry_Int_Tables_number   1
_chemical_formula_structural   Li8Mn5Fe3(BO3)8
_chemical_formula_sum   'Li8 Mn5 Fe3 B8 O24'
_cell_volume   508.73794040
_cell_formula_units_Z   1
loop_
 _symmetry_equiv_pos_site_id
 _symmetry_equiv_pos_as_xyz
  1  'x, y, z'
loop_
 _atom_site_type_symbol
 _atom_site_label
 _atom_site_symmetry_multiplicity
 _atom_site_fract_x
 _atom_site_fract_y
 _atom_site_fract_z
 _atom_site_occupancy
  Li  Li0  1  0.066484  0.848409  0.610051  1
  Li  Li1  1  0.433937  0.150514  0.889014  1
  Li  Li2  1  0.188139  0.651458  0.141653  1
  Li  Li3  1  0.312866  0.349174  0.359241  1
  Li  Li4  1  0.685927  0.648860  0.641392  1
  Li  Li5  1  0.812164  0.350423  0.858284  1
  Li  Li6  1  0.564564  0.846859  0.110144  1
  Li  Li7  1  0.934179  0.151344  0.390921  1
  Mn  Mn8  1  0.270063  0.669319  0.958913  1
  Mn  Mn9  1  0.023071  0.166802  0.210112  1
  Mn  Mn10  1  0.227854  0.330615  0.540861  1
  Mn  Mn11  1  0.771852  0.668512  0.458728  1
  Mn  Mn12  1  0.725547  0.332110  0.039441  1
  Fe  Fe13  1  0.529029  0.168892  0.711819  1
  Fe  Fe14  1  0.474682  0.838472  0.290359  1
  Fe  Fe15  1  0.967983  0.835454  0.787944  1
  B  B16  1  0.039610  0.329211  0.704101  1
  B  B17  1  0.285402  0.830432  0.451209  1
  B  B18  1  0.461508  0.671615  0.795860  1
  B  B19  1  0.215376  0.169791  0.047823  1
  B  B20  1  0.784550  0.831674  0.950990  1
  B  B21  1  0.538056  0.329248  0.203703  1
  B  B22  1  0.715414  0.167717  0.548930  1
  B  B23  1  0.962875  0.670368  0.297252  1
  O  O24  1  0.014663  0.589563  0.692649  1
  O  O25  1  0.172375  0.183602  0.656697  1
  O  O26  1  0.171823  0.711381  0.508592  1
  O  O27  1  0.331100  0.287787  0.990709  1
  O  O28  1  0.081035  0.786850  0.240906  1
  O  O29  1  0.327390  0.815301  0.843119  1
  O  O30  1  0.082003  0.319053  0.094553  1
  O  O31  1  0.263480  0.090602  0.438958  1
  O  O32  1  0.485828  0.409409  0.806947  1
  O  O33  1  0.237339  0.909879  0.061097  1
  O  O34  1  0.417351  0.682646  0.403261  1
  O  O35  1  0.424745  0.206356  0.260689  1
  O  O36  1  0.580357  0.792264  0.740340  1
  O  O37  1  0.582849  0.313557  0.596887  1
  O  O38  1  0.762416  0.091866  0.938050  1
  O  O39  1  0.513904  0.589076  0.192533  1
  O  O40  1  0.738014  0.907251  0.561208  1
  O  O41  1  0.916204  0.683872  0.903244  1
  O  O42  1  0.668754  0.182314  0.155372  1
  O  O43  1  0.923642  0.207685  0.760717  1
  O  O44  1  0.670855  0.713751  0.008522  1
  O  O45  1  0.829158  0.288271  0.491937  1
  O  O46  1  0.827967  0.819913  0.343271  1
  O  O47  1  0.985612  0.410481  0.310996  1
