# generated using pymatgen
data_SbHC3(NCl3)3
_symmetry_space_group_name_H-M   'P 1'
_cell_length_a   13.39952145
_cell_length_b   9.91312455
_cell_length_c   13.56416717
_cell_angle_alpha   90.00000000
_cell_angle_beta   116.76405704
_cell_angle_gamma   90.00000000
_symmetry_Int_Tables_number   1
_chemical_formula_structural   SbHC3(NCl3)3
_chemical_formula_sum   'Sb4 H4 C12 N12 Cl36'
_cell_volume   1608.72007217
_cell_formula_units_Z   4
loop_
 _symmetry_equiv_pos_site_id
 _symmetry_equiv_pos_as_xyz
  1  'x, y, z'
loop_
 _atom_site_type_symbol
 _atom_site_label
 _atom_site_symmetry_multiplicity
 _atom_site_fract_x
 _atom_site_fract_y
 _atom_site_fract_z
 _atom_site_occupancy
  Sb  Sb0  1  0.207373  0.622025  0.451971  1
  Sb  Sb1  1  0.707373  0.877975  0.951971  1
  Sb  Sb2  1  0.792627  0.377975  0.548029  1
  Sb  Sb3  1  0.292627  0.122025  0.048029  1
  H  H4  1  0.270197  0.692937  0.206384  1
  H  H5  1  0.770197  0.807063  0.706384  1
  H  H6  1  0.729803  0.307063  0.793616  1
  H  H7  1  0.229803  0.192937  0.293616  1
  C  C8  1  0.277880  0.594587  0.949286  1
  C  C9  1  0.777880  0.905413  0.449286  1
  C  C10  1  0.722120  0.405413  0.050714  1
  C  C11  1  0.222120  0.094587  0.550714  1
  C  C12  1  0.371073  0.630076  0.132411  1
  C  C13  1  0.871073  0.869924  0.632411  1
  C  C14  1  0.628927  0.369924  0.867589  1
  C  C15  1  0.128927  0.130076  0.367589  1
  C  C16  1  0.175938  0.646298  0.038326  1
  C  C17  1  0.675938  0.853702  0.538326  1
  C  C18  1  0.824062  0.353702  0.961674  1
  C  C19  1  0.324062  0.146298  0.461674  1
  N  N20  1  0.375583  0.596766  0.040761  1
  N  N21  1  0.875583  0.903234  0.540761  1
  N  N22  1  0.624417  0.403234  0.959239  1
  N  N23  1  0.124417  0.096766  0.459239  1
  N  N24  1  0.272342  0.661596  0.134243  1
  N  N25  1  0.772342  0.838404  0.634243  1
  N  N26  1  0.727658  0.338404  0.865757  1
  N  N27  1  0.227658  0.161596  0.365757  1
  N  N28  1  0.176395  0.612666  0.944873  1
  N  N29  1  0.676395  0.887334  0.444873  1
  N  N30  1  0.823605  0.387334  0.055127  1
  N  N31  1  0.323605  0.112666  0.555127  1
  Cl  Cl32  1  0.222439  0.803695  0.333572  1
  Cl  Cl33  1  0.722439  0.696305  0.833572  1
  Cl  Cl34  1  0.777561  0.196305  0.666428  1
  Cl  Cl35  1  0.277561  0.303695  0.166428  1
  Cl  Cl36  1  0.202402  0.438935  0.567086  1
  Cl  Cl37  1  0.702402  0.061065  0.067086  1
  Cl  Cl38  1  0.797598  0.561065  0.432914  1
  Cl  Cl39  1  0.297598  0.938935  0.932914  1
  Cl  Cl40  1  0.348331  0.735154  0.611298  1
  Cl  Cl41  1  0.848331  0.764846  0.111298  1
  Cl  Cl42  1  0.651669  0.264846  0.388702  1
  Cl  Cl43  1  0.151669  0.235154  0.888702  1
  Cl  Cl44  1  0.353198  0.506584  0.426537  1
  Cl  Cl45  1  0.853198  0.993416  0.926537  1
  Cl  Cl46  1  0.646802  0.493416  0.573463  1
  Cl  Cl47  1  0.146802  0.006584  0.073463  1
  Cl  Cl48  1  0.069595  0.508365  0.291725  1
  Cl  Cl49  1  0.569595  0.991635  0.791725  1
  Cl  Cl50  1  0.930405  0.491635  0.708275  1
  Cl  Cl51  1  0.430405  0.008365  0.208275  1
  Cl  Cl52  1  0.065241  0.745449  0.471721  1
  Cl  Cl53  1  0.565241  0.754551  0.971721  1
  Cl  Cl54  1  0.934759  0.254551  0.528279  1
  Cl  Cl55  1  0.434759  0.245449  0.028279  1
  Cl  Cl56  1  0.488418  0.633340  0.252642  1
  Cl  Cl57  1  0.988418  0.866660  0.752642  1
  Cl  Cl58  1  0.511582  0.366661  0.747358  1
  Cl  Cl59  1  0.011582  0.133339  0.247358  1
  Cl  Cl60  1  0.281909  0.567326  0.828808  1
  Cl  Cl61  1  0.781909  0.932674  0.328808  1
  Cl  Cl62  1  0.718091  0.432674  0.171192  1
  Cl  Cl63  1  0.218091  0.067326  0.671192  1
  Cl  Cl64  1  0.053991  0.671712  0.042781  1
  Cl  Cl65  1  0.553991  0.828288  0.542781  1
  Cl  Cl66  1  0.946009  0.328288  0.957219  1
  Cl  Cl67  1  0.446009  0.171712  0.457219  1
