# generated using pymatgen
data_Li8Mn5Fe3(BO3)8
_symmetry_space_group_name_H-M   'P 1'
_cell_length_a   5.24084283
_cell_length_b   5.24244173
_cell_length_c   20.93569446
_cell_angle_alpha   89.24662955
_cell_angle_beta   90.97066092
_cell_angle_gamma   60.14228369
_symmetry_Int_Tables_number   1
_chemical_formula_structural   Li8Mn5Fe3(BO3)8
_chemical_formula_sum   'Li8 Mn5 Fe3 B8 O24'
_cell_volume   498.62810469
_cell_formula_units_Z   1
loop_
 _symmetry_equiv_pos_site_id
 _symmetry_equiv_pos_as_xyz
  1  'x, y, z'
loop_
 _atom_site_type_symbol
 _atom_site_label
 _atom_site_symmetry_multiplicity
 _atom_site_fract_x
 _atom_site_fract_y
 _atom_site_fract_z
 _atom_site_occupancy
  Li  Li0  1  0.321341  0.651997  0.666363  1
  Li  Li1  1  0.346526  0.678222  0.915528  1
  Li  Li2  1  0.320835  0.651383  0.165929  1
  Li  Li3  1  0.349107  0.678832  0.416184  1
  Li  Li4  1  0.651165  0.337790  0.791627  1
  Li  Li5  1  0.662092  0.348796  0.541509  1
  Li  Li6  1  0.651662  0.338149  0.291209  1
  Li  Li7  1  0.661804  0.346916  0.041392  1
  Mn  Mn8  1  0.325914  0.005882  0.559345  1
  Mn  Mn9  1  0.330880  0.003377  0.057596  1
  Mn  Mn10  1  0.676653  0.003224  0.433844  1
  Mn  Mn11  1  0.996710  0.322966  0.183420  1
  Mn  Mn12  1  0.996994  0.671023  0.308586  1
  Fe  Fe13  1  0.683859  0.002157  0.933030  1
  Fe  Fe14  1  0.995834  0.320862  0.684655  1
  Fe  Fe15  1  0.992691  0.666436  0.808712  1
  B  B16  1  0.003953  0.338444  0.936275  1
  B  B17  1  0.003059  0.341318  0.437104  1
  B  B18  1  0.334100  0.004748  0.812024  1
  B  B19  1  0.334450  0.004791  0.312044  1
  B  B20  1  0.662296  0.996431  0.687526  1
  B  B21  1  0.658628  0.997171  0.186939  1
  B  B22  1  0.994090  0.665821  0.562878  1
  B  B23  1  0.995668  0.665759  0.061416  1
  O  O24  1  0.071129  0.256154  0.792172  1
  O  O25  1  0.069465  0.247119  0.290942  1
  O  O26  1  0.259477  0.070802  0.950373  1
  O  O27  1  0.022979  0.584132  0.917305  1
  O  O28  1  0.253256  0.069594  0.452267  1
  O  O29  1  0.033926  0.578619  0.416517  1
  O  O30  1  0.583405  0.029473  0.826757  1
  O  O31  1  0.268979  0.641139  0.569831  1
  O  O32  1  0.577494  0.038677  0.327324  1
  O  O33  1  0.270097  0.641005  0.068830  1
  O  O34  1  0.346977  0.736400  0.818575  1
  O  O35  1  0.359787  0.730510  0.319344  1
  O  O36  1  0.641130  0.270754  0.694154  1
  O  O37  1  0.628434  0.272937  0.194038  1
  O  O38  1  0.729580  0.359810  0.942855  1
  O  O39  1  0.414992  0.978964  0.668428  1
  O  O40  1  0.727228  0.371558  0.444393  1
  O  O41  1  0.421079  0.966120  0.166263  1
  O  O42  1  0.961123  0.423182  0.578544  1
  O  O43  1  0.962171  0.422708  0.076772  1
  O  O44  1  0.751433  0.930072  0.541482  1
  O  O45  1  0.753561  0.929946  0.040171  1
  O  O46  1  0.930269  0.742269  0.701719  1
  O  O47  1  0.930524  0.746761  0.202008  1
