# generated using pymatgen
data_Li3MnFeCo(PO4)3
_symmetry_space_group_name_H-M   'P 1'
_cell_length_a   10.47933952
_cell_length_b   6.08136858
_cell_length_c   14.33390587
_cell_angle_alpha   90.00000000
_cell_angle_beta   89.60521339
_cell_angle_gamma   90.00000000
_symmetry_Int_Tables_number   1
_chemical_formula_structural   Li3MnFeCo(PO4)3
_chemical_formula_sum   'Li12 Mn4 Fe4 Co4 P12 O48'
_cell_volume   913.45987657
_cell_formula_units_Z   4
loop_
 _symmetry_equiv_pos_site_id
 _symmetry_equiv_pos_as_xyz
  1  'x, y, z'
loop_
 _atom_site_type_symbol
 _atom_site_label
 _atom_site_symmetry_multiplicity
 _atom_site_fract_x
 _atom_site_fract_y
 _atom_site_fract_z
 _atom_site_occupancy
  Li  Li0  1  -0.000732  0.499795  0.665328  1
  Li  Li1  1  0.996193  0.997727  0.000997  1
  Li  Li2  1  0.996193  0.502273  0.000997  1
  Li  Li3  1  0.998183  0.001047  0.333434  1
  Li  Li4  1  0.998183  0.498953  0.333434  1
  Li  Li5  1  -0.000732  0.000205  0.665328  1
  Li  Li6  1  0.501974  -0.000087  0.500142  1
  Li  Li7  1  0.501974  0.500087  0.500142  1
  Li  Li8  1  0.502049  0.999396  0.166365  1
  Li  Li9  1  0.502049  0.500604  0.166365  1
  Li  Li10  1  0.501746  0.999351  0.833241  1
  Li  Li11  1  0.501746  0.500649  0.833241  1
  Mn  Mn12  1  0.217990  0.750000  0.161504  1
  Mn  Mn13  1  0.218166  0.750000  0.827357  1
  Mn  Mn14  1  0.281699  0.250000  0.994809  1
  Mn  Mn15  1  0.283939  0.250000  0.330139  1
  Fe  Fe16  1  0.217784  0.750000  0.495580  1
  Fe  Fe17  1  0.280014  0.250000  0.661607  1
  Fe  Fe18  1  0.720822  0.750000  0.006412  1
  Fe  Fe19  1  0.719456  0.750000  0.338798  1
  Co  Co20  1  0.717662  0.750000  0.670045  1
  Co  Co21  1  0.782260  0.250000  0.838347  1
  Co  Co22  1  0.779769  0.250000  0.505224  1
  Co  Co23  1  0.778333  0.250000  0.169819  1
  P  P24  1  0.092926  0.250000  0.805306  1
  P  P25  1  0.090156  0.250000  0.139294  1
  P  P26  1  0.093271  0.250000  0.474326  1
  P  P27  1  0.406368  0.750000  0.306033  1
  P  P28  1  0.405210  0.750000  0.638591  1
  P  P29  1  0.407105  0.750000  0.972053  1
  P  P30  1  0.599281  0.250000  0.360551  1
  P  P31  1  0.598491  0.250000  0.028215  1
  P  P32  1  0.598405  0.250000  0.693479  1
  P  P33  1  0.902235  0.750000  0.860001  1
  P  P34  1  0.902645  0.750000  0.194418  1
  P  P35  1  0.902503  0.750000  0.526673  1
  O  O36  1  0.040189  0.750000  0.235092  1
  O  O37  1  0.040188  0.750000  0.567076  1
  O  O38  1  0.039316  0.750000  0.901367  1
  O  O39  1  0.096996  0.250000  0.581261  1
  O  O40  1  0.097810  0.250000  0.912267  1
  O  O41  1  0.095699  0.250000  0.246709  1
  O  O42  1  0.160017  0.047740  0.093894  1
  O  O43  1  0.160017  0.452260  0.093894  1
  O  O44  1  0.163666  0.046562  0.429774  1
  O  O45  1  0.163666  0.453438  0.429774  1
  O  O46  1  0.163671  0.049178  0.759060  1
  O  O47  1  0.163671  0.450822  0.759060  1
  O  O48  1  0.336029  0.546520  0.593796  1
  O  O49  1  0.336029  0.953480  0.593796  1
  O  O50  1  0.337907  0.546969  0.261040  1
  O  O51  1  0.337907  0.953031  0.261040  1
  O  O52  1  0.337419  0.547404  0.927365  1
  O  O53  1  0.337419  0.952596  0.927365  1
  O  O54  1  0.400548  0.750000  0.413805  1
  O  O55  1  0.401634  0.750000  0.079465  1
  O  O56  1  0.400261  0.750000  0.745620  1
  O  O57  1  0.462372  0.250000  0.402395  1
  O  O58  1  0.460584  0.250000  0.069262  1
  O  O59  1  0.459865  0.250000  0.733355  1
  O  O60  1  0.545003  0.750000  0.266088  1
  O  O61  1  0.545001  0.750000  0.931845  1
  O  O62  1  0.544044  0.750000  0.598173  1
  O  O63  1  0.603802  0.250000  0.253250  1
  O  O64  1  0.603623  0.250000  0.920695  1
  O  O65  1  0.603025  0.250000  0.585857  1
  O  O66  1  0.667987  0.047001  0.073718  1
  O  O67  1  0.668907  0.046529  0.405921  1
  O  O68  1  0.667985  0.046147  0.738495  1
  O  O69  1  0.667985  0.453853  0.738495  1
  O  O70  1  0.667987  0.452999  0.073718  1
  O  O71  1  0.668907  0.453471  0.405921  1
  O  O72  1  0.832011  0.546669  0.905592  1
  O  O73  1  0.832011  0.953331  0.905592  1
  O  O74  1  0.833643  0.545487  0.239224  1
  O  O75  1  0.832140  0.546928  0.572376  1
  O  O76  1  0.833643  0.954513  0.239224  1
  O  O77  1  0.832140  0.953072  0.572376  1
  O  O78  1  0.899254  0.750000  0.752703  1
  O  O79  1  0.900304  0.750000  0.419613  1
  O  O80  1  0.900799  0.750000  0.086935  1
  O  O81  1  0.954628  0.250000  0.765983  1
  O  O82  1  0.951787  0.250000  0.098977  1
  O  O83  1  0.955185  0.250000  0.434091  1
