# generated using pymatgen
data_VH12N3O5F2
_symmetry_space_group_name_H-M   'P 1'
_cell_length_a   6.93494182
_cell_length_b   8.43386592
_cell_length_c   13.40300545
_cell_angle_alpha   90.00000000
_cell_angle_beta   90.00000000
_cell_angle_gamma   90.00000000
_symmetry_Int_Tables_number   1
_chemical_formula_structural   VH12N3O5F2
_chemical_formula_sum   'V4 H48 N12 O20 F8'
_cell_volume   783.91993481
_cell_formula_units_Z   4
loop_
 _symmetry_equiv_pos_site_id
 _symmetry_equiv_pos_as_xyz
  1  'x, y, z'
loop_
 _atom_site_type_symbol
 _atom_site_label
 _atom_site_symmetry_multiplicity
 _atom_site_fract_x
 _atom_site_fract_y
 _atom_site_fract_z
 _atom_site_occupancy
  V  V0  1  0.834628  0.503074  0.399736  1
  V  V1  1  0.665372  0.496926  0.899736  1
  V  V2  1  0.334628  0.996926  0.600264  1
  V  V3  1  0.165372  0.003074  0.100264  1
  H  H4  1  0.809875  0.782218  0.173507  1
  H  H5  1  0.690125  0.217782  0.673507  1
  H  H6  1  0.309875  0.717782  0.826493  1
  H  H7  1  0.190125  0.282218  0.326493  1
  H  H8  1  0.643422  0.643395  0.210999  1
  H  H9  1  0.856578  0.356605  0.710999  1
  H  H10  1  0.143422  0.856605  0.789001  1
  H  H11  1  0.356578  0.143395  0.289001  1
  H  H12  1  0.650970  0.704511  0.090829  1
  H  H13  1  0.849030  0.295489  0.590829  1
  H  H14  1  0.150970  0.795489  0.909171  1
  H  H15  1  0.349030  0.204511  0.409171  1
  H  H16  1  0.569660  0.831643  0.180016  1
  H  H17  1  0.930340  0.168357  0.680016  1
  H  H18  1  0.069660  0.668357  0.819984  1
  H  H19  1  0.430340  0.331643  0.319984  1
  H  H20  1  0.998106  0.077063  0.463371  1
  H  H21  1  0.501894  0.922937  0.963371  1
  H  H22  1  0.498106  0.422937  0.536629  1
  H  H23  1  0.001894  0.577063  0.036629  1
  H  H24  1  0.931188  0.051409  0.342180  1
  H  H25  1  0.568812  0.948591  0.842180  1
  H  H26  1  0.431188  0.448591  0.657820  1
  H  H27  1  0.068812  0.551409  0.157820  1
  H  H28  1  0.840717  0.928732  0.428487  1
  H  H29  1  0.659283  0.071268  0.928487  1
  H  H30  1  0.340717  0.571268  0.571513  1
  H  H31  1  0.159283  0.428732  0.071513  1
  H  H32  1  0.773034  0.123686  0.429085  1
  H  H33  1  0.726966  0.876314  0.929085  1
  H  H34  1  0.273034  0.376314  0.570915  1
  H  H35  1  0.226966  0.623686  0.070915  1
  H  H36  1  0.760261  0.298684  0.076860  1
  H  H37  1  0.739739  0.701316  0.576860  1
  H  H38  1  0.260261  0.201316  0.923140  1
  H  H39  1  0.239739  0.798684  0.423140  1
  H  H40  1  0.669803  0.328920  0.195159  1
  H  H41  1  0.830197  0.671080  0.695159  1
  H  H42  1  0.169803  0.171080  0.804841  1
  H  H43  1  0.330197  0.828920  0.304841  1
  H  H44  1  0.565134  0.196018  0.114008  1
  H  H45  1  0.934866  0.803982  0.614008  1
  H  H46  1  0.065134  0.303982  0.885992  1
  H  H47  1  0.434866  0.696018  0.385992  1
  H  H48  1  0.785716  0.157365  0.164937  1
  H  H49  1  0.714284  0.842635  0.664937  1
  H  H50  1  0.285716  0.342635  0.835063  1
  H  H51  1  0.214284  0.657365  0.335063  1
  N  N52  1  0.668138  0.740557  0.163679  1
  N  N53  1  0.831862  0.259443  0.663679  1
  N  N54  1  0.168138  0.759443  0.836321  1
  N  N55  1  0.331862  0.240557  0.336321  1
  N  N56  1  0.885349  0.045020  0.416365  1
  N  N57  1  0.614651  0.954980  0.916365  1
  N  N58  1  0.385349  0.454980  0.583635  1
  N  N59  1  0.114651  0.545020  0.083635  1
  N  N60  1  0.694971  0.245250  0.138974  1
  N  N61  1  0.805029  0.754750  0.638974  1
  N  N62  1  0.194970  0.254750  0.861026  1
  N  N63  1  0.305030  0.745250  0.361026  1
  O  O64  1  0.993822  0.522884  0.283147  1
  O  O65  1  0.506178  0.477116  0.783147  1
  O  O66  1  0.493822  0.977116  0.716853  1
  O  O67  1  0.006178  0.022884  0.216853  1
  O  O68  1  0.773513  0.723179  0.390221  1
  O  O69  1  0.726487  0.276821  0.890221  1
  O  O70  1  0.273513  0.776821  0.609779  1
  O  O71  1  0.226487  0.223179  0.109779  1
  O  O72  1  0.641476  0.643412  0.458803  1
  O  O73  1  0.858524  0.356588  0.958803  1
  O  O74  1  0.141476  0.856588  0.541197  1
  O  O75  1  0.358524  0.143412  0.041197  1
  O  O76  1  0.996296  0.503042  0.488998  1
  O  O77  1  0.503704  0.496958  0.988998  1
  O  O78  1  0.496296  0.996958  0.511002  1
  O  O79  1  0.003704  0.003042  0.011002  1
  O  O80  1  0.954241  0.355934  0.306643  1
  O  O81  1  0.545759  0.644066  0.806643  1
  O  O82  1  0.454241  0.144066  0.693357  1
  O  O83  1  0.045759  0.855934  0.193357  1
  F  F84  1  0.681799  0.327986  0.458567  1
  F  F85  1  0.818201  0.672014  0.958567  1
  F  F86  1  0.181799  0.172014  0.541433  1
  F  F87  1  0.318201  0.827986  0.041433  1
  F  F88  1  0.587212  0.476354  0.280541  1
  F  F89  1  0.912788  0.523646  0.780541  1
  F  F90  1  0.087212  0.023646  0.719459  1
  F  F91  1  0.412788  0.976354  0.219459  1
