# generated using pymatgen
data_Na5Ni9O16
_symmetry_space_group_name_H-M   'P 1'
_cell_length_a   5.47303111
_cell_length_b   11.59234534
_cell_length_c   5.17342319
_cell_angle_alpha   90.00000015
_cell_angle_beta   70.94197710
_cell_angle_gamma   89.99999668
_symmetry_Int_Tables_number   1
_chemical_formula_structural   Na5Ni9O16
_chemical_formula_sum   'Na5 Ni9 O16'
_cell_volume   310.23844261
_cell_formula_units_Z   1
loop_
 _symmetry_equiv_pos_site_id
 _symmetry_equiv_pos_as_xyz
  1  'x, y, z'
loop_
 _atom_site_type_symbol
 _atom_site_label
 _atom_site_symmetry_multiplicity
 _atom_site_fract_x
 _atom_site_fract_y
 _atom_site_fract_z
 _atom_site_occupancy
  Na  Na0  1  0.500000  0.118690  0.000000  1
  Na  Na1  1  0.500000  0.375000  0.000000  1
  Na  Na2  1  0.500000  0.631310  0.000000  1
  Na  Na3  1  0.500000  0.239373  0.500000  1
  Na  Na4  1  0.500000  0.510627  0.500000  1
  Ni  Ni5  1  0.000000  0.249480  0.000000  1
  Ni  Ni6  1  0.000000  0.753934  1.000000  1
  Ni  Ni7  1  1.000000  0.500520  0.000000  1
  Ni  Ni8  1  0.000000  0.996066  0.000000  1
  Ni  Ni9  1  0.000000  0.627085  0.500000  1
  Ni  Ni10  1  0.000000  0.875000  0.500000  1
  Ni  Ni11  1  0.000000  0.122915  0.500000  1
  Ni  Ni12  1  0.000000  0.375000  0.500000  1
  Ni  Ni13  1  0.500000  0.875000  0.000000  1
  O  O14  1  0.199425  0.496053  0.267635  1
  O  O15  1  0.199425  0.253947  0.267635  1
  O  O16  1  0.198644  0.760833  0.241315  1
  O  O17  1  0.198644  0.989167  0.241315  1
  O  O18  1  0.199478  0.375000  0.780000  1
  O  O19  1  0.191272  0.121403  0.791286  1
  O  O20  1  0.208116  0.875000  0.798856  1
  O  O21  1  0.191272  0.628597  0.791286  1
  O  O22  1  0.800522  0.375000  0.220000  1
  O  O23  1  0.808728  0.121403  0.208714  1
  O  O24  1  0.791884  0.875000  0.201144  1
  O  O25  1  0.808728  0.628597  0.208714  1
  O  O26  1  0.801356  0.760833  0.758685  1
  O  O27  1  0.801356  0.989167  0.758685  1
  O  O28  1  0.800575  0.496053  0.732365  1
  O  O29  1  0.800575  0.253947  0.732365  1
