# generated using pymatgen
data_Li4Fe2Si3O10
_symmetry_space_group_name_H-M   'P 1'
_cell_length_a   5.36645051
_cell_length_b   5.36645051
_cell_length_c   17.25766386
_cell_angle_alpha   81.92896054
_cell_angle_beta   98.07103946
_cell_angle_gamma   119.22944212
_symmetry_Int_Tables_number   1
_chemical_formula_structural   Li4Fe2Si3O10
_chemical_formula_sum   'Li8 Fe4 Si6 O20'
_cell_volume   427.93442645
_cell_formula_units_Z   2
loop_
 _symmetry_equiv_pos_site_id
 _symmetry_equiv_pos_as_xyz
  1  'x, y, z'
loop_
 _atom_site_type_symbol
 _atom_site_label
 _atom_site_symmetry_multiplicity
 _atom_site_fract_x
 _atom_site_fract_y
 _atom_site_fract_z
 _atom_site_occupancy
  Li  Li0  1  0.173374  0.682419  0.948451  1
  Li  Li1  1  0.420280  0.788511  0.768784  1
  Li  Li2  1  0.317581  0.826626  0.448451  1
  Li  Li3  1  0.211489  0.579720  0.268784  1
  Li  Li4  1  0.788511  0.420280  0.731216  1
  Li  Li5  1  0.682419  0.173374  0.551549  1
  Li  Li6  1  0.579720  0.211489  0.231216  1
  Li  Li7  1  0.826626  0.317581  0.051549  1
  Fe  Fe8  1  0.801841  0.009981  0.915696  1
  Fe  Fe9  1  0.990019  0.198159  0.415696  1
  Fe  Fe10  1  0.009981  0.801841  0.584304  1
  Fe  Fe11  1  0.198159  0.990019  0.084304  1
  Si  Si12  1  0.338155  0.466659  0.598937  1
  Si  Si13  1  0.115471  0.115471  0.750000  1
  Si  Si14  1  0.466659  0.338155  0.901063  1
  Si  Si15  1  0.533341  0.661845  0.098937  1
  Si  Si16  1  0.884529  0.884529  0.250000  1
  Si  Si17  1  0.661845  0.533341  0.401063  1
  O  O18  1  0.080828  0.836618  0.713238  1
  O  O19  1  0.163382  0.919172  0.213238  1
  O  O20  1  0.378673  0.783452  0.565606  1
  O  O21  1  0.443546  0.636010  0.890822  1
  O  O22  1  0.222100  0.411304  0.688079  1
  O  O23  1  0.214366  0.078561  0.952243  1
  O  O24  1  0.078561  0.214366  0.547757  1
  O  O25  1  0.216548  0.621327  0.065606  1
  O  O26  1  0.363990  0.556454  0.390822  1
  O  O27  1  0.411304  0.222100  0.811921  1
  O  O28  1  0.588696  0.777900  0.188079  1
  O  O29  1  0.636010  0.443546  0.609178  1
  O  O30  1  0.783452  0.378673  0.934394  1
  O  O31  1  0.921439  0.785634  0.452243  1
  O  O32  1  0.785634  0.921439  0.047757  1
  O  O33  1  0.777900  0.588696  0.311921  1
  O  O34  1  0.556454  0.363990  0.109178  1
  O  O35  1  0.621327  0.216548  0.434394  1
  O  O36  1  0.836618  0.080828  0.786762  1
  O  O37  1  0.919172  0.163382  0.286762  1
