# generated using pymatgen
data_V3(O2F)2
_symmetry_space_group_name_H-M   'P 1'
_cell_length_a   4.69413453
_cell_length_b   7.66450092
_cell_length_c   5.63377304
_cell_angle_alpha   94.40460113
_cell_angle_beta   92.83215416
_cell_angle_gamma   87.18235043
_symmetry_Int_Tables_number   1
_chemical_formula_structural   V3(O2F)2
_chemical_formula_sum   'V6 O8 F4'
_cell_volume   201.63799199
_cell_formula_units_Z   2
loop_
 _symmetry_equiv_pos_site_id
 _symmetry_equiv_pos_as_xyz
  1  'x, y, z'
loop_
 _atom_site_type_symbol
 _atom_site_label
 _atom_site_symmetry_multiplicity
 _atom_site_fract_x
 _atom_site_fract_y
 _atom_site_fract_z
 _atom_site_occupancy
  V  V0  1  0.495277  0.666063  0.170586  1
  V  V1  1  0.524275  0.008062  0.481642  1
  V  V2  1  0.518311  0.337411  0.818268  1
  V  V3  1  0.994702  0.658893  0.673282  1
  V  V4  1  0.969940  0.326499  0.347902  1
  V  V5  1  0.993784  0.004198  0.008149  1
  O  O6  1  0.806250  0.433279  0.626471  1
  O  O7  1  0.799540  0.104958  0.298440  1
  O  O8  1  0.697822  0.096553  0.789577  1
  O  O9  1  0.690078  0.776947  0.474311  1
  O  O10  1  0.713952  0.432376  0.140982  1
  O  O11  1  0.307916  0.567814  0.870547  1
  O  O12  1  0.297640  0.224877  0.516101  1
  O  O13  1  0.302459  0.900859  0.202017  1
  F  F14  1  0.803019  0.766397  0.972777  1
  F  F15  1  0.198915  0.236107  0.034277  1
  F  F16  1  0.193096  0.898087  0.704718  1
  F  F17  1  0.193027  0.560623  0.369952  1
