# generated using pymatgen
data_Ba3DyUFeO9
_symmetry_space_group_name_H-M   'P 1'
_cell_length_a   5.99836123
_cell_length_b   5.99836087
_cell_length_c   20.19555954
_cell_angle_alpha   63.54333444
_cell_angle_beta   63.54333712
_cell_angle_gamma   59.99999712
_symmetry_Int_Tables_number   1
_chemical_formula_structural   Ba3DyUFeO9
_chemical_formula_sum   'Ba6 Dy2 U2 Fe2 O18'
_cell_volume   539.63270265
_cell_formula_units_Z   2
loop_
 _symmetry_equiv_pos_site_id
 _symmetry_equiv_pos_as_xyz
  1  'x, y, z'
loop_
 _atom_site_type_symbol
 _atom_site_label
 _atom_site_symmetry_multiplicity
 _atom_site_fract_x
 _atom_site_fract_y
 _atom_site_fract_z
 _atom_site_occupancy
  Ba  Ba0  1  0.281373  0.281373  0.051960  1
  Ba  Ba1  1  0.485360  0.485360  0.181307  1
  Ba  Ba2  1  0.219408  0.219408  0.447259  1
  Ba  Ba3  1  0.696971  0.696971  0.303029  1
  Ba  Ba4  1  0.517035  0.517035  0.816298  1
  Ba  Ba5  1  0.721784  0.721784  0.944883  1
  Dy  Dy6  1  0.340422  0.340422  0.659578  1
  Dy  Dy7  1  0.717978  0.717978  0.615355  1
  U  U8  1  0.001086  0.001086  0.998914  1
  U  U9  1  0.972072  0.972072  0.361261  1
  Fe  Fe10  1  0.019395  0.019395  0.647272  1
  Fe  Fe11  1  0.502947  0.502947  0.497053  1
  O  O12  1  0.262813  0.767343  0.067501  1
  O  O13  1  0.200272  0.200272  0.293948  1
  O  O14  1  0.767343  0.262813  0.067501  1
  O  O15  1  0.200272  0.717612  0.293948  1
  O  O16  1  0.717612  0.200272  0.293948  1
  O  O17  1  0.767343  0.767343  0.067501  1
  O  O18  1  0.271898  0.271898  0.573684  1
  O  O19  1  0.248412  0.730934  0.429907  1
  O  O20  1  0.730934  0.248412  0.429907  1
  O  O21  1  0.271898  0.735150  0.573684  1
  O  O22  1  0.735150  0.271898  0.573684  1
  O  O23  1  0.730934  0.730934  0.429907  1
  O  O24  1  0.312908  0.799689  0.695904  1
  O  O25  1  0.234338  0.234338  0.931000  1
  O  O26  1  0.799689  0.312908  0.695904  1
  O  O27  1  0.234338  0.738323  0.931000  1
  O  O28  1  0.799689  0.799689  0.695904  1
  O  O29  1  0.738323  0.234338  0.931000  1
