# generated using pymatgen
data_Li5Cu5(NiO6)2
_symmetry_space_group_name_H-M   'P 1'
_cell_length_a   5.00729406
_cell_length_b   5.00729373
_cell_length_c   9.49574181
_cell_angle_alpha   88.17440915
_cell_angle_beta   91.82558594
_cell_angle_gamma   65.31446199
_symmetry_Int_Tables_number   1
_chemical_formula_structural   Li5Cu5(NiO6)2
_chemical_formula_sum   'Li5 Cu5 Ni2 O12'
_cell_volume   215.95145912
_cell_formula_units_Z   1
loop_
 _symmetry_equiv_pos_site_id
 _symmetry_equiv_pos_as_xyz
  1  'x, y, z'
loop_
 _atom_site_type_symbol
 _atom_site_label
 _atom_site_symmetry_multiplicity
 _atom_site_fract_x
 _atom_site_fract_y
 _atom_site_fract_z
 _atom_site_occupancy
  Li  Li0  1  0.159361  0.664723  0.507902  1
  Li  Li1  1  0.331771  0.847510  0.994166  1
  Li  Li2  1  0.664723  0.159361  0.992098  1
  Li  Li3  1  0.847510  0.331771  0.505834  1
  Li  Li4  1  0.917940  0.917940  0.750000  1
  Cu  Cu5  1  0.079910  0.079910  0.250000  1
  Cu  Cu6  1  0.997175  0.507610  0.997851  1
  Cu  Cu7  1  0.507610  0.997175  0.502149  1
  Cu  Cu8  1  0.418671  0.418671  0.250000  1
  Cu  Cu9  1  0.583400  0.583400  0.750000  1
  Ni  Ni10  1  0.247480  0.247480  0.750000  1
  Ni  Ni11  1  0.748749  0.748749  0.250000  1
  O  O12  1  0.993983  0.205987  0.881816  1
  O  O13  1  0.205987  0.993983  0.618184  1
  O  O14  1  0.076294  0.422100  0.345592  1
  O  O15  1  0.422100  0.076294  0.154408  1
  O  O16  1  0.305348  0.512177  0.872580  1
  O  O17  1  0.512177  0.305348  0.627420  1
  O  O18  1  0.497515  0.686992  0.376844  1
  O  O19  1  0.686992  0.497515  0.123156  1
  O  O20  1  0.567608  0.920032  0.847331  1
  O  O21  1  0.920032  0.567608  0.652669  1
  O  O22  1  0.810339  0.997328  0.379111  1
  O  O23  1  0.997328  0.810339  0.120889  1
