# generated using pymatgen
data_Li2VF4
_symmetry_space_group_name_H-M   'P 1'
_cell_length_a   6.00446788
_cell_length_b   6.09243558
_cell_length_c   6.09243614
_cell_angle_alpha   89.02846689
_cell_angle_beta   60.47445800
_cell_angle_gamma   60.47445545
_symmetry_Int_Tables_number   1
_chemical_formula_structural   Li2VF4
_chemical_formula_sum   'Li4 V2 F8'
_cell_volume   161.05862954
_cell_formula_units_Z   2
loop_
 _symmetry_equiv_pos_site_id
 _symmetry_equiv_pos_as_xyz
  1  'x, y, z'
loop_
 _atom_site_type_symbol
 _atom_site_label
 _atom_site_symmetry_multiplicity
 _atom_site_fract_x
 _atom_site_fract_y
 _atom_site_fract_z
 _atom_site_occupancy
  Li  Li0  1  0.750000  0.115789  0.884211  1
  Li  Li1  1  0.500000  0.500000  0.500000  1
  Li  Li2  1  0.250000  0.884211  0.115789  1
  Li  Li3  1  0.000000  0.500000  0.500000  1
  V  V4  1  0.500000  0.000000  0.500000  1
  V  V5  1  0.000000  0.500000  0.000000  1
  F  F6  1  0.987795  0.746654  0.253248  1
  F  F7  1  0.519053  0.736370  0.727352  1
  F  F8  1  0.980947  0.272648  0.263630  1
  F  F9  1  0.512205  0.746752  0.253346  1
  F  F10  1  0.487795  0.253248  0.746654  1
  F  F11  1  0.019053  0.727352  0.736370  1
  F  F12  1  0.480947  0.263630  0.272648  1
  F  F13  1  0.012205  0.253346  0.746752  1
