# generated using pymatgen
data_TiP6(WO8)3
_symmetry_space_group_name_H-M   'P 1'
_cell_length_a   8.92540109
_cell_length_b   8.92540134
_cell_length_c   8.92540119
_cell_angle_alpha   58.92197791
_cell_angle_beta   58.92197842
_cell_angle_gamma   58.92197859
_symmetry_Int_Tables_number   1
_chemical_formula_structural   TiP6(WO8)3
_chemical_formula_sum   'Ti1 P6 W3 O24'
_cell_volume   490.39992341
_cell_formula_units_Z   1
loop_
 _symmetry_equiv_pos_site_id
 _symmetry_equiv_pos_as_xyz
  1  'x, y, z'
loop_
 _atom_site_type_symbol
 _atom_site_label
 _atom_site_symmetry_multiplicity
 _atom_site_fract_x
 _atom_site_fract_y
 _atom_site_fract_z
 _atom_site_occupancy
  Ti  Ti0  1  0.858954  0.858954  0.858954  1
  P  P1  1  0.034266  0.750628  0.469334  1
  P  P2  1  0.469334  0.034266  0.750628  1
  P  P3  1  0.750628  0.469334  0.034266  1
  P  P4  1  0.245992  0.541024  0.962696  1
  P  P5  1  0.541024  0.962696  0.245992  1
  P  P6  1  0.962696  0.245992  0.541024  1
  W  W7  1  0.142469  0.142469  0.142469  1
  W  W8  1  0.357695  0.357695  0.357695  1
  W  W9  1  0.642706  0.642706  0.642706  1
  O  O10  1  0.129226  0.278837  0.511722  1
  O  O11  1  0.278837  0.511722  0.129226  1
  O  O12  1  0.060036  0.921461  0.288877  1
  O  O13  1  0.511722  0.129226  0.278837  1
  O  O14  1  0.209877  0.582589  0.440733  1
  O  O15  1  0.999364  0.781766  0.638597  1
  O  O16  1  0.288877  0.060036  0.921461  1
  O  O17  1  0.440733  0.209877  0.582589  1
  O  O18  1  0.582589  0.440733  0.209877  1
  O  O19  1  0.220067  0.368059  0.990229  1
  O  O20  1  0.075473  0.713941  0.935577  1
  O  O21  1  0.368059  0.990229  0.220067  1
  O  O22  1  0.638597  0.999364  0.781766  1
  O  O23  1  0.921461  0.288877  0.060036  1
  O  O24  1  0.781766  0.638597  0.999364  1
  O  O25  1  0.419768  0.564223  0.786421  1
  O  O26  1  0.564223  0.786421  0.419768  1
  O  O27  1  0.713941  0.935577  0.075473  1
  O  O28  1  0.990229  0.220067  0.368059  1
  O  O29  1  0.786421  0.419768  0.564223  1
  O  O30  1  0.491103  0.866374  0.719917  1
  O  O31  1  0.935577  0.075473  0.713941  1
  O  O32  1  0.719917  0.491103  0.866374  1
  O  O33  1  0.866374  0.719917  0.491103  1
