# generated using pymatgen
data_LiCuCO3
_symmetry_space_group_name_H-M   'P 1'
_cell_length_a   8.19402692
_cell_length_b   8.19456059
_cell_length_c   3.15872390
_cell_angle_alpha   90.00000000
_cell_angle_beta   90.00000000
_cell_angle_gamma   119.99819444
_symmetry_Int_Tables_number   1
_chemical_formula_structural   LiCuCO3
_chemical_formula_sum   'Li3 Cu3 C3 O9'
_cell_volume   183.68481550
_cell_formula_units_Z   3
loop_
 _symmetry_equiv_pos_site_id
 _symmetry_equiv_pos_as_xyz
  1  'x, y, z'
loop_
 _atom_site_type_symbol
 _atom_site_label
 _atom_site_symmetry_multiplicity
 _atom_site_fract_x
 _atom_site_fract_y
 _atom_site_fract_z
 _atom_site_occupancy
  Li  Li0  1  0.297206  0.004486  0.500000  1
  Li  Li1  1  0.995517  0.292720  0.500000  1
  Li  Li2  1  0.707267  0.702785  0.500000  1
  Cu  Cu3  1  0.001909  0.635601  0.000000  1
  Cu  Cu4  1  0.633694  0.998072  0.000000  1
  Cu  Cu5  1  0.364380  0.366316  0.000000  1
  C  C6  1  0.333326  0.666681  0.500000  1
  C  C7  1  0.000006  0.000005  0.000000  1
  C  C8  1  0.666687  0.333328  0.500000  1
  O  O9  1  0.223261  0.739227  0.500000  1
  O  O10  1  0.260766  0.484013  0.500000  1
  O  O11  1  0.515980  0.776739  0.500000  1
  O  O12  1  0.181283  0.065523  0.000000  1
  O  O13  1  0.580272  0.430423  0.500000  1
  O  O14  1  0.884253  0.818746  0.000000  1
  O  O15  1  0.569577  0.149868  0.500000  1
  O  O16  1  0.850128  0.419695  0.500000  1
  O  O17  1  0.934488  0.115771  0.000000  1
