# generated using pymatgen
data_Rb4SiO4
_symmetry_space_group_name_H-M   'P 1'
_cell_length_a   6.61374453
_cell_length_b   6.59987037
_cell_length_c   9.89646293
_cell_angle_alpha   71.93702747
_cell_angle_beta   79.04846404
_cell_angle_gamma   65.98895771
_symmetry_Int_Tables_number   1
_chemical_formula_structural   Rb4SiO4
_chemical_formula_sum   'Rb8 Si2 O8'
_cell_volume   374.13742168
_cell_formula_units_Z   2
loop_
 _symmetry_equiv_pos_site_id
 _symmetry_equiv_pos_as_xyz
  1  'x, y, z'
loop_
 _atom_site_type_symbol
 _atom_site_label
 _atom_site_symmetry_multiplicity
 _atom_site_fract_x
 _atom_site_fract_y
 _atom_site_fract_z
 _atom_site_occupancy
  Rb  Rb0  1  0.239143  0.765700  0.030195  1
  Rb  Rb1  1  0.274737  0.511079  0.439203  1
  Rb  Rb2  1  0.255795  0.398087  0.843704  1
  Rb  Rb3  1  0.214482  0.968628  0.621124  1
  Rb  Rb4  1  0.785518  0.031372  0.378876  1
  Rb  Rb5  1  0.744205  0.601913  0.156296  1
  Rb  Rb6  1  0.725263  0.488921  0.560797  1
  Rb  Rb7  1  0.760857  0.234300  0.969805  1
  Si  Si8  1  0.267770  0.161086  0.248534  1
  Si  Si9  1  0.732230  0.838913  0.751466  1
  O  O10  1  0.146879  0.159786  0.116020  1
  O  O11  1  0.063560  0.291037  0.359995  1
  O  O12  1  0.432742  0.313376  0.190659  1
  O  O13  1  0.582214  0.107553  0.662858  1
  O  O14  1  0.417786  0.892447  0.337142  1
  O  O15  1  0.567258  0.686624  0.809341  1
  O  O16  1  0.936440  0.708963  0.640005  1
  O  O17  1  0.853121  0.840214  0.883980  1
