# generated using pymatgen
data_Ba2LaCl7
_symmetry_space_group_name_H-M   'P 1'
_cell_length_a   12.23817613
_cell_length_b   7.57331292
_cell_length_c   14.05944980
_cell_angle_alpha   90.00000000
_cell_angle_beta   90.00000000
_cell_angle_gamma   87.12804407
_symmetry_Int_Tables_number   1
_chemical_formula_structural   Ba2LaCl7
_chemical_formula_sum   'Ba8 La4 Cl28'
_cell_volume   1301.44287518
_cell_formula_units_Z   4
loop_
 _symmetry_equiv_pos_site_id
 _symmetry_equiv_pos_as_xyz
  1  'x, y, z'
loop_
 _atom_site_type_symbol
 _atom_site_label
 _atom_site_symmetry_multiplicity
 _atom_site_fract_x
 _atom_site_fract_y
 _atom_site_fract_z
 _atom_site_occupancy
  Ba  Ba0  1  0.201183  0.318321  0.555698  1
  Ba  Ba1  1  0.215974  0.208435  0.866768  1
  Ba  Ba2  1  0.284026  0.791565  0.366768  1
  Ba  Ba3  1  0.298817  0.681679  0.055698  1
  Ba  Ba4  1  0.701183  0.318321  0.944302  1
  Ba  Ba5  1  0.715974  0.208435  0.633232  1
  Ba  Ba6  1  0.784026  0.791565  0.133233  1
  Ba  Ba7  1  0.798817  0.681679  0.444302  1
  La  La8  1  0.026130  0.203200  0.233603  1
  La  La9  1  0.473870  0.796800  0.733603  1
  La  La10  1  0.526130  0.203200  0.266397  1
  La  La11  1  0.973870  0.796800  0.766397  1
  Cl  Cl12  1  0.099228  0.852115  0.186519  1
  Cl  Cl13  1  0.100490  0.063210  0.411981  1
  Cl  Cl14  1  0.095883  0.514741  0.381885  1
  Cl  Cl15  1  0.110630  0.856589  0.925557  1
  Cl  Cl16  1  0.143086  0.352461  0.073155  1
  Cl  Cl17  1  0.144327  0.998103  0.689299  1
  Cl  Cl18  1  0.144419  0.531144  0.744108  1
  Cl  Cl19  1  0.355581  0.468856  0.244108  1
  Cl  Cl20  1  0.355673  0.001897  0.189299  1
  Cl  Cl21  1  0.356914  0.647539  0.573155  1
  Cl  Cl22  1  0.389370  0.143411  0.425557  1
  Cl  Cl23  1  0.404117  0.485259  0.881885  1
  Cl  Cl24  1  0.399510  0.936790  0.911981  1
  Cl  Cl25  1  0.400772  0.147885  0.686519  1
  Cl  Cl26  1  0.599228  0.852115  0.313481  1
  Cl  Cl27  1  0.600490  0.063210  0.088019  1
  Cl  Cl28  1  0.595883  0.514741  0.118115  1
  Cl  Cl29  1  0.610630  0.856589  0.574443  1
  Cl  Cl30  1  0.643086  0.352461  0.426845  1
  Cl  Cl31  1  0.644327  0.998103  0.810701  1
  Cl  Cl32  1  0.644419  0.531144  0.755892  1
  Cl  Cl33  1  0.855581  0.468856  0.255892  1
  Cl  Cl34  1  0.855673  0.001897  0.310701  1
  Cl  Cl35  1  0.856914  0.647539  0.926845  1
  Cl  Cl36  1  0.889370  0.143411  0.074443  1
  Cl  Cl37  1  0.904117  0.485259  0.618115  1
  Cl  Cl38  1  0.899510  0.936790  0.588019  1
  Cl  Cl39  1  0.900772  0.147885  0.813481  1
