# generated using pymatgen
data_NaLiTiAl(PO4)3
_symmetry_space_group_name_H-M   'P 1'
_cell_length_a   8.55887294
_cell_length_b   8.77607708
_cell_length_c   8.55887285
_cell_angle_alpha   119.50974197
_cell_angle_beta   59.75335264
_cell_angle_gamma   119.50974465
_symmetry_Int_Tables_number   1
_chemical_formula_structural   NaLiTiAl(PO4)3
_chemical_formula_sum   'Na2 Li2 Ti2 Al2 P6 O24'
_cell_volume   457.05617195
_cell_formula_units_Z   2
loop_
 _symmetry_equiv_pos_site_id
 _symmetry_equiv_pos_as_xyz
  1  'x, y, z'
loop_
 _atom_site_type_symbol
 _atom_site_label
 _atom_site_symmetry_multiplicity
 _atom_site_fract_x
 _atom_site_fract_y
 _atom_site_fract_z
 _atom_site_occupancy
  Na  Na0  1  0.011512  0.997257  0.001658  1
  Na  Na1  1  0.498342  0.502743  0.488488  1
  Li  Li2  1  0.154641  0.252099  0.747303  1
  Li  Li3  1  0.752697  0.247901  0.345359  1
  Ti  Ti4  1  0.642231  0.925681  0.640580  1
  Ti  Ti5  1  0.859420  0.574319  0.857769  1
  Al  Al6  1  0.152459  0.442262  0.146258  1
  Al  Al7  1  0.353742  0.057738  0.347541  1
  P  P8  1  0.042165  0.250000  0.457835  1
  P  P9  1  0.533681  0.754487  0.249305  1
  P  P10  1  0.250695  0.745513  0.966319  1
  P  P11  1  0.749478  0.250029  0.038543  1
  P  P12  1  0.461457  0.249971  0.750522  1
  P  P13  1  0.969355  0.750000  0.530645  1
  O  O14  1  0.286138  0.918817  0.135378  1
  O  O15  1  0.136297  0.929183  0.506957  1
  O  O16  1  0.057094  0.266700  0.278333  1
  O  O17  1  0.011524  0.423218  0.633887  1
  O  O18  1  0.078331  0.736462  0.941096  1
  O  O19  1  0.514793  0.936474  0.288741  1
  O  O20  1  0.364622  0.581183  0.213862  1
  O  O21  1  0.221667  0.233300  0.442906  1
  O  O22  1  0.558904  0.763538  0.421669  1
  O  O23  1  0.721620  0.740911  0.076066  1
  O  O24  1  0.211259  0.563526  0.985207  1
  O  O25  1  0.423934  0.759089  0.778380  1
  O  O26  1  0.582345  0.233341  0.228826  1
  O  O27  1  0.778425  0.422575  0.010027  1
  O  O28  1  0.271174  0.266659  0.917655  1
  O  O29  1  0.439440  0.236436  0.573054  1
  O  O30  1  0.781659  0.761257  0.556580  1
  O  O31  1  0.636735  0.421696  0.778330  1
  O  O32  1  0.489973  0.077425  0.721575  1
  O  O33  1  0.926946  0.263564  0.060560  1
  O  O34  1  0.993043  0.570817  0.363703  1
  O  O35  1  0.943420  0.738743  0.718341  1
  O  O36  1  0.866113  0.076782  0.488476  1
  O  O37  1  0.721670  0.078304  0.863265  1
