# generated using pymatgen
data_Pr20AlSi19N33Cl2O19
_symmetry_space_group_name_H-M   'P 1'
_cell_length_a   10.63147879
_cell_length_b   11.29658813
_cell_length_c   11.70058139
_cell_angle_alpha   90.00000000
_cell_angle_beta   90.00000000
_cell_angle_gamma   89.82384236
_symmetry_Int_Tables_number   1
_chemical_formula_structural   Pr20AlSi19N33Cl2O19
_chemical_formula_sum   'Pr20 Al1 Si19 N33 Cl2 O19'
_cell_volume   1405.22659710
_cell_formula_units_Z   1
loop_
 _symmetry_equiv_pos_site_id
 _symmetry_equiv_pos_as_xyz
  1  'x, y, z'
loop_
 _atom_site_type_symbol
 _atom_site_label
 _atom_site_symmetry_multiplicity
 _atom_site_fract_x
 _atom_site_fract_y
 _atom_site_fract_z
 _atom_site_occupancy
  Pr  Pr0  1  0.995409  0.999029  0.834884  1
  Pr  Pr1  1  0.106356  0.635480  0.000000  1
  Pr  Pr2  1  0.130254  0.879682  0.500000  1
  Pr  Pr3  1  0.139467  0.394658  0.234766  1
  Pr  Pr4  1  0.139467  0.394658  0.765234  1
  Pr  Pr5  1  0.354569  0.895931  0.242873  1
  Pr  Pr6  1  0.354569  0.895931  0.757127  1
  Pr  Pr7  1  0.377672  0.380018  0.500000  1
  Pr  Pr8  1  0.388210  0.126222  0.000000  1
  Pr  Pr9  1  0.501094  0.502103  0.828139  1
  Pr  Pr10  1  0.501094  0.502103  0.171861  1
  Pr  Pr11  1  0.634015  0.875490  0.000000  1
  Pr  Pr12  1  0.635769  0.620072  0.500000  1
  Pr  Pr13  1  0.646766  0.104739  0.228579  1
  Pr  Pr14  1  0.646766  0.104739  0.771421  1
  Pr  Pr15  1  0.858658  0.598926  0.237183  1
  Pr  Pr16  1  0.858658  0.598926  0.762817  1
  Pr  Pr17  1  0.876526  0.120545  0.500000  1
  Pr  Pr18  1  0.872966  0.372684  0.000000  1
  Pr  Pr19  1  0.995409  0.999029  0.165116  1
  Al  Al20  1  0.218135  0.892001  0.000000  1
  Si  Si21  1  0.115048  0.742573  0.248881  1
  Si  Si22  1  0.115048  0.742573  0.751119  1
  Si  Si23  1  0.151041  0.142925  0.635853  1
  Si  Si24  1  0.151041  0.142925  0.364147  1
  Si  Si25  1  0.288564  0.387473  0.000000  1
  Si  Si26  1  0.349062  0.642983  0.633666  1
  Si  Si27  1  0.349062  0.642983  0.366334  1
  Si  Si28  1  0.384316  0.242923  0.752922  1
  Si  Si29  1  0.384316  0.242923  0.247078  1
  Si  Si30  1  0.613780  0.757130  0.245766  1
  Si  Si31  1  0.613780  0.757130  0.754234  1
  Si  Si32  1  0.652198  0.354306  0.635625  1
  Si  Si33  1  0.652198  0.354306  0.364375  1
  Si  Si34  1  0.718890  0.613982  0.000000  1
  Si  Si35  1  0.783241  0.108034  0.000000  1
  Si  Si36  1  0.847646  0.855905  0.634714  1
  Si  Si37  1  0.847646  0.855905  0.365286  1
  Si  Si38  1  0.886014  0.261471  0.755774  1
  Si  Si39  1  0.886014  0.261471  0.244226  1
  N  N40  1  0.022748  0.191773  0.287868  1
  N  N41  1  0.022748  0.191773  0.712132  1
  N  N42  1  0.104396  0.110187  0.500000  1
  N  N43  1  0.169870  0.812797  0.127999  1
  N  N44  1  0.169870  0.812797  0.872001  1
  N  N45  1  0.227881  0.744347  0.645006  1
  N  N46  1  0.227881  0.744347  0.354994  1
  N  N47  1  0.270260  0.247382  0.648553  1
  N  N48  1  0.270260  0.247382  0.351447  1
  N  N49  1  0.332935  0.314963  0.122046  1
  N  N50  1  0.332935  0.314963  0.877954  1
  N  N51  1  0.400153  0.606381  0.500000  1
  N  N52  1  0.473947  0.693717  0.284698  1
  N  N53  1  0.473947  0.693717  0.715302  1
  N  N54  1  0.523043  0.305338  0.286146  1
  N  N55  1  0.523043  0.305338  0.713854  1
  N  N56  1  0.603344  0.387041  0.500000  1
  N  N57  1  0.618023  0.098239  0.000000  1
  N  N58  1  0.662844  0.682442  0.122802  1
  N  N59  1  0.662844  0.682442  0.877198  1
  N  N60  1  0.725573  0.755275  0.648604  1
  N  N61  1  0.725573  0.755275  0.351396  1
  N  N62  1  0.769879  0.250349  0.649899  1
  N  N63  1  0.769879  0.250349  0.350101  1
  N  N64  1  0.832190  0.182481  0.123070  1
  N  N65  1  0.832190  0.182481  0.876930  1
  N  N66  1  0.845375  0.965502  0.000000  1
  N  N67  1  0.879427  0.596044  0.000000  1
  N  N68  1  0.896149  0.891939  0.500000  1
  N  N69  1  0.920872  0.400863  0.200724  1
  N  N70  1  0.920872  0.400863  0.799276  1
  N  N71  1  0.975285  0.805596  0.287359  1
  N  N72  1  0.975285  0.805596  0.712641  1
  Cl  Cl73  1  0.424694  0.950773  0.500000  1
  Cl  Cl74  1  0.924231  0.549047  0.500000  1
  O  O75  1  0.086194  0.603282  0.206178  1
  O  O76  1  0.086194  0.603282  0.793822  1
  O  O77  1  0.131758  0.410770  0.000000  1
  O  O78  1  0.151884  0.037729  0.000000  1
  O  O79  1  0.182213  0.008610  0.689478  1
  O  O80  1  0.182213  0.008610  0.310522  1
  O  O81  1  0.318505  0.508044  0.311695  1
  O  O82  1  0.318505  0.508044  0.688305  1
  O  O83  1  0.348692  0.524103  0.000000  1
  O  O84  1  0.385707  0.914929  0.000000  1
  O  O85  1  0.416237  0.104139  0.205436  1
  O  O86  1  0.416237  0.104139  0.794564  1
  O  O87  1  0.580644  0.895714  0.203294  1
  O  O88  1  0.580644  0.895714  0.796706  1
  O  O89  1  0.650026  0.477233  0.000000  1
  O  O90  1  0.675990  0.490496  0.310207  1
  O  O91  1  0.675990  0.490496  0.689793  1
  O  O92  1  0.815094  0.990989  0.688053  1
  O  O93  1  0.815094  0.990989  0.311947  1
