# generated using pymatgen
data_Li5Sc2Fe3(SiO3)10
_symmetry_space_group_name_H-M   'P 1'
_cell_length_a   9.45890684
_cell_length_b   22.76442976
_cell_length_c   5.37983100
_cell_angle_alpha   85.68239110
_cell_angle_beta   78.08937401
_cell_angle_gamma   100.56606160
_symmetry_Int_Tables_number   1
_chemical_formula_structural   Li5Sc2Fe3(SiO3)10
_chemical_formula_sum   'Li10 Sc4 Fe6 Si20 O60'
_cell_volume   1106.52814619
_cell_formula_units_Z   2
loop_
 _symmetry_equiv_pos_site_id
 _symmetry_equiv_pos_as_xyz
  1  'x, y, z'
loop_
 _atom_site_type_symbol
 _atom_site_label
 _atom_site_symmetry_multiplicity
 _atom_site_fract_x
 _atom_site_fract_y
 _atom_site_fract_z
 _atom_site_occupancy
  Li  Li0  1  0.651105  0.302210  0.098895  1
  Li  Li1  1  0.548678  0.097357  0.701322  1
  Li  Li2  1  0.748725  0.497450  0.501275  1
  Li  Li3  1  0.948583  0.897165  0.301417  1
  Li  Li4  1  0.851198  0.702396  0.898802  1
  Li  Li5  1  0.148715  0.297430  0.101285  1
  Li  Li6  1  0.251113  0.502225  0.498887  1
  Li  Li7  1  0.450695  0.901389  0.299305  1
  Li  Li8  1  0.051084  0.102168  0.698916  1
  Li  Li9  1  0.349223  0.698447  0.900777  1
  Sc  Sc10  1  0.820522  0.641042  0.429478  1
  Sc  Sc11  1  0.620327  0.240656  0.629673  1
  Sc  Sc12  1  0.220327  0.440654  0.029673  1
  Sc  Sc13  1  0.020217  0.040435  0.229783  1
  Fe  Fe14  1  0.578669  0.157336  0.171331  1
  Fe  Fe15  1  0.778707  0.557413  0.971293  1
  Fe  Fe16  1  0.978530  0.957059  0.771470  1
  Fe  Fe17  1  0.379129  0.758259  0.370871  1
  Fe  Fe18  1  0.178721  0.357442  0.571279  1
  Fe  Fe19  1  0.420786  0.841572  0.829214  1
  Si  Si20  1  0.719723  0.035241  0.009121  1
  Si  Si21  1  0.879130  0.164857  0.389658  1
  Si  Si22  1  0.885738  0.364857  0.345397  1
  Si  Si23  1  0.915582  0.235615  0.856644  1
  Si  Si24  1  0.920058  0.435595  0.807722  1
  Si  Si25  1  0.515536  0.435595  0.256685  1
  Si  Si26  1  0.315518  0.035241  0.455637  1
  Si  Si27  1  0.714170  0.835860  0.053844  1
  Si  Si28  1  0.519969  0.635734  0.207956  1
  Si  Si29  1  0.320033  0.235615  0.407741  1
  Si  Si30  1  0.479120  0.364857  0.789747  1
  Si  Si31  1  0.677690  0.765508  0.590342  1
  Si  Si32  1  0.485770  0.564887  0.745466  1
  Si  Si33  1  0.683791  0.964010  0.548487  1
  Si  Si34  1  0.285727  0.164857  0.945485  1
  Si  Si35  1  0.079117  0.564887  0.189647  1
  Si  Si36  1  0.087818  0.765508  0.144150  1
  Si  Si37  1  0.115766  0.635734  0.656308  1
  Si  Si38  1  0.121691  0.835860  0.610296  1
  Si  Si39  1  0.280219  0.964010  0.987502  1
  O  O40  1  0.956697  0.199573  0.100400  1
  O  O41  1  0.917155  0.098827  0.419052  1
  O  O42  1  0.953919  0.201390  0.599494  1
  O  O43  1  0.897416  0.033775  0.942268  1
  O  O44  1  0.847431  0.401379  0.098966  1
  O  O45  1  0.646825  0.000328  0.300198  1
  O  O46  1  0.781949  0.298894  0.381765  1
  O  O47  1  0.983624  0.699284  0.182617  1
  O  O48  1  0.700342  0.164839  0.446229  1
  O  O49  1  0.900302  0.564974  0.246251  1
  O  O50  1  0.842878  0.399579  0.600071  1
  O  O51  1  0.880531  0.501995  0.784227  1
  O  O52  1  0.680455  0.101615  0.985460  1
  O  O53  1  0.936375  0.633997  0.724166  1
  O  O54  1  0.736420  0.233889  0.924256  1
  O  O55  1  0.353503  0.000328  0.199474  1
  O  O56  1  0.497468  0.233889  0.341855  1
  O  O57  1  0.697621  0.633997  0.141837  1
  O  O58  1  0.820517  0.901929  0.013772  1
  O  O59  1  0.621465  0.501995  0.213777  1
  O  O60  1  0.421160  0.101615  0.412926  1
  O  O61  1  0.753875  0.799964  0.300211  1
  O  O62  1  0.556701  0.399579  0.500349  1
  O  O63  1  0.664672  0.564974  0.688775  1
  O  O64  1  0.862831  0.964166  0.489822  1
  O  O65  1  0.464497  0.164839  0.888932  1
  O  O66  1  0.516945  0.298894  0.819340  1
  O  O67  1  0.715660  0.699284  0.618098  1
  O  O68  1  0.755008  0.801425  0.798303  1
  O  O69  1  0.553948  0.401379  -0.000346  1
  O  O70  1  0.242875  0.199573  0.200028  1
  O  O71  1  0.442992  0.599627  0.000153  1
  O  O72  1  0.280475  0.301992  0.384176  1
  O  O73  1  0.480567  0.702144  0.185774  1
  O  O74  1  0.534243  0.834290  0.115212  1
  O  O75  1  0.136357  0.033775  0.523958  1
  O  O76  1  0.336407  0.433927  0.324283  1
  O  O77  1  0.447443  0.601328  0.498994  1
  O  O78  1  0.247471  0.201390  0.699116  1
  O  O79  1  0.181673  0.098827  0.982121  1
  O  O80  1  0.382029  0.498897  0.781827  1
  O  O81  1  0.577779  0.897772  0.588181  1
  O  O82  1  0.499109  0.766760  0.649383  1
  O  O83  1  0.300361  0.364884  0.846151  1
  O  O84  1  0.642317  0.999344  0.800869  1
  O  O85  1  0.267651  0.766760  0.083857  1
  O  O86  1  0.064523  0.364884  0.288965  1
  O  O87  1  0.319993  0.897772  0.014046  1
  O  O88  1  0.116869  0.498897  0.219275  1
  O  O89  1  0.153885  0.601328  0.399678  1
  O  O90  1  0.300047  0.834290  0.550498  1
  O  O91  1  0.097520  0.433927  0.741790  1
  O  O92  1  0.021516  0.301992  0.813833  1
  O  O93  1  0.221577  0.702144  0.612082  1
  O  O94  1  0.357027  0.999344  0.699786  1
  O  O95  1  0.156634  0.599627  0.900219  1
  O  O96  1  0.101333  0.964166  0.046012  1
  O  O97  1  0.046089  0.799964  0.399824  1
  O  O98  1  0.081411  0.901929  0.584301  1
  O  O99  1  0.046417  0.801425  0.900272  1
