# generated using pymatgen
data_VOF2
_symmetry_space_group_name_H-M   'P 1'
_cell_length_a   5.18603190
_cell_length_b   11.85524556
_cell_length_c   5.38769281
_cell_angle_alpha   79.31176916
_cell_angle_beta   89.31388812
_cell_angle_gamma   102.36084319
_symmetry_Int_Tables_number   1
_chemical_formula_structural   VOF2
_chemical_formula_sum   'V6 O6 F12'
_cell_volume   317.49108647
_cell_formula_units_Z   6
loop_
 _symmetry_equiv_pos_site_id
 _symmetry_equiv_pos_as_xyz
  1  'x, y, z'
loop_
 _atom_site_type_symbol
 _atom_site_label
 _atom_site_symmetry_multiplicity
 _atom_site_fract_x
 _atom_site_fract_y
 _atom_site_fract_z
 _atom_site_occupancy
  V  V0  1  0.855277  0.664064  0.188581  1
  V  V1  1  0.696367  0.335867  0.311184  1
  V  V2  1  0.517831  0.997438  0.472964  1
  V  V3  1  0.355977  0.668988  0.653314  1
  V  V4  1  0.029845  0.004116  0.975559  1
  V  V5  1  0.184532  0.330419  0.804905  1
  O  O6  1  0.959432  0.356836  0.112025  1
  O  O7  1  0.617355  0.689876  0.448201  1
  O  O8  1  0.294447  0.028916  0.777075  1
  O  O9  1  0.692732  0.976085  0.229782  1
  O  O10  1  0.359791  0.309160  0.561777  1
  O  O11  1  0.094451  0.641939  0.389231  1
  F  F12  1  0.976963  0.167122  0.909375  1
  F  F13  1  0.885247  0.371876  0.612892  1
  F  F14  1  0.675198  0.166895  0.442331  1
  F  F15  1  0.652144  0.499752  0.243560  1
  F  F16  1  0.762044  0.961325  0.735644  1
  F  F17  1  0.427999  0.292780  0.070123  1
  F  F18  1  0.215002  0.035302  0.281788  1
  F  F19  1  0.557062  0.696100  0.951554  1
  F  F20  1  0.341982  0.499329  0.771741  1
  F  F21  1  0.315757  0.833897  0.586483  1
  F  F22  1  0.027565  0.637646  0.884061  1
  F  F23  1  0.005001  0.834274  0.085851  1
