# generated using pymatgen
data_Mg(ReO4)2
_symmetry_space_group_name_H-M   'P 1'
_cell_length_a   10.43632019
_cell_length_b   10.43622307
_cell_length_c   5.12739589
_cell_angle_alpha   89.99953357
_cell_angle_beta   90.00093228
_cell_angle_gamma   120.00129492
_symmetry_Int_Tables_number   1
_chemical_formula_structural   Mg(ReO4)2
_chemical_formula_sum   'Mg3 Re6 O24'
_cell_volume   483.62925529
_cell_formula_units_Z   3
loop_
 _symmetry_equiv_pos_site_id
 _symmetry_equiv_pos_as_xyz
  1  'x, y, z'
loop_
 _atom_site_type_symbol
 _atom_site_label
 _atom_site_symmetry_multiplicity
 _atom_site_fract_x
 _atom_site_fract_y
 _atom_site_fract_z
 _atom_site_occupancy
  Mg  Mg0  1  0.333329  0.666657  0.361736  1
  Mg  Mg1  1  0.000006  0.999999  0.862719  1
  Mg  Mg2  1  0.666672  0.333340  0.361738  1
  Re  Re3  1  -0.000018  0.682670  0.487826  1
  Re  Re4  1  -0.000000  0.355144  0.006434  1
  Re  Re5  1  0.317313  0.317326  0.487822  1
  Re  Re6  1  0.644857  0.644857  0.006428  1
  Re  Re7  1  0.355151  0.000005  0.006477  1
  Re  Re8  1  0.682680  0.000001  0.487837  1
  O  O9  1  0.999983  0.836951  0.628309  1
  O  O10  1  0.999984  0.693591  0.152219  1
  O  O11  1  0.162237  0.680176  0.576645  1
  O  O12  1  -0.000001  0.369921  0.671526  1
  O  O13  1  0.159079  0.510625  0.131997  1
  O  O14  1  0.999997  0.189550  0.077124  1
  O  O15  1  0.351550  0.840923  0.132058  1
  O  O16  1  0.319806  0.482091  0.576613  1
  O  O17  1  0.163033  0.163048  0.628295  1
  O  O18  1  0.306394  0.306407  0.152227  1
  O  O19  1  0.517919  0.837730  0.576634  1
  O  O20  1  0.489378  0.648456  0.131998  1
  O  O21  1  0.189553  0.000000  0.077121  1
  O  O22  1  0.482065  0.319824  0.576640  1
  O  O23  1  0.630072  0.630084  0.671527  1
  O  O24  1  0.648457  0.489378  0.131995  1
  O  O25  1  0.810450  0.810451  0.077123  1
  O  O26  1  0.369945  0.999996  0.671593  1
  O  O27  1  0.510632  0.159081  0.132041  1
  O  O28  1  0.837713  0.517905  0.576625  1
  O  O29  1  0.680190  0.162268  0.576641  1
  O  O30  1  0.840922  0.351543  0.132005  1
  O  O31  1  0.693607  0.000002  0.152246  1
  O  O32  1  0.836944  0.000000  0.628354  1
