# generated using pymatgen
data_ErH3(SO4)3
_symmetry_space_group_name_H-M   'P 1'
_cell_length_a   5.25420687
_cell_length_b   13.74229196
_cell_length_c   12.49901351
_cell_angle_alpha   90.00000000
_cell_angle_beta   92.40024248
_cell_angle_gamma   90.00000000
_symmetry_Int_Tables_number   1
_chemical_formula_structural   ErH3(SO4)3
_chemical_formula_sum   'Er4 H12 S12 O48'
_cell_volume   901.69753443
_cell_formula_units_Z   4
loop_
 _symmetry_equiv_pos_site_id
 _symmetry_equiv_pos_as_xyz
  1  'x, y, z'
loop_
 _atom_site_type_symbol
 _atom_site_label
 _atom_site_symmetry_multiplicity
 _atom_site_fract_x
 _atom_site_fract_y
 _atom_site_fract_z
 _atom_site_occupancy
  Er  Er0  1  0.231604  0.695427  0.978291  1
  Er  Er1  1  0.268396  0.195427  0.521709  1
  Er  Er2  1  0.731604  0.804573  0.478291  1
  Er  Er3  1  0.768396  0.304573  0.021709  1
  H  H4  1  0.042361  0.358575  0.778601  1
  H  H5  1  0.064937  0.922800  0.184372  1
  H  H6  1  0.135695  0.508804  0.618167  1
  H  H7  1  0.364305  0.008804  0.881833  1
  H  H8  1  0.457639  0.858575  0.721399  1
  H  H9  1  0.435063  0.422800  0.315628  1
  H  H10  1  0.564937  0.577200  0.684372  1
  H  H11  1  0.542361  0.141425  0.278601  1
  H  H12  1  0.635695  0.991196  0.118167  1
  H  H13  1  0.864305  0.491196  0.381833  1
  H  H14  1  0.935063  0.077200  0.815628  1
  H  H15  1  0.957639  0.641425  0.221399  1
  S  S16  1  0.226895  0.939676  0.609118  1
  S  S17  1  0.228248  0.623277  0.506386  1
  S  S18  1  0.271752  0.123277  0.993614  1
  S  S19  1  0.273105  0.439676  0.890882  1
  S  S20  1  0.225419  0.799284  0.270825  1
  S  S21  1  0.274581  0.299284  0.229175  1
  S  S22  1  0.725419  0.700716  0.770825  1
  S  S23  1  0.774581  0.200716  0.729175  1
  S  S24  1  0.726895  0.560324  0.109118  1
  S  S25  1  0.728248  0.876723  0.006386  1
  S  S26  1  0.771752  0.376723  0.493614  1
  S  S27  1  0.773105  0.060324  0.390882  1
  O  O28  1  0.036139  0.693070  0.542111  1
  O  O29  1  0.039430  0.088582  0.413266  1
  O  O30  1  0.016463  0.288349  0.183057  1
  O  O31  1  0.030148  0.789478  0.351204  1
  O  O32  1  0.102499  0.392351  0.965583  1
  O  O33  1  0.019849  0.167712  0.004417  1
  O  O34  1  0.144304  0.565092  0.414848  1
  O  O35  1  0.199268  0.400342  0.775760  1
  O  O36  1  0.215301  0.052533  0.893518  1
  O  O37  1  0.165468  0.732026  0.181423  1
  O  O38  1  0.244355  0.544758  0.884373  1
  O  O39  1  0.255645  0.044758  0.615627  1
  O  O40  1  0.223535  0.906275  0.227732  1
  O  O41  1  0.284699  0.552533  0.606482  1
  O  O42  1  0.300732  0.900342  0.724240  1
  O  O43  1  0.276465  0.406275  0.272268  1
  O  O44  1  0.334532  0.232026  0.318577  1
  O  O45  1  0.397501  0.892351  0.534417  1
  O  O46  1  0.355696  0.065092  0.085152  1
  O  O47  1  0.463861  0.193070  0.957889  1
  O  O48  1  0.480151  0.667712  0.495583  1
  O  O49  1  0.469852  0.289478  0.148796  1
  O  O50  1  0.539431  0.411418  0.913266  1
  O  O51  1  0.516463  0.211651  0.683057  1
  O  O52  1  0.483537  0.788349  0.316943  1
  O  O53  1  0.460569  0.588582  0.086734  1
  O  O54  1  0.530148  0.710522  0.851204  1
  O  O55  1  0.519849  0.332288  0.504417  1
  O  O56  1  0.536139  0.806930  0.042111  1
  O  O57  1  0.644304  0.934908  0.914848  1
  O  O58  1  0.602499  0.107649  0.465583  1
  O  O59  1  0.665468  0.767974  0.681423  1
  O  O60  1  0.723535  0.593725  0.727732  1
  O  O61  1  0.699268  0.099658  0.275760  1
  O  O62  1  0.715301  0.447467  0.393518  1
  O  O63  1  0.776465  0.093725  0.772268  1
  O  O64  1  0.744355  0.955242  0.384373  1
  O  O65  1  0.755645  0.455242  0.115627  1
  O  O66  1  0.834532  0.267974  0.818577  1
  O  O67  1  0.784699  0.947467  0.106482  1
  O  O68  1  0.800732  0.599658  0.224240  1
  O  O69  1  0.855696  0.434908  0.585152  1
  O  O70  1  0.980151  0.832288  0.995583  1
  O  O71  1  0.897501  0.607649  0.034417  1
  O  O72  1  0.969852  0.210522  0.648796  1
  O  O73  1  0.983537  0.711651  0.816943  1
  O  O74  1  0.960569  0.911418  0.586734  1
  O  O75  1  0.963861  0.306930  0.457889  1
